REMARK SMILES Nc1ncccc1C[N@@H+]1CC2(CC[NH2+]CC2)C[C@H]1C(=O)OCCOC(=O)c1ccc(-c2c3nc(c(-c4c(F)cc(S(=O)(=O)[O-])cc4F)c4ccc([nH]4)c(-c4c(F)cc(S(=O)(=O)[O-])cc4F)c4nc(c(-c5c(F)cc(S(=O)(=O)[O-])cc5F)c5ccc2[nH]5)C=C4)C=C3)cc1
REMARK SMILES IDX 22 1 21 2 19 3 20 4 18 5 9 6 10 7 11 9 17 10 12 11 16 12
REMARK SMILES IDX 13 13 15 14 14 15 8 18 7 19 2 20 3 21 4 22 6 23 5 24 1 25
REMARK SMILES IDX 23 28 24 29 25 30 26 31 27 32 28 33 92 34 29 35 91 36 30 37
REMARK SMILES IDX 31 38 32 39 85 40 33 41 90 42 84 43 86 44 34 45 89 46 83 47
REMARK SMILES IDX 82 48 35 50 69 51 48 52 68 53 49 54 52 55 67 56 87 57 50 58
REMARK SMILES IDX 51 59 66 61 88 62 53 63 36 64 37 65 46 66 38 67 39 68 45 69
REMARK SMILES IDX 47 70 40 71 41 72 42 73 43 74 44 75 70 76 71 77 80 78 72 79
REMARK SMILES IDX 73 80 79 81 81 82 74 83 75 84 76 85 77 86 78 87 54 88 55 89
REMARK SMILES IDX 64 90 56 91 57 92 63 93 65 94 58 95 59 96 60 97 61 98 62 99
REMARK H PARENT 9 8 14 16 14 17 1 26 1 27 86 49 52 60
REMARK Flexibility Score: inf
ROOT
ATOM      1  C   UNL     1      -0.209  -4.377   5.338  1.00  0.00     0.274 C 
ENDROOT
BRANCH   1   2
ATOM      2  O   UNL     1      -0.278  -3.748   4.046  1.00  0.00    -0.458 OA
BRANCH   2   3
ATOM      3  C   UNL     1      -0.032  -2.409   4.009  1.00  0.00     0.365 C 
ATOM      4  O   UNL     1       0.204  -1.729   5.004  1.00  0.00    -0.245 OA
BRANCH   3   5
ATOM      5  C   UNL     1      -0.147  -1.785   2.609  1.00  0.00     0.296 C 
ATOM      6  N   UNL     1      -0.095  -2.765   1.506  1.00  0.00    -0.319 N 
ATOM      7  C   UNL     1      -1.466  -3.130   1.146  1.00  0.00     0.270 C 
ATOM      8  H   UNL     1       0.379  -3.605   1.840  1.00  0.00     0.349 HD
ATOM      9  C   UNL     1      -2.428  -2.109   1.801  1.00  0.00     0.036 C 
ATOM     10  C   UNL     1      -1.486  -1.076   2.447  1.00  0.00     0.091 C 
ATOM     11  C   UNL     1      -3.334  -2.768   2.870  1.00  0.00     0.074 C 
ATOM     12  C   UNL     1      -3.359  -1.434   0.772  1.00  0.00     0.074 C 
ATOM     13  C   UNL     1      -4.412  -3.666   2.257  1.00  0.00     0.261 C 
ATOM     14  C   UNL     1      -4.398  -2.401   0.207  1.00  0.00     0.261 C 
ATOM     15  N   UNL     1      -5.231  -2.957   1.272  1.00  0.00    -0.346 N 
ATOM     16  H   UNL     1      -5.729  -2.198   1.737  1.00  0.00     0.346 HD
ATOM     17  H   UNL     1      -5.891  -3.616   0.860  1.00  0.00     0.346 HD
BRANCH   6  18
ATOM     18  C   UNL     1       0.795  -2.408   0.381  1.00  0.00     0.303 C 
BRANCH  18  19
ATOM     19  C   UNL     1       0.632  -1.025  -0.218  1.00  0.00     0.048 A 
ATOM     20  C   UNL     1       1.455   0.051   0.122  1.00  0.00     0.132 A 
ATOM     21  N   UNL     1       1.180   1.323  -0.221  1.00  0.00    -0.239 NA
ATOM     22  C   UNL     1       0.102   1.550  -0.995  1.00  0.00     0.113 A 
ATOM     23  C   UNL     1      -0.418  -0.761  -1.106  1.00  0.00     0.015 A 
ATOM     24  C   UNL     1      -0.703   0.545  -1.488  1.00  0.00     0.021 A 
BRANCH  20  25
ATOM     25  N   UNL     1       2.616  -0.095   0.855  1.00  0.00    -0.383 N 
ATOM     26  H   UNL     1       3.164   0.693   1.071  1.00  0.00     0.158 HD
ATOM     27  H   UNL     1       2.895  -0.988   1.161  1.00  0.00     0.158 HD
ENDBRANCH  20  25
ENDBRANCH  18  19
ENDBRANCH   6  18
ENDBRANCH   3   5
ENDBRANCH   2   3
ENDBRANCH   1   2
BRANCH   1  28
ATOM     28  C   UNL     1       1.011  -5.290   5.439  1.00  0.00     0.275 C 
BRANCH  28  29
ATOM     29  O   UNL     1       2.227  -4.535   5.317  1.00  0.00    -0.458 OA
BRANCH  29  30
ATOM     30  C   UNL     1       2.765  -4.521   4.075  1.00  0.00     0.338 C 
ATOM     31  O   UNL     1       2.386  -5.129   3.090  1.00  0.00    -0.246 OA
BRANCH  30  32
ATOM     32  C   UNL     1       3.875  -3.559   4.046  1.00  0.00     0.060 A 
ATOM     33  C   UNL     1       3.703  -2.379   3.323  1.00  0.00     0.016 A 
ATOM     34  C   UNL     1       5.098  -3.855   4.648  1.00  0.00     0.016 A 
ATOM     35  C   UNL     1       4.767  -1.495   3.176  1.00  0.00     0.010 A 
ATOM     36  C   UNL     1       6.165  -2.962   4.502  1.00  0.00     0.010 A 
ATOM     37  C   UNL     1       6.012  -1.787   3.746  1.00  0.00    -0.014 A 
BRANCH  37  38
ATOM     38  C   UNL     1       7.165  -0.894   3.483  1.00  0.00     0.031 A 
ATOM     39  C   UNL     1       8.240  -1.334   2.528  1.00  0.00     0.074 A 
ATOM     40  C   UNL     1       7.224   0.322   4.059  1.00  0.00     0.049 A 
ATOM     41  N   UNL     1       9.372  -0.751   2.231  1.00  0.00    -0.248 NA
ATOM     42  C   UNL     1       8.006  -2.596   1.806  1.00  0.00     0.031 C 
ATOM     43  C   UNL     1       6.207   0.886   4.949  1.00  0.00     0.029 A 
ATOM     44  N   UNL     1       8.180   1.302   3.981  1.00  0.00    -0.354 N 
ATOM     45  C   UNL     1       9.990  -1.574   1.297  1.00  0.00     0.074 A 
ATOM     46  C   UNL     1       9.117  -2.709   1.090  1.00  0.00     0.031 C 
ATOM     47  C   UNL     1       6.598   2.111   5.338  1.00  0.00     0.029 A 
ATOM     48  C   UNL     1       7.909   2.399   4.765  1.00  0.00     0.049 A 
ATOM     49  H   UNL     1       8.985   1.228   3.418  1.00  0.00     0.167 HD
ATOM     50  C   UNL     1      11.175  -1.394   0.666  1.00  0.00     0.037 A 
ATOM     51  C   UNL     1       8.651   3.495   5.015  1.00  0.00     0.037 A 
ATOM     52  C   UNL     1      12.037  -0.260   0.874  1.00  0.00     0.049 A 
ATOM     53  C   UNL     1      10.002   3.631   4.363  1.00  0.00     0.074 A 
ATOM     54  C   UNL     1      13.278  -0.006   0.317  1.00  0.00     0.029 A 
ATOM     55  N   UNL     1      11.741   0.816   1.698  1.00  0.00    -0.354 N 
ATOM     56  N   UNL     1      10.596   2.820   3.520  1.00  0.00    -0.248 NA
ATOM     57  C   UNL     1      10.787   4.826   4.702  1.00  0.00     0.031 C 
ATOM     58  C   UNL     1      13.744   1.213   0.822  1.00  0.00     0.029 A 
ATOM     59  C   UNL     1      12.777   1.734   1.666  1.00  0.00     0.049 A 
ATOM     60  H   UNL     1      10.917   0.912   2.228  1.00  0.00     0.167 HD
ATOM     61  C   UNL     1      11.811   3.420   3.209  1.00  0.00     0.074 A 
ATOM     62  C   UNL     1      11.864   4.666   3.945  1.00  0.00     0.031 C 
ATOM     63  C   UNL     1      12.798   2.979   2.391  1.00  0.00     0.037 A 
BRANCH  50  64
ATOM     64  C   UNL     1      11.618  -2.453  -0.303  1.00  0.00     0.058 A 
ATOM     65  C   UNL     1      11.040  -2.568  -1.577  1.00  0.00     0.135 A 
ATOM     66  C   UNL     1      12.665  -3.330   0.025  1.00  0.00     0.135 A 
ATOM     67  F   UNL     1      10.022  -1.768  -1.932  1.00  0.00    -0.206 F 
ATOM     68  C   UNL     1      11.479  -3.522  -2.490  1.00  0.00     0.059 A 
ATOM     69  C   UNL     1      13.133  -4.278  -0.880  1.00  0.00     0.059 A 
ATOM     70  F   UNL     1      13.247  -3.264   1.232  1.00  0.00    -0.206 F 
ATOM     71  C   UNL     1      12.527  -4.372  -2.132  1.00  0.00     0.060 A 
BRANCH  71  72
ATOM     72  S   UNL     1      13.100  -5.590  -3.336  1.00  0.00     0.124 S 
ATOM     73  O   UNL     1      12.016  -6.568  -3.298  1.00  0.00    -0.237 OA
ATOM     74  O   UNL     1      13.197  -4.801  -4.559  1.00  0.00    -0.237 OA
ATOM     75  O   UNL     1      14.372  -6.043  -2.782  1.00  0.00    -0.744 OA
ENDBRANCH  71  72
ENDBRANCH  50  64
BRANCH  51  76
ATOM     76  C   UNL     1       8.161   4.537   5.956  1.00  0.00     0.058 A 
ATOM     77  C   UNL     1       7.815   5.819   5.504  1.00  0.00     0.135 A 
ATOM     78  C   UNL     1       8.069   4.283   7.334  1.00  0.00     0.135 A 
ATOM     79  F   UNL     1       7.896   6.113   4.197  1.00  0.00    -0.206 F 
ATOM     80  C   UNL     1       7.427   6.823   6.386  1.00  0.00     0.059 A 
ATOM     81  C   UNL     1       7.658   5.262   8.232  1.00  0.00     0.059 A 
ATOM     82  F   UNL     1       8.378   3.070   7.817  1.00  0.00    -0.206 F 
ATOM     83  C   UNL     1       7.359   6.536   7.750  1.00  0.00     0.060 A 
BRANCH  83  84
ATOM     84  S   UNL     1       6.854   7.839   8.893  1.00  0.00     0.124 S 
ATOM     85  O   UNL     1       8.081   8.617   9.009  1.00  0.00    -0.237 OA
ATOM     86  O   UNL     1       5.758   8.479   8.173  1.00  0.00    -0.237 OA
ATOM     87  O   UNL     1       6.459   7.099  10.088  1.00  0.00    -0.744 OA
ENDBRANCH  83  84
ENDBRANCH  51  76
BRANCH  63  88
ATOM     88  C   UNL     1      13.994   3.870   2.213  1.00  0.00     0.058 A 
ATOM     89  C   UNL     1      14.976   3.990   3.208  1.00  0.00     0.135 A 
ATOM     90  C   UNL     1      14.181   4.576   1.014  1.00  0.00     0.135 A 
ATOM     91  F   UNL     1      14.840   3.339   4.374  1.00  0.00    -0.206 F 
ATOM     92  C   UNL     1      16.095   4.797   3.028  1.00  0.00     0.059 A 
ATOM     93  C   UNL     1      15.302   5.372   0.804  1.00  0.00     0.059 A 
ATOM     94  F   UNL     1      13.274   4.486   0.029  1.00  0.00    -0.206 F 
ATOM     95  C   UNL     1      16.248   5.485   1.823  1.00  0.00     0.060 A 
BRANCH  95  96
ATOM     96  S   UNL     1      17.720   6.504   1.585  1.00  0.00     0.124 S 
ATOM     97  O   UNL     1      17.387   7.687   2.372  1.00  0.00    -0.237 OA
ATOM     98  O   UNL     1      18.779   5.660   2.128  1.00  0.00    -0.237 OA
ATOM     99  O   UNL     1      17.764   6.703   0.140  1.00  0.00    -0.744 OA
ENDBRANCH  95  96
ENDBRANCH  63  88
ENDBRANCH  37  38
ENDBRANCH  30  32
ENDBRANCH  29  30
ENDBRANCH  28  29
ENDBRANCH   1  28
TORSDOF 17
