REMARK SMILES Cc1cc(N2CC[NH+]([C@@H](C(=O)OCCOC(=O)c3ccc(-c4c5nc(c(-c6c(F)cc(S(=O)(=O)[O-])cc6F)c6ccc([nH]6)c(-c6c(F)cc(S(=O)(=O)[O-])cc6F)c6nc(c(-c7c(F)cc(S(=O)(=O)[O-])cc7F)c7ccc4[nH]7)C=C6)C=C5)cc3)c3c[nH]c4ccccc34)CC2)nc2ccccc12
REMARK SMILES IDX 14 1 13 2 12 3 10 4 11 5 9 6 8 7 5 8 6 9 94 10 7 11 93 12
REMARK SMILES IDX 4 14 1 15 2 16 3 17 101 18 96 19 100 20 95 21 97 22 99 23
REMARK SMILES IDX 98 24 84 25 85 26 92 27 86 28 87 29 91 30 88 32 90 33 89 34
REMARK SMILES IDX 15 35 16 36 17 37 18 38 19 39 83 40 20 41 82 42 21 43 22 44
REMARK SMILES IDX 23 45 76 46 24 47 81 48 75 49 77 50 25 51 80 52 74 53 73 54
REMARK SMILES IDX 26 56 60 57 39 58 59 59 40 60 43 61 58 62 78 63 41 64 42 65
REMARK SMILES IDX 57 67 79 68 44 69 27 70 28 71 37 72 29 73 30 74 36 75 38 76
REMARK SMILES IDX 31 77 32 78 33 79 34 80 35 81 61 82 62 83 71 84 63 85 64 86
REMARK SMILES IDX 70 87 72 88 65 89 66 90 67 91 68 92 69 93 45 94 46 95 55 96
REMARK SMILES IDX 47 97 48 98 54 99 56 100 49 101 50 102 51 103 52 104 53 105
REMARK H PARENT 8 13 86 31 77 55 43 66
REMARK Flexibility Score: inf
ROOT
ATOM      1  C   UNL     1      -0.851  -5.534  -1.706  1.00  0.00     0.275 C 
ENDROOT
BRANCH   1   2
ATOM      2  C   UNL     1      -2.187  -4.833  -1.912  1.00  0.00     0.274 C 
BRANCH   2   3
ATOM      3  O   UNL     1      -2.860  -4.616  -0.648  1.00  0.00    -0.457 OA
BRANCH   3   4
ATOM      4  C   UNL     1      -4.028  -5.282  -0.461  1.00  0.00     0.370 C 
ATOM      5  O   UNL     1      -4.404  -6.193  -1.202  1.00  0.00    -0.245 OA
BRANCH   4   6
ATOM      6  C   UNL     1      -4.950  -4.695   0.610  1.00  0.00     0.328 C 
BRANCH   6   7
ATOM      7  N   UNL     1      -5.302  -3.235   0.484  1.00  0.00    -0.316 N 
ATOM      8  N   UNL     1      -2.989  -1.656  -0.302  1.00  0.00    -0.345 N 
ATOM      9  C   UNL     1      -3.143  -2.117   1.073  1.00  0.00     0.179 C 
ATOM     10  C   UNL     1      -4.094  -1.708  -1.254  1.00  0.00     0.179 C 
ATOM     11  C   UNL     1      -4.619  -2.317   1.403  1.00  0.00     0.285 C 
ATOM     12  C   UNL     1      -5.247  -2.696  -0.883  1.00  0.00     0.285 C 
ATOM     13  H   UNL     1      -6.279  -3.266   0.776  1.00  0.00     0.349 HD
BRANCH   8  14
ATOM     14  C   UNL     1      -1.941  -0.770  -0.436  1.00  0.00     0.129 A 
ATOM     15  C   UNL     1      -1.435   2.954  -0.133  1.00  0.00     0.045 C 
ATOM     16  C   UNL     1      -1.125   1.491  -0.266  1.00  0.00    -0.038 A 
ATOM     17  C   UNL     1      -2.185   0.595  -0.411  1.00  0.00     0.051 A 
ATOM     18  C   UNL     1       0.189   0.980  -0.192  1.00  0.00     0.003 A 
ATOM     19  C   UNL     1       0.344  -0.423  -0.247  1.00  0.00     0.073 A 
ATOM     20  C   UNL     1       1.337   1.790  -0.044  1.00  0.00     0.010 A 
ATOM     21  N   UNL     1      -0.692  -1.266  -0.360  1.00  0.00    -0.231 NA
ATOM     22  C   UNL     1       1.621  -0.960  -0.150  1.00  0.00     0.029 A 
ATOM     23  C   UNL     1       2.609   1.227   0.046  1.00  0.00     0.001 A 
ATOM     24  C   UNL     1       2.752  -0.153  -0.005  1.00  0.00     0.002 A 
ENDBRANCH   8  14
ENDBRANCH   6   7
BRANCH   6  25
ATOM     25  C   UNL     1      -4.811  -5.082   2.078  1.00  0.00     0.046 A 
ATOM     26  C   UNL     1      -5.930  -5.329   2.867  1.00  0.00     0.094 A 
ATOM     27  C   UNL     1      -3.702  -4.993   3.003  1.00  0.00     0.009 A 
ATOM     28  N   UNL     1      -5.605  -5.074   4.168  1.00  0.00    -0.361 N 
ATOM     29  C   UNL     1      -4.270  -4.773   4.264  1.00  0.00     0.046 A 
ATOM     30  C   UNL     1      -2.296  -4.898   2.913  1.00  0.00     0.011 A 
ATOM     31  H   UNL     1      -6.234  -5.102   4.924  1.00  0.00     0.166 HD
ATOM     32  C   UNL     1      -3.546  -4.297   5.365  1.00  0.00     0.026 A 
ATOM     33  C   UNL     1      -1.541  -4.515   4.034  1.00  0.00     0.001 A 
ATOM     34  C   UNL     1      -2.166  -4.166   5.226  1.00  0.00     0.002 A 
ENDBRANCH   6  25
ENDBRANCH   4   6
ENDBRANCH   3   4
ENDBRANCH   2   3
ENDBRANCH   1   2
BRANCH   1  35
ATOM     35  O   UNL     1      -1.111  -6.771  -1.028  1.00  0.00    -0.458 OA
BRANCH  35  36
ATOM     36  C   UNL     1      -0.451  -6.945   0.134  1.00  0.00     0.338 C 
ATOM     37  O   UNL     1       0.576  -6.365   0.481  1.00  0.00    -0.246 OA
BRANCH  36  38
ATOM     38  C   UNL     1      -1.210  -7.846   1.029  1.00  0.00     0.060 A 
ATOM     39  C   UNL     1      -2.585  -8.040   0.866  1.00  0.00     0.016 A 
ATOM     40  C   UNL     1      -0.568  -8.382   2.146  1.00  0.00     0.016 A 
ATOM     41  C   UNL     1      -3.334  -8.660   1.861  1.00  0.00     0.010 A 
ATOM     42  C   UNL     1      -1.302  -9.096   3.094  1.00  0.00     0.010 A 
ATOM     43  C   UNL     1      -2.696  -9.218   2.974  1.00  0.00    -0.014 A 
BRANCH  43  44
ATOM     44  C   UNL     1      -3.462  -9.997   3.977  1.00  0.00     0.031 A 
ATOM     45  C   UNL     1      -3.505  -9.571   5.415  1.00  0.00     0.074 A 
ATOM     46  C   UNL     1      -4.068 -11.134   3.590  1.00  0.00     0.049 A 
ATOM     47  N   UNL     1      -3.904 -10.245   6.463  1.00  0.00    -0.248 NA
ATOM     48  C   UNL     1      -3.029  -8.214   5.717  1.00  0.00     0.031 C 
ATOM     49  C   UNL     1      -4.122 -11.635   2.215  1.00  0.00     0.029 A 
ATOM     50  N   UNL     1      -4.731 -12.087   4.319  1.00  0.00    -0.354 N 
ATOM     51  C   UNL     1      -3.685  -9.416   7.557  1.00  0.00     0.074 A 
ATOM     52  C   UNL     1      -3.127  -8.182   7.040  1.00  0.00     0.031 C 
ATOM     53  C   UNL     1      -4.776 -12.802   2.198  1.00  0.00     0.029 A 
ATOM     54  C   UNL     1      -5.110 -13.173   3.568  1.00  0.00     0.049 A 
ATOM     55  H   UNL     1      -4.917 -12.002   5.282  1.00  0.00     0.167 HD
ATOM     56  C   UNL     1      -3.918  -9.674   8.867  1.00  0.00     0.037 A 
ATOM     57  C   UNL     1      -5.610 -14.366   3.937  1.00  0.00     0.037 A 
ATOM     58  C   UNL     1      -4.496 -10.905   9.357  1.00  0.00     0.049 A 
ATOM     59  C   UNL     1      -5.858 -14.635   5.386  1.00  0.00     0.074 A 
ATOM     60  C   UNL     1      -4.786 -11.264  10.663  1.00  0.00     0.029 A 
ATOM     61  N   UNL     1      -4.880 -11.976   8.560  1.00  0.00    -0.354 N 
ATOM     62  N   UNL     1      -5.585 -13.874   6.419  1.00  0.00    -0.248 NA
ATOM     63  C   UNL     1      -6.480 -15.919   5.721  1.00  0.00     0.031 C 
ATOM     64  C   UNL     1      -5.316 -12.561  10.658  1.00  0.00     0.029 A 
ATOM     65  C   UNL     1      -5.400 -12.995   9.345  1.00  0.00     0.049 A 
ATOM     66  H   UNL     1      -4.794 -12.008   7.580  1.00  0.00     0.167 HD
ATOM     67  C   UNL     1      -6.003 -14.587   7.534  1.00  0.00     0.074 A 
ATOM     68  C   UNL     1      -6.567 -15.831   7.042  1.00  0.00     0.031 C 
ATOM     69  C   UNL     1      -5.928 -14.242   8.844  1.00  0.00     0.037 A 
BRANCH  56  70
ATOM     70  C   UNL     1      -3.510  -8.628   9.871  1.00  0.00     0.058 A 
ATOM     71  C   UNL     1      -4.205  -7.416  10.015  1.00  0.00     0.135 A 
ATOM     72  C   UNL     1      -2.421  -8.858  10.729  1.00  0.00     0.135 A 
ATOM     73  F   UNL     1      -5.245  -7.134   9.215  1.00  0.00    -0.206 F 
ATOM     74  C   UNL     1      -3.819  -6.461  10.953  1.00  0.00     0.059 A 
ATOM     75  C   UNL     1      -2.032  -7.928  11.690  1.00  0.00     0.059 A 
ATOM     76  F   UNL     1      -1.720 -10.000  10.640  1.00  0.00    -0.206 F 
ATOM     77  C   UNL     1      -2.727  -6.724  11.783  1.00  0.00     0.060 A 
BRANCH  77  78
ATOM     78  S   UNL     1      -2.232  -5.476  12.991  1.00  0.00     0.124 S 
ATOM     79  O   UNL     1      -1.553  -4.503  12.141  1.00  0.00    -0.237 OA
ATOM     80  O   UNL     1      -3.513  -5.047  13.544  1.00  0.00    -0.237 OA
ATOM     81  O   UNL     1      -1.373  -6.215  13.911  1.00  0.00    -0.744 OA
ENDBRANCH  77  78
ENDBRANCH  56  70
BRANCH  57  82
ATOM     82  C   UNL     1      -5.862 -15.378   2.882  1.00  0.00     0.058 A 
ATOM     83  C   UNL     1      -7.157 -15.618   2.409  1.00  0.00     0.135 A 
ATOM     84  C   UNL     1      -4.790 -15.999   2.219  1.00  0.00     0.135 A 
ATOM     85  F   UNL     1      -8.210 -15.050   3.017  1.00  0.00    -0.206 F 
ATOM     86  C   UNL     1      -7.383 -16.410   1.288  1.00  0.00     0.059 A 
ATOM     87  C   UNL     1      -4.989 -16.774   1.083  1.00  0.00     0.059 A 
ATOM     88  F   UNL     1      -3.530 -15.780   2.627  1.00  0.00    -0.206 F 
ATOM     89  C   UNL     1      -6.289 -16.965   0.619  1.00  0.00     0.060 A 
BRANCH  89  90
ATOM     90  S   UNL     1      -6.575 -17.847  -0.932  1.00  0.00     0.124 S 
ATOM     91  O   UNL     1      -7.056 -19.137  -0.452  1.00  0.00    -0.237 OA
ATOM     92  O   UNL     1      -7.566 -17.002  -1.591  1.00  0.00    -0.237 OA
ATOM     93  O   UNL     1      -5.257 -17.855  -1.559  1.00  0.00    -0.744 OA
ENDBRANCH  89  90
ENDBRANCH  57  82
BRANCH  69  94
ATOM     94  C   UNL     1      -6.489 -15.231   9.826  1.00  0.00     0.058 A 
ATOM     95  C   UNL     1      -5.825 -16.432  10.121  1.00  0.00     0.135 A 
ATOM     96  C   UNL     1      -7.725 -14.992  10.447  1.00  0.00     0.135 A 
ATOM     97  F   UNL     1      -4.644 -16.710   9.548  1.00  0.00    -0.206 F 
ATOM     98  C   UNL     1      -6.394 -17.388  10.958  1.00  0.00     0.059 A 
ATOM     99  C   UNL     1      -8.301 -15.923  11.305  1.00  0.00     0.059 A 
ATOM    100  F   UNL     1      -8.395 -13.854  10.206  1.00  0.00    -0.206 F 
ATOM    101  C   UNL     1      -7.639 -17.130  11.533  1.00  0.00     0.060 A 
BRANCH 101 102
ATOM    102  S   UNL     1      -8.394 -18.393  12.579  1.00  0.00     0.124 S 
ATOM    103  O   UNL     1      -8.905 -19.329  11.583  1.00  0.00    -0.237 OA
ATOM    104  O   UNL     1      -7.263 -18.866  13.371  1.00  0.00    -0.237 OA
ATOM    105  O   UNL     1      -9.407 -17.652  13.325  1.00  0.00    -0.744 OA
ENDBRANCH 101 102
ENDBRANCH  69  94
ENDBRANCH  43  44
ENDBRANCH  36  38
ENDBRANCH  35  36
ENDBRANCH   1  35
TORSDOF 17
