REMARK SMILES CS(=O)(=O)c1ccc(/C=C(/C(=O)OCCOC(=O)c2ccc(-c3c4nc(c(-c5c(F)cc(S(=O)(=O)[O-])cc5F)c5ccc([nH]5)c(-c5c(F)cc(S(=O)(=O)[O-])cc5F)c5nc(c(-c6c(F)cc(S(=O)(=O)[O-])cc6F)c6ccc3[nH]6)C=C5)C=C4)cc2)c2ccc(F)cc2)cc1
REMARK SMILES IDX 15 1 14 2 13 3 11 4 12 5 10 6 9 7 8 8 5 9 6 10 93 11 7 12
REMARK SMILES IDX 92 13 2 14 1 15 3 16 4 17 85 18 86 19 91 20 87 21 90 22
REMARK SMILES IDX 88 23 89 24 16 25 17 26 18 27 19 28 20 29 84 30 21 31 83 32
REMARK SMILES IDX 22 33 23 34 24 35 77 36 25 37 82 38 76 39 78 40 26 41 81 42
REMARK SMILES IDX 75 43 74 44 27 46 61 47 40 48 60 49 41 50 44 51 59 52 79 53
REMARK SMILES IDX 42 54 43 55 58 57 80 58 45 59 28 60 29 61 38 62 30 63 31 64
REMARK SMILES IDX 37 65 39 66 32 67 33 68 34 69 35 70 36 71 62 72 63 73 72 74
REMARK SMILES IDX 64 75 65 76 71 77 73 78 66 79 67 80 68 81 69 82 70 83 46 84
REMARK SMILES IDX 47 85 56 86 48 87 49 88 55 89 57 90 50 91 51 92 52 93 53 94
REMARK SMILES IDX 54 95
REMARK H PARENT 78 45 44 56
REMARK Flexibility Score: inf
ROOT
ATOM      1  C   UNL     1       3.555 -11.427  -0.949  1.00  0.00     0.275 C 
ENDROOT
BRANCH   1   2
ATOM      2  C   UNL     1       3.510 -10.223  -1.886  1.00  0.00     0.275 C 
BRANCH   2   3
ATOM      3  O   UNL     1       3.171  -9.023  -1.159  1.00  0.00    -0.458 OA
BRANCH   3   4
ATOM      4  C   UNL     1       1.870  -8.641  -1.257  1.00  0.00     0.338 C 
ATOM      5  O   UNL     1       1.019  -9.189  -1.942  1.00  0.00    -0.246 OA
BRANCH   4   6
ATOM      6  C   UNL     1       1.568  -7.460  -0.394  1.00  0.00     0.067 C 
ATOM      7  C   UNL     1       2.424  -6.411  -0.414  1.00  0.00     0.024 C 
BRANCH   7   8
ATOM      8  C   UNL     1       2.183  -5.045   0.105  1.00  0.00    -0.025 A 
ATOM      9  C   UNL     1       1.491  -2.401   0.775  1.00  0.00     0.067 A 
ATOM     10  C   UNL     1       1.106  -3.453   1.603  1.00  0.00     0.021 A 
ATOM     11  C   UNL     1       2.294  -2.645  -0.339  1.00  0.00     0.021 A 
ATOM     12  C   UNL     1       1.488  -4.758   1.286  1.00  0.00     0.009 A 
ATOM     13  C   UNL     1       2.631  -3.964  -0.670  1.00  0.00     0.009 A 
BRANCH   9  14
ATOM     14  S   UNL     1       0.867  -0.789   1.172  1.00  0.00     0.175 S 
ATOM     15  C   UNL     1       1.278   0.275  -0.178  1.00  0.00     0.163 C 
ATOM     16  O   UNL     1       1.611  -0.329   2.330  1.00  0.00    -0.224 OA
ATOM     17  O   UNL     1      -0.578  -0.896   1.194  1.00  0.00    -0.224 OA
ENDBRANCH   9  14
ENDBRANCH   7   8
BRANCH   6  18
ATOM     18  C   UNL     1       0.261  -7.420   0.289  1.00  0.00    -0.011 A 
ATOM     19  C   UNL     1       0.175  -7.825   1.633  1.00  0.00     0.012 A 
ATOM     20  C   UNL     1      -0.879  -6.920  -0.354  1.00  0.00     0.012 A 
ATOM     21  C   UNL     1      -1.022  -7.681   2.337  1.00  0.00     0.040 A 
ATOM     22  C   UNL     1      -2.079  -6.796   0.348  1.00  0.00     0.040 A 
ATOM     23  C   UNL     1      -2.136  -7.165   1.688  1.00  0.00     0.123 A 
ATOM     24  F   UNL     1      -3.282  -7.021   2.364  1.00  0.00    -0.207 F 
ENDBRANCH   6  18
ENDBRANCH   4   6
ENDBRANCH   3   4
ENDBRANCH   2   3
ENDBRANCH   1   2
BRANCH   1  25
ATOM     25  O   UNL     1       2.253 -11.652  -0.381  1.00  0.00    -0.458 OA
BRANCH  25  26
ATOM     26  C   UNL     1       2.184 -11.622   0.970  1.00  0.00     0.338 C 
ATOM     27  O   UNL     1       3.118 -11.493   1.748  1.00  0.00    -0.246 OA
BRANCH  26  28
ATOM     28  C   UNL     1       0.784 -11.747   1.421  1.00  0.00     0.060 A 
ATOM     29  C   UNL     1      -0.219 -10.988   0.827  1.00  0.00     0.016 A 
ATOM     30  C   UNL     1       0.493 -12.512   2.552  1.00  0.00     0.016 A 
ATOM     31  C   UNL     1      -1.468 -10.888   1.443  1.00  0.00     0.010 A 
ATOM     32  C   UNL     1      -0.798 -12.493   3.098  1.00  0.00     0.010 A 
ATOM     33  C   UNL     1      -1.785 -11.631   2.591  1.00  0.00    -0.014 A 
BRANCH  33  34
ATOM     34  C   UNL     1      -3.101 -11.458   3.291  1.00  0.00     0.031 A 
ATOM     35  C   UNL     1      -3.151 -11.195   4.783  1.00  0.00     0.074 A 
ATOM     36  C   UNL     1      -4.268 -11.502   2.612  1.00  0.00     0.049 A 
ATOM     37  N   UNL     1      -4.171 -11.261   5.603  1.00  0.00    -0.248 NA
ATOM     38  C   UNL     1      -1.886 -10.835   5.443  1.00  0.00     0.031 C 
ATOM     39  C   UNL     1      -4.409 -11.697   1.169  1.00  0.00     0.029 A 
ATOM     40  N   UNL     1      -5.566 -11.370   3.050  1.00  0.00    -0.354 N 
ATOM     41  C   UNL     1      -3.657 -11.044   6.878  1.00  0.00     0.074 A 
ATOM     42  C   UNL     1      -2.235 -10.825   6.723  1.00  0.00     0.031 C 
ATOM     43  C   UNL     1      -5.702 -11.594   0.831  1.00  0.00     0.029 A 
ATOM     44  C   UNL     1      -6.499 -11.451   2.043  1.00  0.00     0.049 A 
ATOM     45  H   UNL     1      -5.804 -11.230   3.994  1.00  0.00     0.167 HD
ATOM     46  C   UNL     1      -4.308 -11.036   8.068  1.00  0.00     0.037 A 
ATOM     47  C   UNL     1      -7.846 -11.467   2.078  1.00  0.00     0.037 A 
ATOM     48  C   UNL     1      -5.738 -11.148   8.214  1.00  0.00     0.049 A 
ATOM     49  C   UNL     1      -8.552 -11.433   3.402  1.00  0.00     0.074 A 
ATOM     50  C   UNL     1      -6.489 -11.135   9.378  1.00  0.00     0.029 A 
ATOM     51  N   UNL     1      -6.637 -11.253   7.164  1.00  0.00    -0.354 N 
ATOM     52  N   UNL     1      -8.040 -11.357   4.606  1.00  0.00    -0.248 NA
ATOM     53  C   UNL     1     -10.019 -11.528   3.375  1.00  0.00     0.031 C 
ATOM     54  C   UNL     1      -7.840 -11.253   9.033  1.00  0.00     0.029 A 
ATOM     55  C   UNL     1      -7.933 -11.306   7.652  1.00  0.00     0.049 A 
ATOM     56  H   UNL     1      -6.391 -11.284   6.211  1.00  0.00     0.167 HD
ATOM     57  C   UNL     1      -9.119 -11.405   5.480  1.00  0.00     0.074 A 
ATOM     58  C   UNL     1     -10.315 -11.486   4.667  1.00  0.00     0.031 C 
ATOM     59  C   UNL     1      -9.115 -11.397   6.835  1.00  0.00     0.037 A 
BRANCH  46  60
ATOM     60  C   UNL     1      -3.482 -10.943   9.323  1.00  0.00     0.058 A 
ATOM     61  C   UNL     1      -2.889  -9.745   9.746  1.00  0.00     0.135 A 
ATOM     62  C   UNL     1      -3.333 -12.073  10.146  1.00  0.00     0.135 A 
ATOM     63  F   UNL     1      -2.985  -8.640   8.992  1.00  0.00    -0.206 F 
ATOM     64  C   UNL     1      -2.158  -9.675  10.931  1.00  0.00     0.059 A 
ATOM     65  C   UNL     1      -2.628 -12.020  11.345  1.00  0.00     0.059 A 
ATOM     66  F   UNL     1      -3.884 -13.245   9.791  1.00  0.00    -0.206 F 
ATOM     67  C   UNL     1      -2.032 -10.818  11.723  1.00  0.00     0.060 A 
BRANCH  67  68
ATOM     68  S   UNL     1      -1.092 -10.715  13.261  1.00  0.00     0.124 S 
ATOM     69  O   UNL     1       0.280 -10.729  12.764  1.00  0.00    -0.237 OA
ATOM     70  O   UNL     1      -1.547  -9.448  13.825  1.00  0.00    -0.237 OA
ATOM     71  O   UNL     1      -1.507 -11.907  13.994  1.00  0.00    -0.744 OA
ENDBRANCH  67  68
ENDBRANCH  46  60
BRANCH  47  72
ATOM     72  C   UNL     1      -8.611 -11.581   0.808  1.00  0.00     0.058 A 
ATOM     73  C   UNL     1      -9.341 -10.495   0.304  1.00  0.00     0.135 A 
ATOM     74  C   UNL     1      -8.587 -12.763   0.051  1.00  0.00     0.135 A 
ATOM     75  F   UNL     1      -9.410  -9.351   1.001  1.00  0.00    -0.206 F 
ATOM     76  C   UNL     1     -10.012 -10.572  -0.913  1.00  0.00     0.059 A 
ATOM     77  C   UNL     1      -9.225 -12.855  -1.181  1.00  0.00     0.059 A 
ATOM     78  F   UNL     1      -7.895 -13.827   0.487  1.00  0.00    -0.206 F 
ATOM     79  C   UNL     1      -9.939 -11.754  -1.653  1.00  0.00     0.060 A 
BRANCH  79  80
ATOM     80  S   UNL     1     -10.725 -11.822  -3.277  1.00  0.00     0.124 S 
ATOM     81  O   UNL     1     -12.115 -12.082  -2.920  1.00  0.00    -0.237 OA
ATOM     82  O   UNL     1     -10.443 -10.496  -3.819  1.00  0.00    -0.237 OA
ATOM     83  O   UNL     1     -10.025 -12.920  -3.939  1.00  0.00    -0.744 OA
ENDBRANCH  79  80
ENDBRANCH  47  72
BRANCH  59  84
ATOM     84  C   UNL     1     -10.448 -11.471   7.523  1.00  0.00     0.058 A 
ATOM     85  C   UNL     1     -11.158 -12.678   7.611  1.00  0.00     0.135 A 
ATOM     86  C   UNL     1     -11.009 -10.332   8.120  1.00  0.00     0.135 A 
ATOM     87  F   UNL     1     -10.665 -13.794   7.049  1.00  0.00    -0.206 F 
ATOM     88  C   UNL     1     -12.392 -12.749   8.248  1.00  0.00     0.059 A 
ATOM     89  C   UNL     1     -12.234 -10.384   8.779  1.00  0.00     0.059 A 
ATOM     90  F   UNL     1     -10.366  -9.155   8.070  1.00  0.00    -0.206 F 
ATOM     91  C   UNL     1     -12.924 -11.595   8.826  1.00  0.00     0.060 A 
BRANCH  91  92
ATOM     92  S   UNL     1     -14.521 -11.700   9.662  1.00  0.00     0.124 S 
ATOM     93  O   UNL     1     -15.444 -11.724   8.532  1.00  0.00    -0.237 OA
ATOM     94  O   UNL     1     -14.404 -12.947  10.412  1.00  0.00    -0.237 OA
ATOM     95  O   UNL     1     -14.556 -10.489  10.477  1.00  0.00    -0.744 OA
ENDBRANCH  91  92
ENDBRANCH  59  84
ENDBRANCH  33  34
ENDBRANCH  26  28
ENDBRANCH  25  26
ENDBRANCH   1  25
TORSDOF 17
