REMARK SMILES Cc1cccc(C[C@H](C(=O)OCCOC(=O)c2ccc(-c3c4nc(c(-c5c(F)cc(S(=O)(=O)[O-])cc5F)c5ccc([nH]5)c(-c5c(F)cc(S(=O)(=O)[O-])cc5F)c5nc(c(-c6c(F)cc(S(=O)(=O)[O-])cc6F)c6ccc3[nH]6)C=C5)C=C4)cc2)[C@@H]2CCCC[C@@H]2O)c1
REMARK SMILES IDX 13 1 12 2 11 3 9 4 10 5 8 6 7 7 6 8 1 9 2 10 3 11 90 12 4 13
REMARK SMILES IDX 5 14 83 15 84 16 88 17 85 18 87 19 86 20 89 21 14 23 15 24
REMARK SMILES IDX 16 25 17 26 18 27 82 28 19 29 81 30 20 31 21 32 22 33 75 34
REMARK SMILES IDX 23 35 80 36 74 37 76 38 24 39 79 40 73 41 72 42 25 44 59 45
REMARK SMILES IDX 38 46 58 47 39 48 42 49 57 50 77 51 40 52 41 53 56 55 78 56
REMARK SMILES IDX 43 57 26 58 27 59 36 60 28 61 29 62 35 63 37 64 30 65 31 66
REMARK SMILES IDX 32 67 33 68 34 69 60 70 61 71 70 72 62 73 63 74 69 75 71 76
REMARK SMILES IDX 64 77 65 78 66 79 67 80 68 81 44 82 45 83 54 84 46 85 47 86
REMARK SMILES IDX 53 87 55 88 48 89 49 90 50 91 51 92 52 93
REMARK H PARENT 89 22 76 43 42 54
REMARK Flexibility Score: inf
ROOT
ATOM      1  C   UNL     1      -0.281   4.137   2.374  1.00  0.00     0.275 C 
ENDROOT
BRANCH   1   2
ATOM      2  C   UNL     1      -0.321   3.345   1.038  1.00  0.00     0.274 C 
BRANCH   2   3
ATOM      3  O   UNL     1      -1.536   3.424   0.255  1.00  0.00    -0.462 OA
BRANCH   3   4
ATOM      4  C   UNL     1      -1.960   4.665  -0.093  1.00  0.00     0.309 C 
ATOM      5  O   UNL     1      -1.330   5.680   0.176  1.00  0.00    -0.252 OA
BRANCH   4   6
ATOM      6  C   UNL     1      -3.185   4.620  -1.038  1.00  0.00     0.109 C 
BRANCH   6   7
ATOM      7  C   UNL     1      -4.142   5.748  -0.533  1.00  0.00     0.051 C 
BRANCH   7   8
ATOM      8  C   UNL     1      -5.518   6.051  -1.104  1.00  0.00    -0.047 A 
ATOM      9  C   UNL     1      -8.384   8.507  -0.378  1.00  0.00     0.044 C 
ATOM     10  C   UNL     1      -7.525   7.479  -1.053  1.00  0.00    -0.051 A 
ATOM     11  C   UNL     1      -7.919   6.969  -2.290  1.00  0.00     0.003 A 
ATOM     12  C   UNL     1      -6.312   7.041  -0.486  1.00  0.00     0.007 A 
ATOM     13  C   UNL     1      -7.188   5.943  -2.872  1.00  0.00     0.001 A 
ATOM     14  C   UNL     1      -6.036   5.457  -2.245  1.00  0.00     0.004 A 
ENDBRANCH   7   8
ENDBRANCH   6   7
BRANCH   6  15
ATOM     15  C   UNL     1      -2.483   4.660  -2.442  1.00  0.00     0.032 C 
ATOM     16  C   UNL     1      -1.839   6.009  -2.787  1.00  0.00     0.007 C 
ATOM     17  C   UNL     1      -3.110   4.031  -3.706  1.00  0.00     0.118 C 
ATOM     18  C   UNL     1      -2.808   6.960  -3.453  1.00  0.00     0.001 C 
ATOM     19  C   UNL     1      -3.820   4.963  -4.698  1.00  0.00     0.032 C 
ATOM     20  C   UNL     1      -3.285   6.391  -4.776  1.00  0.00     0.003 C 
BRANCH  17  21
ATOM     21  O   UNL     1      -3.864   2.851  -3.462  1.00  0.00    -0.393 OA
ATOM     22  H   UNL     1      -4.679   3.080  -2.989  1.00  0.00     0.210 HD
ENDBRANCH  17  21
ENDBRANCH   6  15
ENDBRANCH   4   6
ENDBRANCH   3   4
ENDBRANCH   2   3
ENDBRANCH   1   2
BRANCH   1  23
ATOM     23  O   UNL     1      -1.342   3.799   3.277  1.00  0.00    -0.458 OA
BRANCH  23  24
ATOM     24  C   UNL     1      -2.555   4.290   2.939  1.00  0.00     0.338 C 
ATOM     25  O   UNL     1      -2.840   5.451   2.643  1.00  0.00    -0.246 OA
BRANCH  24  26
ATOM     26  C   UNL     1      -3.395   3.155   2.524  1.00  0.00     0.060 A 
ATOM     27  C   UNL     1      -4.719   3.340   2.106  1.00  0.00     0.016 A 
ATOM     28  C   UNL     1      -2.734   1.938   2.293  1.00  0.00     0.016 A 
ATOM     29  C   UNL     1      -5.395   2.263   1.556  1.00  0.00     0.010 A 
ATOM     30  C   UNL     1      -3.297   0.983   1.507  1.00  0.00     0.010 A 
ATOM     31  C   UNL     1      -4.668   1.082   1.329  1.00  0.00    -0.014 A 
BRANCH  31  32
ATOM     32  C   UNL     1      -5.259  -0.217   1.589  1.00  0.00     0.031 A 
ATOM     33  C   UNL     1      -5.684  -1.023   0.460  1.00  0.00     0.074 A 
ATOM     34  C   UNL     1      -5.243  -0.548   2.902  1.00  0.00     0.049 A 
ATOM     35  N   UNL     1      -6.904  -1.357   0.225  1.00  0.00    -0.248 NA
ATOM     36  C   UNL     1      -4.735  -1.443  -0.576  1.00  0.00     0.031 C 
ATOM     37  C   UNL     1      -5.645  -1.748   3.594  1.00  0.00     0.029 A 
ATOM     38  N   UNL     1      -4.937   0.347   3.941  1.00  0.00    -0.354 N 
ATOM     39  C   UNL     1      -6.798  -2.376  -0.693  1.00  0.00     0.074 A 
ATOM     40  C   UNL     1      -5.519  -2.202  -1.350  1.00  0.00     0.031 C 
ATOM     41  C   UNL     1      -5.904  -1.418   4.878  1.00  0.00     0.029 A 
ATOM     42  C   UNL     1      -5.686   0.019   5.059  1.00  0.00     0.049 A 
ATOM     43  H   UNL     1      -4.293   1.089   3.883  1.00  0.00     0.167 HD
ATOM     44  C   UNL     1      -7.496  -3.534  -0.516  1.00  0.00     0.037 A 
ATOM     45  C   UNL     1      -6.594   0.951   5.471  1.00  0.00     0.037 A 
ATOM     46  C   UNL     1      -8.100  -3.557   0.820  1.00  0.00     0.049 A 
ATOM     47  C   UNL     1      -7.985   0.533   5.036  1.00  0.00     0.074 A 
ATOM     48  C   UNL     1      -7.698  -4.176   1.994  1.00  0.00     0.029 A 
ATOM     49  N   UNL     1      -9.004  -2.565   1.207  1.00  0.00    -0.354 N 
ATOM     50  N   UNL     1      -8.222  -0.309   4.062  1.00  0.00    -0.248 NA
ATOM     51  C   UNL     1      -9.204   0.942   5.722  1.00  0.00     0.031 C 
ATOM     52  C   UNL     1      -8.326  -3.529   3.087  1.00  0.00     0.029 A 
ATOM     53  C   UNL     1      -9.104  -2.501   2.588  1.00  0.00     0.049 A 
ATOM     54  H   UNL     1      -9.502  -1.988   0.584  1.00  0.00     0.167 HD
ATOM     55  C   UNL     1      -9.553  -0.644   4.050  1.00  0.00     0.074 A 
ATOM     56  C   UNL     1     -10.128   0.188   5.095  1.00  0.00     0.031 C 
ATOM     57  C   UNL     1     -10.066  -1.618   3.235  1.00  0.00     0.037 A 
BRANCH  44  58
ATOM     58  C   UNL     1      -7.192  -4.732  -1.384  1.00  0.00     0.058 A 
ATOM     59  C   UNL     1      -7.047  -6.035  -0.875  1.00  0.00     0.135 A 
ATOM     60  C   UNL     1      -7.009  -4.606  -2.781  1.00  0.00     0.135 A 
ATOM     61  F   UNL     1      -7.239  -6.312   0.419  1.00  0.00    -0.206 F 
ATOM     62  C   UNL     1      -6.674  -7.118  -1.672  1.00  0.00     0.059 A 
ATOM     63  C   UNL     1      -6.611  -5.670  -3.596  1.00  0.00     0.059 A 
ATOM     64  F   UNL     1      -7.187  -3.418  -3.385  1.00  0.00    -0.206 F 
ATOM     65  C   UNL     1      -6.443  -6.927  -3.028  1.00  0.00     0.060 A 
BRANCH  65  66
ATOM     66  S   UNL     1      -5.914  -8.339  -4.017  1.00  0.00     0.124 S 
ATOM     67  O   UNL     1      -4.789  -8.855  -3.241  1.00  0.00    -0.237 OA
ATOM     68  O   UNL     1      -7.114  -9.169  -4.023  1.00  0.00    -0.237 OA
ATOM     69  O   UNL     1      -5.556  -7.742  -5.300  1.00  0.00    -0.744 OA
ENDBRANCH  65  66
ENDBRANCH  44  58
BRANCH  45  70
ATOM     70  C   UNL     1      -6.041   2.343   5.673  1.00  0.00     0.058 A 
ATOM     71  C   UNL     1      -4.851   2.475   6.436  1.00  0.00     0.135 A 
ATOM     72  C   UNL     1      -6.498   3.525   5.070  1.00  0.00     0.135 A 
ATOM     73  F   UNL     1      -4.346   1.409   7.081  1.00  0.00    -0.206 F 
ATOM     74  C   UNL     1      -4.125   3.664   6.536  1.00  0.00     0.059 A 
ATOM     75  C   UNL     1      -5.788   4.745   5.168  1.00  0.00     0.059 A 
ATOM     76  F   UNL     1      -7.614   3.514   4.326  1.00  0.00    -0.206 F 
ATOM     77  C   UNL     1      -4.595   4.801   5.893  1.00  0.00     0.060 A 
BRANCH  77  78
ATOM     78  S   UNL     1      -3.585   6.309   5.999  1.00  0.00     0.124 S 
ATOM     79  O   UNL     1      -3.801   6.709   7.386  1.00  0.00    -0.237 OA
ATOM     80  O   UNL     1      -2.246   5.806   5.705  1.00  0.00    -0.237 OA
ATOM     81  O   UNL     1      -4.180   7.188   4.999  1.00  0.00    -0.744 OA
ENDBRANCH  77  78
ENDBRANCH  45  70
BRANCH  57  82
ATOM     82  C   UNL     1     -11.526  -1.972   3.045  1.00  0.00     0.058 A 
ATOM     83  C   UNL     1     -12.585  -1.065   3.184  1.00  0.00     0.135 A 
ATOM     84  C   UNL     1     -11.884  -3.252   2.538  1.00  0.00     0.135 A 
ATOM     85  F   UNL     1     -12.375   0.201   3.568  1.00  0.00    -0.206 F 
ATOM     86  C   UNL     1     -13.904  -1.411   2.880  1.00  0.00     0.059 A 
ATOM     87  C   UNL     1     -13.174  -3.590   2.159  1.00  0.00     0.059 A 
ATOM     88  F   UNL     1     -10.982  -4.232   2.371  1.00  0.00    -0.206 F 
ATOM     89  C   UNL     1     -14.186  -2.669   2.355  1.00  0.00     0.060 A 
BRANCH  89  90
ATOM     90  S   UNL     1     -15.861  -3.097   1.860  1.00  0.00     0.124 S 
ATOM     91  O   UNL     1     -16.369  -3.726   3.075  1.00  0.00    -0.237 OA
ATOM     92  O   UNL     1     -16.442  -1.800   1.529  1.00  0.00    -0.237 OA
ATOM     93  O   UNL     1     -15.652  -3.990   0.724  1.00  0.00    -0.744 OA
ENDBRANCH  89  90
ENDBRANCH  57  82
ENDBRANCH  31  32
ENDBRANCH  24  26
ENDBRANCH  23  24
ENDBRANCH   1  23
TORSDOF 18
