REMARK SMILES Cc1ccnc(C(=O)c2[nH]c3ccc(F)cc3c2CC(=O)OCCOC(=O)c2ccc(-c3c4nc(c(-c5c(F)cc(S(=O)(=O)[O-])cc5F)c5ccc([nH]5)c(-c5c(F)cc(S(=O)(=O)[O-])cc5F)c5nc(c(-c6c(F)cc(S(=O)(=O)[O-])cc6F)c6ccc3[nH]6)C=C5)C=C4)cc2)c1
REMARK SMILES IDX 23 1 22 2 20 3 21 4 19 5 18 6 9 7 10 8 11 9 17 11 12 12
REMARK SMILES IDX 16 13 13 14 14 15 15 16 7 17 8 18 6 19 1 20 2 21 3 22 94 23
REMARK SMILES IDX 4 24 5 25 24 26 25 27 26 28 27 29 28 30 29 31 93 32 30 33
REMARK SMILES IDX 92 34 31 35 32 36 33 37 86 38 34 39 91 40 85 41 87 42 35 43
REMARK SMILES IDX 90 44 84 45 83 46 36 48 70 49 49 50 69 51 50 52 53 53 68 54
REMARK SMILES IDX 88 55 51 56 52 57 67 59 89 60 54 61 37 62 38 63 47 64 39 65
REMARK SMILES IDX 40 66 46 67 48 68 41 69 42 70 43 71 44 72 45 73 71 74 72 75
REMARK SMILES IDX 81 76 73 77 74 78 80 79 82 80 75 81 76 82 77 83 78 84 79 85
REMARK SMILES IDX 55 86 56 87 65 88 57 89 58 90 64 91 66 92 59 93 60 94 61 95
REMARK SMILES IDX 62 96 63 97
REMARK H PARENT 10 10 87 47 53 58
REMARK Flexibility Score: inf
ROOT
ATOM      1  C   UNL     1      -2.921  -1.895  -2.132  1.00  0.00     0.274 C 
ENDROOT
BRANCH   1   2
ATOM      2  O   UNL     1      -1.988  -2.830  -1.548  1.00  0.00    -0.462 OA
BRANCH   2   3
ATOM      3  C   UNL     1      -1.123  -3.418  -2.417  1.00  0.00     0.310 C 
ATOM      4  O   UNL     1      -1.266  -3.392  -3.638  1.00  0.00    -0.252 OA
BRANCH   3   5
ATOM      5  C   UNL     1       0.130  -3.978  -1.782  1.00  0.00     0.161 C 
BRANCH   5   6
ATOM      6  C   UNL     1       0.076  -4.384  -0.339  1.00  0.00     0.000 A 
ATOM      7  C   UNL     1       0.765  -3.826   0.745  1.00  0.00     0.093 A 
ATOM      8  N   UNL     1       0.670  -4.735   1.777  1.00  0.00    -0.352 N 
ATOM      9  C   UNL     1      -0.031  -5.854   1.394  1.00  0.00     0.046 A 
ATOM     10  H   UNL     1       1.055  -4.601   2.673  1.00  0.00     0.167 HD
ATOM     11  C   UNL     1      -0.491  -5.625   0.101  1.00  0.00     0.007 A 
ATOM     12  C   UNL     1      -0.230  -7.068   2.064  1.00  0.00     0.030 A 
ATOM     13  C   UNL     1      -1.238  -6.633  -0.544  1.00  0.00     0.049 A 
ATOM     14  C   UNL     1      -0.948  -8.064   1.396  1.00  0.00     0.041 A 
ATOM     15  C   UNL     1      -1.454  -7.837   0.123  1.00  0.00     0.123 A 
ATOM     16  F   UNL     1      -2.138  -8.811  -0.494  1.00  0.00    -0.207 F 
BRANCH   7  17
ATOM     17  C   UNL     1       1.733  -2.733   0.810  1.00  0.00     0.227 C 
ATOM     18  O   UNL     1       2.918  -2.977   0.585  1.00  0.00    -0.285 OA
BRANCH  17  19
ATOM     19  C   UNL     1       1.343  -1.331   1.239  1.00  0.00     0.113 A 
ATOM     20  C   UNL     1      -1.664   0.926   1.787  1.00  0.00     0.044 C 
ATOM     21  C   UNL     1      -0.254   0.422   1.687  1.00  0.00    -0.047 A 
ATOM     22  C   UNL     1       0.791   1.344   1.597  1.00  0.00     0.023 A 
ATOM     23  C   UNL     1       0.033  -0.948   1.540  1.00  0.00     0.036 A 
ATOM     24  C   UNL     1       2.072   0.873   1.378  1.00  0.00     0.112 A 
ATOM     25  N   UNL     1       2.366  -0.429   1.204  1.00  0.00    -0.253 NA
ENDBRANCH  17  19
ENDBRANCH   7  17
ENDBRANCH   5   6
ENDBRANCH   3   5
ENDBRANCH   2   3
ENDBRANCH   1   2
BRANCH   1  26
ATOM     26  C   UNL     1      -2.448  -0.443  -1.946  1.00  0.00     0.275 C 
BRANCH  26  27
ATOM     27  O   UNL     1      -1.283  -0.104  -2.736  1.00  0.00    -0.458 OA
BRANCH  27  28
ATOM     28  C   UNL     1      -0.129  -0.477  -2.145  1.00  0.00     0.338 C 
ATOM     29  O   UNL     1      -0.046  -1.096  -1.102  1.00  0.00    -0.246 OA
BRANCH  28  30
ATOM     30  C   UNL     1       1.099  -0.185  -2.873  1.00  0.00     0.060 A 
ATOM     31  C   UNL     1       1.621  -1.183  -3.697  1.00  0.00     0.016 A 
ATOM     32  C   UNL     1       1.877   0.909  -2.484  1.00  0.00     0.016 A 
ATOM     33  C   UNL     1       2.935  -1.085  -4.139  1.00  0.00     0.010 A 
ATOM     34  C   UNL     1       3.176   1.035  -2.977  1.00  0.00     0.010 A 
ATOM     35  C   UNL     1       3.708   0.042  -3.814  1.00  0.00    -0.014 A 
BRANCH  35  36
ATOM     36  C   UNL     1       4.967   0.276  -4.556  1.00  0.00     0.031 A 
ATOM     37  C   UNL     1       6.322   0.113  -3.940  1.00  0.00     0.074 A 
ATOM     38  C   UNL     1       4.832   0.653  -5.842  1.00  0.00     0.049 A 
ATOM     39  N   UNL     1       7.493   0.283  -4.499  1.00  0.00    -0.248 NA
ATOM     40  C   UNL     1       6.379  -0.283  -2.526  1.00  0.00     0.031 C 
ATOM     41  C   UNL     1       3.547   0.852  -6.522  1.00  0.00     0.029 A 
ATOM     42  N   UNL     1       5.764   0.925  -6.805  1.00  0.00    -0.354 N 
ATOM     43  C   UNL     1       8.433   0.021  -3.510  1.00  0.00     0.074 A 
ATOM     44  C   UNL     1       7.691  -0.304  -2.308  1.00  0.00     0.031 C 
ATOM     45  C   UNL     1       3.772   1.186  -7.798  1.00  0.00     0.029 A 
ATOM     46  C   UNL     1       5.211   1.273  -8.013  1.00  0.00     0.049 A 
ATOM     47  H   UNL     1       6.735   0.877  -6.648  1.00  0.00     0.167 HD
ATOM     48  C   UNL     1       9.785   0.052  -3.610  1.00  0.00     0.037 A 
ATOM     49  C   UNL     1       5.792   1.637  -9.168  1.00  0.00     0.037 A 
ATOM     50  C   UNL     1      10.502   0.373  -4.824  1.00  0.00     0.049 A 
ATOM     51  C   UNL     1       7.285   1.668  -9.246  1.00  0.00     0.074 A 
ATOM     52  C   UNL     1      11.870   0.387  -5.039  1.00  0.00     0.029 A 
ATOM     53  N   UNL     1       9.911   0.741  -6.025  1.00  0.00    -0.354 N 
ATOM     54  N   UNL     1       8.158   1.389  -8.309  1.00  0.00    -0.248 NA
ATOM     55  C   UNL     1       7.872   2.060 -10.531  1.00  0.00     0.031 C 
ATOM     56  C   UNL     1      12.107   0.801  -6.356  1.00  0.00     0.029 A 
ATOM     57  C   UNL     1      10.885   1.009  -6.976  1.00  0.00     0.049 A 
ATOM     58  H   UNL     1       8.940   0.804  -6.180  1.00  0.00     0.167 HD
ATOM     59  C   UNL     1       9.404   1.568  -8.891  1.00  0.00     0.074 A 
ATOM     60  C   UNL     1       9.168   1.962 -10.268  1.00  0.00     0.031 C 
ATOM     61  C   UNL     1      10.631   1.421  -8.334  1.00  0.00     0.037 A 
BRANCH  48  62
ATOM     62  C   UNL     1      10.593  -0.251  -2.377  1.00  0.00     0.058 A 
ATOM     63  C   UNL     1      10.740  -1.560  -1.892  1.00  0.00     0.135 A 
ATOM     64  C   UNL     1      11.295   0.771  -1.716  1.00  0.00     0.135 A 
ATOM     65  F   UNL     1      10.092  -2.575  -2.483  1.00  0.00    -0.206 F 
ATOM     66  C   UNL     1      11.540  -1.843  -0.787  1.00  0.00     0.059 A 
ATOM     67  C   UNL     1      12.116   0.509  -0.622  1.00  0.00     0.059 A 
ATOM     68  F   UNL     1      11.197   2.041  -2.142  1.00  0.00    -0.206 F 
ATOM     69  C   UNL     1      12.223  -0.801  -0.157  1.00  0.00     0.060 A 
BRANCH  69  70
ATOM     70  S   UNL     1      13.277  -1.181   1.261  1.00  0.00     0.124 S 
ATOM     71  O   UNL     1      12.288  -1.366   2.319  1.00  0.00    -0.237 OA
ATOM     72  O   UNL     1      13.972  -2.388   0.826  1.00  0.00    -0.237 OA
ATOM     73  O   UNL     1      14.116   0.007   1.389  1.00  0.00    -0.744 OA
ENDBRANCH  69  70
ENDBRANCH  48  62
BRANCH  49  74
ATOM     74  C   UNL     1       4.931   1.990 -10.322  1.00  0.00     0.058 A 
ATOM     75  C   UNL     1       4.767   1.105 -11.395  1.00  0.00     0.135 A 
ATOM     76  C   UNL     1       4.175   3.173 -10.319  1.00  0.00     0.135 A 
ATOM     77  F   UNL     1       5.467  -0.038 -11.435  1.00  0.00    -0.206 F 
ATOM     78  C   UNL     1       3.875   1.377 -12.426  1.00  0.00     0.059 A 
ATOM     79  C   UNL     1       3.262   3.456 -11.327  1.00  0.00     0.059 A 
ATOM     80  F   UNL     1       4.280   4.036  -9.296  1.00  0.00    -0.206 F 
ATOM     81  C   UNL     1       3.120   2.551 -12.378  1.00  0.00     0.060 A 
BRANCH  81  82
ATOM     82  S   UNL     1       1.892   2.851 -13.667  1.00  0.00     0.124 S 
ATOM     83  O   UNL     1       2.727   3.331 -14.761  1.00  0.00    -0.237 OA
ATOM     84  O   UNL     1       1.299   1.530 -13.847  1.00  0.00    -0.237 OA
ATOM     85  O   UNL     1       1.010   3.845 -13.061  1.00  0.00    -0.744 OA
ENDBRANCH  81  82
ENDBRANCH  49  74
BRANCH  61  86
ATOM     86  C   UNL     1      11.807   1.694  -9.226  1.00  0.00     0.058 A 
ATOM     87  C   UNL     1      12.178   3.005  -9.562  1.00  0.00     0.135 A 
ATOM     88  C   UNL     1      12.569   0.638  -9.749  1.00  0.00     0.135 A 
ATOM     89  F   UNL     1      11.472   4.048  -9.098  1.00  0.00    -0.206 F 
ATOM     90  C   UNL     1      13.252   3.260 -10.408  1.00  0.00     0.059 A 
ATOM     91  C   UNL     1      13.659   0.871 -10.581  1.00  0.00     0.059 A 
ATOM     92  F   UNL     1      12.254  -0.633  -9.454  1.00  0.00    -0.206 F 
ATOM     93  C   UNL     1      13.983   2.185 -10.918  1.00  0.00     0.060 A 
BRANCH  93  94
ATOM     94  S   UNL     1      15.380   2.525 -12.010  1.00  0.00     0.124 S 
ATOM     95  O   UNL     1      14.703   2.814 -13.269  1.00  0.00    -0.237 OA
ATOM     96  O   UNL     1      16.021   3.663 -11.359  1.00  0.00    -0.237 OA
ATOM     97  O   UNL     1      16.144   1.281 -11.977  1.00  0.00    -0.744 OA
ENDBRANCH  93  94
ENDBRANCH  61  86
ENDBRANCH  35  36
ENDBRANCH  28  30
ENDBRANCH  27  28
ENDBRANCH  26  27
ENDBRANCH   1  26
TORSDOF 17
