REMARK SMILES C[C@@H](NS(=O)(=O)/C=C/c1ccccc1)C(=O)OCCOC(=O)c1ccc(-c2c3nc(c(-c4c(F)cc(S(=O)(=O)[O-])cc4F)c4ccc([nH]4)c(-c4c(F)cc(S(=O)(=O)[O-])cc4F)c4nc(c(-c5c(F)cc(S(=O)(=O)[O-])cc5F)c5ccc2[nH]5)C=C4)C=C3)cc1
REMARK SMILES IDX 18 1 17 2 15 3 16 4 2 5 1 6 3 7 4 9 5 10 6 11 7 12 8 13 9 14
REMARK SMILES IDX 10 15 14 16 11 17 13 18 12 19 19 20 20 21 21 22 22 23 23 24
REMARK SMILES IDX 24 25 88 26 25 27 87 28 26 29 27 30 28 31 81 32 29 33 86 34
REMARK SMILES IDX 80 35 82 36 30 37 85 38 79 39 78 40 31 42 65 43 44 44 64 45
REMARK SMILES IDX 45 46 48 47 63 48 83 49 46 50 47 51 62 53 84 54 49 55 32 56
REMARK SMILES IDX 33 57 42 58 34 59 35 60 41 61 43 62 36 63 37 64 38 65 39 66
REMARK SMILES IDX 40 67 66 68 67 69 76 70 68 71 69 72 75 73 77 74 70 75 71 76
REMARK SMILES IDX 72 77 73 78 74 79 50 80 51 81 60 82 52 83 53 84 59 85 61 86
REMARK SMILES IDX 54 87 55 88 56 89 57 90 58 91
REMARK H PARENT 3 8 82 41 48 52
REMARK Flexibility Score: inf
ROOT
ATOM      1  C   UNL     1      -2.775  -0.605   0.085  1.00  0.00     0.274 C 
ENDROOT
BRANCH   1   2
ATOM      2  O   UNL     1      -1.357  -0.680  -0.148  1.00  0.00    -0.461 OA
BRANCH   2   3
ATOM      3  C   UNL     1      -0.890   0.057  -1.192  1.00  0.00     0.324 C 
ATOM      4  O   UNL     1      -1.573   0.840  -1.841  1.00  0.00    -0.250 OA
BRANCH   3   5
ATOM      5  C   UNL     1       0.554  -0.234  -1.560  1.00  0.00     0.176 C 
ATOM      6  C   UNL     1       1.379  -0.731  -0.379  1.00  0.00     0.038 C 
BRANCH   5   7
ATOM      7  N   UNL     1       0.619  -1.222  -2.680  1.00  0.00    -0.198 NA
ATOM      8  H   UNL     1      -0.033  -1.977  -2.466  1.00  0.00     0.142 HD
BRANCH   7   9
ATOM      9  S   UNL     1       0.239  -0.636  -4.243  1.00  0.00     0.234 S 
ATOM     10  O   UNL     1       0.964   0.605  -4.373  1.00  0.00    -0.208 OA
ATOM     11  O   UNL     1       0.564  -1.755  -5.111  1.00  0.00    -0.208 OA
BRANCH   9  12
ATOM     12  C   UNL     1      -1.459  -0.328  -4.348  1.00  0.00     0.123 C 
ATOM     13  C   UNL     1      -2.338  -1.268  -3.974  1.00  0.00     0.021 C 
BRANCH  13  14
ATOM     14  C   UNL     1      -3.791  -1.052  -3.900  1.00  0.00    -0.025 A 
ATOM     15  C   UNL     1      -4.353   0.041  -3.224  1.00  0.00     0.008 A 
ATOM     16  C   UNL     1      -4.646  -2.034  -4.409  1.00  0.00     0.008 A 
ATOM     17  C   UNL     1      -5.730   0.119  -3.005  1.00  0.00     0.001 A 
ATOM     18  C   UNL     1      -6.028  -1.939  -4.221  1.00  0.00     0.001 A 
ATOM     19  C   UNL     1      -6.568  -0.875  -3.500  1.00  0.00     0.000 A 
ENDBRANCH  13  14
ENDBRANCH   9  12
ENDBRANCH   7   9
ENDBRANCH   5   7
ENDBRANCH   3   5
ENDBRANCH   2   3
ENDBRANCH   1   2
BRANCH   1  20
ATOM     20  C   UNL     1      -3.246   0.596   0.921  1.00  0.00     0.275 C 
BRANCH  20  21
ATOM     21  O   UNL     1      -3.030   1.874   0.295  1.00  0.00    -0.458 OA
BRANCH  21  22
ATOM     22  C   UNL     1      -1.802   2.405   0.519  1.00  0.00     0.338 C 
ATOM     23  O   UNL     1      -0.917   1.916   1.205  1.00  0.00    -0.246 OA
BRANCH  22  24
ATOM     24  C   UNL     1      -1.577   3.597  -0.320  1.00  0.00     0.060 A 
ATOM     25  C   UNL     1      -0.413   3.630  -1.100  1.00  0.00     0.016 A 
ATOM     26  C   UNL     1      -2.415   4.709  -0.256  1.00  0.00     0.016 A 
ATOM     27  C   UNL     1      -0.054   4.783  -1.787  1.00  0.00     0.010 A 
ATOM     28  C   UNL     1      -2.044   5.877  -0.930  1.00  0.00     0.010 A 
ATOM     29  C   UNL     1      -0.844   5.928  -1.665  1.00  0.00    -0.014 A 
BRANCH  29  30
ATOM     30  C   UNL     1      -0.320   7.228  -2.142  1.00  0.00     0.031 A 
ATOM     31  C   UNL     1       0.253   8.180  -1.130  1.00  0.00     0.074 A 
ATOM     32  C   UNL     1      -0.328   7.542  -3.448  1.00  0.00     0.049 A 
ATOM     33  N   UNL     1       0.625   9.424  -1.277  1.00  0.00    -0.248 NA
ATOM     34  C   UNL     1       0.425   7.655   0.235  1.00  0.00     0.031 C 
ATOM     35  C   UNL     1      -0.772   6.660  -4.527  1.00  0.00     0.029 A 
ATOM     36  N   UNL     1       0.036   8.700  -4.086  1.00  0.00    -0.354 N 
ATOM     37  C   UNL     1       1.041   9.842  -0.018  1.00  0.00     0.074 A 
ATOM     38  C   UNL     1       0.869   8.723   0.881  1.00  0.00     0.031 C 
ATOM     39  C   UNL     1      -0.678   7.320  -5.693  1.00  0.00     0.029 A 
ATOM     40  C   UNL     1      -0.217   8.683  -5.436  1.00  0.00     0.049 A 
ATOM     41  H   UNL     1       0.441   9.468  -3.622  1.00  0.00     0.167 HD
ATOM     42  C   UNL     1       1.518  11.055   0.350  1.00  0.00     0.037 A 
ATOM     43  C   UNL     1      -0.130   9.671  -6.348  1.00  0.00     0.037 A 
ATOM     44  C   UNL     1       1.695  12.153  -0.563  1.00  0.00     0.049 A 
ATOM     45  C   UNL     1       0.336  11.034  -5.908  1.00  0.00     0.074 A 
ATOM     46  C   UNL     1       2.164  13.427  -0.299  1.00  0.00     0.029 A 
ATOM     47  N   UNL     1       1.408  12.104  -1.921  1.00  0.00    -0.354 N 
ATOM     48  N   UNL     1       0.691  11.436  -4.710  1.00  0.00    -0.248 NA
ATOM     49  C   UNL     1       0.409  12.078  -6.938  1.00  0.00     0.031 C 
ATOM     50  C   UNL     1       2.120  14.162  -1.489  1.00  0.00     0.029 A 
ATOM     51  C   UNL     1       1.675  13.330  -2.505  1.00  0.00     0.049 A 
ATOM     52  H   UNL     1       1.066  11.314  -2.397  1.00  0.00     0.167 HD
ATOM     53  C   UNL     1       1.058  12.771  -4.848  1.00  0.00     0.074 A 
ATOM     54  C   UNL     1       0.882  13.107  -6.246  1.00  0.00     0.031 C 
ATOM     55  C   UNL     1       1.506  13.637  -3.905  1.00  0.00     0.037 A 
BRANCH  42  56
ATOM     56  C   UNL     1       1.827  11.264   1.807  1.00  0.00     0.058 A 
ATOM     57  C   UNL     1       2.924  10.653   2.433  1.00  0.00     0.135 A 
ATOM     58  C   UNL     1       1.003  12.089   2.590  1.00  0.00     0.135 A 
ATOM     59  F   UNL     1       3.733   9.838   1.737  1.00  0.00    -0.206 F 
ATOM     60  C   UNL     1       3.173  10.823   3.792  1.00  0.00     0.059 A 
ATOM     61  C   UNL     1       1.248  12.295   3.945  1.00  0.00     0.059 A 
ATOM     62  F   UNL     1      -0.063  12.695   2.044  1.00  0.00    -0.206 F 
ATOM     63  C   UNL     1       2.325  11.641   4.541  1.00  0.00     0.060 A 
BRANCH  63  64
ATOM     64  S   UNL     1       2.644  11.834   6.307  1.00  0.00     0.124 S 
ATOM     65  O   UNL     1       2.199  10.544   6.825  1.00  0.00    -0.237 OA
ATOM     66  O   UNL     1       4.085  12.067   6.342  1.00  0.00    -0.237 OA
ATOM     67  O   UNL     1       1.818  12.978   6.679  1.00  0.00    -0.744 OA
ENDBRANCH  63  64
ENDBRANCH  42  56
BRANCH  43  68
ATOM     68  C   UNL     1      -0.522   9.407  -7.758  1.00  0.00     0.058 A 
ATOM     69  C   UNL     1       0.435   9.355  -8.780  1.00  0.00     0.135 A 
ATOM     70  C   UNL     1      -1.863   9.171  -8.104  1.00  0.00     0.135 A 
ATOM     71  F   UNL     1       1.727   9.587  -8.502  1.00  0.00    -0.206 F 
ATOM     72  C   UNL     1       0.080   9.079 -10.097  1.00  0.00     0.059 A 
ATOM     73  C   UNL     1      -2.240   8.869  -9.409  1.00  0.00     0.059 A 
ATOM     74  F   UNL     1      -2.817   9.203  -7.161  1.00  0.00    -0.206 F 
ATOM     75  C   UNL     1      -1.261   8.831 -10.400  1.00  0.00     0.060 A 
BRANCH  75  76
ATOM     76  S   UNL     1      -1.702   8.408 -12.100  1.00  0.00     0.124 S 
ATOM     77  O   UNL     1      -1.564   9.696 -12.769  1.00  0.00    -0.237 OA
ATOM     78  O   UNL     1      -0.698   7.403 -12.437  1.00  0.00    -0.237 OA
ATOM     79  O   UNL     1      -3.066   7.902 -11.977  1.00  0.00    -0.744 OA
ENDBRANCH  75  76
ENDBRANCH  43  68
BRANCH  55  80
ATOM     80  C   UNL     1       1.888  15.020  -4.356  1.00  0.00     0.058 A 
ATOM     81  C   UNL     1       0.924  15.985  -4.683  1.00  0.00     0.135 A 
ATOM     82  C   UNL     1       3.239  15.402  -4.386  1.00  0.00     0.135 A 
ATOM     83  F   UNL     1      -0.380  15.669  -4.675  1.00  0.00    -0.206 F 
ATOM     84  C   UNL     1       1.288  17.281  -5.037  1.00  0.00     0.059 A 
ATOM     85  C   UNL     1       3.624  16.698  -4.712  1.00  0.00     0.059 A 
ATOM     86  F   UNL     1       4.199  14.518  -4.071  1.00  0.00    -0.206 F 
ATOM     87  C   UNL     1       2.641  17.629  -5.043  1.00  0.00     0.060 A 
BRANCH  87  88
ATOM     88  S   UNL     1       3.097  19.328  -5.453  1.00  0.00     0.124 S 
ATOM     89  O   UNL     1       2.888  19.348  -6.897  1.00  0.00    -0.237 OA
ATOM     90  O   UNL     1       2.147  20.106  -4.664  1.00  0.00    -0.237 OA
ATOM     91  O   UNL     1       4.488  19.420  -5.018  1.00  0.00    -0.744 OA
ENDBRANCH  87  88
ENDBRANCH  55  80
ENDBRANCH  29  30
ENDBRANCH  22  24
ENDBRANCH  21  22
ENDBRANCH  20  21
ENDBRANCH   1  20
TORSDOF 18
