REMARK SMILES Cc1ccccc1-n1c(S[C@@H](C)C(=O)OCCOC(=O)c2ccc(-c3c4nc(c(-c5c(F)cc(S(=O)(=O)[O-])cc5F)c5ccc([nH]5)c(-c5c(F)cc(S(=O)(=O)[O-])cc5F)c5nc(c(-c6c(F)cc(S(=O)(=O)[O-])cc6F)c6ccc3[nH]6)C=C5)C=C4)cc2)nc2sc3c(c2c1=O)C[C@@H](C(C)C)OC3
REMARK SMILES IDX 16 1 15 2 13 3 14 4 11 5 12 6 10 7 9 8 8 9 93 10 87 11 92 12
REMARK SMILES IDX 94 13 88 14 91 15 89 16 90 17 95 18 101 19 96 20 100 21 7 22
REMARK SMILES IDX 1 23 2 24 3 25 4 26 6 27 5 28 97 29 98 30 99 31 17 32 18 33
REMARK SMILES IDX 19 34 20 35 21 36 22 37 86 38 23 39 85 40 24 41 25 42 26 43
REMARK SMILES IDX 79 44 27 45 84 46 78 47 80 48 28 49 83 50 77 51 76 52 29 54
REMARK SMILES IDX 63 55 42 56 62 57 43 58 46 59 61 60 81 61 44 62 45 63 60 65
REMARK SMILES IDX 82 66 47 67 30 68 31 69 40 70 32 71 33 72 39 73 41 74 34 75
REMARK SMILES IDX 35 76 36 77 37 78 38 79 64 80 65 81 74 82 66 83 67 84 73 85
REMARK SMILES IDX 75 86 68 87 69 88 70 89 71 90 72 91 48 92 49 93 58 94 50 95
REMARK SMILES IDX 51 96 57 97 59 98 52 99 53 100 54 101 55 102 56 103
REMARK H PARENT 80 53 46 64
REMARK Flexibility Score: inf
ROOT
ATOM      1  C   UNL     1      -1.010   2.825  -2.387  1.00  0.00     0.274 C 
ENDROOT
BRANCH   1   2
ATOM      2  O   UNL     1       0.290   2.198  -2.167  1.00  0.00    -0.461 OA
BRANCH   2   3
ATOM      3  C   UNL     1       0.947   1.358  -2.989  1.00  0.00     0.319 C 
ATOM      4  O   UNL     1       0.553   1.048  -4.104  1.00  0.00    -0.251 OA
BRANCH   3   5
ATOM      5  C   UNL     1       2.302   0.880  -2.473  1.00  0.00     0.161 C 
ATOM      6  C   UNL     1       2.545  -0.635  -2.622  1.00  0.00     0.032 C 
BRANCH   5   7
ATOM      7  S   UNL     1       2.839   1.238  -0.805  1.00  0.00    -0.072 SA
BRANCH   7   8
ATOM      8  C   UNL     1       1.770   2.406  -0.106  1.00  0.00     0.177 A 
ATOM      9  N   UNL     1       0.715   2.123   0.825  1.00  0.00    -0.255 N 
ATOM     10  C   UNL     1       0.237   3.236   1.569  1.00  0.00     0.267 A 
ATOM     11  N   UNL     1       2.217   3.578  -0.455  1.00  0.00    -0.212 NA
ATOM     12  C   UNL     1       0.946   4.517   1.344  1.00  0.00     0.081 A 
ATOM     13  O   UNL     1      -0.668   3.195   2.394  1.00  0.00    -0.268 OA
ATOM     14  C   UNL     1       1.806   4.609   0.286  1.00  0.00     0.132 A 
ATOM     15  C   UNL     1       1.034   5.716   2.134  1.00  0.00    -0.014 A 
ATOM     16  S   UNL     1       2.531   6.146   0.105  1.00  0.00    -0.117 S 
ATOM     17  C   UNL     1       1.889   6.663   1.588  1.00  0.00     0.037 A 
ATOM     18  C   UNL     1       0.437   5.982   3.471  1.00  0.00     0.070 C 
ATOM     19  C   UNL     1       2.331   7.933   2.253  1.00  0.00     0.207 C 
ATOM     20  C   UNL     1       1.342   6.959   4.263  1.00  0.00     0.125 C 
ATOM     21  O   UNL     1       1.572   8.147   3.461  1.00  0.00    -0.372 OA
BRANCH   9  22
ATOM     22  C   UNL     1      -0.061   0.759   0.948  1.00  0.00     0.054 A 
ATOM     23  C   UNL     1       2.020  -0.983   1.016  1.00  0.00     0.046 C 
ATOM     24  C   UNL     1       0.717  -0.683   0.293  1.00  0.00    -0.027 A 
ATOM     25  C   UNL     1      -0.256  -1.972  -0.570  1.00  0.00     0.005 A 
ATOM     26  C   UNL     1      -2.278  -1.745  -0.594  1.00  0.00     0.000 A 
ATOM     27  C   UNL     1      -1.841   0.871   0.996  1.00  0.00     0.027 A 
ATOM     28  C   UNL     1      -2.952  -0.300   0.247  1.00  0.00     0.002 A 
ENDBRANCH   9  22
BRANCH  20  29
ATOM     29  C   UNL     1       2.679   6.374   4.804  1.00  0.00     0.012 C 
ATOM     30  C   UNL     1       3.382   7.410   5.691  1.00  0.00     0.010 C 
ATOM     31  C   UNL     1       2.493   5.071   5.582  1.00  0.00     0.010 C 
ENDBRANCH  20  29
ENDBRANCH   7   8
ENDBRANCH   5   7
ENDBRANCH   3   5
ENDBRANCH   2   3
ENDBRANCH   1   2
BRANCH   1  32
ATOM     32  C   UNL     1      -2.019   2.156  -3.330  1.00  0.00     0.275 C 
BRANCH  32  33
ATOM     33  O   UNL     1      -2.321   0.849  -2.829  1.00  0.00    -0.458 OA
BRANCH  33  34
ATOM     34  C   UNL     1      -1.784  -0.235  -3.438  1.00  0.00     0.338 C 
ATOM     35  O   UNL     1      -1.810  -0.511  -4.620  1.00  0.00    -0.246 OA
BRANCH  34  36
ATOM     36  C   UNL     1      -1.242  -1.079  -2.340  1.00  0.00     0.060 A 
ATOM     37  C   UNL     1      -1.402  -2.805  -2.400  1.00  0.00     0.016 A 
ATOM     38  C   UNL     1      -1.097  -0.296  -0.748  1.00  0.00     0.016 A 
ATOM     39  C   UNL     1      -1.525  -3.839  -0.963  1.00  0.00     0.010 A 
ATOM     40  C   UNL     1      -1.238  -1.423   0.939  1.00  0.00     0.010 A 
ATOM     41  C   UNL     1      -1.505  -3.245   0.704  1.00  0.00    -0.014 A 
BRANCH  41  42
ATOM     42  C   UNL     1      -1.498  -4.414   1.775  1.00  0.00     0.031 A 
ATOM     43  C   UNL     1      -0.682  -3.794   2.870  1.00  0.00     0.074 A 
ATOM     44  C   UNL     1      -2.388  -5.385   2.333  1.00  0.00     0.049 A 
ATOM     45  N   UNL     1      -1.350  -2.900   3.500  1.00  0.00    -0.248 NA
ATOM     46  C   UNL     1       0.737  -3.607   3.143  1.00  0.00     0.031 C 
ATOM     47  C   UNL     1      -1.896  -6.549   3.128  1.00  0.00     0.029 A 
ATOM     48  N   UNL     1      -3.814  -5.647   2.490  1.00  0.00    -0.354 N 
ATOM     49  C   UNL     1      -0.654  -2.354   4.520  1.00  0.00     0.074 A 
ATOM     50  C   UNL     1       0.706  -2.678   4.143  1.00  0.00     0.031 C 
ATOM     51  C   UNL     1      -2.876  -7.111   3.884  1.00  0.00     0.029 A 
ATOM     52  C   UNL     1      -4.131  -6.381   3.720  1.00  0.00     0.049 A 
ATOM     53  H   UNL     1      -4.493  -5.360   1.838  1.00  0.00     0.167 HD
ATOM     54  C   UNL     1      -1.437  -1.816   5.509  1.00  0.00     0.037 A 
ATOM     55  C   UNL     1      -5.170  -6.370   4.668  1.00  0.00     0.037 A 
ATOM     56  C   UNL     1      -2.850  -2.142   5.283  1.00  0.00     0.049 A 
ATOM     57  C   UNL     1      -6.231  -5.313   4.482  1.00  0.00     0.074 A 
ATOM     58  C   UNL     1      -3.294  -3.396   4.917  1.00  0.00     0.029 A 
ATOM     59  N   UNL     1      -3.985  -1.335   5.116  1.00  0.00    -0.354 N 
ATOM     60  N   UNL     1      -6.060  -4.129   4.969  1.00  0.00    -0.248 NA
ATOM     61  C   UNL     1      -7.556  -5.413   3.875  1.00  0.00     0.031 C 
ATOM     62  C   UNL     1      -3.999  -3.001   3.786  1.00  0.00     0.029 A 
ATOM     63  C   UNL     1      -4.849  -2.065   4.299  1.00  0.00     0.049 A 
ATOM     64  H   UNL     1      -4.140  -0.440   5.497  1.00  0.00     0.167 HD
ATOM     65  C   UNL     1      -6.825  -3.250   4.246  1.00  0.00     0.074 A 
ATOM     66  C   UNL     1      -7.906  -4.106   3.794  1.00  0.00     0.031 C 
ATOM     67  C   UNL     1      -6.257  -2.028   3.922  1.00  0.00     0.037 A 
BRANCH  54  68
ATOM     68  C   UNL     1      -1.030  -1.354   6.842  1.00  0.00     0.058 A 
ATOM     69  C   UNL     1      -1.811  -1.794   7.934  1.00  0.00     0.135 A 
ATOM     70  C   UNL     1      -0.034  -0.415   7.088  1.00  0.00     0.135 A 
ATOM     71  F   UNL     1      -2.725  -2.767   7.795  1.00  0.00    -0.206 F 
ATOM     72  C   UNL     1      -1.698  -1.245   9.190  1.00  0.00     0.059 A 
ATOM     73  C   UNL     1       0.125   0.130   8.364  1.00  0.00     0.059 A 
ATOM     74  F   UNL     1       0.767   0.012   6.098  1.00  0.00    -0.206 F 
ATOM     75  C   UNL     1      -0.738  -0.267   9.393  1.00  0.00     0.060 A 
BRANCH  75  76
ATOM     76  S   UNL     1      -0.663   0.467  11.031  1.00  0.00     0.124 S 
ATOM     77  O   UNL     1      -1.952   1.147  11.115  1.00  0.00    -0.237 OA
ATOM     78  O   UNL     1      -0.497  -0.702  11.887  1.00  0.00    -0.237 OA
ATOM     79  O   UNL     1       0.500   1.346  10.950  1.00  0.00    -0.744 OA
ENDBRANCH  75  76
ENDBRANCH  54  68
BRANCH  55  80
ATOM     80  C   UNL     1      -5.045  -6.782   6.184  1.00  0.00     0.058 A 
ATOM     81  C   UNL     1      -5.300  -8.049   6.744  1.00  0.00     0.135 A 
ATOM     82  C   UNL     1      -4.793  -5.786   7.172  1.00  0.00     0.135 A 
ATOM     83  F   UNL     1      -5.688  -9.065   5.956  1.00  0.00    -0.206 F 
ATOM     84  C   UNL     1      -5.199  -8.312   8.144  1.00  0.00     0.059 A 
ATOM     85  C   UNL     1      -4.712  -6.010   8.552  1.00  0.00     0.059 A 
ATOM     86  F   UNL     1      -4.623  -4.508   6.843  1.00  0.00    -0.206 F 
ATOM     87  C   UNL     1      -4.867  -7.289   9.038  1.00  0.00     0.060 A 
BRANCH  87  88
ATOM     88  S   UNL     1      -4.528  -7.629  10.791  1.00  0.00     0.124 S 
ATOM     89  O   UNL     1      -5.814  -8.121  11.275  1.00  0.00    -0.237 OA
ATOM     90  O   UNL     1      -3.468  -8.630  10.700  1.00  0.00    -0.237 OA
ATOM     91  O   UNL     1      -4.115  -6.338  11.330  1.00  0.00    -0.744 OA
ENDBRANCH  87  88
ENDBRANCH  55  80
BRANCH  67  92
ATOM     92  C   UNL     1      -6.691  -1.072   2.849  1.00  0.00     0.058 A 
ATOM     93  C   UNL     1      -7.940  -1.060   2.215  1.00  0.00     0.135 A 
ATOM     94  C   UNL     1      -5.769  -0.101   2.384  1.00  0.00     0.135 A 
ATOM     95  F   UNL     1      -8.900  -1.934   2.531  1.00  0.00    -0.206 F 
ATOM     96  C   UNL     1      -8.264  -0.133   1.222  1.00  0.00     0.059 A 
ATOM     97  C   UNL     1      -6.081   0.847   1.421  1.00  0.00     0.059 A 
ATOM     98  F   UNL     1      -4.508  -0.037   2.834  1.00  0.00    -0.206 F 
ATOM     99  C   UNL     1      -7.337   0.835   0.854  1.00  0.00     0.060 A 
BRANCH  99 100
ATOM    100  S   UNL     1      -7.778   2.097  -0.342  1.00  0.00     0.124 S 
ATOM    101  O   UNL     1      -8.440   1.321  -1.385  1.00  0.00    -0.237 OA
ATOM    102  O   UNL     1      -8.642   2.958   0.458  1.00  0.00    -0.237 OA
ATOM    103  O   UNL     1      -6.490   2.673  -0.721  1.00  0.00    -0.744 OA
ENDBRANCH  99 100
ENDBRANCH  67  92
ENDBRANCH  41  42
ENDBRANCH  34  36
ENDBRANCH  33  34
ENDBRANCH  32  33
ENDBRANCH   1  32
TORSDOF 18
