REMARK SMILES O=C(CNC(=O)OCc1ccccc1)NCC(=O)OCCOC(=O)c1ccc(-c2c3nc(c(-c4c(F)cc(S(=O)(=O)[O-])cc4F)c4ccc([nH]4)c(-c4c(F)cc(S(=O)(=O)[O-])cc4F)c4nc(c(-c5c(F)cc(S(=O)(=O)[O-])cc5F)c5ccc2[nH]5)C=C4)C=C3)cc1
REMARK SMILES IDX 19 1 17 2 18 3 16 4 15 5 1 6 2 7 3 9 4 10 5 11 6 13 7 14
REMARK SMILES IDX 8 15 9 16 10 17 14 18 11 19 13 20 12 21 20 22 21 23 22 24
REMARK SMILES IDX 23 25 24 26 25 27 26 28 90 29 27 30 89 31 28 32 29 33 30 34
REMARK SMILES IDX 83 35 31 36 88 37 82 38 84 39 32 40 87 41 81 42 80 43 33 45
REMARK SMILES IDX 67 46 46 47 66 48 47 49 50 50 65 51 85 52 48 53 49 54 64 56
REMARK SMILES IDX 86 57 51 58 34 59 35 60 44 61 36 62 37 63 43 64 45 65 38 66
REMARK SMILES IDX 39 67 40 68 41 69 42 70 68 71 69 72 78 73 70 74 71 75 77 76
REMARK SMILES IDX 79 77 72 78 73 79 74 80 75 81 76 82 52 83 53 84 62 85 54 86
REMARK SMILES IDX 55 87 61 88 63 89 56 90 57 91 58 92 59 93 60 94
REMARK H PARENT 15 8 4 12 84 44 50 55
REMARK Flexibility Score: inf
ROOT
ATOM      1  O   UNL     1       2.299   2.162   2.696  1.00  0.00    -0.461 OA
ENDROOT
BRANCH   1   2
ATOM      2  C   UNL     1       1.615   2.856   1.746  1.00  0.00     0.325 C 
ATOM      3  O   UNL     1       1.124   3.967   1.910  1.00  0.00    -0.250 OA
BRANCH   2   4
ATOM      4  C   UNL     1       1.509   2.097   0.426  1.00  0.00     0.238 C 
BRANCH   4   5
ATOM      5  N   UNL     1       2.378   0.941   0.292  1.00  0.00    -0.344 N 
ATOM      6  O   UNL     1       0.700  -0.611   0.150  1.00  0.00    -0.273 OA
ATOM      7  C   UNL     1       1.895  -0.332   0.106  1.00  0.00     0.240 C 
ATOM      8  H   UNL     1       3.352   1.075   0.337  1.00  0.00     0.164 HD
BRANCH   7   9
ATOM      9  C   UNL     1       2.974  -1.397  -0.078  1.00  0.00     0.219 C 
BRANCH   9  10
ATOM     10  N   UNL     1       3.847  -1.023  -1.174  1.00  0.00    -0.312 N 
ATOM     11  C   UNL     1       5.205  -1.111  -1.207  1.00  0.00     0.407 C 
ATOM     12  H   UNL     1       3.411  -0.667  -1.982  1.00  0.00     0.167 HD
ATOM     13  O   UNL     1       5.838  -0.739  -2.179  1.00  0.00    -0.225 OA
BRANCH  11  14
ATOM     14  O   UNL     1       5.724  -1.640  -0.072  1.00  0.00    -0.445 OA
BRANCH  14  15
ATOM     15  C   UNL     1       7.154  -1.747  -0.064  1.00  0.00     0.270 C 
BRANCH  15  16
ATOM     16  C   UNL     1       7.615  -2.989  -0.787  1.00  0.00    -0.011 A 
ATOM     17  C   UNL     1       7.066  -4.243  -0.486  1.00  0.00     0.007 A 
ATOM     18  C   UNL     1       8.606  -2.901  -1.774  1.00  0.00     0.007 A 
ATOM     19  C   UNL     1       7.488  -5.383  -1.172  1.00  0.00     0.000 A 
ATOM     20  C   UNL     1       9.029  -4.042  -2.457  1.00  0.00     0.000 A 
ATOM     21  C   UNL     1       8.469  -5.282  -2.157  1.00  0.00     0.000 A 
ENDBRANCH  15  16
ENDBRANCH  14  15
ENDBRANCH  11  14
ENDBRANCH   9  10
ENDBRANCH   7   9
ENDBRANCH   4   5
ENDBRANCH   2   4
ENDBRANCH   1   2
BRANCH   1  22
ATOM     22  C   UNL     1       2.644   2.879   3.894  1.00  0.00     0.274 C 
BRANCH  22  23
ATOM     23  C   UNL     1       4.150   3.153   3.927  1.00  0.00     0.275 C 
BRANCH  23  24
ATOM     24  O   UNL     1       4.541   4.128   2.943  1.00  0.00    -0.458 OA
BRANCH  24  25
ATOM     25  C   UNL     1       4.783   3.650   1.700  1.00  0.00     0.338 C 
ATOM     26  O   UNL     1       4.705   2.494   1.315  1.00  0.00    -0.246 OA
BRANCH  25  27
ATOM     27  C   UNL     1       5.050   4.780   0.799  1.00  0.00     0.060 A 
ATOM     28  C   UNL     1       4.181   4.999  -0.273  1.00  0.00     0.016 A 
ATOM     29  C   UNL     1       6.187   5.569   0.970  1.00  0.00     0.016 A 
ATOM     30  C   UNL     1       4.460   5.997  -1.202  1.00  0.00     0.010 A 
ATOM     31  C   UNL     1       6.456   6.580   0.046  1.00  0.00     0.010 A 
ATOM     32  C   UNL     1       5.604   6.790  -1.053  1.00  0.00    -0.014 A 
BRANCH  32  33
ATOM     33  C   UNL     1       5.957   7.815  -2.064  1.00  0.00     0.031 A 
ATOM     34  C   UNL     1       7.155   7.597  -2.943  1.00  0.00     0.074 A 
ATOM     35  C   UNL     1       5.233   8.945  -2.161  1.00  0.00     0.049 A 
ATOM     36  N   UNL     1       7.763   8.438  -3.737  1.00  0.00    -0.248 NA
ATOM     37  C   UNL     1       7.755   6.253  -2.913  1.00  0.00     0.031 C 
ATOM     38  C   UNL     1       4.017   9.238  -1.400  1.00  0.00     0.029 A 
ATOM     39  N   UNL     1       5.430  10.069  -2.922  1.00  0.00    -0.354 N 
ATOM     40  C   UNL     1       8.833   7.737  -4.281  1.00  0.00     0.074 A 
ATOM     41  C   UNL     1       8.801   6.406  -3.713  1.00  0.00     0.031 C 
ATOM     42  C   UNL     1       3.586  10.469  -1.721  1.00  0.00     0.029 A 
ATOM     43  C   UNL     1       4.528  11.073  -2.659  1.00  0.00     0.049 A 
ATOM     44  H   UNL     1       6.148  10.149  -3.591  1.00  0.00     0.167 HD
ATOM     45  C   UNL     1       9.755   8.171  -5.173  1.00  0.00     0.037 A 
ATOM     46  C   UNL     1       4.494  12.350  -3.089  1.00  0.00     0.037 A 
ATOM     47  C   UNL     1       9.762   9.497  -5.734  1.00  0.00     0.049 A 
ATOM     48  C   UNL     1       5.573  12.835  -4.021  1.00  0.00     0.074 A 
ATOM     49  C   UNL     1      10.652  10.043  -6.642  1.00  0.00     0.029 A 
ATOM     50  N   UNL     1       8.832  10.485  -5.441  1.00  0.00    -0.354 N 
ATOM     51  N   UNL     1       6.596  12.174  -4.511  1.00  0.00    -0.248 NA
ATOM     52  C   UNL     1       5.502  14.237  -4.455  1.00  0.00     0.031 C 
ATOM     53  C   UNL     1      10.286  11.374  -6.864  1.00  0.00     0.029 A 
ATOM     54  C   UNL     1       9.133  11.640  -6.141  1.00  0.00     0.049 A 
ATOM     55  H   UNL     1       8.070  10.379  -4.827  1.00  0.00     0.167 HD
ATOM     56  C   UNL     1       7.262  13.066  -5.345  1.00  0.00     0.074 A 
ATOM     57  C   UNL     1       6.533  14.316  -5.286  1.00  0.00     0.031 C 
ATOM     58  C   UNL     1       8.371  12.864  -6.097  1.00  0.00     0.037 A 
BRANCH  45  59
ATOM     59  C   UNL     1      10.848   7.219  -5.574  1.00  0.00     0.058 A 
ATOM     60  C   UNL     1      10.598   6.104  -6.390  1.00  0.00     0.135 A 
ATOM     61  C   UNL     1      12.173   7.446  -5.166  1.00  0.00     0.135 A 
ATOM     62  F   UNL     1       9.348   5.829  -6.795  1.00  0.00    -0.206 F 
ATOM     63  C   UNL     1      11.618   5.235  -6.766  1.00  0.00     0.059 A 
ATOM     64  C   UNL     1      13.213   6.607  -5.554  1.00  0.00     0.059 A 
ATOM     65  F   UNL     1      12.469   8.496  -4.384  1.00  0.00    -0.206 F 
ATOM     66  C   UNL     1      12.923   5.495  -6.343  1.00  0.00     0.060 A 
BRANCH  66  67
ATOM     67  S   UNL     1      14.235   4.359  -6.841  1.00  0.00     0.124 S 
ATOM     68  O   UNL     1      13.938   3.192  -6.016  1.00  0.00    -0.237 OA
ATOM     69  O   UNL     1      13.988   4.204  -8.271  1.00  0.00    -0.237 OA
ATOM     70  O   UNL     1      15.457   5.077  -6.493  1.00  0.00    -0.744 OA
ENDBRANCH  66  67
ENDBRANCH  45  59
BRANCH  46  71
ATOM     71  C   UNL     1       3.416  13.264  -2.626  1.00  0.00     0.058 A 
ATOM     72  C   UNL     1       2.433  13.727  -3.512  1.00  0.00     0.135 A 
ATOM     73  C   UNL     1       3.341  13.687  -1.289  1.00  0.00     0.135 A 
ATOM     74  F   UNL     1       2.465  13.358  -4.801  1.00  0.00    -0.206 F 
ATOM     75  C   UNL     1       1.425  14.592  -3.096  1.00  0.00     0.059 A 
ATOM     76  C   UNL     1       2.327  14.528  -0.842  1.00  0.00     0.059 A 
ATOM     77  F   UNL     1       4.249  13.262  -0.396  1.00  0.00    -0.206 F 
ATOM     78  C   UNL     1       1.380  14.985  -1.757  1.00  0.00     0.060 A 
BRANCH  78  79
ATOM     79  S   UNL     1       0.048  16.080  -1.222  1.00  0.00     0.124 S 
ATOM     80  O   UNL     1       0.449  17.346  -1.824  1.00  0.00    -0.237 OA
ATOM     81  O   UNL     1      -1.128  15.440  -1.803  1.00  0.00    -0.237 OA
ATOM     82  O   UNL     1       0.129  16.020   0.235  1.00  0.00    -0.744 OA
ENDBRANCH  78  79
ENDBRANCH  46  71
BRANCH  58  83
ATOM     83  C   UNL     1       8.832  13.986  -6.984  1.00  0.00     0.058 A 
ATOM     84  C   UNL     1       9.499  15.110  -6.477  1.00  0.00     0.135 A 
ATOM     85  C   UNL     1       8.697  13.874  -8.379  1.00  0.00     0.135 A 
ATOM     86  F   UNL     1       9.646  15.268  -5.152  1.00  0.00    -0.206 F 
ATOM     87  C   UNL     1      10.020  16.085  -7.322  1.00  0.00     0.059 A 
ATOM     88  C   UNL     1       9.232  14.823  -9.242  1.00  0.00     0.059 A 
ATOM     89  F   UNL     1       8.072  12.813  -8.914  1.00  0.00    -0.206 F 
ATOM     90  C   UNL     1       9.892  15.926  -8.704  1.00  0.00     0.060 A 
BRANCH  90  91
ATOM     91  S   UNL     1      10.650  17.153  -9.790  1.00  0.00     0.124 S 
ATOM     92  O   UNL     1       9.756  18.293  -9.617  1.00  0.00    -0.237 OA
ATOM     93  O   UNL     1      11.983  17.299  -9.213  1.00  0.00    -0.237 OA
ATOM     94  O   UNL     1      10.609  16.517 -11.104  1.00  0.00    -0.744 OA
ENDBRANCH  90  91
ENDBRANCH  58  83
ENDBRANCH  32  33
ENDBRANCH  25  27
ENDBRANCH  24  25
ENDBRANCH  23  24
ENDBRANCH  22  23
ENDBRANCH   1  22
TORSDOF 20
