REMARK SMILES Nc1nc(N2CCCCC2)nc2c1[C@H](C(=O)OCCOC(=O)c1ccc(-c3c4nc(c(-c5c(F)cc(S(=O)(=O)[O-])cc5F)c5ccc([nH]5)c(-c5c(F)cc(S(=O)(=O)[O-])cc5F)c5nc(c(-c6c(F)cc(S(=O)(=O)[O-])cc6F)c6ccc3[nH]6)C=C5)C=C4)cc1)CC(=O)N2
REMARK SMILES IDX 19 1 18 2 17 3 15 4 16 5 14 6 2 7 3 8 13 9 4 10 12 11 11 12
REMARK SMILES IDX 92 13 89 14 90 15 91 17 1 18 5 21 6 22 10 23 7 24 9 25 8 26
REMARK SMILES IDX 20 27 21 28 22 29 23 30 24 31 88 32 25 33 87 34 26 35 27 36
REMARK SMILES IDX 28 37 81 38 29 39 86 40 80 41 82 42 30 43 85 44 79 45 78 46
REMARK SMILES IDX 31 48 65 49 44 50 64 51 45 52 48 53 63 54 83 55 46 56 47 57
REMARK SMILES IDX 62 59 84 60 49 61 32 62 33 63 42 64 34 65 35 66 41 67 43 68
REMARK SMILES IDX 36 69 37 70 38 71 39 72 40 73 66 74 67 75 76 76 68 77 69 78
REMARK SMILES IDX 75 79 77 80 70 81 71 82 72 83 73 84 74 85 50 86 51 87 60 88
REMARK SMILES IDX 52 89 53 90 59 91 61 92 54 93 55 94 56 95 57 96 58 97
REMARK H PARENT 92 16 1 19 1 20 82 47 48 58
REMARK Flexibility Score: inf
ROOT
ATOM      1  C   UNL     1      -4.042   0.386   1.258  1.00  0.00     0.275 C 
ENDROOT
BRANCH   1   2
ATOM      2  C   UNL     1      -3.728   1.659   0.481  1.00  0.00     0.274 C 
BRANCH   2   3
ATOM      3  O   UNL     1      -3.086   1.334  -0.770  1.00  0.00    -0.462 OA
BRANCH   3   4
ATOM      4  C   UNL     1      -1.759   1.604  -0.890  1.00  0.00     0.314 C 
ATOM      5  O   UNL     1      -1.047   2.043   0.005  1.00  0.00    -0.252 OA
BRANCH   4   6
ATOM      6  C   UNL     1      -1.226   1.271  -2.274  1.00  0.00     0.146 C 
ATOM      7  C   UNL     1       0.683  -0.384  -1.987  1.00  0.00     0.135 A 
ATOM      8  N   UNL     1       1.192  -1.611  -2.116  1.00  0.00    -0.196 NA
ATOM      9  C   UNL     1      -0.611  -0.092  -2.341  1.00  0.00     0.052 A 
ATOM     10  C   UNL     1       0.386  -2.608  -2.509  1.00  0.00     0.229 A 
ATOM     11  C   UNL     1      -1.356  -1.172  -2.762  1.00  0.00     0.144 A 
ATOM     12  N   UNL     1      -0.905  -2.430  -2.811  1.00  0.00    -0.195 NA
ATOM     13  N   UNL     1      -2.656  -0.961  -3.210  1.00  0.00    -0.310 N 
ATOM     14  C   UNL     1      -2.278   1.454  -3.362  1.00  0.00     0.120 C 
ATOM     15  C   UNL     1      -3.203   0.261  -3.468  1.00  0.00     0.226 C 
ATOM     16  H   UNL     1      -3.224  -1.754  -3.350  1.00  0.00     0.171 HD
ATOM     17  O   UNL     1      -4.359   0.380  -3.868  1.00  0.00    -0.275 OA
BRANCH   7  18
ATOM     18  N   UNL     1       1.559   0.581  -1.526  1.00  0.00    -0.383 N 
ATOM     19  H   UNL     1       2.480   0.334  -1.282  1.00  0.00     0.158 HD
ATOM     20  H   UNL     1       1.262   1.516  -1.443  1.00  0.00     0.158 HD
ENDBRANCH   7  18
BRANCH  10  21
ATOM     21  N   UNL     1       0.972  -3.843  -2.697  1.00  0.00    -0.341 N 
ATOM     22  C   UNL     1       0.330  -4.992  -2.079  1.00  0.00     0.119 C 
ATOM     23  C   UNL     1       1.479  -4.039  -4.048  1.00  0.00     0.119 C 
ATOM     24  C   UNL     1       1.335  -6.148  -2.044  1.00  0.00     0.022 C 
ATOM     25  C   UNL     1       2.483  -5.191  -4.061  1.00  0.00     0.022 C 
ATOM     26  C   UNL     1       1.896  -6.452  -3.432  1.00  0.00     0.004 C 
ENDBRANCH  10  21
ENDBRANCH   4   6
ENDBRANCH   3   4
ENDBRANCH   2   3
ENDBRANCH   1   2
BRANCH   1  27
ATOM     27  O   UNL     1      -2.803  -0.182   1.708  1.00  0.00    -0.458 OA
BRANCH  27  28
ATOM     28  C   UNL     1      -2.580  -1.473   1.385  1.00  0.00     0.338 C 
ATOM     29  O   UNL     1      -3.352  -2.247   0.832  1.00  0.00    -0.246 OA
BRANCH  28  30
ATOM     30  C   UNL     1      -1.218  -1.831   1.805  1.00  0.00     0.060 A 
ATOM     31  C   UNL     1      -0.138  -1.101   1.313  1.00  0.00     0.016 A 
ATOM     32  C   UNL     1      -1.004  -2.939   2.623  1.00  0.00     0.016 A 
ATOM     33  C   UNL     1       1.163  -1.529   1.563  1.00  0.00     0.010 A 
ATOM     34  C   UNL     1       0.305  -3.308   2.951  1.00  0.00     0.010 A 
ATOM     35  C   UNL     1       1.405  -2.635   2.389  1.00  0.00    -0.014 A 
BRANCH  35  36
ATOM     36  C   UNL     1       2.801  -3.111   2.599  1.00  0.00     0.031 A 
ATOM     37  C   UNL     1       3.213  -4.487   2.144  1.00  0.00     0.074 A 
ATOM     38  C   UNL     1       3.726  -2.297   3.148  1.00  0.00     0.049 A 
ATOM     39  N   UNL     1       4.371  -5.087   2.266  1.00  0.00    -0.248 NA
ATOM     40  C   UNL     1       2.190  -5.297   1.466  1.00  0.00     0.031 C 
ATOM     41  C   UNL     1       3.485  -0.929   3.608  1.00  0.00     0.029 A 
ATOM     42  N   UNL     1       5.060  -2.503   3.406  1.00  0.00    -0.354 N 
ATOM     43  C   UNL     1       4.219  -6.328   1.660  1.00  0.00     0.074 A 
ATOM     44  C   UNL     1       2.840  -6.430   1.243  1.00  0.00     0.031 C 
ATOM     45  C   UNL     1       4.635  -0.410   4.067  1.00  0.00     0.029 A 
ATOM     46  C   UNL     1       5.680  -1.428   3.996  1.00  0.00     0.049 A 
ATOM     47  H   UNL     1       5.527  -3.341   3.187  1.00  0.00     0.167 HD
ATOM     48  C   UNL     1       5.147  -7.286   1.431  1.00  0.00     0.037 A 
ATOM     49  C   UNL     1       6.935  -1.283   4.465  1.00  0.00     0.037 A 
ATOM     50  C   UNL     1       6.519  -7.208   1.846  1.00  0.00     0.049 A 
ATOM     51  C   UNL     1       7.904  -2.426   4.364  1.00  0.00     0.074 A 
ATOM     52  C   UNL     1       7.531  -8.133   1.657  1.00  0.00     0.029 A 
ATOM     53  N   UNL     1       7.070  -6.147   2.546  1.00  0.00    -0.354 N 
ATOM     54  N   UNL     1       7.743  -3.591   3.784  1.00  0.00    -0.248 NA
ATOM     55  C   UNL     1       9.215  -2.249   5.005  1.00  0.00     0.031 C 
ATOM     56  C   UNL     1       8.686  -7.649   2.282  1.00  0.00     0.029 A 
ATOM     57  C   UNL     1       8.398  -6.411   2.835  1.00  0.00     0.049 A 
ATOM     58  H   UNL     1       6.588  -5.327   2.800  1.00  0.00     0.167 HD
ATOM     59  C   UNL     1       8.930  -4.285   3.989  1.00  0.00     0.074 A 
ATOM     60  C   UNL     1       9.807  -3.405   4.734  1.00  0.00     0.031 C 
ATOM     61  C   UNL     1       9.258  -5.540   3.595  1.00  0.00     0.037 A 
BRANCH  48  62
ATOM     62  C   UNL     1       4.699  -8.504   0.680  1.00  0.00     0.058 A 
ATOM     63  C   UNL     1       4.574  -8.486  -0.718  1.00  0.00     0.135 A 
ATOM     64  C   UNL     1       4.404  -9.697   1.355  1.00  0.00     0.135 A 
ATOM     65  F   UNL     1       4.826  -7.361  -1.405  1.00  0.00    -0.206 F 
ATOM     66  C   UNL     1       4.153  -9.608  -1.421  1.00  0.00     0.059 A 
ATOM     67  C   UNL     1       3.991 -10.836   0.670  1.00  0.00     0.059 A 
ATOM     68  F   UNL     1       4.499  -9.758   2.692  1.00  0.00    -0.206 F 
ATOM     69  C   UNL     1       3.858 -10.778  -0.718  1.00  0.00     0.060 A 
BRANCH  69  70
ATOM     70  S   UNL     1       3.292 -12.220  -1.645  1.00  0.00     0.124 S 
ATOM     71  O   UNL     1       1.935 -11.820  -2.002  1.00  0.00    -0.237 OA
ATOM     72  O   UNL     1       4.246 -12.278  -2.747  1.00  0.00    -0.237 OA
ATOM     73  O   UNL     1       3.391 -13.307  -0.676  1.00  0.00    -0.744 OA
ENDBRANCH  69  70
ENDBRANCH  48  62
BRANCH  49  74
ATOM     74  C   UNL     1       7.320  -0.009   5.127  1.00  0.00     0.058 A 
ATOM     75  C   UNL     1       8.186   0.900   4.506  1.00  0.00     0.135 A 
ATOM     76  C   UNL     1       6.780   0.343   6.375  1.00  0.00     0.135 A 
ATOM     77  F   UNL     1       8.738   0.600   3.321  1.00  0.00    -0.206 F 
ATOM     78  C   UNL     1       8.492   2.125   5.092  1.00  0.00     0.059 A 
ATOM     79  C   UNL     1       7.053   1.569   6.969  1.00  0.00     0.059 A 
ATOM     80  F   UNL     1       5.942  -0.494   7.005  1.00  0.00    -0.206 F 
ATOM     81  C   UNL     1       7.912   2.455   6.319  1.00  0.00     0.060 A 
BRANCH  81  82
ATOM     82  S   UNL     1       8.234   4.085   7.026  1.00  0.00     0.124 S 
ATOM     83  O   UNL     1       9.584   3.917   7.551  1.00  0.00    -0.237 OA
ATOM     84  O   UNL     1       8.105   4.957   5.863  1.00  0.00    -0.237 OA
ATOM     85  O   UNL     1       7.179   4.230   8.026  1.00  0.00    -0.744 OA
ENDBRANCH  81  82
ENDBRANCH  49  74
BRANCH  61  86
ATOM     86  C   UNL     1      10.614  -6.057   3.973  1.00  0.00     0.058 A 
ATOM     87  C   UNL     1      10.877  -6.511   5.274  1.00  0.00     0.135 A 
ATOM     88  C   UNL     1      11.633  -6.176   3.015  1.00  0.00     0.135 A 
ATOM     89  F   UNL     1       9.937  -6.411   6.228  1.00  0.00    -0.206 F 
ATOM     90  C   UNL     1      12.107  -7.063   5.615  1.00  0.00     0.059 A 
ATOM     91  C   UNL     1      12.864  -6.742   3.329  1.00  0.00     0.059 A 
ATOM     92  F   UNL     1      11.427  -5.763   1.755  1.00  0.00    -0.206 F 
ATOM     93  C   UNL     1      13.093  -7.179   4.633  1.00  0.00     0.060 A 
BRANCH  93  94
ATOM     94  S   UNL     1      14.665  -7.952   5.073  1.00  0.00     0.124 S 
ATOM     95  O   UNL     1      15.315  -6.886   5.830  1.00  0.00    -0.237 OA
ATOM     96  O   UNL     1      14.239  -9.112   5.850  1.00  0.00    -0.237 OA
ATOM     97  O   UNL     1      15.266  -8.258   3.778  1.00  0.00    -0.744 OA
ENDBRANCH  93  94
ENDBRANCH  61  86
ENDBRANCH  35  36
ENDBRANCH  28  30
ENDBRANCH  27  28
ENDBRANCH   1  27
TORSDOF 16
