REMARK SMILES COc1ccc(CC(=O)Nc2ccc(N3CC[NH+](C)CC3)cc2C(=O)OCCOC(=O)c2ccc(-c3c4nc(c(-c5c(F)cc(S(=O)(=O)[O-])cc5F)c5ccc([nH]5)c(-c5c(F)cc(S(=O)(=O)[O-])cc5F)c5nc(c(-c6c(F)cc(S(=O)(=O)[O-])cc6F)c6ccc3[nH]6)C=C5)C=C4)cc2)cc1
REMARK SMILES IDX 27 1 26 2 24 3 25 4 23 5 11 6 12 7 13 8 22 9 14 10 10 11
REMARK SMILES IDX 8 12 9 13 7 15 6 16 3 17 4 18 99 19 5 20 98 21 2 22 1 23
REMARK SMILES IDX 15 24 16 25 21 26 17 27 20 28 18 29 19 30 28 32 29 33 30 34
REMARK SMILES IDX 31 35 32 36 33 37 97 38 34 39 96 40 35 41 36 42 37 43 90 44
REMARK SMILES IDX 38 45 95 46 89 47 91 48 39 49 94 50 88 51 87 52 40 54 74 55
REMARK SMILES IDX 53 56 73 57 54 58 57 59 72 60 92 61 55 62 56 63 71 65 93 66
REMARK SMILES IDX 58 67 41 68 42 69 51 70 43 71 44 72 50 73 52 74 45 75 46 76
REMARK SMILES IDX 47 77 48 78 49 79 75 80 76 81 85 82 77 83 78 84 84 85 86 86
REMARK SMILES IDX 79 87 80 88 81 89 82 90 83 91 59 92 60 93 69 94 61 95 62 96
REMARK SMILES IDX 68 97 70 98 63 99 64 100 65 101 66 102 67 103
REMARK H PARENT 10 14 18 31 91 53 57 64
REMARK Flexibility Score: inf
ROOT
ATOM      1  C   UNL     1      -0.342   3.640   4.864  1.00  0.00     0.275 C 
ENDROOT
BRANCH   1   2
ATOM      2  O   UNL     1       0.975   4.220   4.716  1.00  0.00    -0.458 OA
BRANCH   2   3
ATOM      3  C   UNL     1       1.858   3.333   4.211  1.00  0.00     0.340 C 
ATOM      4  O   UNL     1       1.563   2.263   3.720  1.00  0.00    -0.246 OA
BRANCH   3   5
ATOM      5  C   UNL     1       3.276   3.644   4.398  1.00  0.00     0.085 A 
ATOM      6  C   UNL     1       3.855   3.521   5.660  1.00  0.00     0.055 A 
ATOM      7  C   UNL     1       5.217   3.758   5.786  1.00  0.00     0.029 A 
ATOM      8  C   UNL     1       6.013   3.860   4.633  1.00  0.00     0.028 A 
ATOM      9  C   UNL     1       4.088   3.772   3.252  1.00  0.00     0.043 A 
ATOM     10  C   UNL     1       5.484   3.756   3.334  1.00  0.00     0.038 A 
BRANCH   6  11
ATOM     11  N   UNL     1       3.122   3.150   6.803  1.00  0.00    -0.325 N 
ATOM     12  C   UNL     1       2.412   1.974   6.965  1.00  0.00     0.228 C 
ATOM     13  O   UNL     1       1.412   1.991   7.688  1.00  0.00    -0.274 OA
ATOM     14  H   UNL     1       3.114   3.785   7.555  1.00  0.00     0.169 HD
BRANCH  12  15
ATOM     15  C   UNL     1       2.974   0.668   6.387  1.00  0.00     0.135 C 
BRANCH  15  16
ATOM     16  C   UNL     1       2.234   0.028   5.231  1.00  0.00    -0.038 A 
ATOM     17  C   UNL     1       0.896  -0.980   2.942  1.00  0.00     0.118 A 
ATOM     18  C   UNL     1       0.187  -0.632   4.095  1.00  0.00     0.047 A 
ATOM     19  C   UNL     1       2.287  -0.902   2.963  1.00  0.00     0.047 A 
ATOM     20  C   UNL     1       0.845  -0.151   5.236  1.00  0.00     0.008 A 
ATOM     21  C   UNL     1       2.948  -0.399   4.096  1.00  0.00     0.008 A 
BRANCH  17  22
ATOM     22  O   UNL     1       0.116  -1.365   1.887  1.00  0.00    -0.497 OA
ATOM     23  C   UNL     1       0.730  -1.478   0.608  1.00  0.00     0.278 C 
ENDBRANCH  17  22
ENDBRANCH  15  16
ENDBRANCH  12  15
ENDBRANCH   6  11
BRANCH  10  24
ATOM     24  N   UNL     1       6.287   3.535   2.228  1.00  0.00    -0.360 N 
ATOM     25  C   UNL     1       5.952   3.943   0.844  1.00  0.00     0.178 C 
ATOM     26  C   UNL     1       7.654   2.990   2.375  1.00  0.00     0.178 C 
ATOM     27  C   UNL     1       6.364   2.865  -0.199  1.00  0.00     0.283 C 
ATOM     28  C   UNL     1       7.955   1.908   1.312  1.00  0.00     0.283 C 
ATOM     29  N   UNL     1       7.759   2.399  -0.063  1.00  0.00    -0.334 N 
ATOM     30  C   UNL     1       8.033   1.329  -1.030  1.00  0.00     0.332 C 
ATOM     31  H   UNL     1       8.403   3.167  -0.251  1.00  0.00     0.347 HD
ENDBRANCH  10  24
ENDBRANCH   3   5
ENDBRANCH   2   3
ENDBRANCH   1   2
BRANCH   1  32
ATOM     32  C   UNL     1      -1.218   3.590   3.595  1.00  0.00     0.275 C 
BRANCH  32  33
ATOM     33  O   UNL     1      -0.674   2.800   2.517  1.00  0.00    -0.458 OA
BRANCH  33  34
ATOM     34  C   UNL     1      -0.118   3.502   1.503  1.00  0.00     0.338 C 
ATOM     35  O   UNL     1      -0.107   4.719   1.385  1.00  0.00    -0.246 OA
BRANCH  34  36
ATOM     36  C   UNL     1       0.560   2.632   0.516  1.00  0.00     0.060 A 
ATOM     37  C   UNL     1       1.847   2.178   0.783  1.00  0.00     0.016 A 
ATOM     38  C   UNL     1       0.052   2.486  -0.772  1.00  0.00     0.016 A 
ATOM     39  C   UNL     1       2.668   1.678  -0.218  1.00  0.00     0.010 A 
ATOM     40  C   UNL     1       0.856   1.914  -1.774  1.00  0.00     0.010 A 
ATOM     41  C   UNL     1       2.196   1.556  -1.519  1.00  0.00    -0.014 A 
BRANCH  41  42
ATOM     42  C   UNL     1       3.135   1.213  -2.623  1.00  0.00     0.031 A 
ATOM     43  C   UNL     1       3.318   2.208  -3.739  1.00  0.00     0.074 A 
ATOM     44  C   UNL     1       3.878   0.086  -2.626  1.00  0.00     0.049 A 
ATOM     45  N   UNL     1       3.839   2.041  -4.925  1.00  0.00    -0.248 NA
ATOM     46  C   UNL     1       2.852   3.580  -3.473  1.00  0.00     0.031 C 
ATOM     47  C   UNL     1       3.956  -0.898  -1.546  1.00  0.00     0.029 A 
ATOM     48  N   UNL     1       4.708  -0.429  -3.594  1.00  0.00    -0.354 N 
ATOM     49  C   UNL     1       3.711   3.268  -5.567  1.00  0.00     0.074 A 
ATOM     50  C   UNL     1       3.059   4.168  -4.642  1.00  0.00     0.031 C 
ATOM     51  C   UNL     1       4.754  -1.910  -1.921  1.00  0.00     0.029 A 
ATOM     52  C   UNL     1       5.186  -1.685  -3.294  1.00  0.00     0.049 A 
ATOM     53  H   UNL     1       4.939   0.053  -4.420  1.00  0.00     0.167 HD
ATOM     54  C   UNL     1       4.107   3.612  -6.815  1.00  0.00     0.037 A 
ATOM     55  C   UNL     1       5.838  -2.584  -4.057  1.00  0.00     0.037 A 
ATOM     56  C   UNL     1       4.804   2.727  -7.708  1.00  0.00     0.049 A 
ATOM     57  C   UNL     1       6.161  -2.234  -5.484  1.00  0.00     0.074 A 
ATOM     58  C   UNL     1       5.212   2.959  -9.010  1.00  0.00     0.029 A 
ATOM     59  N   UNL     1       5.220   1.446  -7.380  1.00  0.00    -0.354 N 
ATOM     60  N   UNL     1       5.933  -1.115  -6.129  1.00  0.00    -0.248 NA
ATOM     61  C   UNL     1       6.819  -3.271  -6.292  1.00  0.00     0.031 C 
ATOM     62  C   UNL     1       5.858   1.808  -9.476  1.00  0.00     0.029 A 
ATOM     63  C   UNL     1       5.881   0.875  -8.452  1.00  0.00     0.049 A 
ATOM     64  H   UNL     1       5.068   1.008  -6.511  1.00  0.00     0.167 HD
ATOM     65  C   UNL     1       6.447  -1.302  -7.407  1.00  0.00     0.074 A 
ATOM     66  C   UNL     1       7.003  -2.639  -7.443  1.00  0.00     0.031 C 
ATOM     67  C   UNL     1       6.457  -0.446  -8.457  1.00  0.00     0.037 A 
BRANCH  54  68
ATOM     68  C   UNL     1       3.767   4.995  -7.292  1.00  0.00     0.058 A 
ATOM     69  C   UNL     1       4.443   6.129  -6.818  1.00  0.00     0.135 A 
ATOM     70  C   UNL     1       2.755   5.184  -8.248  1.00  0.00     0.135 A 
ATOM     71  F   UNL     1       5.400   6.005  -5.886  1.00  0.00    -0.206 F 
ATOM     72  C   UNL     1       4.110   7.407  -7.256  1.00  0.00     0.059 A 
ATOM     73  C   UNL     1       2.423   6.450  -8.718  1.00  0.00     0.059 A 
ATOM     74  F   UNL     1       2.075   4.131  -8.729  1.00  0.00    -0.206 F 
ATOM     75  C   UNL     1       3.096   7.557  -8.205  1.00  0.00     0.060 A 
BRANCH  75  76
ATOM     76  S   UNL     1       2.673   9.221  -8.762  1.00  0.00     0.124 S 
ATOM     77  O   UNL     1       1.947   9.738  -7.606  1.00  0.00    -0.237 OA
ATOM     78  O   UNL     1       3.985   9.814  -9.003  1.00  0.00    -0.237 OA
ATOM     79  O   UNL     1       1.867   8.985  -9.955  1.00  0.00    -0.744 OA
ENDBRANCH  75  76
ENDBRANCH  54  68
BRANCH  55  80
ATOM     80  C   UNL     1       6.166  -3.933  -3.520  1.00  0.00     0.058 A 
ATOM     81  C   UNL     1       7.495  -4.327  -3.313  1.00  0.00     0.135 A 
ATOM     82  C   UNL     1       5.156  -4.869  -3.243  1.00  0.00     0.135 A 
ATOM     83  F   UNL     1       8.496  -3.471  -3.569  1.00  0.00    -0.206 F 
ATOM     84  C   UNL     1       7.816  -5.611  -2.883  1.00  0.00     0.059 A 
ATOM     85  C   UNL     1       5.449  -6.149  -2.785  1.00  0.00     0.059 A 
ATOM     86  F   UNL     1       3.866  -4.538  -3.411  1.00  0.00    -0.206 F 
ATOM     87  C   UNL     1       6.785  -6.518  -2.628  1.00  0.00     0.060 A 
BRANCH  87  88
ATOM     88  S   UNL     1       7.208  -8.181  -2.067  1.00  0.00     0.124 S 
ATOM     89  O   UNL     1       7.678  -8.794  -3.304  1.00  0.00    -0.237 OA
ATOM     90  O   UNL     1       8.229  -7.914  -1.058  1.00  0.00    -0.237 OA
ATOM     91  O   UNL     1       5.943  -8.691  -1.548  1.00  0.00    -0.744 OA
ENDBRANCH  87  88
ENDBRANCH  55  80
BRANCH  67  92
ATOM     92  C   UNL     1       7.140  -0.899  -9.714  1.00  0.00     0.058 A 
ATOM     93  C   UNL     1       6.543  -1.824 -10.584  1.00  0.00     0.135 A 
ATOM     94  C   UNL     1       8.378  -0.349 -10.083  1.00  0.00     0.135 A 
ATOM     95  F   UNL     1       5.365  -2.385 -10.268  1.00  0.00    -0.206 F 
ATOM     96  C   UNL     1       7.156  -2.195 -11.775  1.00  0.00     0.059 A 
ATOM     97  C   UNL     1       8.997  -0.689 -11.281  1.00  0.00     0.059 A 
ATOM     98  F   UNL     1       8.986   0.544  -9.286  1.00  0.00    -0.206 F 
ATOM     99  C   UNL     1       8.380  -1.618 -12.118  1.00  0.00     0.060 A 
BRANCH  99 100
ATOM    100  S   UNL     1       9.137  -2.063 -13.695  1.00  0.00     0.124 S 
ATOM    101  O   UNL     1       9.653  -3.397 -13.407  1.00  0.00    -0.237 OA
ATOM    102  O   UNL     1       8.003  -2.006 -14.613  1.00  0.00    -0.237 OA
ATOM    103  O   UNL     1      10.147  -1.028 -13.891  1.00  0.00    -0.744 OA
ENDBRANCH  99 100
ENDBRANCH  67  92
ENDBRANCH  41  42
ENDBRANCH  34  36
ENDBRANCH  33  34
ENDBRANCH  32  33
ENDBRANCH   1  32
TORSDOF 19
