REMARK SMILES CCc1sc(C(=O)Nc2ccc(C(=O)OCCOC(=O)c3ccc(-c4c5nc(c(-c6c(F)cc(S(=O)(=O)[O-])cc6F)c6ccc([nH]6)c(-c6c(F)cc(S(=O)(=O)[O-])cc6F)c6nc(c(-c7c(F)cc(S(=O)(=O)[O-])cc7F)c7ccc4[nH]7)C=C6)C=C5)cc3)c(O)c2)cc1C
REMARK SMILES IDX 16 1 15 2 13 3 14 4 12 5 9 6 10 7 89 8 11 9 87 10 8 11 6 12
REMARK SMILES IDX 7 13 5 15 3 16 4 17 91 18 90 19 92 20 2 21 1 22 88 23 17 25
REMARK SMILES IDX 18 26 19 27 20 28 21 29 22 30 86 31 23 32 85 33 24 34 25 35
REMARK SMILES IDX 26 36 79 37 27 38 84 39 78 40 80 41 28 42 83 43 77 44 76 45
REMARK SMILES IDX 29 47 63 48 42 49 62 50 43 51 46 52 61 53 81 54 44 55 45 56
REMARK SMILES IDX 60 58 82 59 47 60 30 61 31 62 40 63 32 64 33 65 39 66 41 67
REMARK SMILES IDX 34 68 35 69 36 70 37 71 38 72 64 73 65 74 74 75 66 76 67 77
REMARK SMILES IDX 73 78 75 79 68 80 69 81 70 82 71 83 72 84 48 85 49 86 58 87
REMARK SMILES IDX 50 88 51 89 57 90 59 91 52 92 53 93 54 94 55 95 56 96
REMARK H PARENT 8 14 88 24 80 46 46 57
REMARK Flexibility Score: inf
ROOT
ATOM      1  C   UNL     1       5.991   2.505   3.850  1.00  0.00     0.275 C 
ENDROOT
BRANCH   1   2
ATOM      2  O   UNL     1       5.800   1.079   3.708  1.00  0.00    -0.458 OA
BRANCH   2   3
ATOM      3  C   UNL     1       4.731   0.552   4.368  1.00  0.00     0.342 C 
ATOM      4  O   UNL     1       3.949   1.165   5.068  1.00  0.00    -0.246 OA
BRANCH   3   5
ATOM      5  C   UNL     1       4.579  -0.893   4.044  1.00  0.00     0.101 A 
ATOM      6  C   UNL     1       4.112  -3.561   3.286  1.00  0.00     0.045 A 
ATOM      7  C   UNL     1       3.042  -2.739   3.635  1.00  0.00     0.027 A 
ATOM      8  C   UNL     1       5.419  -3.082   3.419  1.00  0.00     0.073 A 
ATOM      9  C   UNL     1       3.281  -1.426   4.052  1.00  0.00     0.022 A 
ATOM     10  C   UNL     1       5.648  -1.742   3.744  1.00  0.00     0.132 A 
BRANCH   6  11
ATOM     11  N   UNL     1       3.930  -4.875   2.834  1.00  0.00    -0.321 N 
ATOM     12  C   UNL     1       2.931  -5.429   2.050  1.00  0.00     0.265 C 
ATOM     13  O   UNL     1       2.774  -6.650   2.152  1.00  0.00    -0.268 OA
ATOM     14  H   UNL     1       4.627  -5.509   3.122  1.00  0.00     0.170 HD
BRANCH  12  15
ATOM     15  C   UNL     1       2.195  -4.641   1.062  1.00  0.00     0.093 A 
ATOM     16  C   UNL     1       1.405  -2.928  -0.560  1.00  0.00     0.008 A 
ATOM     17  S   UNL     1       2.818  -3.214   0.360  1.00  0.00    -0.135 S 
ATOM     18  C   UNL     1       0.578  -4.042  -0.556  1.00  0.00    -0.036 A 
ATOM     19  C   UNL     1       1.033  -5.011   0.405  1.00  0.00     0.029 A 
ATOM     20  C   UNL     1      -0.630  -4.239  -1.420  1.00  0.00     0.045 C 
BRANCH  16  21
ATOM     21  C   UNL     1       1.217  -1.636  -1.314  1.00  0.00     0.043 C 
ATOM     22  C   UNL     1       1.891  -0.428  -0.678  1.00  0.00     0.010 C 
ENDBRANCH  16  21
ENDBRANCH  12  15
ENDBRANCH   6  11
BRANCH  10  23
ATOM     23  O   UNL     1       6.956  -1.338   3.742  1.00  0.00    -0.507 OA
ATOM     24  H   UNL     1       7.174  -0.452   3.952  1.00  0.00     0.293 HD
ENDBRANCH  10  23
ENDBRANCH   3   5
ENDBRANCH   2   3
ENDBRANCH   1   2
BRANCH   1  25
ATOM     25  C   UNL     1       5.503   3.276   2.621  1.00  0.00     0.275 C 
BRANCH  25  26
ATOM     26  O   UNL     1       4.066   3.260   2.538  1.00  0.00    -0.458 OA
BRANCH  26  27
ATOM     27  C   UNL     1       3.559   2.455   1.578  1.00  0.00     0.338 C 
ATOM     28  O   UNL     1       4.184   1.779   0.778  1.00  0.00    -0.246 OA
BRANCH  27  29
ATOM     29  C   UNL     1       2.092   2.403   1.673  1.00  0.00     0.060 A 
ATOM     30  C   UNL     1       1.542   1.450   2.521  1.00  0.00     0.016 A 
ATOM     31  C   UNL     1       1.276   3.107   0.790  1.00  0.00     0.016 A 
ATOM     32  C   UNL     1       0.197   1.107   2.413  1.00  0.00     0.010 A 
ATOM     33  C   UNL     1      -0.101   2.830   0.753  1.00  0.00     0.010 A 
ATOM     34  C   UNL     1      -0.650   1.790   1.527  1.00  0.00    -0.014 A 
BRANCH  34  35
ATOM     35  C   UNL     1      -2.083   1.380   1.409  1.00  0.00     0.031 A 
ATOM     36  C   UNL     1      -2.653   0.901   0.093  1.00  0.00     0.074 A 
ATOM     37  C   UNL     1      -2.870   1.376   2.506  1.00  0.00     0.049 A 
ATOM     38  N   UNL     1      -3.876   0.526  -0.194  1.00  0.00    -0.248 NA
ATOM     39  C   UNL     1      -1.731   0.818  -1.049  1.00  0.00     0.031 C 
ATOM     40  C   UNL     1      -2.447   1.769   3.853  1.00  0.00     0.029 A 
ATOM     41  N   UNL     1      -4.189   1.024   2.667  1.00  0.00    -0.354 N 
ATOM     42  C   UNL     1      -3.866   0.163  -1.537  1.00  0.00     0.074 A 
ATOM     43  C   UNL     1      -2.521   0.379  -2.020  1.00  0.00     0.031 C 
ATOM     44  C   UNL     1      -3.471   1.611   4.702  1.00  0.00     0.029 A 
ATOM     45  C   UNL     1      -4.650   1.196   3.952  1.00  0.00     0.049 A 
ATOM     46  H   UNL     1      -4.749   0.682   1.934  1.00  0.00     0.167 HD
ATOM     47  C   UNL     1      -4.883  -0.302  -2.304  1.00  0.00     0.037 A 
ATOM     48  C   UNL     1      -5.891   1.091   4.467  1.00  0.00     0.037 A 
ATOM     49  C   UNL     1      -6.234  -0.479  -1.839  1.00  0.00     0.049 A 
ATOM     50  C   UNL     1      -7.029   0.702   3.567  1.00  0.00     0.074 A 
ATOM     51  C   UNL     1      -7.341  -0.909  -2.552  1.00  0.00     0.029 A 
ATOM     52  N   UNL     1      -6.670  -0.217  -0.549  1.00  0.00    -0.354 N 
ATOM     53  N   UNL     1      -6.999   0.379   2.297  1.00  0.00    -0.248 NA
ATOM     54  C   UNL     1      -8.371   0.683   4.164  1.00  0.00     0.031 C 
ATOM     55  C   UNL     1      -8.456  -0.851  -1.709  1.00  0.00     0.029 A 
ATOM     56  C   UNL     1      -8.034  -0.440  -0.455  1.00  0.00     0.049 A 
ATOM     57  H   UNL     1      -6.094   0.083   0.192  1.00  0.00     0.167 HD
ATOM     58  C   UNL     1      -8.316   0.107   1.945  1.00  0.00     0.074 A 
ATOM     59  C   UNL     1      -9.114   0.285   3.140  1.00  0.00     0.031 C 
ATOM     60  C   UNL     1      -8.818  -0.255   0.739  1.00  0.00     0.037 A 
BRANCH  47  61
ATOM     61  C   UNL     1      -4.591  -0.613  -3.747  1.00  0.00     0.058 A 
ATOM     62  C   UNL     1      -3.898  -1.772  -4.128  1.00  0.00     0.135 A 
ATOM     63  C   UNL     1      -5.071   0.228  -4.765  1.00  0.00     0.135 A 
ATOM     64  F   UNL     1      -3.400  -2.600  -3.196  1.00  0.00    -0.206 F 
ATOM     65  C   UNL     1      -3.685  -2.084  -5.469  1.00  0.00     0.059 A 
ATOM     66  C   UNL     1      -4.886  -0.073  -6.111  1.00  0.00     0.059 A 
ATOM     67  F   UNL     1      -5.735   1.352  -4.454  1.00  0.00    -0.206 F 
ATOM     68  C   UNL     1      -4.186  -1.229  -6.453  1.00  0.00     0.060 A 
BRANCH  68  69
ATOM     69  S   UNL     1      -3.917  -1.656  -8.188  1.00  0.00     0.124 S 
ATOM     70  O   UNL     1      -2.484  -1.419  -8.326  1.00  0.00    -0.237 OA
ATOM     71  O   UNL     1      -4.335  -3.054  -8.232  1.00  0.00    -0.237 OA
ATOM     72  O   UNL     1      -4.779  -0.723  -8.907  1.00  0.00    -0.744 OA
ENDBRANCH  68  69
ENDBRANCH  47  61
BRANCH  48  73
ATOM     73  C   UNL     1      -6.128   1.438   5.895  1.00  0.00     0.058 A 
ATOM     74  C   UNL     1      -6.506   0.468   6.833  1.00  0.00     0.135 A 
ATOM     75  C   UNL     1      -5.968   2.759   6.348  1.00  0.00     0.135 A 
ATOM     76  F   UNL     1      -6.687  -0.804   6.448  1.00  0.00    -0.206 F 
ATOM     77  C   UNL     1      -6.726   0.795   8.168  1.00  0.00     0.059 A 
ATOM     78  C   UNL     1      -6.149   3.103   7.682  1.00  0.00     0.059 A 
ATOM     79  F   UNL     1      -5.599   3.724   5.492  1.00  0.00    -0.206 F 
ATOM     80  C   UNL     1      -6.540   2.115   8.583  1.00  0.00     0.060 A 
BRANCH  80  81
ATOM     81  S   UNL     1      -6.776   2.526  10.326  1.00  0.00     0.124 S 
ATOM     82  O   UNL     1      -8.230   2.546  10.427  1.00  0.00    -0.237 OA
ATOM     83  O   UNL     1      -6.103   1.419  10.998  1.00  0.00    -0.237 OA
ATOM     84  O   UNL     1      -6.115   3.822  10.455  1.00  0.00    -0.744 OA
ENDBRANCH  80  81
ENDBRANCH  48  73
BRANCH  60  85
ATOM     85  C   UNL     1     -10.297  -0.507   0.657  1.00  0.00     0.058 A 
ATOM     86  C   UNL     1     -11.226   0.544   0.685  1.00  0.00     0.135 A 
ATOM     87  C   UNL     1     -10.788  -1.815   0.512  1.00  0.00     0.135 A 
ATOM     88  F   UNL     1     -10.807   1.812   0.831  1.00  0.00    -0.206 F 
ATOM     89  C   UNL     1     -12.593   0.306   0.599  1.00  0.00     0.059 A 
ATOM     90  C   UNL     1     -12.150  -2.073   0.397  1.00  0.00     0.059 A 
ATOM     91  F   UNL     1      -9.940  -2.855   0.469  1.00  0.00    -0.206 F 
ATOM     92  C   UNL     1     -13.046  -1.007   0.455  1.00  0.00     0.060 A 
BRANCH  92  93
ATOM     93  S   UNL     1     -14.821  -1.302   0.319  1.00  0.00     0.124 S 
ATOM     94  O   UNL     1     -15.256  -1.117   1.699  1.00  0.00    -0.237 OA
ATOM     95  O   UNL     1     -15.240  -0.267  -0.622  1.00  0.00    -0.237 OA
ATOM     96  O   UNL     1     -14.900  -2.669  -0.188  1.00  0.00    -0.744 OA
ENDBRANCH  92  93
ENDBRANCH  60  85
ENDBRANCH  34  35
ENDBRANCH  27  29
ENDBRANCH  26  27
ENDBRANCH  25  26
ENDBRANCH   1  25
TORSDOF 18
