REMARK SMILES Cc1cccc(CNC(=O)N[C@@H](CC2=c3ccccc3=NC2)C(=O)OCCOC(=O)c2ccc(-c3c4nc(c(-c5c(F)cc(S(=O)(=O)[O-])cc5F)c5ccc([nH]5)c(-c5c(F)cc(S(=O)(=O)[O-])cc5F)c5nc(c(-c6c(F)cc(S(=O)(=O)[O-])cc6F)c6ccc3[nH]6)C=C5)C=C4)cc2)c1
REMARK SMILES IDX 26 1 25 2 23 3 24 4 12 5 11 6 8 7 9 8 10 10 7 12 6 13 1 14
REMARK SMILES IDX 2 15 3 16 97 17 4 18 5 19 13 20 14 21 15 22 22 23 16 24
REMARK SMILES IDX 20 25 21 26 17 27 19 28 18 29 27 30 28 31 29 32 30 33 31 34
REMARK SMILES IDX 32 35 96 36 33 37 95 38 34 39 35 40 36 41 89 42 37 43 94 44
REMARK SMILES IDX 88 45 90 46 38 47 93 48 87 49 86 50 39 52 73 53 52 54 72 55
REMARK SMILES IDX 53 56 56 57 71 58 91 59 54 60 55 61 70 63 92 64 57 65 40 66
REMARK SMILES IDX 41 67 50 68 42 69 43 70 49 71 51 72 44 73 45 74 46 75 47 76
REMARK SMILES IDX 48 77 74 78 75 79 84 80 76 81 77 82 83 83 85 84 78 85 79 86
REMARK SMILES IDX 80 87 81 88 82 89 58 90 59 91 68 92 60 93 61 94 67 95 69 96
REMARK SMILES IDX 62 97 63 98 64 99 65 100 66 101
REMARK H PARENT 8 9 11 11 90 51 56 62
REMARK Flexibility Score: inf
ROOT
ATOM      1  C   UNL     1      -5.289  -1.262   3.836  1.00  0.00     0.274 C 
ENDROOT
BRANCH   1   2
ATOM      2  O   UNL     1      -5.388   0.175   3.711  1.00  0.00    -0.461 OA
BRANCH   2   3
ATOM      3  C   UNL     1      -4.307   0.846   2.999  1.00  0.00     0.329 C 
ATOM      4  O   UNL     1      -3.289   0.149   3.272  1.00  0.00    -0.250 OA
BRANCH   3   5
ATOM      5  C   UNL     1      -4.588   2.542   1.625  1.00  0.00     0.198 C 
BRANCH   5   6
ATOM      6  N   UNL     1      -4.744   2.557  -0.050  1.00  0.00    -0.324 N 
ATOM      7  N   UNL     1      -2.776   3.010  -1.347  1.00  0.00    -0.334 N 
ATOM      8  C   UNL     1      -4.080   2.841  -1.166  1.00  0.00     0.315 C 
ATOM      9  H   UNL     1      -2.599   3.310  -2.268  1.00  0.00     0.165 HD
ATOM     10  O   UNL     1      -4.779   2.967  -2.182  1.00  0.00    -0.249 OA
ATOM     11  H   UNL     1      -5.646   2.243  -0.288  1.00  0.00     0.166 HD
BRANCH   7  12
ATOM     12  C   UNL     1      -1.525   2.892  -0.613  1.00  0.00     0.153 C 
BRANCH  12  13
ATOM     13  C   UNL     1      -0.713   1.645  -0.934  1.00  0.00    -0.028 A 
ATOM     14  C   UNL     1       2.708   0.175   0.009  1.00  0.00     0.044 C 
ATOM     15  C   UNL     1       1.345   0.341  -0.599  1.00  0.00    -0.051 A 
ATOM     16  C   UNL     1       0.743  -0.758  -1.217  1.00  0.00     0.003 A 
ATOM     17  C   UNL     1       0.611   1.533  -0.457  1.00  0.00     0.009 A 
ATOM     18  C   UNL     1      -0.551  -0.656  -1.722  1.00  0.00     0.001 A 
ATOM     19  C   UNL     1      -1.269   0.535  -1.591  1.00  0.00     0.005 A 
ENDBRANCH  12  13
ENDBRANCH   7  12
ENDBRANCH   5   6
BRANCH   5  20
ATOM     20  C   UNL     1      -5.544   4.083   1.737  1.00  0.00     0.070 C 
BRANCH  20  21
ATOM     21  C   UNL     1      -7.050   4.318   1.896  1.00  0.00    -0.037 C 
ATOM     22  C   UNL     1      -8.153   3.585   1.720  1.00  0.00     0.001 A 
ATOM     23  C   UNL     1      -7.460   5.619   2.560  1.00  0.00     0.174 C 
ATOM     24  C   UNL     1      -8.538   2.373   1.071  1.00  0.00     0.010 A 
ATOM     25  C   UNL     1      -9.027   4.158   2.770  1.00  0.00     0.065 A 
ATOM     26  N   UNL     1      -8.751   5.341   3.215  1.00  0.00    -0.280 NA
ATOM     27  C   UNL     1      -9.511   1.617   1.610  1.00  0.00     0.001 A 
ATOM     28  C   UNL     1     -10.043   3.249   3.351  1.00  0.00     0.028 A 
ATOM     29  C   UNL     1     -10.189   2.022   2.826  1.00  0.00     0.002 A 
ENDBRANCH  20  21
ENDBRANCH   5  20
ENDBRANCH   3   5
ENDBRANCH   2   3
ENDBRANCH   1   2
BRANCH   1  30
ATOM     30  C   UNL     1      -5.860  -1.902   2.564  1.00  0.00     0.275 C 
BRANCH  30  31
ATOM     31  O   UNL     1      -4.992  -1.827   1.400  1.00  0.00    -0.458 OA
BRANCH  31  32
ATOM     32  C   UNL     1      -5.134  -0.834   0.487  1.00  0.00     0.338 C 
ATOM     33  O   UNL     1      -5.551  -0.968  -0.651  1.00  0.00    -0.246 OA
BRANCH  32  34
ATOM     34  C   UNL     1      -4.815   0.485   1.040  1.00  0.00     0.060 A 
ATOM     35  C   UNL     1      -3.122   1.042   1.305  1.00  0.00     0.016 A 
ATOM     36  C   UNL     1      -6.130   1.214   1.995  1.00  0.00     0.016 A 
ATOM     37  C   UNL     1      -2.718   2.178   2.674  1.00  0.00     0.010 A 
ATOM     38  C   UNL     1      -5.739   2.322   3.367  1.00  0.00     0.010 A 
ATOM     39  C   UNL     1      -4.039   2.769   3.722  1.00  0.00    -0.014 A 
BRANCH  39  40
ATOM     40  C   UNL     1      -3.965   3.028   5.168  1.00  0.00     0.031 A 
ATOM     41  C   UNL     1      -4.707   4.194   5.689  1.00  0.00     0.074 A 
ATOM     42  C   UNL     1      -3.732   1.958   5.965  1.00  0.00     0.049 A 
ATOM     43  N   UNL     1      -5.630   4.132   6.591  1.00  0.00    -0.248 NA
ATOM     44  C   UNL     1      -4.500   5.534   5.132  1.00  0.00     0.031 C 
ATOM     45  C   UNL     1      -4.151   1.752   7.347  1.00  0.00     0.029 A 
ATOM     46  N   UNL     1      -2.984   0.820   5.718  1.00  0.00    -0.354 N 
ATOM     47  C   UNL     1      -6.034   5.419   6.852  1.00  0.00     0.074 A 
ATOM     48  C   UNL     1      -5.376   6.247   5.847  1.00  0.00     0.031 C 
ATOM     49  C   UNL     1      -3.412   0.767   7.886  1.00  0.00     0.029 A 
ATOM     50  C   UNL     1      -2.412   0.383   6.905  1.00  0.00     0.049 A 
ATOM     51  H   UNL     1      -2.876   0.388   4.839  1.00  0.00     0.167 HD
ATOM     52  C   UNL     1      -6.167   5.866   8.130  1.00  0.00     0.037 A 
ATOM     53  C   UNL     1      -1.063   0.499   7.083  1.00  0.00     0.037 A 
ATOM     54  C   UNL     1      -5.290   5.162   9.045  1.00  0.00     0.049 A 
ATOM     55  C   UNL     1      -0.727   1.663   7.991  1.00  0.00     0.074 A 
ATOM     56  C   UNL     1      -5.423   4.057   9.864  1.00  0.00     0.029 A 
ATOM     57  N   UNL     1      -3.929   5.447   8.986  1.00  0.00    -0.354 N 
ATOM     58  N   UNL     1      -1.585   2.602   8.301  1.00  0.00    -0.248 NA
ATOM     59  C   UNL     1       0.548   1.846   8.674  1.00  0.00     0.031 C 
ATOM     60  C   UNL     1      -4.110   3.614  10.203  1.00  0.00     0.029 A 
ATOM     61  C   UNL     1      -3.184   4.475   9.629  1.00  0.00     0.049 A 
ATOM     62  H   UNL     1      -3.546   6.239   8.544  1.00  0.00     0.167 HD
ATOM     63  C   UNL     1      -1.038   3.472   9.198  1.00  0.00     0.074 A 
ATOM     64  C   UNL     1       0.302   2.949   9.406  1.00  0.00     0.031 C 
ATOM     65  C   UNL     1      -1.723   4.552   9.689  1.00  0.00     0.037 A 
BRANCH  52  66
ATOM     66  C   UNL     1      -7.402   6.672   8.454  1.00  0.00     0.058 A 
ATOM     67  C   UNL     1      -7.865   6.804   9.776  1.00  0.00     0.135 A 
ATOM     68  C   UNL     1      -8.222   7.272   7.465  1.00  0.00     0.135 A 
ATOM     69  F   UNL     1      -7.179   6.280  10.803  1.00  0.00    -0.206 F 
ATOM     70  C   UNL     1      -9.066   7.450  10.092  1.00  0.00     0.059 A 
ATOM     71  C   UNL     1      -9.420   7.925   7.758  1.00  0.00     0.059 A 
ATOM     72  F   UNL     1      -7.893   7.231   6.165  1.00  0.00    -0.206 F 
ATOM     73  C   UNL     1      -9.844   7.997   9.076  1.00  0.00     0.060 A 
BRANCH  73  74
ATOM     74  S   UNL     1     -11.413   8.785   9.495  1.00  0.00     0.124 S 
ATOM     75  O   UNL     1     -12.185   7.663  10.020  1.00  0.00    -0.237 OA
ATOM     76  O   UNL     1     -11.004   9.788  10.473  1.00  0.00    -0.237 OA
ATOM     77  O   UNL     1     -11.882   9.319   8.219  1.00  0.00    -0.744 OA
ENDBRANCH  73  74
ENDBRANCH  52  66
BRANCH  53  78
ATOM     78  C   UNL     1      -0.283  -0.153   5.985  1.00  0.00     0.058 A 
ATOM     79  C   UNL     1      -0.342  -1.561   5.994  1.00  0.00     0.135 A 
ATOM     80  C   UNL     1      -0.050   0.460   4.740  1.00  0.00     0.135 A 
ATOM     81  F   UNL     1      -0.517  -2.211   7.157  1.00  0.00    -0.206 F 
ATOM     82  C   UNL     1      -0.408  -2.305   4.822  1.00  0.00     0.059 A 
ATOM     83  C   UNL     1      -0.109  -0.276   3.541  1.00  0.00     0.059 A 
ATOM     84  F   UNL     1       0.043   1.797   4.658  1.00  0.00    -0.206 F 
ATOM     85  C   UNL     1      -0.367  -1.649   3.597  1.00  0.00     0.060 A 
BRANCH  85  86
ATOM     86  S   UNL     1      -0.900  -2.590   2.136  1.00  0.00     0.124 S 
ATOM     87  O   UNL     1       0.336  -3.260   1.747  1.00  0.00    -0.237 OA
ATOM     88  O   UNL     1      -1.943  -3.458   2.679  1.00  0.00    -0.237 OA
ATOM     89  O   UNL     1      -1.373  -1.566   1.220  1.00  0.00    -0.744 OA
ENDBRANCH  85  86
ENDBRANCH  53  78
BRANCH  65  90
ATOM     90  C   UNL     1      -1.053   5.727  10.368  1.00  0.00     0.058 A 
ATOM     91  C   UNL     1       0.285   6.090  10.130  1.00  0.00     0.135 A 
ATOM     92  C   UNL     1      -1.782   6.617  11.193  1.00  0.00     0.135 A 
ATOM     93  F   UNL     1       1.036   5.443   9.227  1.00  0.00    -0.206 F 
ATOM     94  C   UNL     1       0.898   7.162  10.771  1.00  0.00     0.059 A 
ATOM     95  C   UNL     1      -1.207   7.740  11.788  1.00  0.00     0.059 A 
ATOM     96  F   UNL     1      -3.089   6.438  11.435  1.00  0.00    -0.206 F 
ATOM     97  C   UNL     1       0.148   7.974  11.611  1.00  0.00     0.060 A 
BRANCH  97  98
ATOM     98  S   UNL     1       0.949   9.359  12.435  1.00  0.00     0.124 S 
ATOM     99  O   UNL     1       1.486   8.711  13.628  1.00  0.00    -0.237 OA
ATOM    100  O   UNL     1       1.940   9.788  11.451  1.00  0.00    -0.237 OA
ATOM    101  O   UNL     1      -0.147  10.296  12.659  1.00  0.00    -0.744 OA
ENDBRANCH  97  98
ENDBRANCH  65  90
ENDBRANCH  39  40
ENDBRANCH  32  34
ENDBRANCH  31  32
ENDBRANCH  30  31
ENDBRANCH   1  30
TORSDOF 19
