REMARK SMILES Cc1cc(C(=O)OCCOC(=O)c2ccc(-c3c4nc(c(-c5c(F)cc(S(=O)(=O)[O-])cc5F)c5ccc([nH]5)c(-c5c(F)cc(S(=O)(=O)[O-])cc5F)c5nc(c(-c6c(F)cc(S(=O)(=O)[O-])cc6F)c6ccc3[nH]6)C=C5)C=C4)cc2)c(NC(=O)c2nc(C(C)(C)C)n[nH]2)s1
REMARK SMILES IDX 8 1 7 2 5 3 6 4 4 5 1 6 2 7 3 8 92 9 79 10 80 11 81 12 82 14
REMARK SMILES IDX 83 15 84 16 91 17 85 18 90 19 86 21 87 22 88 23 89 24 9 25
REMARK SMILES IDX 10 26 11 27 12 28 13 29 14 30 78 31 15 32 77 33 16 34 17 35
REMARK SMILES IDX 18 36 71 37 19 38 76 39 70 40 72 41 20 42 75 43 69 44 68 45
REMARK SMILES IDX 21 47 55 48 34 49 54 50 35 51 38 52 53 53 73 54 36 55 37 56
REMARK SMILES IDX 52 58 74 59 39 60 22 61 23 62 32 63 24 64 25 65 31 66 33 67
REMARK SMILES IDX 26 68 27 69 28 70 29 71 30 72 56 73 57 74 66 75 58 76 59 77
REMARK SMILES IDX 65 78 67 79 60 80 61 81 62 82 63 83 64 84 40 85 41 86 50 87
REMARK SMILES IDX 42 88 43 89 49 90 51 91 44 92 45 93 46 94 47 95 48 96
REMARK H PARENT 80 13 91 20 72 46 38 57
REMARK Flexibility Score: inf
ROOT
ATOM      1  C   UNL     1      -3.162  -4.240  -0.174  1.00  0.00     0.275 C 
ENDROOT
BRANCH   1   2
ATOM      2  O   UNL     1      -2.033  -3.345  -0.161  1.00  0.00    -0.458 OA
BRANCH   2   3
ATOM      3  C   UNL     1      -2.239  -2.089  -0.653  1.00  0.00     0.341 C 
ATOM      4  O   UNL     1      -3.293  -1.700  -1.149  1.00  0.00    -0.246 OA
BRANCH   3   5
ATOM      5  C   UNL     1      -1.074  -1.218  -0.495  1.00  0.00     0.095 A 
ATOM      6  C   UNL     1       2.609  -0.623   0.230  1.00  0.00     0.056 C 
ATOM      7  C   UNL     1       1.149  -0.606  -0.051  1.00  0.00     0.004 A 
ATOM      8  C   UNL     1       0.261  -1.652  -0.164  1.00  0.00     0.033 A 
ATOM      9  S   UNL     1       0.365   0.882  -0.261  1.00  0.00    -0.122 S 
ATOM     10  C   UNL     1      -1.119   0.165  -0.643  1.00  0.00     0.110 A 
BRANCH  10  11
ATOM     11  N   UNL     1      -2.215   0.915  -1.035  1.00  0.00    -0.310 N 
ATOM     12  C   UNL     1      -2.460   2.273  -1.138  1.00  0.00     0.293 C 
ATOM     13  H   UNL     1      -2.987   0.363  -1.296  1.00  0.00     0.171 HD
ATOM     14  O   UNL     1      -3.570   2.584  -1.578  1.00  0.00    -0.265 OA
BRANCH  12  15
ATOM     15  C   UNL     1      -1.478   3.268  -0.792  1.00  0.00     0.214 A 
ATOM     16  N   UNL     1      -1.471   4.028   0.289  1.00  0.00    -0.207 NA
ATOM     17  N   UNL     1      -0.452   3.652  -1.599  1.00  0.00    -0.255 N 
ATOM     18  C   UNL     1      -0.386   4.857   0.095  1.00  0.00     0.156 A 
ATOM     19  N   UNL     1       0.292   4.615  -1.038  1.00  0.00    -0.158 NA
ATOM     20  H   UNL     1      -0.278   3.268  -2.489  1.00  0.00     0.192 HD
BRANCH  18  21
ATOM     21  C   UNL     1      -0.033   5.990   1.036  1.00  0.00     0.024 C 
ATOM     22  C   UNL     1      -1.059   7.128   0.878  1.00  0.00     0.019 C 
ATOM     23  C   UNL     1      -0.040   5.515   2.501  1.00  0.00     0.019 C 
ATOM     24  C   UNL     1       1.371   6.559   0.732  1.00  0.00     0.019 C 
ENDBRANCH  18  21
ENDBRANCH  12  15
ENDBRANCH  10  11
ENDBRANCH   3   5
ENDBRANCH   2   3
ENDBRANCH   1   2
BRANCH   1  25
ATOM     25  C   UNL     1      -3.883  -4.276   1.178  1.00  0.00     0.275 C 
BRANCH  25  26
ATOM     26  O   UNL     1      -4.613  -3.059   1.419  1.00  0.00    -0.458 OA
BRANCH  26  27
ATOM     27  C   UNL     1      -3.955  -2.124   2.149  1.00  0.00     0.338 C 
ATOM     28  O   UNL     1      -2.855  -2.252   2.662  1.00  0.00    -0.246 OA
BRANCH  27  29
ATOM     29  C   UNL     1      -4.667  -0.831   2.063  1.00  0.00     0.060 A 
ATOM     30  C   UNL     1      -3.893   0.301   1.797  1.00  0.00     0.016 A 
ATOM     31  C   UNL     1      -6.050  -0.712   2.227  1.00  0.00     0.016 A 
ATOM     32  C   UNL     1      -4.499   1.543   1.631  1.00  0.00     0.010 A 
ATOM     33  C   UNL     1      -6.656   0.546   2.093  1.00  0.00     0.010 A 
ATOM     34  C   UNL     1      -5.884   1.676   1.776  1.00  0.00    -0.014 A 
BRANCH  34  35
ATOM     35  C   UNL     1      -6.482   3.029   1.677  1.00  0.00     0.031 A 
ATOM     36  C   UNL     1      -6.526   3.898   2.898  1.00  0.00     0.074 A 
ATOM     37  C   UNL     1      -6.902   3.510   0.492  1.00  0.00     0.049 A 
ATOM     38  N   UNL     1      -6.996   5.110   3.037  1.00  0.00    -0.248 NA
ATOM     39  C   UNL     1      -5.951   3.327   4.126  1.00  0.00     0.031 C 
ATOM     40  C   UNL     1      -6.809   2.803  -0.783  1.00  0.00     0.029 A 
ATOM     41  N   UNL     1      -7.471   4.717   0.167  1.00  0.00    -0.354 N 
ATOM     42  C   UNL     1      -6.770   5.452   4.363  1.00  0.00     0.074 A 
ATOM     43  C   UNL     1      -6.135   4.313   4.992  1.00  0.00     0.031 C 
ATOM     44  C   UNL     1      -7.303   3.589  -1.755  1.00  0.00     0.029 A 
ATOM     45  C   UNL     1      -7.782   4.839  -1.167  1.00  0.00     0.049 A 
ATOM     46  H   UNL     1      -7.640   5.428   0.826  1.00  0.00     0.167 HD
ATOM     47  C   UNL     1      -7.072   6.608   4.999  1.00  0.00     0.037 A 
ATOM     48  C   UNL     1      -8.399   5.836  -1.833  1.00  0.00     0.037 A 
ATOM     49  C   UNL     1      -7.727   7.728   4.374  1.00  0.00     0.049 A 
ATOM     50  C   UNL     1      -8.827   7.070  -1.077  1.00  0.00     0.074 A 
ATOM     51  C   UNL     1      -8.111   8.928   4.947  1.00  0.00     0.029 A 
ATOM     52  N   UNL     1      -8.105   7.784   3.040  1.00  0.00    -0.354 N 
ATOM     53  N   UNL     1      -8.635   7.375   0.185  1.00  0.00    -0.248 NA
ATOM     54  C   UNL     1      -9.564   8.094  -1.833  1.00  0.00     0.031 C 
ATOM     55  C   UNL     1      -8.774   9.685   3.975  1.00  0.00     0.029 A 
ATOM     56  C   UNL     1      -8.747   8.985   2.779  1.00  0.00     0.049 A 
ATOM     57  H   UNL     1      -7.942   7.075   2.377  1.00  0.00     0.167 HD
ATOM     58  C   UNL     1      -9.202   8.633   0.367  1.00  0.00     0.074 A 
ATOM     59  C   UNL     1      -9.736   9.038  -0.917  1.00  0.00     0.031 C 
ATOM     60  C   UNL     1      -9.271   9.383   1.495  1.00  0.00     0.037 A 
BRANCH  47  61
ATOM     61  C   UNL     1      -6.757   6.686   6.466  1.00  0.00     0.058 A 
ATOM     62  C   UNL     1      -5.441   6.798   6.941  1.00  0.00     0.135 A 
ATOM     63  C   UNL     1      -7.795   6.646   7.411  1.00  0.00     0.135 A 
ATOM     64  F   UNL     1      -4.410   6.818   6.081  1.00  0.00    -0.206 F 
ATOM     65  C   UNL     1      -5.162   6.836   8.304  1.00  0.00     0.059 A 
ATOM     66  C   UNL     1      -7.541   6.710   8.777  1.00  0.00     0.059 A 
ATOM     67  F   UNL     1      -9.071   6.534   7.010  1.00  0.00    -0.206 F 
ATOM     68  C   UNL     1      -6.220   6.787   9.214  1.00  0.00     0.060 A 
BRANCH  68  69
ATOM     69  S   UNL     1      -5.844   6.819  10.979  1.00  0.00     0.124 S 
ATOM     70  O   UNL     1      -5.285   5.486  11.182  1.00  0.00    -0.237 OA
ATOM     71  O   UNL     1      -4.897   7.925  11.078  1.00  0.00    -0.237 OA
ATOM     72  O   UNL     1      -7.144   7.053  11.601  1.00  0.00    -0.744 OA
ENDBRANCH  68  69
ENDBRANCH  47  61
BRANCH  48  73
ATOM     73  C   UNL     1      -8.689   5.699  -3.288  1.00  0.00     0.058 A 
ATOM     74  C   UNL     1      -8.077   6.529  -4.240  1.00  0.00     0.135 A 
ATOM     75  C   UNL     1      -9.607   4.744  -3.755  1.00  0.00     0.135 A 
ATOM     76  F   UNL     1      -7.209   7.474  -3.848  1.00  0.00    -0.206 F 
ATOM     77  C   UNL     1      -8.374   6.428  -5.597  1.00  0.00     0.059 A 
ATOM     78  C   UNL     1      -9.898   4.604  -5.108  1.00  0.00     0.059 A 
ATOM     79  F   UNL     1     -10.224   3.924  -2.889  1.00  0.00    -0.206 F 
ATOM     80  C   UNL     1      -9.285   5.459  -6.022  1.00  0.00     0.060 A 
BRANCH  80  81
ATOM     81  S   UNL     1      -9.638   5.309  -7.787  1.00  0.00     0.124 S 
ATOM     82  O   UNL     1     -10.436   6.505  -8.031  1.00  0.00    -0.237 OA
ATOM     83  O   UNL     1      -8.299   5.305  -8.370  1.00  0.00    -0.237 OA
ATOM     84  O   UNL     1     -10.357   4.042  -7.881  1.00  0.00    -0.744 OA
ENDBRANCH  80  81
ENDBRANCH  48  73
BRANCH  60  85
ATOM     85  C   UNL     1      -9.918  10.740   1.397  1.00  0.00     0.058 A 
ATOM     86  C   UNL     1     -11.305  10.892   1.243  1.00  0.00     0.135 A 
ATOM     87  C   UNL     1      -9.144  11.906   1.530  1.00  0.00     0.135 A 
ATOM     88  F   UNL     1     -12.092   9.813   1.106  1.00  0.00    -0.206 F 
ATOM     89  C   UNL     1     -11.900  12.150   1.207  1.00  0.00     0.059 A 
ATOM     90  C   UNL     1      -9.721  13.173   1.526  1.00  0.00     0.059 A 
ATOM     91  F   UNL     1      -7.814  11.820   1.690  1.00  0.00    -0.206 F 
ATOM     92  C   UNL     1     -11.100  13.285   1.355  1.00  0.00     0.060 A 
BRANCH  92  93
ATOM     93  S   UNL     1     -11.890  14.909   1.354  1.00  0.00     0.124 S 
ATOM     94  O   UNL     1     -12.242  15.066  -0.054  1.00  0.00    -0.237 OA
ATOM     95  O   UNL     1     -13.010  14.712   2.269  1.00  0.00    -0.237 OA
ATOM     96  O   UNL     1     -10.841  15.800   1.840  1.00  0.00    -0.744 OA
ENDBRANCH  92  93
ENDBRANCH  60  85
ENDBRANCH  34  35
ENDBRANCH  27  29
ENDBRANCH  26  27
ENDBRANCH  25  26
ENDBRANCH   1  25
TORSDOF 17
