REMARK SMILES O=C(OCCOC(=O)c1cc(S(=O)(=O)NNC(=O)[C@H]2C=C(c3ccccc3)N=N2)ccc1F)c1ccc(-c2c3nc(c(-c4c(F)cc(S(=O)(=O)[O-])cc4F)c4ccc([nH]4)c(-c4c(F)cc(S(=O)(=O)[O-])cc4F)c4nc(c(-c5c(F)cc(S(=O)(=O)[O-])cc5F)c5ccc2[nH]5)C=C4)C=C3)cc1
REMARK SMILES IDX 5 1 4 2 3 3 2 4 1 5 34 6 35 7 99 8 36 9 98 10 37 11 38 12
REMARK SMILES IDX 39 13 92 14 40 15 97 16 91 17 93 18 41 19 96 20 90 21 89 22
REMARK SMILES IDX 42 24 76 25 55 26 75 27 56 28 59 29 74 30 94 31 57 32 58 33
REMARK SMILES IDX 73 35 95 36 60 37 43 38 44 39 53 40 45 41 46 42 52 43 54 44
REMARK SMILES IDX 47 45 48 46 49 47 50 48 51 49 77 50 78 51 87 52 79 53 80 54
REMARK SMILES IDX 86 55 88 56 81 57 82 58 83 59 84 60 85 61 61 62 62 63 71 64
REMARK SMILES IDX 63 65 64 66 70 67 72 68 65 69 66 70 67 71 68 72 69 73 6 74
REMARK SMILES IDX 7 75 8 76 9 77 10 78 32 79 11 80 31 81 33 82 30 83 12 84
REMARK SMILES IDX 13 85 14 86 15 87 16 89 17 90 18 92 19 93 20 94 29 95 21 96
REMARK SMILES IDX 28 97 22 98 23 99 27 100 24 101 26 102 25 103
REMARK H PARENT 93 23 59 34 15 88 16 91
REMARK Flexibility Score: inf
ROOT
ATOM      1  C   UNL     1       2.856   9.752   2.352  1.00  0.00     0.275 C 
ENDROOT
BRANCH   1   2
ATOM      2  C   UNL     1       4.248  10.103   1.826  1.00  0.00     0.275 C 
BRANCH   2   3
ATOM      3  O   UNL     1       4.338  10.625   0.484  1.00  0.00    -0.458 OA
BRANCH   3   4
ATOM      4  C   UNL     1       3.322  10.380  -0.371  1.00  0.00     0.338 C 
ATOM      5  O   UNL     1       2.250  10.961  -0.376  1.00  0.00    -0.246 OA
BRANCH   4   6
ATOM      6  C   UNL     1       3.721   9.374  -1.379  1.00  0.00     0.060 A 
ATOM      7  C   UNL     1       4.663   8.381  -1.082  1.00  0.00     0.016 A 
ATOM      8  C   UNL     1       3.110   9.413  -2.635  1.00  0.00     0.016 A 
ATOM      9  C   UNL     1       5.043   7.470  -2.056  1.00  0.00     0.010 A 
ATOM     10  C   UNL     1       3.486   8.493  -3.608  1.00  0.00     0.010 A 
ATOM     11  C   UNL     1       4.478   7.546  -3.330  1.00  0.00    -0.014 A 
BRANCH  11  12
ATOM     12  C   UNL     1       4.962   6.609  -4.343  1.00  0.00     0.031 A 
ATOM     13  C   UNL     1       4.670   5.157  -4.143  1.00  0.00     0.074 A 
ATOM     14  C   UNL     1       5.523   7.028  -5.494  1.00  0.00     0.049 A 
ATOM     15  N   UNL     1       5.490   4.154  -4.087  1.00  0.00    -0.248 NA
ATOM     16  C   UNL     1       3.263   4.780  -3.951  1.00  0.00     0.031 C 
ATOM     17  C   UNL     1       5.606   8.398  -6.010  1.00  0.00     0.029 A 
ATOM     18  N   UNL     1       6.036   6.280  -6.510  1.00  0.00    -0.354 N 
ATOM     19  C   UNL     1       4.699   3.004  -4.022  1.00  0.00     0.074 A 
ATOM     20  C   UNL     1       3.342   3.454  -3.843  1.00  0.00     0.031 C 
ATOM     21  C   UNL     1       5.922   8.355  -7.322  1.00  0.00     0.029 A 
ATOM     22  C   UNL     1       6.197   6.979  -7.695  1.00  0.00     0.049 A 
ATOM     23  H   UNL     1       6.272   5.329  -6.410  1.00  0.00     0.167 HD
ATOM     24  C   UNL     1       5.176   1.751  -4.270  1.00  0.00     0.037 A 
ATOM     25  C   UNL     1       6.455   6.449  -8.914  1.00  0.00     0.037 A 
ATOM     26  C   UNL     1       6.609   1.691  -4.228  1.00  0.00     0.049 A 
ATOM     27  C   UNL     1       7.033   5.097  -8.707  1.00  0.00     0.074 A 
ATOM     28  C   UNL     1       7.566   1.912  -3.258  1.00  0.00     0.029 A 
ATOM     29  N   UNL     1       7.293   1.636  -5.416  1.00  0.00    -0.354 N 
ATOM     30  N   UNL     1       8.199   4.865  -8.167  1.00  0.00    -0.248 NA
ATOM     31  C   UNL     1       6.144   3.948  -8.779  1.00  0.00     0.031 C 
ATOM     32  C   UNL     1       8.684   2.453  -3.955  1.00  0.00     0.029 A 
ATOM     33  C   UNL     1       8.343   2.512  -5.308  1.00  0.00     0.049 A 
ATOM     34  H   UNL     1       7.073   1.076  -6.196  1.00  0.00     0.167 HD
ATOM     35  C   UNL     1       8.047   3.669  -7.483  1.00  0.00     0.074 A 
ATOM     36  C   UNL     1       6.808   3.095  -7.997  1.00  0.00     0.031 C 
ATOM     37  C   UNL     1       8.791   3.381  -6.375  1.00  0.00     0.037 A 
BRANCH  24  38
ATOM     38  C   UNL     1       4.347   0.611  -4.809  1.00  0.00     0.058 A 
ATOM     39  C   UNL     1       3.231   0.811  -5.649  1.00  0.00     0.135 A 
ATOM     40  C   UNL     1       4.813  -0.717  -4.716  1.00  0.00     0.135 A 
ATOM     41  F   UNL     1       2.751   2.037  -5.902  1.00  0.00    -0.206 F 
ATOM     42  C   UNL     1       2.611  -0.227  -6.337  1.00  0.00     0.059 A 
ATOM     43  C   UNL     1       4.236  -1.767  -5.436  1.00  0.00     0.059 A 
ATOM     44  F   UNL     1       5.885  -1.013  -3.964  1.00  0.00    -0.206 F 
ATOM     45  C   UNL     1       3.137  -1.509  -6.248  1.00  0.00     0.060 A 
BRANCH  45  46
ATOM     46  S   UNL     1       2.423  -2.788  -7.300  1.00  0.00     0.124 S 
ATOM     47  O   UNL     1       1.132  -3.006  -6.656  1.00  0.00    -0.237 OA
ATOM     48  O   UNL     1       2.381  -2.122  -8.598  1.00  0.00    -0.237 OA
ATOM     49  O   UNL     1       3.378  -3.885  -7.191  1.00  0.00    -0.744 OA
ENDBRANCH  45  46
ENDBRANCH  24  38
BRANCH  25  50
ATOM     50  C   UNL     1       5.920   6.906 -10.221  1.00  0.00     0.058 A 
ATOM     51  C   UNL     1       4.692   7.592 -10.317  1.00  0.00     0.135 A 
ATOM     52  C   UNL     1       6.469   6.441 -11.428  1.00  0.00     0.135 A 
ATOM     53  F   UNL     1       4.047   8.022  -9.222  1.00  0.00    -0.206 F 
ATOM     54  C   UNL     1       4.031   7.777 -11.527  1.00  0.00     0.059 A 
ATOM     55  C   UNL     1       5.817   6.602 -12.655  1.00  0.00     0.059 A 
ATOM     56  F   UNL     1       7.623   5.755 -11.424  1.00  0.00    -0.206 F 
ATOM     57  C   UNL     1       4.584   7.249 -12.688  1.00  0.00     0.060 A 
BRANCH  57  58
ATOM     58  S   UNL     1       3.605   7.339 -14.202  1.00  0.00     0.124 S 
ATOM     59  O   UNL     1       2.414   6.581 -13.831  1.00  0.00    -0.237 OA
ATOM     60  O   UNL     1       3.415   8.778 -14.356  1.00  0.00    -0.237 OA
ATOM     61  O   UNL     1       4.462   6.710 -15.201  1.00  0.00    -0.744 OA
ENDBRANCH  57  58
ENDBRANCH  25  50
BRANCH  37  62
ATOM     62  C   UNL     1      10.001   4.230  -6.079  1.00  0.00     0.058 A 
ATOM     63  C   UNL     1      11.245   3.597  -5.934  1.00  0.00     0.135 A 
ATOM     64  C   UNL     1       9.935   5.597  -5.754  1.00  0.00     0.135 A 
ATOM     65  F   UNL     1      11.362   2.280  -6.171  1.00  0.00    -0.206 F 
ATOM     66  C   UNL     1      12.369   4.280  -5.478  1.00  0.00     0.059 A 
ATOM     67  C   UNL     1      11.057   6.310  -5.328  1.00  0.00     0.059 A 
ATOM     68  F   UNL     1       8.765   6.251  -5.766  1.00  0.00    -0.206 F 
ATOM     69  C   UNL     1      12.265   5.637  -5.172  1.00  0.00     0.060 A 
BRANCH  69  70
ATOM     70  S   UNL     1      13.721   6.487  -4.526  1.00  0.00     0.124 S 
ATOM     71  O   UNL     1      13.848   5.897  -3.196  1.00  0.00    -0.237 OA
ATOM     72  O   UNL     1      14.757   6.109  -5.483  1.00  0.00    -0.237 OA
ATOM     73  O   UNL     1      13.341   7.896  -4.548  1.00  0.00    -0.744 OA
ENDBRANCH  69  70
ENDBRANCH  37  62
ENDBRANCH  11  12
ENDBRANCH   4   6
ENDBRANCH   3   4
ENDBRANCH   2   3
ENDBRANCH   1   2
BRANCH   1  74
ATOM     74  O   UNL     1       2.320   8.635   1.618  1.00  0.00    -0.458 OA
BRANCH  74  75
ATOM     75  C   UNL     1       0.979   8.671   1.425  1.00  0.00     0.341 C 
ATOM     76  O   UNL     1       0.179   9.489   1.843  1.00  0.00    -0.246 OA
BRANCH  75  77
ATOM     77  C   UNL     1       0.606   7.542   0.573  1.00  0.00     0.097 A 
ATOM     78  C   UNL     1       0.296   7.749  -0.773  1.00  0.00     0.040 A 
ATOM     79  C   UNL     1       0.483   6.278   1.137  1.00  0.00     0.137 A 
ATOM     80  C   UNL     1      -0.111   6.659  -1.557  1.00  0.00     0.085 A 
ATOM     81  C   UNL     1       0.077   5.196   0.357  1.00  0.00     0.041 A 
ATOM     82  F   UNL     1       0.723   6.087   2.442  1.00  0.00    -0.206 F 
ATOM     83  C   UNL     1      -0.215   5.379  -1.000  1.00  0.00     0.025 A 
BRANCH  80  84
ATOM     84  S   UNL     1      -0.610   7.010  -3.226  1.00  0.00     0.257 S 
ATOM     85  O   UNL     1      -1.578   8.088  -3.144  1.00  0.00    -0.205 OA
ATOM     86  O   UNL     1       0.584   7.097  -4.022  1.00  0.00    -0.205 OA
BRANCH  84  87
ATOM     87  N   UNL     1      -1.449   5.630  -3.759  1.00  0.00    -0.123 NA
ATOM     88  H   UNL     1      -0.904   4.817  -3.474  1.00  0.00     0.167 HD
BRANCH  87  89
ATOM     89  N   UNL     1      -2.799   5.424  -3.292  1.00  0.00    -0.275 N 
ATOM     90  C   UNL     1      -3.830   4.901  -4.035  1.00  0.00     0.265 C 
ATOM     91  H   UNL     1      -2.998   5.679  -2.363  1.00  0.00     0.186 HD
ATOM     92  O   UNL     1      -4.900   4.661  -3.466  1.00  0.00    -0.271 OA
BRANCH  90  93
ATOM     93  C   UNL     1      -3.594   4.648  -5.530  1.00  0.00     0.244 C 
ATOM     94  C   UNL     1      -4.817   4.158  -6.211  1.00  0.00     0.042 C 
ATOM     95  N   UNL     1      -3.383   5.974  -6.180  1.00  0.00    -0.171 NA
ATOM     96  C   UNL     1      -5.191   5.144  -7.028  1.00  0.00     0.091 C 
ATOM     97  N   UNL     1      -4.314   6.200  -7.006  1.00  0.00    -0.155 NA
BRANCH  96  98
ATOM     98  C   UNL     1      -6.392   5.129  -7.866  1.00  0.00     0.002 A 
ATOM     99  C   UNL     1      -6.329   5.534  -9.205  1.00  0.00     0.010 A 
ATOM    100  C   UNL     1      -7.628   4.721  -7.341  1.00  0.00     0.010 A 
ATOM    101  C   UNL     1      -7.471   5.499 -10.011  1.00  0.00     0.001 A 
ATOM    102  C   UNL     1      -8.770   4.695  -8.144  1.00  0.00     0.001 A 
ATOM    103  C   UNL     1      -8.689   5.077  -9.481  1.00  0.00     0.000 A 
ENDBRANCH  96  98
ENDBRANCH  90  93
ENDBRANCH  87  89
ENDBRANCH  84  87
ENDBRANCH  80  84
ENDBRANCH  75  77
ENDBRANCH  74  75
ENDBRANCH   1  74
TORSDOF 19
