REMARK SMILES O=CN[C@@H](CCS[C@@H]1CCO[C@]2(CCOC2)C1)C(=O)OCCOC(=O)c1ccc(-c2c3nc(c(-c4c(F)cc(S(=O)(=O)[O-])cc4F)c4ccc([nH]4)c(-c4c(F)cc(S(=O)(=O)[O-])cc4F)c4nc(c(-c5c(F)cc(S(=O)(=O)[O-])cc5F)c5ccc2[nH]5)C=C4)C=C3)cc1
REMARK SMILES IDX 21 1 20 2 18 3 19 4 4 5 3 6 1 7 2 8 5 10 6 11 7 12 8 13 9 14
REMARK SMILES IDX 17 15 10 16 12 17 11 18 13 19 16 20 14 21 15 22 22 23 23 24
REMARK SMILES IDX 24 25 25 26 26 27 27 28 91 29 28 30 90 31 29 32 30 33 31 34
REMARK SMILES IDX 84 35 32 36 89 37 83 38 85 39 33 40 88 41 82 42 81 43 34 45
REMARK SMILES IDX 68 46 47 47 67 48 48 49 51 50 66 51 86 52 49 53 50 54 65 56
REMARK SMILES IDX 87 57 52 58 35 59 36 60 45 61 37 62 38 63 44 64 46 65 39 66
REMARK SMILES IDX 40 67 41 68 42 69 43 70 69 71 70 72 79 73 71 74 72 75 78 76
REMARK SMILES IDX 80 77 73 78 74 79 75 80 76 81 77 82 53 83 54 84 63 85 55 86
REMARK SMILES IDX 56 87 62 88 64 89 57 90 58 91 59 92 60 93 61 94
REMARK H PARENT 3 9 85 44 51 55
REMARK Flexibility Score: inf
ROOT
ATOM      1  C   UNL     1       6.755  -2.689  -2.982  1.00  0.00     0.274 C 
ENDROOT
BRANCH   1   2
ATOM      2  O   UNL     1       5.998  -2.276  -1.818  1.00  0.00    -0.461 OA
BRANCH   2   3
ATOM      3  C   UNL     1       6.576  -1.465  -0.900  1.00  0.00     0.328 C 
ATOM      4  O   UNL     1       7.662  -0.919  -1.052  1.00  0.00    -0.250 OA
BRANCH   3   5
ATOM      5  C   UNL     1       5.791  -1.410   0.445  1.00  0.00     0.192 C 
BRANCH   5   6
ATOM      6  N   UNL     1       4.427  -0.882   0.545  1.00  0.00    -0.345 N 
ATOM      7  O   UNL     1       2.849   0.668   0.884  1.00  0.00    -0.279 OA
ATOM      8  C   UNL     1       4.014   0.407   0.617  1.00  0.00     0.337 C 
ATOM      9  H   UNL     1       3.712  -1.558   0.562  1.00  0.00     0.164 HD
ENDBRANCH   5   6
BRANCH   5  10
ATOM     10  C   UNL     1       5.853  -2.794   1.123  1.00  0.00     0.048 C 
BRANCH  10  11
ATOM     11  C   UNL     1       4.700  -3.795   0.874  1.00  0.00     0.072 C 
BRANCH  11  12
ATOM     12  S   UNL     1       4.710  -4.784  -0.656  1.00  0.00    -0.158 SA
BRANCH  12  13
ATOM     13  C   UNL     1       3.470  -4.041  -1.839  1.00  0.00     0.052 C 
ATOM     14  C   UNL     1       3.021  -2.583  -1.801  1.00  0.00     0.043 C 
ATOM     15  C   UNL     1       2.243  -4.939  -2.056  1.00  0.00     0.052 C 
ATOM     16  C   UNL     1       1.828  -2.321  -0.910  1.00  0.00     0.162 C 
ATOM     17  C   UNL     1       1.029  -4.551  -1.192  1.00  0.00     0.095 C 
ATOM     18  O   UNL     1       0.747  -3.159  -1.278  1.00  0.00    -0.372 OA
ATOM     19  C   UNL     1       1.121  -5.056   0.236  1.00  0.00     0.066 C 
ATOM     20  C   UNL     1      -0.226  -5.297  -1.649  1.00  0.00     0.195 C 
ATOM     21  C   UNL     1       0.681  -6.500   0.110  1.00  0.00     0.163 C 
ATOM     22  O   UNL     1      -0.205  -6.583  -1.015  1.00  0.00    -0.378 OA
ENDBRANCH  12  13
ENDBRANCH  11  12
ENDBRANCH  10  11
ENDBRANCH   5  10
ENDBRANCH   3   5
ENDBRANCH   2   3
ENDBRANCH   1   2
BRANCH   1  23
ATOM     23  C   UNL     1       6.005  -2.319  -4.262  1.00  0.00     0.275 C 
BRANCH  23  24
ATOM     24  O   UNL     1       6.058  -0.896  -4.404  1.00  0.00    -0.458 OA
BRANCH  24  25
ATOM     25  C   UNL     1       4.886  -0.238  -4.293  1.00  0.00     0.338 C 
ATOM     26  O   UNL     1       3.753  -0.682  -4.332  1.00  0.00    -0.246 OA
BRANCH  25  27
ATOM     27  C   UNL     1       5.248   1.111  -3.870  1.00  0.00     0.060 A 
ATOM     28  C   UNL     1       5.345   1.345  -2.497  1.00  0.00     0.016 A 
ATOM     29  C   UNL     1       5.584   2.087  -4.799  1.00  0.00     0.016 A 
ATOM     30  C   UNL     1       5.814   2.563  -2.029  1.00  0.00     0.010 A 
ATOM     31  C   UNL     1       6.056   3.309  -4.332  1.00  0.00     0.010 A 
ATOM     32  C   UNL     1       6.177   3.547  -2.950  1.00  0.00    -0.014 A 
BRANCH  32  33
ATOM     33  C   UNL     1       6.632   4.871  -2.487  1.00  0.00     0.031 A 
ATOM     34  C   UNL     1       5.708   6.034  -2.663  1.00  0.00     0.074 A 
ATOM     35  C   UNL     1       7.872   5.013  -1.986  1.00  0.00     0.049 A 
ATOM     36  N   UNL     1       5.959   7.310  -2.567  1.00  0.00    -0.248 NA
ATOM     37  C   UNL     1       4.316   5.713  -3.019  1.00  0.00     0.031 C 
ATOM     38  C   UNL     1       8.813   3.920  -1.732  1.00  0.00     0.029 A 
ATOM     39  N   UNL     1       8.565   6.140  -1.634  1.00  0.00    -0.354 N 
ATOM     40  C   UNL     1       4.768   7.948  -2.888  1.00  0.00     0.074 A 
ATOM     41  C   UNL     1       3.799   6.920  -3.196  1.00  0.00     0.031 C 
ATOM     42  C   UNL     1       9.973   4.434  -1.291  1.00  0.00     0.029 A 
ATOM     43  C   UNL     1       9.872   5.890  -1.288  1.00  0.00     0.049 A 
ATOM     44  H   UNL     1       8.167   7.040  -1.629  1.00  0.00     0.167 HD
ATOM     45  C   UNL     1       4.520   9.277  -2.922  1.00  0.00     0.037 A 
ATOM     46  C   UNL     1      10.881   6.749  -1.048  1.00  0.00     0.037 A 
ATOM     47  C   UNL     1       5.514  10.269  -2.607  1.00  0.00     0.049 A 
ATOM     48  C   UNL     1      10.595   8.225  -1.146  1.00  0.00     0.074 A 
ATOM     49  C   UNL     1       5.390  11.645  -2.599  1.00  0.00     0.029 A 
ATOM     50  N   UNL     1       6.825   9.981  -2.245  1.00  0.00    -0.354 N 
ATOM     51  N   UNL     1       9.471   8.827  -1.460  1.00  0.00    -0.248 NA
ATOM     52  C   UNL     1      11.709   9.137  -0.864  1.00  0.00     0.031 C 
ATOM     53  C   UNL     1       6.638  12.191  -2.278  1.00  0.00     0.029 A 
ATOM     54  C   UNL     1       7.525  11.154  -2.027  1.00  0.00     0.049 A 
ATOM     55  H   UNL     1       7.200   9.075  -2.156  1.00  0.00     0.167 HD
ATOM     56  C   UNL     1       9.733  10.190  -1.383  1.00  0.00     0.074 A 
ATOM     57  C   UNL     1      11.121  10.320  -0.984  1.00  0.00     0.031 C 
ATOM     58  C   UNL     1       8.907  11.240  -1.618  1.00  0.00     0.037 A 
BRANCH  45  59
ATOM     59  C   UNL     1       3.147   9.721  -3.348  1.00  0.00     0.058 A 
ATOM     60  C   UNL     1       2.014   9.504  -2.547  1.00  0.00     0.135 A 
ATOM     61  C   UNL     1       2.962  10.380  -4.574  1.00  0.00     0.135 A 
ATOM     62  F   UNL     1       2.127   8.856  -1.376  1.00  0.00    -0.206 F 
ATOM     63  C   UNL     1       0.745   9.902  -2.956  1.00  0.00     0.059 A 
ATOM     64  C   UNL     1       1.706  10.814  -4.990  1.00  0.00     0.059 A 
ATOM     65  F   UNL     1       4.007  10.605  -5.386  1.00  0.00    -0.206 F 
ATOM     66  C   UNL     1       0.601  10.558  -4.180  1.00  0.00     0.060 A 
BRANCH  66  67
ATOM     67  S   UNL     1      -1.050  11.078  -4.691  1.00  0.00     0.124 S 
ATOM     68  O   UNL     1      -1.675   9.797  -5.009  1.00  0.00    -0.237 OA
ATOM     69  O   UNL     1      -1.550  11.746  -3.494  1.00  0.00    -0.237 OA
ATOM     70  O   UNL     1      -0.795  11.950  -5.832  1.00  0.00    -0.744 OA
ENDBRANCH  66  67
ENDBRANCH  45  59
BRANCH  46  71
ATOM     71  C   UNL     1      12.238   6.239  -0.711  1.00  0.00     0.058 A 
ATOM     72  C   UNL     1      12.777   6.418   0.571  1.00  0.00     0.135 A 
ATOM     73  C   UNL     1      13.017   5.547  -1.653  1.00  0.00     0.135 A 
ATOM     74  F   UNL     1      12.076   7.077   1.506  1.00  0.00    -0.206 F 
ATOM     75  C   UNL     1      14.042   5.944   0.905  1.00  0.00     0.059 A 
ATOM     76  C   UNL     1      14.274   5.039  -1.334  1.00  0.00     0.059 A 
ATOM     77  F   UNL     1      12.546   5.335  -2.892  1.00  0.00    -0.206 F 
ATOM     78  C   UNL     1      14.782   5.252  -0.054  1.00  0.00     0.060 A 
BRANCH  78  79
ATOM     79  S   UNL     1      16.403   4.602   0.408  1.00  0.00     0.124 S 
ATOM     80  O   UNL     1      17.193   5.824   0.506  1.00  0.00    -0.237 OA
ATOM     81  O   UNL     1      16.113   3.926   1.669  1.00  0.00    -0.237 OA
ATOM     82  O   UNL     1      16.741   3.719  -0.704  1.00  0.00    -0.744 OA
ENDBRANCH  78  79
ENDBRANCH  46  71
BRANCH  58  83
ATOM     83  C   UNL     1       9.472  12.615  -1.401  1.00  0.00     0.058 A 
ATOM     84  C   UNL     1      10.400  13.183  -2.286  1.00  0.00     0.135 A 
ATOM     85  C   UNL     1       9.030  13.395  -0.319  1.00  0.00     0.135 A 
ATOM     86  F   UNL     1      10.859  12.475  -3.331  1.00  0.00    -0.206 F 
ATOM     87  C   UNL     1      10.891  14.469  -2.092  1.00  0.00     0.059 A 
ATOM     88  C   UNL     1       9.483  14.694  -0.124  1.00  0.00     0.059 A 
ATOM     89  F   UNL     1       8.134  12.900   0.550  1.00  0.00    -0.206 F 
ATOM     90  C   UNL     1      10.423  15.218  -1.010  1.00  0.00     0.060 A 
BRANCH  90  91
ATOM     91  S   UNL     1      11.041  16.899  -0.792  1.00  0.00     0.124 S 
ATOM     92  O   UNL     1      12.401  16.653  -0.323  1.00  0.00    -0.237 OA
ATOM     93  O   UNL     1      10.925  17.450  -2.139  1.00  0.00    -0.237 OA
ATOM     94  O   UNL     1      10.130  17.471   0.194  1.00  0.00    -0.744 OA
ENDBRANCH  90  91
ENDBRANCH  58  83
ENDBRANCH  32  33
ENDBRANCH  25  27
ENDBRANCH  24  25
ENDBRANCH  23  24
ENDBRANCH   1  23
TORSDOF 19
