REMARK SMILES CCOCC[C@@H]1CCC[C@@]1([NH2+]C1CC1)C(=O)OCCOC(=O)c1ccc(-c2c3nc(c(-c4c(F)cc(S(=O)(=O)[O-])cc4F)c4ccc([nH]4)c(-c4c(F)cc(S(=O)(=O)[O-])cc4F)c4nc(c(-c5c(F)cc(S(=O)(=O)[O-])cc5F)c5ccc2[nH]5)C=C4)C=C3)cc1
REMARK SMILES IDX 18 1 17 2 15 3 16 4 10 5 6 6 7 7 8 8 9 9 5 10 4 11 3 12 2 13
REMARK SMILES IDX 1 14 11 15 12 18 13 19 14 20 19 21 20 22 21 23 22 24 23 25
REMARK SMILES IDX 24 26 88 27 25 28 87 29 26 30 27 31 28 32 81 33 29 34 86 35
REMARK SMILES IDX 80 36 82 37 30 38 85 39 79 40 78 41 31 43 65 44 44 45 64 46
REMARK SMILES IDX 45 47 48 48 63 49 83 50 46 51 47 52 62 54 84 55 49 56 32 57
REMARK SMILES IDX 33 58 42 59 34 60 35 61 41 62 43 63 36 64 37 65 38 66 39 67
REMARK SMILES IDX 40 68 66 69 67 70 76 71 68 72 69 73 75 74 77 75 70 76 71 77
REMARK SMILES IDX 72 78 73 79 74 80 50 81 51 82 60 83 52 84 53 85 59 86 61 87
REMARK SMILES IDX 54 88 55 89 56 90 57 91 58 92
REMARK H PARENT 11 16 11 17 82 42 48 53
REMARK Flexibility Score: inf
ROOT
ATOM      1  C   UNL     1       4.211   0.849   0.773  1.00  0.00     0.274 C 
ENDROOT
BRANCH   1   2
ATOM      2  O   UNL     1       3.964   0.596  -0.629  1.00  0.00    -0.457 OA
BRANCH   2   3
ATOM      3  C   UNL     1       3.640   1.683  -1.386  1.00  0.00     0.368 C 
ATOM      4  O   UNL     1       3.677   2.836  -0.966  1.00  0.00    -0.245 OA
BRANCH   3   5
ATOM      5  C   UNL     1       3.120   1.303  -2.795  1.00  0.00     0.197 C 
ATOM      6  C   UNL     1       1.998   0.224  -2.701  1.00  0.00     0.065 C 
ATOM      7  C   UNL     1       1.195   0.432  -3.997  1.00  0.00     0.011 C 
ATOM      8  C   UNL     1       1.233   1.927  -4.275  1.00  0.00     0.008 C 
ATOM      9  C   UNL     1       2.315   2.499  -3.371  1.00  0.00     0.081 C 
BRANCH   6  10
ATOM     10  C   UNL     1       2.448  -1.253  -2.569  1.00  0.00     0.039 C 
BRANCH  10  11
ATOM     11  C   UNL     1       2.116  -1.944  -1.244  1.00  0.00     0.160 C 
BRANCH  11  12
ATOM     12  O   UNL     1       0.753  -2.335  -1.099  1.00  0.00    -0.382 OA
BRANCH  12  13
ATOM     13  C   UNL     1      -0.195  -1.325  -0.778  1.00  0.00     0.156 C 
ATOM     14  C   UNL     1       0.127  -0.549   0.490  1.00  0.00     0.035 C 
ENDBRANCH  12  13
ENDBRANCH  11  12
ENDBRANCH  10  11
ENDBRANCH   6  10
BRANCH   5  15
ATOM     15  N   UNL     1       4.183   0.831  -3.708  1.00  0.00    -0.329 N 
ATOM     16  H   UNL     1       3.731   0.517  -4.567  1.00  0.00     0.347 HD
ATOM     17  H   UNL     1       4.674   0.107  -3.183  1.00  0.00     0.347 HD
BRANCH  15  18
ATOM     18  C   UNL     1       5.221   1.785  -4.084  1.00  0.00     0.183 C 
ATOM     19  C   UNL     1       6.579   1.216  -4.396  1.00  0.00     0.071 C 
ATOM     20  C   UNL     1       5.747   1.798  -5.495  1.00  0.00     0.071 C 
ENDBRANCH  15  18
ENDBRANCH   5  15
ENDBRANCH   3   5
ENDBRANCH   2   3
ENDBRANCH   1   2
BRANCH   1  21
ATOM     21  C   UNL     1       5.702   0.822   1.087  1.00  0.00     0.275 C 
BRANCH  21  22
ATOM     22  O   UNL     1       6.339   1.893   0.378  1.00  0.00    -0.458 OA
BRANCH  22  23
ATOM     23  C   UNL     1       7.529   1.610  -0.193  1.00  0.00     0.338 C 
ATOM     24  O   UNL     1       8.195   0.594  -0.016  1.00  0.00    -0.246 OA
BRANCH  23  25
ATOM     25  C   UNL     1       7.913   2.689  -1.133  1.00  0.00     0.060 A 
ATOM     26  C   UNL     1       6.950   3.528  -1.693  1.00  0.00     0.016 A 
ATOM     27  C   UNL     1       9.237   2.790  -1.568  1.00  0.00     0.016 A 
ATOM     28  C   UNL     1       7.277   4.353  -2.770  1.00  0.00     0.010 A 
ATOM     29  C   UNL     1       9.580   3.703  -2.575  1.00  0.00     0.010 A 
ATOM     30  C   UNL     1       8.596   4.461  -3.233  1.00  0.00    -0.014 A 
BRANCH  30  31
ATOM     31  C   UNL     1       8.930   5.305  -4.422  1.00  0.00     0.031 A 
ATOM     32  C   UNL     1       9.723   4.731  -5.575  1.00  0.00     0.074 A 
ATOM     33  C   UNL     1       8.513   6.587  -4.504  1.00  0.00     0.049 A 
ATOM     34  N   UNL     1      10.325   5.354  -6.557  1.00  0.00    -0.248 NA
ATOM     35  C   UNL     1       9.866   3.266  -5.630  1.00  0.00     0.031 C 
ATOM     36  C   UNL     1       7.685   7.281  -3.516  1.00  0.00     0.029 A 
ATOM     37  N   UNL     1       8.733   7.541  -5.471  1.00  0.00    -0.354 N 
ATOM     38  C   UNL     1      10.975   4.371  -7.297  1.00  0.00     0.074 A 
ATOM     39  C   UNL     1      10.676   3.104  -6.668  1.00  0.00     0.031 C 
ATOM     40  C   UNL     1       7.430   8.525  -3.944  1.00  0.00     0.029 A 
ATOM     41  C   UNL     1       8.185   8.765  -5.167  1.00  0.00     0.049 A 
ATOM     42  H   UNL     1       9.233   7.364  -6.300  1.00  0.00     0.167 HD
ATOM     43  C   UNL     1      11.759   4.514  -8.392  1.00  0.00     0.037 A 
ATOM     44  C   UNL     1       8.333   9.975  -5.742  1.00  0.00     0.037 A 
ATOM     45  C   UNL     1      11.999   5.767  -9.062  1.00  0.00     0.049 A 
ATOM     46  C   UNL     1       9.248  10.125  -6.919  1.00  0.00     0.074 A 
ATOM     47  C   UNL     1      12.756   6.005 -10.197  1.00  0.00     0.029 A 
ATOM     48  N   UNL     1      11.476   6.988  -8.669  1.00  0.00    -0.354 N 
ATOM     49  N   UNL     1       9.943   9.205  -7.541  1.00  0.00    -0.248 NA
ATOM     50  C   UNL     1       9.432  11.484  -7.446  1.00  0.00     0.031 C 
ATOM     51  C   UNL     1      12.718   7.376 -10.471  1.00  0.00     0.029 A 
ATOM     52  C   UNL     1      11.908   7.986  -9.528  1.00  0.00     0.049 A 
ATOM     53  H   UNL     1      10.885   7.127  -7.894  1.00  0.00     0.167 HD
ATOM     54  C   UNL     1      10.663   9.875  -8.521  1.00  0.00     0.074 A 
ATOM     55  C   UNL     1      10.294  11.273  -8.431  1.00  0.00     0.031 C 
ATOM     56  C   UNL     1      11.557   9.377  -9.410  1.00  0.00     0.037 A 
BRANCH  43  57
ATOM     57  C   UNL     1      12.461   3.297  -8.928  1.00  0.00     0.058 A 
ATOM     58  C   UNL     1      11.802   2.334  -9.705  1.00  0.00     0.135 A 
ATOM     59  C   UNL     1      13.845   3.147  -8.731  1.00  0.00     0.135 A 
ATOM     60  F   UNL     1      10.478   2.420  -9.908  1.00  0.00    -0.206 F 
ATOM     61  C   UNL     1      12.490   1.264 -10.271  1.00  0.00     0.059 A 
ATOM     62  C   UNL     1      14.556   2.096  -9.302  1.00  0.00     0.059 A 
ATOM     63  F   UNL     1      14.521   4.039  -7.991  1.00  0.00    -0.206 F 
ATOM     64  C   UNL     1      13.869   1.157 -10.069  1.00  0.00     0.060 A 
BRANCH  64  65
ATOM     65  S   UNL     1      14.759  -0.205 -10.853  1.00  0.00     0.124 S 
ATOM     66  O   UNL     1      14.370  -1.331 -10.009  1.00  0.00    -0.237 OA
ATOM     67  O   UNL     1      14.207  -0.205 -12.204  1.00  0.00    -0.237 OA
ATOM     68  O   UNL     1      16.158   0.201 -10.752  1.00  0.00    -0.744 OA
ENDBRANCH  64  65
ENDBRANCH  43  57
BRANCH  44  69
ATOM     69  C   UNL     1       7.675  11.155  -5.123  1.00  0.00     0.058 A 
ATOM     70  C   UNL     1       6.576  11.778  -5.729  1.00  0.00     0.135 A 
ATOM     71  C   UNL     1       8.097  11.636  -3.873  1.00  0.00     0.135 A 
ATOM     72  F   UNL     1       6.150  11.366  -6.932  1.00  0.00    -0.206 F 
ATOM     73  C   UNL     1       5.902  12.823  -5.106  1.00  0.00     0.059 A 
ATOM     74  C   UNL     1       7.423  12.658  -3.218  1.00  0.00     0.059 A 
ATOM     75  F   UNL     1       9.141  11.066  -3.251  1.00  0.00    -0.206 F 
ATOM     76  C   UNL     1       6.325  13.247  -3.843  1.00  0.00     0.060 A 
BRANCH  76  77
ATOM     77  S   UNL     1       5.378  14.518  -2.978  1.00  0.00     0.124 S 
ATOM     78  O   UNL     1       5.915  15.737  -3.570  1.00  0.00    -0.237 OA
ATOM     79  O   UNL     1       4.003  14.185  -3.338  1.00  0.00    -0.237 OA
ATOM     80  O   UNL     1       5.720  14.288  -1.577  1.00  0.00    -0.744 OA
ENDBRANCH  76  77
ENDBRANCH  44  69
BRANCH  56  81
ATOM     81  C   UNL     1      12.200  10.355 -10.348  1.00  0.00     0.058 A 
ATOM     82  C   UNL     1      13.220  11.215  -9.914  1.00  0.00     0.135 A 
ATOM     83  C   UNL     1      11.800  10.428 -11.690  1.00  0.00     0.135 A 
ATOM     84  F   UNL     1      13.631  11.187  -8.637  1.00  0.00    -0.206 F 
ATOM     85  C   UNL     1      13.803  12.139 -10.775  1.00  0.00     0.059 A 
ATOM     86  C   UNL     1      12.383  11.331 -12.574  1.00  0.00     0.059 A 
ATOM     87  F   UNL     1      10.834   9.620 -12.153  1.00  0.00    -0.206 F 
ATOM     88  C   UNL     1      13.372  12.194 -12.102  1.00  0.00     0.060 A 
BRANCH  88  89
ATOM     89  S   UNL     1      14.128  13.400 -13.212  1.00  0.00     0.124 S 
ATOM     90  O   UNL     1      13.462  14.632 -12.802  1.00  0.00    -0.237 OA
ATOM     91  O   UNL     1      15.543  13.301 -12.870  1.00  0.00    -0.237 OA
ATOM     92  O   UNL     1      13.775  12.906 -14.539  1.00  0.00    -0.744 OA
ENDBRANCH  88  89
ENDBRANCH  56  81
ENDBRANCH  30  31
ENDBRANCH  23  25
ENDBRANCH  22  23
ENDBRANCH  21  22
ENDBRANCH   1  21
TORSDOF 20
