REMARK SMILES CC1(C)S[C@H](c2ccc(-c3ccccc3)o2)[NH2+][C@H]1C(=O)OCCOC(=O)c1ccc(-c2c3nc(c(-c4c(F)cc(S(=O)(=O)[O-])cc4F)c4ccc([nH]4)c(-c4c(F)cc(S(=O)(=O)[O-])cc4F)c4nc(c(-c5c(F)cc(S(=O)(=O)[O-])cc5F)c5ccc2[nH]5)C=C4)C=C3)cc1
REMARK SMILES IDX 23 1 22 2 21 3 19 4 20 5 18 6 1 7 2 8 3 9 4 10 5 11 17 12
REMARK SMILES IDX 6 15 7 16 16 17 8 18 9 19 10 20 11 21 15 22 12 23 14 24
REMARK SMILES IDX 13 25 24 26 25 27 26 28 27 29 28 30 92 31 29 32 91 33 30 34
REMARK SMILES IDX 31 35 32 36 85 37 33 38 90 39 84 40 86 41 34 42 89 43 83 44
REMARK SMILES IDX 82 45 35 47 69 48 48 49 68 50 49 51 52 52 67 53 87 54 50 55
REMARK SMILES IDX 51 56 66 58 88 59 53 60 36 61 37 62 46 63 38 64 39 65 45 66
REMARK SMILES IDX 47 67 40 68 41 69 42 70 43 71 44 72 70 73 71 74 80 75 72 76
REMARK SMILES IDX 73 77 79 78 81 79 74 80 75 81 76 82 77 83 78 84 54 85 55 86
REMARK SMILES IDX 64 87 56 88 57 89 63 90 65 91 58 92 59 93 60 94 61 95 62 96
REMARK H PARENT 17 13 17 14 86 46 52 57
REMARK Flexibility Score: inf
ROOT
ATOM      1  C   UNL     1       2.306   4.690   0.595  1.00  0.00     0.275 C 
ENDROOT
BRANCH   1   2
ATOM      2  C   UNL     1       0.967   4.311   1.232  1.00  0.00     0.274 C 
BRANCH   2   3
ATOM      3  O   UNL     1       0.637   2.921   1.023  1.00  0.00    -0.458 OA
BRANCH   3   4
ATOM      4  C   UNL     1      -0.164   2.649  -0.038  1.00  0.00     0.366 C 
ATOM      5  O   UNL     1      -0.617   3.516  -0.780  1.00  0.00    -0.245 OA
BRANCH   4   6
ATOM      6  C   UNL     1      -0.530   1.157  -0.188  1.00  0.00     0.310 C 
ATOM      7  C   UNL     1       1.200   0.281   1.602  1.00  0.00     0.030 C 
ATOM      8  C   UNL     1       0.472   0.065   0.272  1.00  0.00     0.079 C 
ATOM      9  C   UNL     1       1.473  -0.294  -0.830  1.00  0.00     0.030 C 
ATOM     10  S   UNL     1      -0.613  -1.403   0.534  1.00  0.00    -0.078 SA
ATOM     11  C   UNL     1      -2.161  -0.496   0.254  1.00  0.00     0.311 C 
ATOM     12  N   UNL     1      -1.850   0.919   0.461  1.00  0.00    -0.316 N 
ATOM     13  H   UNL     1      -1.795   1.126   1.458  1.00  0.00     0.348 HD
ATOM     14  H   UNL     1      -2.572   1.519   0.063  1.00  0.00     0.348 HD
BRANCH  11  15
ATOM     15  C   UNL     1      -2.759  -0.877  -1.073  1.00  0.00     0.172 A 
ATOM     16  C   UNL     1      -3.220  -2.100  -1.532  1.00  0.00     0.054 A 
ATOM     17  O   UNL     1      -2.944   0.073  -2.049  1.00  0.00    -0.454 OA
ATOM     18  C   UNL     1      -3.726  -1.889  -2.830  1.00  0.00     0.051 A 
ATOM     19  C   UNL     1      -3.546  -0.551  -3.107  1.00  0.00     0.134 A 
BRANCH  19  20
ATOM     20  C   UNL     1      -3.903   0.256  -4.263  1.00  0.00     0.017 A 
ATOM     21  C   UNL     1      -2.924   0.868  -5.052  1.00  0.00     0.012 A 
ATOM     22  C   UNL     1      -5.245   0.335  -4.666  1.00  0.00     0.012 A 
ATOM     23  C   UNL     1      -3.279   1.533  -6.231  1.00  0.00     0.001 A 
ATOM     24  C   UNL     1      -5.601   1.011  -5.835  1.00  0.00     0.001 A 
ATOM     25  C   UNL     1      -4.615   1.604  -6.621  1.00  0.00     0.000 A 
ENDBRANCH  19  20
ENDBRANCH  11  15
ENDBRANCH   4   6
ENDBRANCH   3   4
ENDBRANCH   2   3
ENDBRANCH   1   2
BRANCH   1  26
ATOM     26  O   UNL     1       2.252   4.584  -0.838  1.00  0.00    -0.458 OA
BRANCH  26  27
ATOM     27  C   UNL     1       2.851   3.490  -1.361  1.00  0.00     0.338 C 
ATOM     28  O   UNL     1       3.469   2.629  -0.760  1.00  0.00    -0.246 OA
BRANCH  27  29
ATOM     29  C   UNL     1       2.563   3.418  -2.800  1.00  0.00     0.060 A 
ATOM     30  C   UNL     1       1.486   2.641  -3.231  1.00  0.00     0.016 A 
ATOM     31  C   UNL     1       3.404   4.037  -3.724  1.00  0.00     0.016 A 
ATOM     32  C   UNL     1       1.244   2.470  -4.589  1.00  0.00     0.010 A 
ATOM     33  C   UNL     1       3.147   3.882  -5.090  1.00  0.00     0.010 A 
ATOM     34  C   UNL     1       2.071   3.091  -5.530  1.00  0.00    -0.014 A 
BRANCH  34  35
ATOM     35  C   UNL     1       1.822   2.885  -6.976  1.00  0.00     0.031 A 
ATOM     36  C   UNL     1       2.757   2.030  -7.780  1.00  0.00     0.074 A 
ATOM     37  C   UNL     1       0.752   3.459  -7.557  1.00  0.00     0.049 A 
ATOM     38  N   UNL     1       2.791   1.833  -9.072  1.00  0.00    -0.248 NA
ATOM     39  C   UNL     1       3.793   1.302  -7.030  1.00  0.00     0.031 C 
ATOM     40  C   UNL     1      -0.254   4.269  -6.867  1.00  0.00     0.029 A 
ATOM     41  N   UNL     1       0.338   3.456  -8.865  1.00  0.00    -0.354 N 
ATOM     42  C   UNL     1       3.868   0.985  -9.297  1.00  0.00     0.074 A 
ATOM     43  C   UNL     1       4.463   0.706  -8.007  1.00  0.00     0.031 C 
ATOM     44  C   UNL     1      -1.164   4.691  -7.759  1.00  0.00     0.029 A 
ATOM     45  C   UNL     1      -0.779   4.224  -9.088  1.00  0.00     0.049 A 
ATOM     46  H   UNL     1       0.797   2.952  -9.575  1.00  0.00     0.167 HD
ATOM     47  C   UNL     1       4.317   0.488 -10.474  1.00  0.00     0.037 A 
ATOM     48  C   UNL     1      -1.398   4.547 -10.239  1.00  0.00     0.037 A 
ATOM     49  C   UNL     1       3.705   0.756 -11.749  1.00  0.00     0.049 A 
ATOM     50  C   UNL     1      -0.853   4.024 -11.539  1.00  0.00     0.074 A 
ATOM     51  C   UNL     1       4.082   0.298 -13.000  1.00  0.00     0.029 A 
ATOM     52  N   UNL     1       2.584   1.553 -11.937  1.00  0.00    -0.354 N 
ATOM     53  N   UNL     1       0.184   3.246 -11.742  1.00  0.00    -0.248 NA
ATOM     54  C   UNL     1      -1.552   4.430 -12.765  1.00  0.00     0.031 C 
ATOM     55  C   UNL     1       3.206   0.842 -13.947  1.00  0.00     0.029 A 
ATOM     56  C   UNL     1       2.263   1.610 -13.283  1.00  0.00     0.049 A 
ATOM     57  H   UNL     1       2.090   2.009 -11.218  1.00  0.00     0.167 HD
ATOM     58  C   UNL     1       0.255   3.060 -13.118  1.00  0.00     0.074 A 
ATOM     59  C   UNL     1      -0.852   3.796 -13.696  1.00  0.00     0.031 C 
ATOM     60  C   UNL     1       1.155   2.346 -13.837  1.00  0.00     0.037 A 
BRANCH  47  61
ATOM     61  C   UNL     1       5.551  -0.367 -10.438  1.00  0.00     0.058 A 
ATOM     62  C   UNL     1       5.520  -1.691  -9.976  1.00  0.00     0.135 A 
ATOM     63  C   UNL     1       6.778   0.141 -10.894  1.00  0.00     0.135 A 
ATOM     64  F   UNL     1       4.376  -2.219  -9.512  1.00  0.00    -0.206 F 
ATOM     65  C   UNL     1       6.669  -2.476  -9.944  1.00  0.00     0.059 A 
ATOM     66  C   UNL     1       7.935  -0.631 -10.890  1.00  0.00     0.059 A 
ATOM     67  F   UNL     1       6.861   1.403 -11.344  1.00  0.00    -0.206 F 
ATOM     68  C   UNL     1       7.873  -1.935 -10.399  1.00  0.00     0.060 A 
BRANCH  68  69
ATOM     69  S   UNL     1       9.360  -2.959 -10.348  1.00  0.00     0.124 S 
ATOM     70  O   UNL     1       9.696  -2.911  -8.928  1.00  0.00    -0.237 OA
ATOM     71  O   UNL     1       8.875  -4.244 -10.841  1.00  0.00    -0.237 OA
ATOM     72  O   UNL     1      10.284  -2.260 -11.236  1.00  0.00    -0.744 OA
ENDBRANCH  68  69
ENDBRANCH  47  61
BRANCH  48  73
ATOM     73  C   UNL     1      -2.584   5.441 -10.212  1.00  0.00     0.058 A 
ATOM     74  C   UNL     1      -3.870   4.941 -10.463  1.00  0.00     0.135 A 
ATOM     75  C   UNL     1      -2.457   6.806  -9.914  1.00  0.00     0.135 A 
ATOM     76  F   UNL     1      -4.040   3.643 -10.757  1.00  0.00    -0.206 F 
ATOM     77  C   UNL     1      -4.989   5.767 -10.431  1.00  0.00     0.059 A 
ATOM     78  C   UNL     1      -3.563   7.647  -9.853  1.00  0.00     0.059 A 
ATOM     79  F   UNL     1      -1.248   7.328  -9.654  1.00  0.00    -0.206 F 
ATOM     80  C   UNL     1      -4.825   7.119 -10.123  1.00  0.00     0.060 A 
BRANCH  80  81
ATOM     81  S   UNL     1      -6.287   8.175 -10.027  1.00  0.00     0.124 S 
ATOM     82  O   UNL     1      -6.560   8.424 -11.438  1.00  0.00    -0.237 OA
ATOM     83  O   UNL     1      -7.245   7.318  -9.334  1.00  0.00    -0.237 OA
ATOM     84  O   UNL     1      -5.818   9.325  -9.260  1.00  0.00    -0.744 OA
ENDBRANCH  80  81
ENDBRANCH  48  73
BRANCH  60  85
ATOM     85  C   UNL     1       0.968   2.306 -15.326  1.00  0.00     0.058 A 
ATOM     86  C   UNL     1       1.321   3.394 -16.139  1.00  0.00     0.135 A 
ATOM     87  C   UNL     1       0.476   1.149 -15.951  1.00  0.00     0.135 A 
ATOM     88  F   UNL     1       1.789   4.525 -15.588  1.00  0.00    -0.206 F 
ATOM     89  C   UNL     1       1.180   3.341 -17.522  1.00  0.00     0.059 A 
ATOM     90  C   UNL     1       0.345   1.067 -17.333  1.00  0.00     0.059 A 
ATOM     91  F   UNL     1       0.132   0.079 -15.216  1.00  0.00    -0.206 F 
ATOM     92  C   UNL     1       0.691   2.172 -18.110  1.00  0.00     0.060 A 
BRANCH  92  93
ATOM     93  S   UNL     1       0.546   2.098 -19.908  1.00  0.00     0.124 S 
ATOM     94  O   UNL     1      -0.674   2.865 -20.136  1.00  0.00    -0.237 OA
ATOM     95  O   UNL     1       1.784   2.732 -20.352  1.00  0.00    -0.237 OA
ATOM     96  O   UNL     1       0.450   0.667 -20.181  1.00  0.00    -0.744 OA
ENDBRANCH  92  93
ENDBRANCH  60  85
ENDBRANCH  34  35
ENDBRANCH  27  29
ENDBRANCH  26  27
ENDBRANCH   1  26
TORSDOF 16
