REMARK SMILES O=C(OCCOC(=O)c1ccc(-c2c3nc(c(-c4c(F)cc(S(=O)(=O)[O-])cc4F)c4ccc([nH]4)c(-c4c(F)cc(S(=O)(=O)[O-])cc4F)c4nc(c(-c5c(F)cc(S(=O)(=O)[O-])cc5F)c5ccc2[nH]5)C=C4)C=C3)cc1)C1=Cc2c(Cl)ccc(Cl)c2O[C@@H]1C(F)(F)F
REMARK SMILES IDX 5 1 4 2 3 3 2 4 1 5 75 6 76 7 86 8 77 9 85 10 78 11 84 12
REMARK SMILES IDX 79 13 80 14 82 15 81 16 83 17 87 18 88 19 89 20 90 21 6 22
REMARK SMILES IDX 7 23 8 24 9 25 10 26 74 27 11 28 73 29 12 30 13 31 14 32
REMARK SMILES IDX 67 33 15 34 72 35 66 36 68 37 16 38 71 39 65 40 64 41 17 43
REMARK SMILES IDX 51 44 30 45 50 46 31 47 34 48 49 49 69 50 32 51 33 52 48 54
REMARK SMILES IDX 70 55 35 56 18 57 19 58 28 59 20 60 21 61 27 62 29 63 22 64
REMARK SMILES IDX 23 65 24 66 25 67 26 68 52 69 53 70 62 71 54 72 55 73 61 74
REMARK SMILES IDX 63 75 56 76 57 77 58 78 59 79 60 80 36 81 37 82 46 83 38 84
REMARK SMILES IDX 39 85 45 86 47 87 40 88 41 89 42 90 43 91 44 92
REMARK H PARENT 68 42 34 53
REMARK Flexibility Score: inf
ROOT
ATOM      1  C   UNL     1       4.684   0.434  -0.722  1.00  0.00     0.275 C 
ENDROOT
BRANCH   1   2
ATOM      2  C   UNL     1       3.862  -0.201   1.177  1.00  0.00     0.275 C 
BRANCH   2   3
ATOM      3  O   UNL     1       2.951   0.616   2.115  1.00  0.00    -0.459 OA
BRANCH   3   4
ATOM      4  C   UNL     1       3.163   1.935   2.025  1.00  0.00     0.338 C 
ATOM      5  O   UNL     1       2.518   2.838   2.493  1.00  0.00    -0.246 OA
BRANCH   4   6
ATOM      6  C   UNL     1       4.050   1.855   0.880  1.00  0.00     0.087 C 
ATOM      7  C   UNL     1       5.403   1.464   1.209  1.00  0.00     0.029 C 
ATOM      8  C   UNL     1       2.822   0.859  -0.201  1.00  0.00     0.316 C 
ATOM      9  C   UNL     1       6.085  -0.157   0.848  1.00  0.00     0.037 A 
ATOM     10  O   UNL     1       3.476  -0.941  -0.522  1.00  0.00    -0.474 OA
ATOM     11  C   UNL     1       7.330  -0.481   1.327  1.00  0.00     0.052 A 
ATOM     12  C   UNL     1       5.135  -1.416   0.112  1.00  0.00     0.148 A 
ATOM     13  Cl  UNL     1       8.383   0.647   2.072  1.00  0.00    -0.084 Cl
ATOM     14  C   UNL     1       7.697  -1.828   1.201  1.00  0.00     0.023 A 
ATOM     15  C   UNL     1       5.578  -2.709   0.039  1.00  0.00     0.083 A 
ATOM     16  C   UNL     1       6.869  -2.875   0.609  1.00  0.00     0.026 A 
ATOM     17  Cl  UNL     1       4.706  -4.028  -0.575  1.00  0.00    -0.080 Cl
BRANCH   8  18
ATOM     18  C   UNL     1       2.574   2.176  -1.103  1.00  0.00     0.430 C 
ATOM     19  F   UNL     1       1.380   2.167  -1.680  1.00  0.00    -0.167 F 
ATOM     20  F   UNL     1       2.490   3.271  -0.282  1.00  0.00    -0.167 F 
ATOM     21  F   UNL     1       3.534   2.536  -1.980  1.00  0.00    -0.167 F 
ENDBRANCH   8  18
ENDBRANCH   4   6
ENDBRANCH   3   4
ENDBRANCH   2   3
ENDBRANCH   1   2
BRANCH   1  22
ATOM     22  O   UNL     1       3.801   0.343  -2.248  1.00  0.00    -0.458 OA
BRANCH  22  23
ATOM     23  C   UNL     1       2.845  -0.398  -2.925  1.00  0.00     0.338 C 
ATOM     24  O   UNL     1       2.409  -1.506  -2.672  1.00  0.00    -0.246 OA
BRANCH  23  25
ATOM     25  C   UNL     1       2.116   0.551  -3.838  1.00  0.00     0.060 A 
ATOM     26  C   UNL     1       0.772   0.884  -3.569  1.00  0.00     0.016 A 
ATOM     27  C   UNL     1       2.860   1.364  -4.685  1.00  0.00     0.016 A 
ATOM     28  C   UNL     1       0.298   2.180  -3.891  1.00  0.00     0.010 A 
ATOM     29  C   UNL     1       2.377   2.633  -5.019  1.00  0.00     0.010 A 
ATOM     30  C   UNL     1       1.147   3.103  -4.523  1.00  0.00    -0.014 A 
BRANCH  30  31
ATOM     31  C   UNL     1       0.740   4.503  -4.857  1.00  0.00     0.031 A 
ATOM     32  C   UNL     1       0.092   4.684  -6.194  1.00  0.00     0.074 A 
ATOM     33  C   UNL     1       1.045   5.592  -4.109  1.00  0.00     0.049 A 
ATOM     34  N   UNL     1      -0.181   5.781  -6.845  1.00  0.00    -0.248 NA
ATOM     35  C   UNL     1      -0.252   3.444  -6.911  1.00  0.00     0.031 C 
ATOM     36  C   UNL     1       1.677   5.584  -2.791  1.00  0.00     0.029 A 
ATOM     37  N   UNL     1       0.889   6.942  -4.373  1.00  0.00    -0.354 N 
ATOM     38  C   UNL     1      -0.707   5.361  -8.056  1.00  0.00     0.074 A 
ATOM     39  C   UNL     1      -0.678   3.917  -8.068  1.00  0.00     0.031 C 
ATOM     40  C   UNL     1       1.873   6.853  -2.374  1.00  0.00     0.029 A 
ATOM     41  C   UNL     1       1.408   7.782  -3.402  1.00  0.00     0.049 A 
ATOM     42  H   UNL     1       0.444   7.278  -5.184  1.00  0.00     0.167 HD
ATOM     43  C   UNL     1      -1.186   6.109  -9.072  1.00  0.00     0.037 A 
ATOM     44  C   UNL     1       1.514   9.133  -3.360  1.00  0.00     0.037 A 
ATOM     45  C   UNL     1      -1.222   7.540  -9.074  1.00  0.00     0.049 A 
ATOM     46  C   UNL     1       1.005   9.946  -4.539  1.00  0.00     0.074 A 
ATOM     47  C   UNL     1      -1.734   8.380 -10.045  1.00  0.00     0.029 A 
ATOM     48  N   UNL     1      -0.717   8.344  -8.065  1.00  0.00    -0.354 N 
ATOM     49  N   UNL     1       0.422   9.531  -5.640  1.00  0.00    -0.248 NA
ATOM     50  C   UNL     1       1.174  11.409  -4.478  1.00  0.00     0.031 C 
ATOM     51  C   UNL     1      -1.490   9.696  -9.649  1.00  0.00     0.029 A 
ATOM     52  C   UNL     1      -0.877   9.675  -8.406  1.00  0.00     0.049 A 
ATOM     53  H   UNL     1      -0.307   8.018  -7.232  1.00  0.00     0.167 HD
ATOM     54  C   UNL     1       0.130  10.678  -6.377  1.00  0.00     0.074 A 
ATOM     55  C   UNL     1       0.580  11.807  -5.594  1.00  0.00     0.031 C 
ATOM     56  C   UNL     1      -0.451  10.789  -7.598  1.00  0.00     0.037 A 
BRANCH  43  57
ATOM     57  C   UNL     1      -1.698   5.371 -10.269  1.00  0.00     0.058 A 
ATOM     58  C   UNL     1      -2.895   4.640 -10.218  1.00  0.00     0.135 A 
ATOM     59  C   UNL     1      -0.984   5.395 -11.475  1.00  0.00     0.135 A 
ATOM     60  F   UNL     1      -3.588   4.553  -9.071  1.00  0.00    -0.206 F 
ATOM     61  C   UNL     1      -3.362   3.944 -11.323  1.00  0.00     0.059 A 
ATOM     62  C   UNL     1      -1.449   4.731 -12.603  1.00  0.00     0.059 A 
ATOM     63  F   UNL     1       0.178   6.060 -11.561  1.00  0.00    -0.206 F 
ATOM     64  C   UNL     1      -2.636   4.005 -12.514  1.00  0.00     0.060 A 
BRANCH  64  65
ATOM     65  S   UNL     1      -3.286   3.135 -13.953  1.00  0.00     0.124 S 
ATOM     66  O   UNL     1      -3.062   1.742 -13.578  1.00  0.00    -0.237 OA
ATOM     67  O   UNL     1      -4.679   3.569 -13.972  1.00  0.00    -0.237 OA
ATOM     68  O   UNL     1      -2.462   3.630 -15.051  1.00  0.00    -0.744 OA
ENDBRANCH  64  65
ENDBRANCH  43  57
BRANCH  44  69
ATOM     69  C   UNL     1       2.143   9.857  -2.202  1.00  0.00     0.058 A 
ATOM     70  C   UNL     1       1.402  10.757  -1.414  1.00  0.00     0.135 A 
ATOM     71  C   UNL     1       3.520   9.767  -1.935  1.00  0.00     0.135 A 
ATOM     72  F   UNL     1       0.087  10.913  -1.635  1.00  0.00    -0.206 F 
ATOM     73  C   UNL     1       2.001  11.566  -0.446  1.00  0.00     0.059 A 
ATOM     74  C   UNL     1       4.137  10.543  -0.951  1.00  0.00     0.059 A 
ATOM     75  F   UNL     1       4.290   8.934  -2.652  1.00  0.00    -0.206 F 
ATOM     76  C   UNL     1       3.374  11.457  -0.226  1.00  0.00     0.060 A 
BRANCH  76  77
ATOM     77  S   UNL     1       4.145  12.519   1.021  1.00  0.00     0.124 S 
ATOM     78  O   UNL     1       4.101  13.823   0.369  1.00  0.00    -0.237 OA
ATOM     79  O   UNL     1       3.255  12.349   2.165  1.00  0.00    -0.237 OA
ATOM     80  O   UNL     1       5.476  11.939   1.180  1.00  0.00    -0.744 OA
ENDBRANCH  76  77
ENDBRANCH  44  69
BRANCH  56  81
ATOM     81  C   UNL     1      -0.675  12.165  -8.163  1.00  0.00     0.058 A 
ATOM     82  C   UNL     1       0.386  12.941  -8.655  1.00  0.00     0.135 A 
ATOM     83  C   UNL     1      -1.980  12.660  -8.327  1.00  0.00     0.135 A 
ATOM     84  F   UNL     1       1.652  12.516  -8.523  1.00  0.00    -0.206 F 
ATOM     85  C   UNL     1       0.161  14.160  -9.286  1.00  0.00     0.059 A 
ATOM     86  C   UNL     1      -2.230  13.862  -8.982  1.00  0.00     0.059 A 
ATOM     87  F   UNL     1      -3.032  11.951  -7.888  1.00  0.00    -0.206 F 
ATOM     88  C   UNL     1      -1.151  14.607  -9.456  1.00  0.00     0.060 A 
BRANCH  88  89
ATOM     89  S   UNL     1      -1.430  16.153 -10.345  1.00  0.00     0.124 S 
ATOM     90  O   UNL     1      -0.959  17.139  -9.378  1.00  0.00    -0.237 OA
ATOM     91  O   UNL     1      -0.599  15.983 -11.533  1.00  0.00    -0.237 OA
ATOM     92  O   UNL     1      -2.869  16.152 -10.589  1.00  0.00    -0.744 OA
ENDBRANCH  88  89
ENDBRANCH  56  81
ENDBRANCH  30  31
ENDBRANCH  23  25
ENDBRANCH  22  23
ENDBRANCH   1  22
TORSDOF 15
