REMARK SMILES O=C(OCCOC(=O)[C@H]1[NH2+]CC[C@H]1c1cccc(Oc2ccccc2)c1)c1ccc(-c2c3nc(c(-c4c(F)cc(S(=O)(=O)[O-])cc4F)c4ccc([nH]4)c(-c4c(F)cc(S(=O)(=O)[O-])cc4F)c4nc(c(-c5c(F)cc(S(=O)(=O)[O-])cc5F)c5ccc2[nH]5)C=C4)C=C3)cc1
REMARK SMILES IDX 4 1 3 2 2 3 1 4 27 5 28 6 92 7 29 8 91 9 30 10 31 11 32 12
REMARK SMILES IDX 85 13 33 14 90 15 84 16 86 17 34 18 89 19 83 20 82 21 35 23
REMARK SMILES IDX 69 24 48 25 68 26 49 27 52 28 67 29 87 30 50 31 51 32 66 34
REMARK SMILES IDX 88 35 53 36 36 37 37 38 46 39 38 40 39 41 45 42 47 43 40 44
REMARK SMILES IDX 41 45 42 46 43 47 44 48 70 49 71 50 80 51 72 52 73 53 79 54
REMARK SMILES IDX 81 55 74 56 75 57 76 58 77 59 78 60 54 61 55 62 64 63 56 64
REMARK SMILES IDX 57 65 63 66 65 67 58 68 59 69 60 70 61 71 62 72 5 73 6 74
REMARK SMILES IDX 7 75 8 76 9 77 10 78 13 79 11 80 12 83 14 84 15 85 26 86
REMARK SMILES IDX 16 87 18 88 17 89 19 90 20 91 21 92 25 93 22 94 24 95 23 96
REMARK H PARENT 86 22 52 33 10 81 10 82
REMARK Flexibility Score: inf
ROOT
ATOM      1  C   UNL     1       4.010   0.325  -1.471  1.00  0.00     0.275 C 
ENDROOT
BRANCH   1   2
ATOM      2  O   UNL     1       2.940  -0.631  -1.575  1.00  0.00    -0.458 OA
BRANCH   2   3
ATOM      3  C   UNL     1       2.617  -1.701  -0.807  1.00  0.00     0.338 C 
ATOM      4  O   UNL     1       1.562  -2.283  -1.071  1.00  0.00    -0.246 OA
BRANCH   3   5
ATOM      5  C   UNL     1       3.426  -2.233   0.351  1.00  0.00     0.060 A 
ATOM      6  C   UNL     1       4.746  -1.915   0.658  1.00  0.00     0.016 A 
ATOM      7  C   UNL     1       2.781  -3.148   1.217  1.00  0.00     0.016 A 
ATOM      8  C   UNL     1       5.365  -2.427   1.814  1.00  0.00     0.010 A 
ATOM      9  C   UNL     1       3.394  -3.649   2.387  1.00  0.00     0.010 A 
ATOM     10  C   UNL     1       4.693  -3.266   2.720  1.00  0.00    -0.014 A 
BRANCH  10  11
ATOM     11  C   UNL     1       5.492  -3.882   3.830  1.00  0.00     0.031 A 
ATOM     12  C   UNL     1       6.297  -5.076   3.477  1.00  0.00     0.074 A 
ATOM     13  C   UNL     1       5.623  -3.360   5.071  1.00  0.00     0.049 A 
ATOM     14  N   UNL     1       7.207  -5.674   4.188  1.00  0.00    -0.248 NA
ATOM     15  C   UNL     1       5.996  -5.711   2.185  1.00  0.00     0.031 C 
ATOM     16  C   UNL     1       4.750  -2.351   5.610  1.00  0.00     0.029 A 
ATOM     17  N   UNL     1       6.544  -3.516   6.083  1.00  0.00    -0.354 N 
ATOM     18  C   UNL     1       7.567  -6.781   3.448  1.00  0.00     0.074 A 
ATOM     19  C   UNL     1       6.782  -6.772   2.233  1.00  0.00     0.031 C 
ATOM     20  C   UNL     1       5.291  -1.773   6.689  1.00  0.00     0.029 A 
ATOM     21  C   UNL     1       6.474  -2.523   7.056  1.00  0.00     0.049 A 
ATOM     22  H   UNL     1       7.189  -4.258   6.115  1.00  0.00     0.167 HD
ATOM     23  C   UNL     1       8.457  -7.736   3.785  1.00  0.00     0.037 A 
ATOM     24  C   UNL     1       7.250  -2.258   8.130  1.00  0.00     0.037 A 
ATOM     25  C   UNL     1       9.158  -7.759   5.038  1.00  0.00     0.049 A 
ATOM     26  C   UNL     1       8.296  -3.293   8.437  1.00  0.00     0.074 A 
ATOM     27  C   UNL     1       9.998  -8.734   5.536  1.00  0.00     0.029 A 
ATOM     28  N   UNL     1       9.087  -6.756   6.000  1.00  0.00    -0.354 N 
ATOM     29  N   UNL     1       8.620  -4.348   7.726  1.00  0.00    -0.248 NA
ATOM     30  C   UNL     1       9.019  -3.170   9.707  1.00  0.00     0.031 C 
ATOM     31  C   UNL     1      10.416  -8.334   6.811  1.00  0.00     0.029 A 
ATOM     32  C   UNL     1       9.881  -7.083   7.085  1.00  0.00     0.049 A 
ATOM     33  H   UNL     1       8.551  -5.934   5.920  1.00  0.00     0.167 HD
ATOM     34  C   UNL     1       9.545  -5.043   8.484  1.00  0.00     0.074 A 
ATOM     35  C   UNL     1       9.795  -4.244   9.669  1.00  0.00     0.031 C 
ATOM     36  C   UNL     1      10.100  -6.256   8.246  1.00  0.00     0.037 A 
BRANCH  23  37
ATOM     37  C   UNL     1       8.623  -8.839   2.792  1.00  0.00     0.058 A 
ATOM     38  C   UNL     1       9.254  -8.616   1.558  1.00  0.00     0.135 A 
ATOM     39  C   UNL     1       8.047 -10.096   3.027  1.00  0.00     0.135 A 
ATOM     40  F   UNL     1       9.760  -7.406   1.265  1.00  0.00    -0.206 F 
ATOM     41  C   UNL     1       9.287  -9.597   0.578  1.00  0.00     0.059 A 
ATOM     42  C   UNL     1       8.095 -11.102   2.071  1.00  0.00     0.059 A 
ATOM     43  F   UNL     1       7.397 -10.339   4.176  1.00  0.00    -0.206 F 
ATOM     44  C   UNL     1       8.706 -10.838   0.845  1.00  0.00     0.060 A 
BRANCH  44  45
ATOM     45  S   UNL     1       8.763 -12.102  -0.439  1.00  0.00     0.124 S 
ATOM     46  O   UNL     1       7.800 -11.582  -1.404  1.00  0.00    -0.237 OA
ATOM     47  O   UNL     1      10.162 -12.057  -0.852  1.00  0.00    -0.237 OA
ATOM     48  O   UNL     1       8.357 -13.316   0.263  1.00  0.00    -0.744 OA
ENDBRANCH  44  45
ENDBRANCH  23  37
BRANCH  24  49
ATOM     49  C   UNL     1       7.041  -1.071   9.034  1.00  0.00     0.058 A 
ATOM     50  C   UNL     1       8.077  -0.152   9.292  1.00  0.00     0.135 A 
ATOM     51  C   UNL     1       5.826  -0.842   9.704  1.00  0.00     0.135 A 
ATOM     52  F   UNL     1       9.275  -0.311   8.707  1.00  0.00    -0.206 F 
ATOM     53  C   UNL     1       7.926   0.917  10.182  1.00  0.00     0.059 A 
ATOM     54  C   UNL     1       5.634   0.245  10.559  1.00  0.00     0.059 A 
ATOM     55  F   UNL     1       4.792  -1.679   9.531  1.00  0.00    -0.206 F 
ATOM     56  C   UNL     1       6.697   1.108  10.811  1.00  0.00     0.060 A 
BRANCH  56  57
ATOM     57  S   UNL     1       6.487   2.498  11.950  1.00  0.00     0.124 S 
ATOM     58  O   UNL     1       7.198   2.021  13.131  1.00  0.00    -0.237 OA
ATOM     59  O   UNL     1       7.120   3.595  11.224  1.00  0.00    -0.237 OA
ATOM     60  O   UNL     1       5.037   2.603  12.086  1.00  0.00    -0.744 OA
ENDBRANCH  56  57
ENDBRANCH  24  49
BRANCH  36  61
ATOM     61  C   UNL     1      11.044  -6.766   9.290  1.00  0.00     0.058 A 
ATOM     62  C   UNL     1      10.586  -7.221  10.536  1.00  0.00     0.135 A 
ATOM     63  C   UNL     1      12.419  -6.816   9.025  1.00  0.00     0.135 A 
ATOM     64  F   UNL     1       9.278  -7.180  10.835  1.00  0.00    -0.206 F 
ATOM     65  C   UNL     1      11.471  -7.682  11.502  1.00  0.00     0.059 A 
ATOM     66  C   UNL     1      13.318  -7.302   9.964  1.00  0.00     0.059 A 
ATOM     67  F   UNL     1      12.897  -6.396   7.843  1.00  0.00    -0.206 F 
ATOM     68  C   UNL     1      12.835  -7.717  11.205  1.00  0.00     0.060 A 
BRANCH  68  69
ATOM     69  S   UNL     1      13.975  -8.330  12.459  1.00  0.00     0.124 S 
ATOM     70  O   UNL     1      14.005  -7.213  13.397  1.00  0.00    -0.237 OA
ATOM     71  O   UNL     1      13.302  -9.537  12.930  1.00  0.00    -0.237 OA
ATOM     72  O   UNL     1      15.209  -8.558  11.713  1.00  0.00    -0.744 OA
ENDBRANCH  68  69
ENDBRANCH  36  61
ENDBRANCH  10  11
ENDBRANCH   3   5
ENDBRANCH   2   3
ENDBRANCH   1   2
BRANCH   1  73
ATOM     73  C   UNL     1       3.814   1.359  -0.371  1.00  0.00     0.274 C 
BRANCH  73  74
ATOM     74  O   UNL     1       3.249   0.785   0.805  1.00  0.00    -0.458 OA
BRANCH  74  75
ATOM     75  C   UNL     1       2.402   1.597   1.494  1.00  0.00     0.365 C 
ATOM     76  O   UNL     1       2.042   2.720   1.139  1.00  0.00    -0.245 OA
BRANCH  75  77
ATOM     77  C   UNL     1       2.023   1.005   2.833  1.00  0.00     0.301 C 
ATOM     78  N   UNL     1       1.817  -0.462   2.780  1.00  0.00    -0.334 N 
ATOM     79  C   UNL     1       3.040   1.224   3.961  1.00  0.00     0.095 C 
ATOM     80  C   UNL     1       1.752  -0.872   4.181  1.00  0.00     0.262 C 
ATOM     81  H   UNL     1       2.597  -0.919   2.306  1.00  0.00     0.347 HD
ATOM     82  H   UNL     1       0.977  -0.718   2.260  1.00  0.00     0.347 HD
ATOM     83  C   UNL     1       2.505   0.200   4.976  1.00  0.00     0.076 C 
BRANCH  79  84
ATOM     84  C   UNL     1       4.523   1.233   3.569  1.00  0.00    -0.034 A 
ATOM     85  C   UNL     1       5.434   0.202   3.737  1.00  0.00     0.004 A 
ATOM     86  C   UNL     1       5.049   2.390   2.986  1.00  0.00     0.051 A 
ATOM     87  C   UNL     1       6.800   0.313   3.420  1.00  0.00     0.004 A 
ATOM     88  C   UNL     1       6.398   2.513   2.587  1.00  0.00     0.127 A 
ATOM     89  C   UNL     1       7.285   1.474   2.839  1.00  0.00     0.047 A 
BRANCH  88  90
ATOM     90  O   UNL     1       6.934   3.628   1.963  1.00  0.00    -0.457 OA
BRANCH  90  91
ATOM     91  C   UNL     1       6.064   4.348   1.178  1.00  0.00     0.127 A 
ATOM     92  C   UNL     1       6.077   4.158  -0.202  1.00  0.00     0.047 A 
ATOM     93  C   UNL     1       5.145   5.212   1.772  1.00  0.00     0.047 A 
ATOM     94  C   UNL     1       5.072   4.737  -0.977  1.00  0.00     0.004 A 
ATOM     95  C   UNL     1       4.112   5.740   1.007  1.00  0.00     0.004 A 
ATOM     96  C   UNL     1       4.069   5.493  -0.365  1.00  0.00     0.000 A 
ENDBRANCH  90  91
ENDBRANCH  88  90
ENDBRANCH  79  84
ENDBRANCH  75  77
ENDBRANCH  74  75
ENDBRANCH  73  74
ENDBRANCH   1  73
TORSDOF 17
