REMARK SMILES Cc1ccc(-c2cc3cccnc3n2CCC(=O)OCCOC(=O)c2ccc(-c3c4nc(c(-c5c(F)cc(S(=O)(=O)[O-])cc5F)c5ccc([nH]5)c(-c5c(F)cc(S(=O)(=O)[O-])cc5F)c5nc(c(-c6c(F)cc(S(=O)(=O)[O-])cc6F)c6ccc3[nH]6)C=C5)C=C4)cc2)cn1
REMARK SMILES IDX 20 1 19 2 17 3 18 4 16 5 15 6 14 7 6 8 7 9 8 10 13 11 9 12
REMARK SMILES IDX 12 13 10 14 11 15 5 16 1 17 2 18 3 19 92 20 4 21 91 22 21 23
REMARK SMILES IDX 22 24 23 25 24 26 25 27 26 28 90 29 27 30 89 31 28 32 29 33
REMARK SMILES IDX 30 34 83 35 31 36 88 37 82 38 84 39 32 40 87 41 81 42 80 43
REMARK SMILES IDX 33 45 67 46 46 47 66 48 47 49 50 50 65 51 85 52 48 53 49 54
REMARK SMILES IDX 64 56 86 57 51 58 34 59 35 60 44 61 36 62 37 63 43 64 45 65
REMARK SMILES IDX 38 66 39 67 40 68 41 69 42 70 68 71 69 72 78 73 70 74 71 75
REMARK SMILES IDX 77 76 79 77 72 78 73 79 74 80 75 81 76 82 52 83 53 84 62 85
REMARK SMILES IDX 54 86 55 87 61 88 63 89 56 90 57 91 58 92 59 93 60 94
REMARK H PARENT 84 44 50 55
REMARK Flexibility Score: inf
ROOT
ATOM      1  C   UNL     1      -1.463  -1.709  -1.726  1.00  0.00     0.274 C 
ENDROOT
BRANCH   1   2
ATOM      2  O   UNL     1      -2.816  -1.893  -1.207  1.00  0.00    -0.462 OA
BRANCH   2   3
ATOM      3  C   UNL     1      -3.095  -3.059  -0.561  1.00  0.00     0.307 C 
ATOM      4  O   UNL     1      -2.502  -4.110  -0.788  1.00  0.00    -0.252 OA
BRANCH   3   5
ATOM      5  C   UNL     1      -4.163  -2.965   0.536  1.00  0.00     0.144 C 
BRANCH   5   6
ATOM      6  C   UNL     1      -4.221  -1.748   1.470  1.00  0.00     0.136 C 
BRANCH   6   7
ATOM      7  N   UNL     1      -4.453  -0.508   0.767  1.00  0.00    -0.325 N 
ATOM      8  C   UNL     1      -3.486   0.297   0.216  1.00  0.00     0.052 A 
ATOM      9  C   UNL     1      -4.147   1.199  -0.606  1.00  0.00     0.039 A 
ATOM     10  C   UNL     1      -5.532   0.964  -0.511  1.00  0.00     0.020 A 
ATOM     11  C   UNL     1      -5.703  -0.057   0.414  1.00  0.00     0.140 A 
ATOM     12  C   UNL     1      -6.669   1.490  -1.136  1.00  0.00     0.013 A 
ATOM     13  N   UNL     1      -6.875  -0.575   0.832  1.00  0.00    -0.238 NA
ATOM     14  C   UNL     1      -7.905   1.003  -0.722  1.00  0.00     0.021 A 
ATOM     15  C   UNL     1      -7.946   0.021   0.260  1.00  0.00     0.113 A 
BRANCH   8  16
ATOM     16  C   UNL     1      -2.039   0.109   0.272  1.00  0.00     0.017 A 
ATOM     17  C   UNL     1       2.997  -0.087  -0.287  1.00  0.00     0.066 C 
ATOM     18  C   UNL     1       1.508  -0.095  -0.145  1.00  0.00     0.037 A 
ATOM     19  C   UNL     1       0.642  -1.541   0.440  1.00  0.00     0.024 A 
ATOM     20  N   UNL     1       0.672   1.395  -0.524  1.00  0.00    -0.261 NA
ATOM     21  C   UNL     1      -1.140  -1.432   0.707  1.00  0.00     0.014 A 
ATOM     22  C   UNL     1      -1.064   1.516  -0.293  1.00  0.00     0.121 A 
ENDBRANCH   8  16
ENDBRANCH   6   7
ENDBRANCH   5   6
ENDBRANCH   3   5
ENDBRANCH   2   3
ENDBRANCH   1   2
BRANCH   1  23
ATOM     23  C   UNL     1      -0.506  -0.406  -1.174  1.00  0.00     0.275 C 
BRANCH  23  24
ATOM     24  O   UNL     1      -0.165   0.175   0.722  1.00  0.00    -0.458 OA
BRANCH  24  25
ATOM     25  C   UNL     1      -0.432   0.753   1.981  1.00  0.00     0.338 C 
ATOM     26  O   UNL     1      -1.372   1.461   2.327  1.00  0.00    -0.246 OA
BRANCH  25  27
ATOM     27  C   UNL     1       0.427   0.205   3.009  1.00  0.00     0.060 A 
ATOM     28  C   UNL     1      -0.223  -0.337   4.130  1.00  0.00     0.016 A 
ATOM     29  C   UNL     1       1.707   0.738   3.027  1.00  0.00     0.016 A 
ATOM     30  C   UNL     1       0.325  -0.076   5.358  1.00  0.00     0.010 A 
ATOM     31  C   UNL     1       2.265   0.968   4.246  1.00  0.00     0.010 A 
ATOM     32  C   UNL     1       1.496   0.681   5.377  1.00  0.00    -0.014 A 
BRANCH  32  33
ATOM     33  C   UNL     1       1.886   1.305   6.615  1.00  0.00     0.031 A 
ATOM     34  C   UNL     1       2.630   0.397   7.503  1.00  0.00     0.074 A 
ATOM     35  C   UNL     1       1.732   2.635   6.763  1.00  0.00     0.049 A 
ATOM     36  N   UNL     1       2.319   0.004   8.691  1.00  0.00    -0.248 NA
ATOM     37  C   UNL     1       3.784  -0.307   6.914  1.00  0.00     0.031 C 
ATOM     38  C   UNL     1       1.279   3.606   5.755  1.00  0.00     0.029 A 
ATOM     39  N   UNL     1       2.100   3.427   7.797  1.00  0.00    -0.354 N 
ATOM     40  C   UNL     1       3.373  -0.811   9.082  1.00  0.00     0.074 A 
ATOM     41  C   UNL     1       4.103  -1.152   7.891  1.00  0.00     0.031 C 
ATOM     42  C   UNL     1       1.643   4.848   6.145  1.00  0.00     0.029 A 
ATOM     43  C   UNL     1       2.245   4.767   7.464  1.00  0.00     0.049 A 
ATOM     44  H   UNL     1       2.251   3.083   8.707  1.00  0.00     0.167 HD
ATOM     45  C   UNL     1       3.752  -0.903  10.382  1.00  0.00     0.037 A 
ATOM     46  C   UNL     1       2.921   5.694   8.188  1.00  0.00     0.037 A 
ATOM     47  C   UNL     1       2.727  -0.431  11.272  1.00  0.00     0.049 A 
ATOM     48  C   UNL     1       3.096   5.127   9.557  1.00  0.00     0.074 A 
ATOM     49  C   UNL     1       1.415  -0.798  11.504  1.00  0.00     0.029 A 
ATOM     50  N   UNL     1       2.871   0.828  11.806  1.00  0.00    -0.354 N 
ATOM     51  N   UNL     1       2.117   4.907  10.393  1.00  0.00    -0.248 NA
ATOM     52  C   UNL     1       4.318   4.382   9.832  1.00  0.00     0.031 C 
ATOM     53  C   UNL     1       0.725   0.418  11.767  1.00  0.00     0.029 A 
ATOM     54  C   UNL     1       1.654   1.460  11.725  1.00  0.00     0.049 A 
ATOM     55  H   UNL     1       3.699   1.209  12.179  1.00  0.00     0.167 HD
ATOM     56  C   UNL     1       2.449   3.721  11.038  1.00  0.00     0.074 A 
ATOM     57  C   UNL     1       3.858   3.502  10.726  1.00  0.00     0.031 C 
ATOM     58  C   UNL     1       1.483   2.884  11.521  1.00  0.00     0.037 A 
BRANCH  45  59
ATOM     59  C   UNL     1       5.188  -1.076  10.791  1.00  0.00     0.058 A 
ATOM     60  C   UNL     1       5.491  -1.485  12.099  1.00  0.00     0.135 A 
ATOM     61  C   UNL     1       6.280  -0.617  10.016  1.00  0.00     0.135 A 
ATOM     62  F   UNL     1       4.519  -1.907  12.923  1.00  0.00    -0.206 F 
ATOM     63  C   UNL     1       6.783  -1.404  12.617  1.00  0.00     0.059 A 
ATOM     64  C   UNL     1       7.583  -0.594  10.488  1.00  0.00     0.059 A 
ATOM     65  F   UNL     1       6.121  -0.075   8.802  1.00  0.00    -0.206 F 
ATOM     66  C   UNL     1       7.819  -0.947  11.804  1.00  0.00     0.060 A 
BRANCH  66  67
ATOM     67  S   UNL     1       9.464  -0.734  12.499  1.00  0.00     0.124 S 
ATOM     68  O   UNL     1       9.260   0.417  13.371  1.00  0.00    -0.237 OA
ATOM     69  O   UNL     1       9.681  -2.014  13.165  1.00  0.00    -0.237 OA
ATOM     70  O   UNL     1      10.297  -0.496  11.323  1.00  0.00    -0.744 OA
ENDBRANCH  66  67
ENDBRANCH  45  59
BRANCH  46  71
ATOM     71  C   UNL     1       3.711   6.853   7.688  1.00  0.00     0.058 A 
ATOM     72  C   UNL     1       4.173   7.844   8.572  1.00  0.00     0.135 A 
ATOM     73  C   UNL     1       4.253   6.889   6.385  1.00  0.00     0.135 A 
ATOM     74  F   UNL     1       3.732   7.875   9.839  1.00  0.00    -0.206 F 
ATOM     75  C   UNL     1       5.147   8.780   8.205  1.00  0.00     0.059 A 
ATOM     76  C   UNL     1       5.209   7.824   5.990  1.00  0.00     0.059 A 
ATOM     77  F   UNL     1       3.944   5.956   5.474  1.00  0.00    -0.206 F 
ATOM     78  C   UNL     1       5.675   8.748   6.915  1.00  0.00     0.060 A 
BRANCH  78  79
ATOM     79  S   UNL     1       7.056   9.835   6.493  1.00  0.00     0.124 S 
ATOM     80  O   UNL     1       6.434  11.153   6.550  1.00  0.00    -0.237 OA
ATOM     81  O   UNL     1       8.014   9.535   7.552  1.00  0.00    -0.237 OA
ATOM     82  O   UNL     1       7.447   9.386   5.159  1.00  0.00    -0.744 OA
ENDBRANCH  78  79
ENDBRANCH  46  71
BRANCH  58  83
ATOM     83  C   UNL     1       0.071   3.408  11.608  1.00  0.00     0.058 A 
ATOM     84  C   UNL     1      -0.714   3.741  10.490  1.00  0.00     0.135 A 
ATOM     85  C   UNL     1      -0.565   3.406  12.857  1.00  0.00     0.135 A 
ATOM     86  F   UNL     1      -0.214   3.664   9.250  1.00  0.00    -0.206 F 
ATOM     87  C   UNL     1      -2.060   4.090  10.611  1.00  0.00     0.059 A 
ATOM     88  C   UNL     1      -1.915   3.720  12.999  1.00  0.00     0.059 A 
ATOM     89  F   UNL     1       0.113   3.034  13.956  1.00  0.00    -0.206 F 
ATOM     90  C   UNL     1      -2.655   4.070  11.872  1.00  0.00     0.060 A 
BRANCH  90  91
ATOM     91  S   UNL     1      -4.421   4.420  12.014  1.00  0.00     0.124 S 
ATOM     92  O   UNL     1      -4.473   5.855  11.759  1.00  0.00    -0.237 OA
ATOM     93  O   UNL     1      -4.998   3.569  10.977  1.00  0.00    -0.237 OA
ATOM     94  O   UNL     1      -4.739   4.018  13.382  1.00  0.00    -0.744 OA
ENDBRANCH  90  91
ENDBRANCH  58  83
ENDBRANCH  32  33
ENDBRANCH  25  27
ENDBRANCH  24  25
ENDBRANCH  23  24
ENDBRANCH   1  23
TORSDOF 17
