REMARK SMILES Cc1ccc(Oc2cc(C(=O)OCCOC(=O)c3ccc(-c4c5nc(c(-c6c(F)cc(S(=O)(=O)[O-])cc6F)c6ccc([nH]6)c(-c6c(F)cc(S(=O)(=O)[O-])cc6F)c6nc(c(-c7c(F)cc(S(=O)(=O)[O-])cc7F)c7ccc4[nH]7)C=C6)C=C5)cc3)nc3ccccc23)cc1
REMARK SMILES IDX 14 1 13 2 12 3 10 4 11 5 9 6 7 7 8 8 90 9 85 10 89 11 84 12
REMARK SMILES IDX 86 13 88 14 87 15 6 16 5 17 1 18 2 19 3 20 92 21 4 22 91 23
REMARK SMILES IDX 15 24 16 25 17 26 18 27 19 28 83 29 20 30 82 31 21 32 22 33
REMARK SMILES IDX 23 34 76 35 24 36 81 37 75 38 77 39 25 40 80 41 74 42 73 43
REMARK SMILES IDX 26 45 60 46 39 47 59 48 40 49 43 50 58 51 78 52 41 53 42 54
REMARK SMILES IDX 57 56 79 57 44 58 27 59 28 60 37 61 29 62 30 63 36 64 38 65
REMARK SMILES IDX 31 66 32 67 33 68 34 69 35 70 61 71 62 72 71 73 63 74 64 75
REMARK SMILES IDX 70 76 72 77 65 78 66 79 67 80 68 81 69 82 45 83 46 84 55 85
REMARK SMILES IDX 47 86 48 87 54 88 56 89 49 90 50 91 51 92 52 93 53 94
REMARK H PARENT 77 44 43 55
REMARK Flexibility Score: inf
ROOT
ATOM      1  C   UNL     1     -10.412   3.346   1.338  1.00  0.00     0.275 C 
ENDROOT
BRANCH   1   2
ATOM      2  C   UNL     1      -9.220   4.061   0.679  1.00  0.00     0.275 C 
BRANCH   2   3
ATOM      3  O   UNL     1      -8.127   3.233   0.247  1.00  0.00    -0.457 OA
BRANCH   3   4
ATOM      4  C   UNL     1      -7.010   3.990   0.017  1.00  0.00     0.357 C 
ATOM      5  O   UNL     1      -6.945   5.202   0.205  1.00  0.00    -0.244 OA
BRANCH   4   6
ATOM      6  C   UNL     1      -5.887   3.279  -0.659  1.00  0.00     0.152 A 
ATOM      7  C   UNL     1      -4.097   1.714  -0.850  1.00  0.00     0.139 A 
ATOM      8  C   UNL     1      -5.264   2.136  -0.189  1.00  0.00     0.084 A 
ATOM      9  C   UNL     1      -3.645   2.387  -2.021  1.00  0.00     0.043 A 
ATOM     10  C   UNL     1      -4.348   3.553  -2.372  1.00  0.00     0.075 A 
ATOM     11  C   UNL     1      -2.565   2.001  -2.859  1.00  0.00     0.014 A 
ATOM     12  N   UNL     1      -5.424   3.985  -1.722  1.00  0.00    -0.240 NA
ATOM     13  C   UNL     1      -3.926   4.327  -3.440  1.00  0.00     0.029 A 
ATOM     14  C   UNL     1      -2.152   2.793  -3.933  1.00  0.00     0.001 A 
ATOM     15  C   UNL     1      -2.826   3.970  -4.214  1.00  0.00     0.002 A 
BRANCH   7  16
ATOM     16  O   UNL     1      -3.496   0.586  -0.319  1.00  0.00    -0.457 OA
BRANCH  16  17
ATOM     17  C   UNL     1      -2.128   0.527  -0.141  1.00  0.00     0.127 A 
ATOM     18  C   UNL     1       2.154  -0.011   0.096  1.00  0.00     0.044 C 
ATOM     19  C   UNL     1       0.666   0.180   0.036  1.00  0.00    -0.051 A 
ATOM     20  C   UNL     1      -0.177  -0.924  -0.135  1.00  0.00     0.007 A 
ATOM     21  C   UNL     1       0.093   1.450   0.177  1.00  0.00     0.007 A 
ATOM     22  C   UNL     1      -1.563  -0.750  -0.217  1.00  0.00     0.047 A 
ATOM     23  C   UNL     1      -1.298   1.622   0.107  1.00  0.00     0.047 A 
ENDBRANCH  16  17
ENDBRANCH   7  16
ENDBRANCH   4   6
ENDBRANCH   3   4
ENDBRANCH   2   3
ENDBRANCH   1   2
BRANCH   1  24
ATOM     24  O   UNL     1     -10.185   2.157   2.125  1.00  0.00    -0.458 OA
BRANCH  24  25
ATOM     25  C   UNL     1      -9.681   2.223   3.382  1.00  0.00     0.338 C 
ATOM     26  O   UNL     1     -10.132   1.662   4.364  1.00  0.00    -0.246 OA
BRANCH  25  27
ATOM     27  C   UNL     1      -8.505   3.075   3.459  1.00  0.00     0.060 A 
ATOM     28  C   UNL     1      -7.260   2.560   3.075  1.00  0.00     0.016 A 
ATOM     29  C   UNL     1      -8.698   4.405   3.827  1.00  0.00     0.016 A 
ATOM     30  C   UNL     1      -6.147   3.377   3.123  1.00  0.00     0.010 A 
ATOM     31  C   UNL     1      -7.619   5.249   3.764  1.00  0.00     0.010 A 
ATOM     32  C   UNL     1      -6.343   4.697   3.521  1.00  0.00    -0.014 A 
BRANCH  32  33
ATOM     33  C   UNL     1      -5.314   5.400   4.263  1.00  0.00     0.031 A 
ATOM     34  C   UNL     1      -4.550   6.499   3.676  1.00  0.00     0.074 A 
ATOM     35  C   UNL     1      -5.456   5.117   5.577  1.00  0.00     0.049 A 
ATOM     36  N   UNL     1      -3.612   7.128   4.289  1.00  0.00    -0.248 NA
ATOM     37  C   UNL     1      -4.750   6.965   2.309  1.00  0.00     0.031 C 
ATOM     38  C   UNL     1      -5.112   5.867   6.766  1.00  0.00     0.029 A 
ATOM     39  N   UNL     1      -5.915   3.885   6.076  1.00  0.00    -0.354 N 
ATOM     40  C   UNL     1      -3.345   8.274   3.565  1.00  0.00     0.074 A 
ATOM     41  C   UNL     1      -3.966   8.049   2.284  1.00  0.00     0.031 C 
ATOM     42  C   UNL     1      -5.081   5.010   7.808  1.00  0.00     0.029 A 
ATOM     43  C   UNL     1      -5.225   3.660   7.261  1.00  0.00     0.049 A 
ATOM     44  H   UNL     1      -6.592   3.299   5.667  1.00  0.00     0.167 HD
ATOM     45  C   UNL     1      -2.802   9.338   4.230  1.00  0.00     0.037 A 
ATOM     46  C   UNL     1      -4.237   2.712   7.236  1.00  0.00     0.037 A 
ATOM     47  C   UNL     1      -2.487   8.932   5.606  1.00  0.00     0.049 A 
ATOM     48  C   UNL     1      -2.895   3.381   7.452  1.00  0.00     0.074 A 
ATOM     49  C   UNL     1      -3.196   9.067   6.790  1.00  0.00     0.029 A 
ATOM     50  N   UNL     1      -1.540   7.933   5.829  1.00  0.00    -0.354 N 
ATOM     51  N   UNL     1      -2.565   4.560   6.985  1.00  0.00    -0.248 NA
ATOM     52  C   UNL     1      -1.899   2.832   8.364  1.00  0.00     0.031 C 
ATOM     53  C   UNL     1      -2.752   8.052   7.680  1.00  0.00     0.029 A 
ATOM     54  C   UNL     1      -1.766   7.312   7.045  1.00  0.00     0.049 A 
ATOM     55  H   UNL     1      -0.811   7.702   5.208  1.00  0.00     0.167 HD
ATOM     56  C   UNL     1      -1.421   4.982   7.614  1.00  0.00     0.074 A 
ATOM     57  C   UNL     1      -1.022   3.847   8.433  1.00  0.00     0.031 C 
ATOM     58  C   UNL     1      -0.895   6.241   7.506  1.00  0.00     0.037 A 
BRANCH  45  59
ATOM     59  C   UNL     1      -2.892  10.791   3.775  1.00  0.00     0.058 A 
ATOM     60  C   UNL     1      -2.856  11.842   4.723  1.00  0.00     0.135 A 
ATOM     61  C   UNL     1      -3.078  11.226   2.447  1.00  0.00     0.135 A 
ATOM     62  F   UNL     1      -2.600  11.610   6.018  1.00  0.00    -0.206 F 
ATOM     63  C   UNL     1      -3.083  13.184   4.396  1.00  0.00     0.059 A 
ATOM     64  C   UNL     1      -3.346  12.557   2.098  1.00  0.00     0.059 A 
ATOM     65  F   UNL     1      -2.951  10.391   1.410  1.00  0.00    -0.206 F 
ATOM     66  C   UNL     1      -3.356  13.533   3.082  1.00  0.00     0.060 A 
BRANCH  66  67
ATOM     67  S   UNL     1      -3.669  15.263   2.681  1.00  0.00     0.124 S 
ATOM     68  O   UNL     1      -4.843  15.560   3.495  1.00  0.00    -0.237 OA
ATOM     69  O   UNL     1      -2.427  15.904   3.099  1.00  0.00    -0.237 OA
ATOM     70  O   UNL     1      -3.904  15.243   1.239  1.00  0.00    -0.744 OA
ENDBRANCH  66  67
ENDBRANCH  45  59
BRANCH  46  71
ATOM     71  C   UNL     1      -4.524   1.517   6.358  1.00  0.00     0.058 A 
ATOM     72  C   UNL     1      -5.750   0.824   6.526  1.00  0.00     0.135 A 
ATOM     73  C   UNL     1      -3.780   1.175   5.220  1.00  0.00     0.135 A 
ATOM     74  F   UNL     1      -6.516   1.074   7.602  1.00  0.00    -0.206 F 
ATOM     75  C   UNL     1      -6.261  -0.065   5.574  1.00  0.00     0.059 A 
ATOM     76  C   UNL     1      -4.263   0.267   4.258  1.00  0.00     0.059 A 
ATOM     77  F   UNL     1      -2.601   1.766   4.981  1.00  0.00    -0.206 F 
ATOM     78  C   UNL     1      -5.517  -0.326   4.428  1.00  0.00     0.060 A 
BRANCH  78  79
ATOM     79  S   UNL     1      -6.276  -1.294   3.089  1.00  0.00     0.124 S 
ATOM     80  O   UNL     1      -6.053  -2.664   3.533  1.00  0.00    -0.237 OA
ATOM     81  O   UNL     1      -7.662  -0.839   3.108  1.00  0.00    -0.237 OA
ATOM     82  O   UNL     1      -5.524  -0.870   1.912  1.00  0.00    -0.744 OA
ENDBRANCH  78  79
ENDBRANCH  46  71
BRANCH  58  83
ATOM     83  C   UNL     1       0.505   6.622   7.917  1.00  0.00     0.058 A 
ATOM     84  C   UNL     1       1.587   5.729   7.854  1.00  0.00     0.135 A 
ATOM     85  C   UNL     1       0.837   7.975   8.177  1.00  0.00     0.135 A 
ATOM     86  F   UNL     1       1.413   4.441   7.524  1.00  0.00    -0.206 F 
ATOM     87  C   UNL     1       2.900   6.137   8.070  1.00  0.00     0.059 A 
ATOM     88  C   UNL     1       2.146   8.414   8.325  1.00  0.00     0.059 A 
ATOM     89  F   UNL     1      -0.103   8.928   8.267  1.00  0.00    -0.206 F 
ATOM     90  C   UNL     1       3.171   7.484   8.288  1.00  0.00     0.060 A 
BRANCH  90  91
ATOM     91  S   UNL     1       4.876   8.034   8.451  1.00  0.00     0.124 S 
ATOM     92  O   UNL     1       5.070   7.945   9.895  1.00  0.00    -0.237 OA
ATOM     93  O   UNL     1       5.609   7.054   7.654  1.00  0.00    -0.237 OA
ATOM     94  O   UNL     1       4.844   9.383   7.896  1.00  0.00    -0.744 OA
ENDBRANCH  90  91
ENDBRANCH  58  83
ENDBRANCH  32  33
ENDBRANCH  25  27
ENDBRANCH  24  25
ENDBRANCH   1  24
TORSDOF 16
