REMARK SMILES O=C(OCCOC(=O)c1nc(NC[C@H]2c3ccccc3CSc3ccccc32)c2ccccc2n1)c1ccc(-c2c3nc(c(-c4c(F)cc(S(=O)(=O)[O-])cc4F)c4ccc([nH]4)c(-c4c(F)cc(S(=O)(=O)[O-])cc4F)c4nc(c(-c5c(F)cc(S(=O)(=O)[O-])cc5F)c5ccc2[nH]5)C=C4)C=C3)cc1
REMARK SMILES IDX 4 1 3 2 2 3 1 4 36 5 37 6 101 7 38 8 100 9 39 10 40 11 41 12
REMARK SMILES IDX 94 13 42 14 99 15 93 16 95 17 43 18 98 19 92 20 91 21 44 23
REMARK SMILES IDX 78 24 57 25 77 26 58 27 61 28 76 29 96 30 59 31 60 32 75 34
REMARK SMILES IDX 97 35 62 36 45 37 46 38 55 39 47 40 48 41 54 42 56 43 49 44
REMARK SMILES IDX 50 45 51 46 52 47 53 48 79 49 80 50 89 51 81 52 82 53 88 54
REMARK SMILES IDX 90 55 83 56 84 57 85 58 86 59 87 60 63 61 64 62 73 63 65 64
REMARK SMILES IDX 66 65 72 66 74 67 67 68 68 69 69 70 70 71 71 72 5 73 6 74
REMARK SMILES IDX 7 75 8 76 9 77 10 78 35 79 11 80 34 81 29 82 33 83 30 84
REMARK SMILES IDX 32 85 31 86 12 87 13 89 14 90 15 91 28 92 16 93 20 94 23 95
REMARK SMILES IDX 27 96 17 97 19 98 21 99 22 100 24 101 26 102 18 103 25 104
REMARK H PARENT 95 22 61 33 12 88
REMARK Flexibility Score: inf
ROOT
ATOM      1  C   UNL     1       4.114  -0.959  -1.078  1.00  0.00     0.275 C 
ENDROOT
BRANCH   1   2
ATOM      2  O   UNL     1       3.199  -0.894   0.027  1.00  0.00    -0.458 OA
BRANCH   2   3
ATOM      3  C   UNL     1       3.307  -0.093   1.117  1.00  0.00     0.338 C 
ATOM      4  O   UNL     1       2.742  -0.399   2.164  1.00  0.00    -0.246 OA
BRANCH   3   5
ATOM      5  C   UNL     1       3.909   1.264   1.002  1.00  0.00     0.060 A 
ATOM      6  C   UNL     1       3.143   2.317   1.507  1.00  0.00     0.016 A 
ATOM      7  C   UNL     1       5.177   1.553   0.493  1.00  0.00     0.016 A 
ATOM      8  C   UNL     1       3.573   3.639   1.385  1.00  0.00     0.010 A 
ATOM      9  C   UNL     1       5.617   2.881   0.376  1.00  0.00     0.010 A 
ATOM     10  C   UNL     1       4.808   3.940   0.796  1.00  0.00    -0.014 A 
BRANCH  10  11
ATOM     11  C   UNL     1       5.306   5.338   0.817  1.00  0.00     0.031 A 
ATOM     12  C   UNL     1       5.457   6.166  -0.433  1.00  0.00     0.074 A 
ATOM     13  C   UNL     1       5.619   5.855   2.021  1.00  0.00     0.049 A 
ATOM     14  N   UNL     1       5.671   7.454  -0.540  1.00  0.00    -0.248 NA
ATOM     15  C   UNL     1       5.346   5.478  -1.729  1.00  0.00     0.031 C 
ATOM     16  C   UNL     1       5.565   5.119   3.291  1.00  0.00     0.029 A 
ATOM     17  N   UNL     1       6.053   7.102   2.381  1.00  0.00    -0.354 N 
ATOM     18  C   UNL     1       5.615   7.747  -1.901  1.00  0.00     0.074 A 
ATOM     19  C   UNL     1       5.454   6.487  -2.590  1.00  0.00     0.031 C 
ATOM     20  C   UNL     1       5.954   5.927   4.286  1.00  0.00     0.029 A 
ATOM     21  C   UNL     1       6.312   7.224   3.725  1.00  0.00     0.049 A 
ATOM     22  H   UNL     1       6.168   7.840   1.740  1.00  0.00     0.167 HD
ATOM     23  C   UNL     1       5.635   8.969  -2.494  1.00  0.00     0.037 A 
ATOM     24  C   UNL     1       6.805   8.260   4.427  1.00  0.00     0.037 A 
ATOM     25  C   UNL     1       5.910  10.186  -1.775  1.00  0.00     0.049 A 
ATOM     26  C   UNL     1       7.069   9.545   3.706  1.00  0.00     0.074 A 
ATOM     27  C   UNL     1       5.925  11.485  -2.249  1.00  0.00     0.029 A 
ATOM     28  N   UNL     1       6.296  10.239  -0.443  1.00  0.00    -0.354 N 
ATOM     29  N   UNL     1       6.814   9.846   2.454  1.00  0.00    -0.248 NA
ATOM     30  C   UNL     1       7.684  10.628   4.479  1.00  0.00     0.031 C 
ATOM     31  C   UNL     1       6.395  12.313  -1.221  1.00  0.00     0.029 A 
ATOM     32  C   UNL     1       6.638  11.535  -0.100  1.00  0.00     0.049 A 
ATOM     33  H   UNL     1       6.323   9.467   0.168  1.00  0.00     0.167 HD
ATOM     34  C   UNL     1       7.229  11.159   2.288  1.00  0.00     0.074 A 
ATOM     35  C   UNL     1       7.743  11.596   3.573  1.00  0.00     0.031 C 
ATOM     36  C   UNL     1       7.181  11.934   1.176  1.00  0.00     0.037 A 
BRANCH  23  37
ATOM     37  C   UNL     1       5.331   9.072  -3.967  1.00  0.00     0.058 A 
ATOM     38  C   UNL     1       4.030   9.365  -4.414  1.00  0.00     0.135 A 
ATOM     39  C   UNL     1       6.335   8.984  -4.941  1.00  0.00     0.135 A 
ATOM     40  F   UNL     1       3.049   9.612  -3.538  1.00  0.00    -0.206 F 
ATOM     41  C   UNL     1       3.713   9.466  -5.764  1.00  0.00     0.059 A 
ATOM     42  C   UNL     1       6.050   9.128  -6.301  1.00  0.00     0.059 A 
ATOM     43  F   UNL     1       7.608   8.772  -4.575  1.00  0.00    -0.206 F 
ATOM     44  C   UNL     1       4.730   9.338  -6.705  1.00  0.00     0.060 A 
BRANCH  44  45
ATOM     45  S   UNL     1       4.314   9.513  -8.454  1.00  0.00     0.124 S 
ATOM     46  O   UNL     1       3.821   8.176  -8.768  1.00  0.00    -0.237 OA
ATOM     47  O   UNL     1       3.307  10.570  -8.441  1.00  0.00    -0.237 OA
ATOM     48  O   UNL     1       5.588   9.876  -9.066  1.00  0.00    -0.744 OA
ENDBRANCH  44  45
ENDBRANCH  23  37
BRANCH  24  49
ATOM     49  C   UNL     1       7.084   8.082   5.875  1.00  0.00     0.058 A 
ATOM     50  C   UNL     1       6.274   8.674   6.852  1.00  0.00     0.135 A 
ATOM     51  C   UNL     1       8.112   7.225   6.305  1.00  0.00     0.135 A 
ATOM     52  F   UNL     1       5.283   9.502   6.490  1.00  0.00    -0.206 F 
ATOM     53  C   UNL     1       6.458   8.406   8.205  1.00  0.00     0.059 A 
ATOM     54  C   UNL     1       8.302   6.925   7.649  1.00  0.00     0.059 A 
ATOM     55  F   UNL     1       8.906   6.623   5.404  1.00  0.00    -0.206 F 
ATOM     56  C   UNL     1       7.466   7.519   8.593  1.00  0.00     0.060 A 
BRANCH  56  57
ATOM     57  S   UNL     1       7.622   7.093  10.341  1.00  0.00     0.124 S 
ATOM     58  O   UNL     1       8.183   8.321  10.893  1.00  0.00    -0.237 OA
ATOM     59  O   UNL     1       6.240   6.800  10.708  1.00  0.00    -0.237 OA
ATOM     60  O   UNL     1       8.517   5.940  10.328  1.00  0.00    -0.744 OA
ENDBRANCH  56  57
ENDBRANCH  24  49
BRANCH  36  61
ATOM     61  C   UNL     1       7.728  13.324   1.297  1.00  0.00     0.058 A 
ATOM     62  C   UNL     1       9.110  13.556   1.343  1.00  0.00     0.135 A 
ATOM     63  C   UNL     1       6.869  14.433   1.327  1.00  0.00     0.135 A 
ATOM     64  F   UNL     1       9.970  12.524   1.330  1.00  0.00    -0.206 F 
ATOM     65  C   UNL     1       9.625  14.843   1.432  1.00  0.00     0.059 A 
ATOM     66  C   UNL     1       7.362  15.731   1.391  1.00  0.00     0.059 A 
ATOM     67  F   UNL     1       5.538  14.261   1.278  1.00  0.00    -0.206 F 
ATOM     68  C   UNL     1       8.742  15.925   1.453  1.00  0.00     0.060 A 
BRANCH  68  69
ATOM     69  S   UNL     1       9.424  17.593   1.536  1.00  0.00     0.124 S 
ATOM     70  O   UNL     1       9.843  17.669   2.932  1.00  0.00    -0.237 OA
ATOM     71  O   UNL     1      10.500  17.541   0.552  1.00  0.00    -0.237 OA
ATOM     72  O   UNL     1       8.291  18.440   1.173  1.00  0.00    -0.744 OA
ENDBRANCH  68  69
ENDBRANCH  36  61
ENDBRANCH  10  11
ENDBRANCH   3   5
ENDBRANCH   2   3
ENDBRANCH   1   2
BRANCH   1  73
ATOM     73  C   UNL     1       3.688  -0.165  -2.314  1.00  0.00     0.275 C 
BRANCH  73  74
ATOM     74  O   UNL     1       3.164   1.136  -2.017  1.00  0.00    -0.456 OA
BRANCH  74  75
ATOM     75  C   UNL     1       1.800   1.223  -1.983  1.00  0.00     0.376 C 
ATOM     76  O   UNL     1       1.022   0.299  -2.179  1.00  0.00    -0.242 OA
BRANCH  75  77
ATOM     77  C   UNL     1       1.394   2.599  -1.556  1.00  0.00     0.241 A 
ATOM     78  N   UNL     1       0.642   2.661  -0.444  1.00  0.00    -0.204 NA
ATOM     79  N   UNL     1       1.900   3.643  -2.234  1.00  0.00    -0.222 NA
ATOM     80  C   UNL     1       0.483   3.874   0.105  1.00  0.00     0.138 A 
ATOM     81  C   UNL     1       1.676   4.849  -1.699  1.00  0.00     0.077 A 
ATOM     82  C   UNL     1       1.026   5.031  -0.470  1.00  0.00     0.043 A 
ATOM     83  C   UNL     1       2.141   5.975  -2.353  1.00  0.00     0.029 A 
ATOM     84  C   UNL     1       0.979   6.318   0.128  1.00  0.00     0.014 A 
ATOM     85  C   UNL     1       2.072   7.241  -1.766  1.00  0.00     0.002 A 
ATOM     86  C   UNL     1       1.518   7.417  -0.513  1.00  0.00     0.001 A 
BRANCH  80  87
ATOM     87  N   UNL     1      -0.106   3.953   1.359  1.00  0.00    -0.368 N 
ATOM     88  H   UNL     1      -0.133   4.818   1.828  1.00  0.00     0.162 HD
BRANCH  87  89
ATOM     89  C   UNL     1      -0.685   2.778   1.990  1.00  0.00     0.127 C 
BRANCH  89  90
ATOM     90  C   UNL     1      -0.742   2.920   3.549  1.00  0.00     0.070 C 
ATOM     91  C   UNL     1      -1.413   4.223   4.015  1.00  0.00    -0.035 A 
ATOM     92  C   UNL     1      -1.227   1.655   4.280  1.00  0.00    -0.025 A 
ATOM     93  C   UNL     1      -2.389   4.893   3.254  1.00  0.00     0.005 A 
ATOM     94  C   UNL     1      -0.996   4.815   5.227  1.00  0.00    -0.034 A 
ATOM     95  C   UNL     1      -1.285   1.525   5.688  1.00  0.00     0.011 A 
ATOM     96  C   UNL     1      -1.547   0.502   3.513  1.00  0.00     0.005 A 
ATOM     97  C   UNL     1      -2.864   6.152   3.632  1.00  0.00     0.000 A 
ATOM     98  C   UNL     1      -1.502   6.070   5.611  1.00  0.00     0.005 A 
ATOM     99  C   UNL     1      -0.060   4.085   6.152  1.00  0.00     0.110 C 
ATOM    100  S   UNL     1      -0.920   2.722   6.981  1.00  0.00    -0.121 SA
ATOM    101  C   UNL     1      -1.684   0.286   6.246  1.00  0.00     0.015 A 
ATOM    102  C   UNL     1      -1.908  -0.716   4.088  1.00  0.00     0.000 A 
ATOM    103  C   UNL     1      -2.415   6.744   4.806  1.00  0.00     0.000 A 
ATOM    104  C   UNL     1      -1.984  -0.824   5.461  1.00  0.00     0.001 A 
ENDBRANCH  89  90
ENDBRANCH  87  89
ENDBRANCH  80  87
ENDBRANCH  75  77
ENDBRANCH  74  75
ENDBRANCH  73  74
ENDBRANCH   1  73
TORSDOF 17
