REMARK SMILES CC(=O)Oc1ccc2oc(N)c([C@@H]3[NH2+][C@@H](C(=O)OCCOC(=O)c4ccc(-c5c6nc(c(-c7c(F)cc(S(=O)(=O)[O-])cc7F)c7ccc([nH]7)c(-c7c(F)cc(S(=O)(=O)[O-])cc7F)c7nc(c(-c8c(F)cc(S(=O)(=O)[O-])cc8F)c8ccc5[nH]8)C=C7)C=C6)cc4)C(C)(C)S3)c(=O)c2c1
REMARK SMILES IDX 19 1 18 2 16 3 17 4 15 5 13 6 14 7 93 8 90 11 91 12 92 13
REMARK SMILES IDX 12 14 5 15 6 16 97 17 7 18 96 19 8 20 94 21 9 22 95 23 10 24
REMARK SMILES IDX 4 25 2 26 1 27 3 28 11 29 20 32 21 33 22 34 23 35 24 36
REMARK SMILES IDX 25 37 89 38 26 39 88 40 27 41 28 42 29 43 82 44 30 45 87 46
REMARK SMILES IDX 81 47 83 48 31 49 86 50 80 51 79 52 32 54 66 55 45 56 65 57
REMARK SMILES IDX 46 58 49 59 64 60 84 61 47 62 48 63 63 65 85 66 50 67 33 68
REMARK SMILES IDX 34 69 43 70 35 71 36 72 42 73 44 74 37 75 38 76 39 77 40 78
REMARK SMILES IDX 41 79 67 80 68 81 77 82 69 83 70 84 76 85 78 86 71 87 72 88
REMARK SMILES IDX 73 89 74 90 75 91 51 92 52 93 61 94 53 95 54 96 60 97 62 98
REMARK SMILES IDX 55 99 56 100 57 101 58 102 59 103
REMARK H PARENT 14 9 14 10 11 30 11 31 83 53 49 64
REMARK Flexibility Score: inf
ROOT
ATOM      1  C   UNL     1       0.166   5.333 -12.347  1.00  0.00     0.274 C 
ENDROOT
BRANCH   1   2
ATOM      2  O   UNL     1       0.536   6.007 -11.124  1.00  0.00    -0.458 OA
BRANCH   2   3
ATOM      3  C   UNL     1       1.658   5.538 -10.527  1.00  0.00     0.366 C 
ATOM      4  O   UNL     1       2.317   4.599 -10.969  1.00  0.00    -0.245 OA
BRANCH   3   5
ATOM      5  C   UNL     1       2.045   6.255  -9.225  1.00  0.00     0.310 C 
ATOM      6  C   UNL     1       2.332   6.018  -6.873  1.00  0.00     0.284 C 
ATOM      7  N   UNL     1       1.823   5.338  -8.073  1.00  0.00    -0.318 N 
ATOM      8  S   UNL     1       2.001   7.794  -7.088  1.00  0.00    -0.081 SA
ATOM      9  H   UNL     1       0.828   5.142  -7.968  1.00  0.00     0.348 HD
ATOM     10  H   UNL     1       2.305   4.450  -8.218  1.00  0.00     0.348 HD
ATOM     11  C   UNL     1       1.491   7.650  -8.861  1.00  0.00     0.079 C 
ATOM     12  C   UNL     1      -0.031   7.809  -8.917  1.00  0.00     0.030 C 
ATOM     13  C   UNL     1       2.164   8.807  -9.603  1.00  0.00     0.030 C 
BRANCH   6  14
ATOM     14  C   UNL     1       3.774   5.687  -6.540  1.00  0.00     0.128 A 
ATOM     15  C   UNL     1       6.794   3.796  -3.152  1.00  0.00     0.131 A 
ATOM     16  C   UNL     1       7.885   4.220  -3.913  1.00  0.00     0.051 A 
ATOM     17  C   UNL     1       5.489   3.905  -3.630  1.00  0.00     0.063 A 
ATOM     18  C   UNL     1       7.658   4.833  -5.143  1.00  0.00     0.052 A 
ATOM     19  C   UNL     1       5.277   4.527  -4.862  1.00  0.00     0.069 A 
ATOM     20  C   UNL     1       6.350   5.009  -5.596  1.00  0.00     0.140 A 
ATOM     21  C   UNL     1       3.925   4.728  -5.401  1.00  0.00     0.205 A 
ATOM     22  O   UNL     1       6.181   5.689  -6.763  1.00  0.00    -0.440 OA
ATOM     23  O   UNL     1       2.968   4.177  -4.866  1.00  0.00    -0.288 OA
ATOM     24  C   UNL     1       4.919   6.161  -7.088  1.00  0.00     0.205 A 
BRANCH  15  25
ATOM     25  O   UNL     1       6.995   3.201  -1.905  1.00  0.00    -0.427 OA
BRANCH  25  26
ATOM     26  C   UNL     1       7.423   4.094  -0.927  1.00  0.00     0.308 C 
ATOM     27  C   UNL     1       7.606   3.351   0.362  1.00  0.00     0.139 C 
ATOM     28  O   UNL     1       7.597   5.299  -1.050  1.00  0.00    -0.252 OA
ENDBRANCH  25  26
ENDBRANCH  15  25
BRANCH  24  29
ATOM     29  N   UNL     1       5.007   7.160  -8.016  1.00  0.00    -0.369 N 
ATOM     30  H   UNL     1       5.887   7.438  -8.358  1.00  0.00     0.159 HD
ATOM     31  H   UNL     1       4.190   7.601  -8.343  1.00  0.00     0.159 HD
ENDBRANCH  24  29
ENDBRANCH   6  14
ENDBRANCH   3   5
ENDBRANCH   2   3
ENDBRANCH   1   2
BRANCH   1  32
ATOM     32  C   UNL     1       0.671   6.079 -13.585  1.00  0.00     0.275 C 
BRANCH  32  33
ATOM     33  O   UNL     1       2.109   6.094 -13.646  1.00  0.00    -0.458 OA
BRANCH  33  34
ATOM     34  C   UNL     1       2.689   7.226 -13.186  1.00  0.00     0.338 C 
ATOM     35  O   UNL     1       2.127   8.223 -12.771  1.00  0.00    -0.246 OA
BRANCH  34  36
ATOM     36  C   UNL     1       4.150   7.082 -13.194  1.00  0.00     0.060 A 
ATOM     37  C   UNL     1       4.862   7.342 -14.363  1.00  0.00     0.016 A 
ATOM     38  C   UNL     1       4.819   6.784 -12.005  1.00  0.00     0.016 A 
ATOM     39  C   UNL     1       6.256   7.267 -14.340  1.00  0.00     0.010 A 
ATOM     40  C   UNL     1       6.210   6.740 -11.976  1.00  0.00     0.010 A 
ATOM     41  C   UNL     1       6.940   6.963 -13.148  1.00  0.00    -0.014 A 
BRANCH  41  42
ATOM     42  C   UNL     1       8.420   6.876 -13.140  1.00  0.00     0.031 A 
ATOM     43  C   UNL     1       9.101   5.543 -12.996  1.00  0.00     0.074 A 
ATOM     44  C   UNL     1       9.147   8.001 -13.284  1.00  0.00     0.049 A 
ATOM     45  N   UNL     1      10.374   5.258 -13.092  1.00  0.00    -0.248 NA
ATOM     46  C   UNL     1       8.247   4.383 -12.694  1.00  0.00     0.031 C 
ATOM     47  C   UNL     1       8.596   9.354 -13.371  1.00  0.00     0.029 A 
ATOM     48  N   UNL     1      10.502   8.184 -13.402  1.00  0.00    -0.354 N 
ATOM     49  C   UNL     1      10.471   3.886 -12.889  1.00  0.00     0.074 A 
ATOM     50  C   UNL     1       9.138   3.407 -12.595  1.00  0.00     0.031 C 
ATOM     51  C   UNL     1       9.599  10.223 -13.578  1.00  0.00     0.029 A 
ATOM     52  C   UNL     1      10.862   9.492 -13.624  1.00  0.00     0.049 A 
ATOM     53  H   UNL     1      11.153   7.449 -13.334  1.00  0.00     0.167 HD
ATOM     54  C   UNL     1      11.566   3.095 -12.974  1.00  0.00     0.037 A 
ATOM     55  C   UNL     1      12.072  10.034 -13.864  1.00  0.00     0.037 A 
ATOM     56  C   UNL     1      12.889   3.580 -13.271  1.00  0.00     0.049 A 
ATOM     57  C   UNL     1      13.276   9.136 -13.942  1.00  0.00     0.074 A 
ATOM     58  C   UNL     1      14.058   2.855 -13.418  1.00  0.00     0.029 A 
ATOM     59  N   UNL     1      13.218   4.914 -13.465  1.00  0.00    -0.354 N 
ATOM     60  N   UNL     1      13.339   7.831 -13.822  1.00  0.00    -0.248 NA
ATOM     61  C   UNL     1      14.572   9.781 -14.197  1.00  0.00     0.031 C 
ATOM     62  C   UNL     1      15.101   3.753 -13.666  1.00  0.00     0.029 A 
ATOM     63  C   UNL     1      14.575   5.035 -13.713  1.00  0.00     0.049 A 
ATOM     64  H   UNL     1      12.581   5.663 -13.432  1.00  0.00     0.167 HD
ATOM     65  C   UNL     1      14.676   7.497 -14.004  1.00  0.00     0.074 A 
ATOM     66  C   UNL     1      15.385   8.735 -14.259  1.00  0.00     0.031 C 
ATOM     67  C   UNL     1      15.264   6.276 -13.964  1.00  0.00     0.037 A 
BRANCH  54  68
ATOM     68  C   UNL     1      11.379   1.617 -12.776  1.00  0.00     0.058 A 
ATOM     69  C   UNL     1      10.748   0.829 -13.752  1.00  0.00     0.135 A 
ATOM     70  C   UNL     1      11.890   0.969 -11.641  1.00  0.00     0.135 A 
ATOM     71  F   UNL     1      10.229   1.401 -14.851  1.00  0.00    -0.206 F 
ATOM     72  C   UNL     1      10.618  -0.547 -13.604  1.00  0.00     0.059 A 
ATOM     73  C   UNL     1      11.792  -0.411 -11.482  1.00  0.00     0.059 A 
ATOM     74  F   UNL     1      12.501   1.675 -10.677  1.00  0.00    -0.206 F 
ATOM     75  C   UNL     1      11.148  -1.160 -12.467  1.00  0.00     0.060 A 
BRANCH  75  76
ATOM     76  S   UNL     1      11.000  -2.952 -12.311  1.00  0.00     0.124 S 
ATOM     77  O   UNL     1       9.570  -3.107 -12.058  1.00  0.00    -0.237 OA
ATOM     78  O   UNL     1      11.466  -3.418 -13.613  1.00  0.00    -0.237 OA
ATOM     79  O   UNL     1      11.873  -3.270 -11.185  1.00  0.00    -0.744 OA
ENDBRANCH  75  76
ENDBRANCH  54  68
BRANCH  55  80
ATOM     80  C   UNL     1      12.193  11.496 -14.104  1.00  0.00     0.058 A 
ATOM     81  C   UNL     1      12.471  11.994 -15.385  1.00  0.00     0.135 A 
ATOM     82  C   UNL     1      12.013  12.423 -13.066  1.00  0.00     0.135 A 
ATOM     83  F   UNL     1      12.655  11.145 -16.408  1.00  0.00    -0.206 F 
ATOM     84  C   UNL     1      12.579  13.359 -15.629  1.00  0.00     0.059 A 
ATOM     85  C   UNL     1      12.094  13.794 -13.289  1.00  0.00     0.059 A 
ATOM     86  F   UNL     1      11.730  11.998 -11.825  1.00  0.00    -0.206 F 
ATOM     87  C   UNL     1      12.386  14.252 -14.574  1.00  0.00     0.060 A 
BRANCH  87  88
ATOM     88  S   UNL     1      12.479  16.023 -14.914  1.00  0.00     0.124 S 
ATOM     89  O   UNL     1      13.911  16.208 -15.120  1.00  0.00    -0.237 OA
ATOM     90  O   UNL     1      11.641  16.152 -16.102  1.00  0.00    -0.237 OA
ATOM     91  O   UNL     1      11.933  16.627 -13.702  1.00  0.00    -0.744 OA
ENDBRANCH  87  88
ENDBRANCH  55  80
BRANCH  67  92
ATOM     92  C   UNL     1      16.745   6.211 -14.205  1.00  0.00     0.058 A 
ATOM     93  C   UNL     1      17.663   6.623 -13.227  1.00  0.00     0.135 A 
ATOM     94  C   UNL     1      17.252   5.664 -15.395  1.00  0.00     0.135 A 
ATOM     95  F   UNL     1      17.229   7.158 -12.075  1.00  0.00    -0.206 F 
ATOM     96  C   UNL     1      19.035   6.507 -13.425  1.00  0.00     0.059 A 
ATOM     97  C   UNL     1      18.620   5.516 -15.604  1.00  0.00     0.059 A 
ATOM     98  F   UNL     1      16.415   5.247 -16.358  1.00  0.00    -0.206 F 
ATOM     99  C   UNL     1      19.503   5.947 -14.615  1.00  0.00     0.060 A 
BRANCH  99 100
ATOM    100  S   UNL     1      21.285   5.759 -14.837  1.00  0.00     0.124 S 
ATOM    101  O   UNL     1      21.702   7.141 -15.055  1.00  0.00    -0.237 OA
ATOM    102  O   UNL     1      21.696   5.166 -13.568  1.00  0.00    -0.237 OA
ATOM    103  O   UNL     1      21.393   4.880 -15.997  1.00  0.00    -0.744 OA
ENDBRANCH  99 100
ENDBRANCH  67  92
ENDBRANCH  41  42
ENDBRANCH  34  36
ENDBRANCH  33  34
ENDBRANCH  32  33
ENDBRANCH   1  32
TORSDOF 18
