REMARK SMILES O=C(OCCOC(=O)[C@@]1(c2ccccc2)CCCC[NH2+]1)c1ccc(-c2c3nc(c(-c4c(F)cc(S(=O)(=O)[O-])cc4F)c4ccc([nH]4)c(-c4c(F)cc(S(=O)(=O)[O-])cc4F)c4nc(c(-c5c(F)cc(S(=O)(=O)[O-])cc5F)c5ccc2[nH]5)C=C4)C=C3)cc1
REMARK SMILES IDX 4 1 3 2 2 3 1 4 21 5 22 6 86 7 23 8 85 9 24 10 25 11 26 12
REMARK SMILES IDX 79 13 27 14 84 15 78 16 80 17 28 18 83 19 77 20 76 21 29 23
REMARK SMILES IDX 63 24 42 25 62 26 43 27 46 28 61 29 81 30 44 31 45 32 60 34
REMARK SMILES IDX 82 35 47 36 30 37 31 38 40 39 32 40 33 41 39 42 41 43 34 44
REMARK SMILES IDX 35 45 36 46 37 47 38 48 64 49 65 50 74 51 66 52 67 53 73 54
REMARK SMILES IDX 75 55 68 56 69 57 70 58 71 59 72 60 48 61 49 62 58 63 50 64
REMARK SMILES IDX 51 65 57 66 59 67 52 68 53 69 54 70 55 71 56 72 5 73 6 74
REMARK SMILES IDX 7 75 8 76 9 77 16 78 20 79 17 80 19 81 18 84 10 85 11 86
REMARK SMILES IDX 15 87 12 88 14 89 13 90
REMARK H PARENT 80 22 46 33 20 82 20 83
REMARK Flexibility Score: inf
ROOT
ATOM      1  C   UNL     1      -1.870   0.464   3.251  1.00  0.00     0.275 C 
ENDROOT
BRANCH   1   2
ATOM      2  O   UNL     1      -1.973   0.602   1.825  1.00  0.00    -0.458 OA
BRANCH   2   3
ATOM      3  C   UNL     1      -1.280   1.464   1.045  1.00  0.00     0.338 C 
ATOM      4  O   UNL     1      -1.476   1.504  -0.167  1.00  0.00    -0.246 OA
BRANCH   3   5
ATOM      5  C   UNL     1      -0.167   2.259   1.614  1.00  0.00     0.060 A 
ATOM      6  C   UNL     1      -0.272   3.147   2.688  1.00  0.00     0.016 A 
ATOM      7  C   UNL     1       1.057   2.126   0.967  1.00  0.00     0.016 A 
ATOM      8  C   UNL     1       0.861   3.842   3.143  1.00  0.00     0.010 A 
ATOM      9  C   UNL     1       2.193   2.764   1.454  1.00  0.00     0.010 A 
ATOM     10  C   UNL     1       2.103   3.662   2.521  1.00  0.00    -0.014 A 
BRANCH  10  11
ATOM     11  C   UNL     1       3.279   4.516   2.832  1.00  0.00     0.031 A 
ATOM     12  C   UNL     1       3.746   5.505   1.788  1.00  0.00     0.074 A 
ATOM     13  C   UNL     1       3.974   4.368   3.977  1.00  0.00     0.049 A 
ATOM     14  N   UNL     1       4.680   6.417   1.872  1.00  0.00    -0.248 NA
ATOM     15  C   UNL     1       3.097   5.444   0.464  1.00  0.00     0.031 C 
ATOM     16  C   UNL     1       3.709   3.372   5.016  1.00  0.00     0.029 A 
ATOM     17  N   UNL     1       5.077   5.038   4.445  1.00  0.00    -0.354 N 
ATOM     18  C   UNL     1       4.684   7.061   0.640  1.00  0.00     0.074 A 
ATOM     19  C   UNL     1       3.780   6.343  -0.224  1.00  0.00     0.031 C 
ATOM     20  C   UNL     1       4.656   3.457   5.967  1.00  0.00     0.029 A 
ATOM     21  C   UNL     1       5.553   4.561   5.644  1.00  0.00     0.049 A 
ATOM     22  H   UNL     1       5.490   5.792   3.965  1.00  0.00     0.167 HD
ATOM     23  C   UNL     1       5.310   8.207   0.284  1.00  0.00     0.037 A 
ATOM     24  C   UNL     1       6.565   5.003   6.417  1.00  0.00     0.037 A 
ATOM     25  C   UNL     1       6.203   8.916   1.157  1.00  0.00     0.049 A 
ATOM     26  C   UNL     1       7.241   6.294   6.033  1.00  0.00     0.074 A 
ATOM     27  C   UNL     1       6.837  10.127   0.955  1.00  0.00     0.029 A 
ATOM     28  N   UNL     1       6.589   8.460   2.409  1.00  0.00    -0.354 N 
ATOM     29  N   UNL     1       7.093   7.010   4.942  1.00  0.00    -0.248 NA
ATOM     30  C   UNL     1       8.159   6.882   7.017  1.00  0.00     0.031 C 
ATOM     31  C   UNL     1       7.628  10.392   2.080  1.00  0.00     0.029 A 
ATOM     32  C   UNL     1       7.456   9.363   2.993  1.00  0.00     0.049 A 
ATOM     33  H   UNL     1       6.290   7.617   2.820  1.00  0.00     0.167 HD
ATOM     34  C   UNL     1       7.856   8.156   5.131  1.00  0.00     0.074 A 
ATOM     35  C   UNL     1       8.461   8.038   6.443  1.00  0.00     0.031 C 
ATOM     36  C   UNL     1       8.033   9.219   4.306  1.00  0.00     0.037 A 
BRANCH  23  37
ATOM     37  C   UNL     1       4.965   8.791  -1.059  1.00  0.00     0.058 A 
ATOM     38  C   UNL     1       3.671   9.283  -1.316  1.00  0.00     0.135 A 
ATOM     39  C   UNL     1       5.910   8.878  -2.091  1.00  0.00     0.135 A 
ATOM     40  F   UNL     1       2.719   9.211  -0.371  1.00  0.00    -0.206 F 
ATOM     41  C   UNL     1       3.317   9.803  -2.555  1.00  0.00     0.059 A 
ATOM     42  C   UNL     1       5.586   9.425  -3.332  1.00  0.00     0.059 A 
ATOM     43  F   UNL     1       7.158   8.422  -1.905  1.00  0.00    -0.206 F 
ATOM     44  C   UNL     1       4.283   9.871  -3.558  1.00  0.00     0.060 A 
BRANCH  44  45
ATOM     45  S   UNL     1       3.810  10.573  -5.152  1.00  0.00     0.124 S 
ATOM     46  O   UNL     1       2.977   9.509  -5.705  1.00  0.00    -0.237 OA
ATOM     47  O   UNL     1       3.104  11.789  -4.760  1.00  0.00    -0.237 OA
ATOM     48  O   UNL     1       5.088  10.783  -5.824  1.00  0.00    -0.744 OA
ENDBRANCH  44  45
ENDBRANCH  23  37
BRANCH  24  49
ATOM     49  C   UNL     1       6.905   4.303   7.686  1.00  0.00     0.058 A 
ATOM     50  C   UNL     1       6.534   4.837   8.930  1.00  0.00     0.135 A 
ATOM     51  C   UNL     1       7.603   3.086   7.684  1.00  0.00     0.135 A 
ATOM     52  F   UNL     1       5.862   5.996   8.987  1.00  0.00    -0.206 F 
ATOM     53  C   UNL     1       6.868   4.208  10.126  1.00  0.00     0.059 A 
ATOM     54  C   UNL     1       7.932   2.427   8.868  1.00  0.00     0.059 A 
ATOM     55  F   UNL     1       7.962   2.519   6.522  1.00  0.00    -0.206 F 
ATOM     56  C   UNL     1       7.570   3.002  10.085  1.00  0.00     0.060 A 
BRANCH  56  57
ATOM     57  S   UNL     1       7.967   2.185  11.648  1.00  0.00     0.124 S 
ATOM     58  O   UNL     1       9.004   3.047  12.180  1.00  0.00    -0.237 OA
ATOM     59  O   UNL     1       6.680   2.218  12.343  1.00  0.00    -0.237 OA
ATOM     60  O   UNL     1       8.401   0.851  11.226  1.00  0.00    -0.744 OA
ENDBRANCH  56  57
ENDBRANCH  24  49
BRANCH  36  61
ATOM     61  C   UNL     1       8.883  10.346   4.812  1.00  0.00     0.058 A 
ATOM     62  C   UNL     1      10.276  10.224   4.921  1.00  0.00     0.135 A 
ATOM     63  C   UNL     1       8.298  11.577   5.151  1.00  0.00     0.135 A 
ATOM     64  F   UNL     1      10.879   9.066   4.610  1.00  0.00    -0.206 F 
ATOM     65  C   UNL     1      11.059  11.274   5.384  1.00  0.00     0.059 A 
ATOM     66  C   UNL     1       9.066  12.650   5.588  1.00  0.00     0.059 A 
ATOM     67  F   UNL     1       6.971  11.748   5.049  1.00  0.00    -0.206 F 
ATOM     68  C   UNL     1      10.444  12.483   5.717  1.00  0.00     0.060 A 
BRANCH  68  69
ATOM     69  S   UNL     1      11.474  13.844   6.303  1.00  0.00     0.124 S 
ATOM     70  O   UNL     1      11.761  13.425   7.671  1.00  0.00    -0.237 OA
ATOM     71  O   UNL     1      12.602  13.804   5.377  1.00  0.00    -0.237 OA
ATOM     72  O   UNL     1      10.604  15.008   6.170  1.00  0.00    -0.744 OA
ENDBRANCH  68  69
ENDBRANCH  36  61
ENDBRANCH  10  11
ENDBRANCH   3   5
ENDBRANCH   2   3
ENDBRANCH   1   2
BRANCH   1  73
ATOM     73  C   UNL     1      -0.777  -0.492   3.715  1.00  0.00     0.274 C 
BRANCH  73  74
ATOM     74  O   UNL     1       0.548  -0.129   3.294  1.00  0.00    -0.457 OA
BRANCH  74  75
ATOM     75  C   UNL     1       1.209  -1.035   2.510  1.00  0.00     0.373 C 
ATOM     76  O   UNL     1       0.633  -1.910   1.865  1.00  0.00    -0.244 OA
BRANCH  75  77
ATOM     77  C   UNL     1       2.792  -0.939   2.637  1.00  0.00     0.219 C 
ATOM     78  C   UNL     1       3.168  -0.047   3.862  1.00  0.00     0.087 C 
ATOM     79  N   UNL     1       3.305  -2.329   2.834  1.00  0.00    -0.328 N 
ATOM     80  C   UNL     1       2.871  -0.676   5.222  1.00  0.00     0.013 C 
ATOM     81  C   UNL     1       2.930  -2.918   4.116  1.00  0.00     0.261 C 
ATOM     82  H   UNL     1       4.324  -2.307   2.776  1.00  0.00     0.347 HD
ATOM     83  H   UNL     1       2.886  -2.907   2.106  1.00  0.00     0.347 HD
ATOM     84  C   UNL     1       3.442  -2.083   5.281  1.00  0.00     0.062 C 
BRANCH  77  85
ATOM     85  C   UNL     1       3.471  -0.405   1.344  1.00  0.00     0.024 A 
ATOM     86  C   UNL     1       4.793   0.094   1.382  1.00  0.00     0.011 A 
ATOM     87  C   UNL     1       2.842  -0.408   0.087  1.00  0.00     0.011 A 
ATOM     88  C   UNL     1       5.386   0.714   0.278  1.00  0.00     0.001 A 
ATOM     89  C   UNL     1       3.434   0.216  -1.024  1.00  0.00     0.001 A 
ATOM     90  C   UNL     1       4.691   0.804  -0.919  1.00  0.00     0.000 A 
ENDBRANCH  77  85
ENDBRANCH  75  77
ENDBRANCH  74  75
ENDBRANCH  73  74
ENDBRANCH   1  73
TORSDOF 15
