REMARK SMILES CC[C@@](C)(NC(=O)N(C)CCO)C(=O)OCCOC(=O)c1ccc(-c2c3nc(c(-c4c(F)cc(S(=O)(=O)[O-])cc4F)c4ccc([nH]4)c(-c4c(F)cc(S(=O)(=O)[O-])cc4F)c4nc(c(-c5c(F)cc(S(=O)(=O)[O-])cc5F)c5ccc2[nH]5)C=C4)C=C3)cc1
REMARK SMILES IDX 16 1 15 2 13 3 14 4 3 5 4 6 2 7 1 8 5 9 6 10 7 12 8 13 9 14
REMARK SMILES IDX 10 15 11 16 12 17 17 19 18 20 19 21 20 22 21 23 22 24 86 25
REMARK SMILES IDX 23 26 85 27 24 28 25 29 26 30 79 31 27 32 84 33 78 34 80 35
REMARK SMILES IDX 28 36 83 37 77 38 76 39 29 41 63 42 42 43 62 44 43 45 46 46
REMARK SMILES IDX 61 47 81 48 44 49 45 50 60 52 82 53 47 54 30 55 31 56 40 57
REMARK SMILES IDX 32 58 33 59 39 60 41 61 34 62 35 63 36 64 37 65 38 66 64 67
REMARK SMILES IDX 65 68 74 69 66 70 67 71 73 72 75 73 68 74 69 75 70 76 71 77
REMARK SMILES IDX 72 78 48 79 49 80 58 81 50 82 51 83 57 84 59 85 52 86 53 87
REMARK SMILES IDX 54 88 55 89 56 90
REMARK H PARENT 5 11 12 18 80 40 46 51
REMARK Flexibility Score: inf
ROOT
ATOM      1  C   UNL     1       4.915   1.669  -1.608  1.00  0.00     0.274 C 
ENDROOT
BRANCH   1   2
ATOM      2  O   UNL     1       3.581   2.218  -1.691  1.00  0.00    -0.460 OA
BRANCH   2   3
ATOM      3  C   UNL     1       2.574   1.464  -1.183  1.00  0.00     0.331 C 
ATOM      4  O   UNL     1       2.761   0.327  -0.770  1.00  0.00    -0.249 OA
BRANCH   3   5
ATOM      5  C   UNL     1       1.174   2.145  -1.322  1.00  0.00     0.136 C 
ATOM      6  C   UNL     1       0.770   2.185  -2.802  1.00  0.00     0.047 C 
BRANCH   5   7
ATOM      7  C   UNL     1       0.101   1.252  -0.566  1.00  0.00     0.037 C 
ATOM      8  C   UNL     1       0.011  -0.242  -0.857  1.00  0.00     0.007 C 
ENDBRANCH   5   7
BRANCH   5   9
ATOM      9  N   UNL     1       0.984   3.507  -0.685  1.00  0.00    -0.322 N 
ATOM     10  C   UNL     1       1.371   4.775  -0.570  1.00  0.00     0.318 C 
ATOM     11  H   UNL     1       0.220   3.407  -0.072  1.00  0.00     0.166 HD
ATOM     12  O   UNL     1       0.586   5.463   0.097  1.00  0.00    -0.249 OA
BRANCH  10  13
ATOM     13  N   UNL     1       2.521   5.317  -1.029  1.00  0.00    -0.326 N 
ATOM     14  C   UNL     1       3.313   4.876  -2.150  1.00  0.00     0.148 C 
BRANCH  13  15
ATOM     15  C   UNL     1       3.055   6.485  -0.294  1.00  0.00     0.149 C 
BRANCH  15  16
ATOM     16  C   UNL     1       3.187   7.762  -1.135  1.00  0.00     0.177 C 
BRANCH  16  17
ATOM     17  O   UNL     1       1.954   8.140  -1.744  1.00  0.00    -0.395 OA
ATOM     18  H   UNL     1       1.661   7.436  -2.343  1.00  0.00     0.210 HD
ENDBRANCH  16  17
ENDBRANCH  15  16
ENDBRANCH  13  15
ENDBRANCH  10  13
ENDBRANCH   5   9
ENDBRANCH   3   5
ENDBRANCH   2   3
ENDBRANCH   1   2
BRANCH   1  19
ATOM     19  C   UNL     1       5.609   2.177  -0.346  1.00  0.00     0.275 C 
BRANCH  19  20
ATOM     20  O   UNL     1       4.920   1.649   0.795  1.00  0.00    -0.458 OA
BRANCH  20  21
ATOM     21  C   UNL     1       4.694   2.498   1.821  1.00  0.00     0.338 C 
ATOM     22  O   UNL     1       5.108   3.640   1.949  1.00  0.00    -0.246 OA
BRANCH  21  23
ATOM     23  C   UNL     1       3.849   1.787   2.794  1.00  0.00     0.060 A 
ATOM     24  C   UNL     1       2.574   1.370   2.410  1.00  0.00     0.016 A 
ATOM     25  C   UNL     1       4.316   1.526   4.079  1.00  0.00     0.016 A 
ATOM     26  C   UNL     1       1.759   0.671   3.296  1.00  0.00     0.010 A 
ATOM     27  C   UNL     1       3.510   0.801   4.964  1.00  0.00     0.010 A 
ATOM     28  C   UNL     1       2.224   0.372   4.580  1.00  0.00    -0.014 A 
BRANCH  28  29
ATOM     29  C   UNL     1       1.336  -0.317   5.548  1.00  0.00     0.031 A 
ATOM     30  C   UNL     1       0.799   0.452   6.722  1.00  0.00     0.074 A 
ATOM     31  C   UNL     1       0.994  -1.608   5.371  1.00  0.00     0.049 A 
ATOM     32  N   UNL     1       0.134   0.021   7.761  1.00  0.00    -0.248 NA
ATOM     33  C   UNL     1       1.053   1.901   6.726  1.00  0.00     0.031 C 
ATOM     34  C   UNL     1       1.393  -2.443   4.236  1.00  0.00     0.029 A 
ATOM     35  N   UNL     1       0.230  -2.445   6.146  1.00  0.00    -0.354 N 
ATOM     36  C   UNL     1      -0.069   1.135   8.567  1.00  0.00     0.074 A 
ATOM     37  C   UNL     1       0.541   2.261   7.894  1.00  0.00     0.031 C 
ATOM     38  C   UNL     1       0.862  -3.668   4.385  1.00  0.00     0.029 A 
ATOM     39  C   UNL     1       0.135  -3.724   5.651  1.00  0.00     0.049 A 
ATOM     40  H   UNL     1      -0.208  -2.156   6.979  1.00  0.00     0.167 HD
ATOM     41  C   UNL     1      -0.701   1.207   9.762  1.00  0.00     0.037 A 
ATOM     42  C   UNL     1      -0.446  -4.822   6.174  1.00  0.00     0.037 A 
ATOM     43  C   UNL     1      -1.336   0.087  10.406  1.00  0.00     0.049 A 
ATOM     44  C   UNL     1      -1.124  -4.722   7.515  1.00  0.00     0.074 A 
ATOM     45  C   UNL     1      -1.995   0.051  11.623  1.00  0.00     0.029 A 
ATOM     46  N   UNL     1      -1.403  -1.194   9.877  1.00  0.00    -0.354 N 
ATOM     47  N   UNL     1      -1.260  -3.675   8.295  1.00  0.00    -0.248 NA
ATOM     48  C   UNL     1      -1.718  -5.954   8.053  1.00  0.00     0.031 C 
ATOM     49  C   UNL     1      -2.438  -1.259  11.841  1.00  0.00     0.029 A 
ATOM     50  C   UNL     1      -2.089  -2.029  10.743  1.00  0.00     0.049 A 
ATOM     51  H   UNL     1      -1.019  -1.468   9.013  1.00  0.00     0.167 HD
ATOM     52  C   UNL     1      -1.974  -4.116   9.404  1.00  0.00     0.074 A 
ATOM     53  C   UNL     1      -2.251  -5.522   9.188  1.00  0.00     0.031 C 
ATOM     54  C   UNL     1      -2.366  -3.423  10.501  1.00  0.00     0.037 A 
BRANCH  41  55
ATOM     55  C   UNL     1      -0.689   2.533  10.468  1.00  0.00     0.058 A 
ATOM     56  C   UNL     1      -1.472   3.615  10.039  1.00  0.00     0.135 A 
ATOM     57  C   UNL     1       0.127   2.722  11.596  1.00  0.00     0.135 A 
ATOM     58  F   UNL     1      -2.253   3.495   8.953  1.00  0.00    -0.206 F 
ATOM     59  C   UNL     1      -1.425   4.848  10.683  1.00  0.00     0.059 A 
ATOM     60  C   UNL     1       0.172   3.938  12.270  1.00  0.00     0.059 A 
ATOM     61  F   UNL     1       0.900   1.721  12.046  1.00  0.00    -0.206 F 
ATOM     62  C   UNL     1      -0.594   5.001  11.795  1.00  0.00     0.060 A 
BRANCH  62  63
ATOM     63  S   UNL     1      -0.528   6.607  12.617  1.00  0.00     0.124 S 
ATOM     64  O   UNL     1       0.301   7.373  11.691  1.00  0.00    -0.237 OA
ATOM     65  O   UNL     1      -1.935   6.990  12.673  1.00  0.00    -0.237 OA
ATOM     66  O   UNL     1       0.087   6.303  13.906  1.00  0.00    -0.744 OA
ENDBRANCH  62  63
ENDBRANCH  41  55
BRANCH  42  67
ATOM     67  C   UNL     1      -0.398  -6.116   5.441  1.00  0.00     0.058 A 
ATOM     68  C   UNL     1      -1.557  -6.672   4.879  1.00  0.00     0.135 A 
ATOM     69  C   UNL     1       0.804  -6.823   5.289  1.00  0.00     0.135 A 
ATOM     70  F   UNL     1      -2.734  -6.042   5.009  1.00  0.00    -0.206 F 
ATOM     71  C   UNL     1      -1.529  -7.888   4.202  1.00  0.00     0.059 A 
ATOM     72  C   UNL     1       0.863  -8.027   4.594  1.00  0.00     0.059 A 
ATOM     73  F   UNL     1       1.944  -6.332   5.801  1.00  0.00    -0.206 F 
ATOM     74  C   UNL     1      -0.312  -8.557   4.062  1.00  0.00     0.060 A 
BRANCH  74  75
ATOM     75  S   UNL     1      -0.272 -10.107   3.135  1.00  0.00     0.124 S 
ATOM     76  O   UNL     1      -0.846 -11.040   4.097  1.00  0.00    -0.237 OA
ATOM     77  O   UNL     1      -1.101  -9.795   1.975  1.00  0.00    -0.237 OA
ATOM     78  O   UNL     1       1.148 -10.288   2.848  1.00  0.00    -0.744 OA
ENDBRANCH  74  75
ENDBRANCH  42  67
BRANCH  54  79
ATOM     79  C   UNL     1      -3.177  -4.163  11.527  1.00  0.00     0.058 A 
ATOM     80  C   UNL     1      -2.594  -5.094  12.399  1.00  0.00     0.135 A 
ATOM     81  C   UNL     1      -4.553  -3.912  11.656  1.00  0.00     0.135 A 
ATOM     82  F   UNL     1      -1.284  -5.373  12.313  1.00  0.00    -0.206 F 
ATOM     83  C   UNL     1      -3.353  -5.775  13.346  1.00  0.00     0.059 A 
ATOM     84  C   UNL     1      -5.326  -4.563  12.610  1.00  0.00     0.059 A 
ATOM     85  F   UNL     1      -5.155  -3.021  10.852  1.00  0.00    -0.206 F 
ATOM     86  C   UNL     1      -4.720  -5.505  13.440  1.00  0.00     0.060 A 
BRANCH  86  87
ATOM     87  S   UNL     1      -5.697  -6.383  14.680  1.00  0.00     0.124 S 
ATOM     88  O   UNL     1      -5.876  -7.684  14.044  1.00  0.00    -0.237 OA
ATOM     89  O   UNL     1      -4.820  -6.362  15.846  1.00  0.00    -0.237 OA
ATOM     90  O   UNL     1      -6.904  -5.569  14.797  1.00  0.00    -0.744 OA
ENDBRANCH  86  87
ENDBRANCH  54  79
ENDBRANCH  28  29
ENDBRANCH  21  23
ENDBRANCH  20  21
ENDBRANCH  19  20
ENDBRANCH   1  19
TORSDOF 20
