REMARK SMILES CCC(CC)N(CC(C)C)C(=O)N1CC[C@@H](C(=O)OCCOC(=O)c2ccc(-c3c4nc(c(-c5c(F)cc(S(=O)(=O)[O-])cc5F)c5ccc([nH]5)c(-c5c(F)cc(S(=O)(=O)[O-])cc5F)c5nc(c(-c6c(F)cc(S(=O)(=O)[O-])cc6F)c6ccc3[nH]6)C=C5)C=C4)cc2)[C@@H]1C
REMARK SMILES IDX 20 1 19 2 17 3 18 4 16 5 13 6 14 7 91 8 15 9 92 10 11 11
REMARK SMILES IDX 12 12 6 13 3 14 2 15 1 16 4 17 5 18 7 19 8 20 9 21 10 22
REMARK SMILES IDX 21 23 22 24 23 25 24 26 25 27 26 28 90 29 27 30 89 31 28 32
REMARK SMILES IDX 29 33 30 34 83 35 31 36 88 37 82 38 84 39 32 40 87 41 81 42
REMARK SMILES IDX 80 43 33 45 67 46 46 47 66 48 47 49 50 50 65 51 85 52 48 53
REMARK SMILES IDX 49 54 64 56 86 57 51 58 34 59 35 60 44 61 36 62 37 63 43 64
REMARK SMILES IDX 45 65 38 66 39 67 40 68 41 69 42 70 68 71 69 72 78 73 70 74
REMARK SMILES IDX 71 75 77 76 79 77 72 78 73 79 74 80 75 81 76 82 52 83 53 84
REMARK SMILES IDX 62 85 54 86 55 87 61 88 63 89 56 90 57 91 58 92 59 93 60 94
REMARK H PARENT 84 44 50 55
REMARK Flexibility Score: inf
ROOT
ATOM      1  C   UNL     1       1.316   7.979   4.869  1.00  0.00     0.274 C 
ENDROOT
BRANCH   1   2
ATOM      2  O   UNL     1       0.371   7.244   4.064  1.00  0.00    -0.462 OA
BRANCH   2   3
ATOM      3  C   UNL     1      -0.935   7.586   4.215  1.00  0.00     0.311 C 
ATOM      4  O   UNL     1      -1.338   8.446   4.991  1.00  0.00    -0.252 OA
BRANCH   3   5
ATOM      5  C   UNL     1      -1.891   6.753   3.386  1.00  0.00     0.123 C 
ATOM      6  N   UNL     1      -1.453   4.696   2.275  1.00  0.00    -0.321 N 
ATOM      7  C   UNL     1      -2.528   4.446   3.211  1.00  0.00     0.122 C 
ATOM      8  C   UNL     1      -1.314   6.145   2.087  1.00  0.00     0.098 C 
ATOM      9  C   UNL     1      -2.391   5.567   4.216  1.00  0.00     0.039 C 
ATOM     10  C   UNL     1      -2.122   6.595   0.861  1.00  0.00     0.032 C 
BRANCH   6  11
ATOM     11  C   UNL     1      -1.069   3.675   1.438  1.00  0.00     0.320 C 
ATOM     12  O   UNL     1      -1.872   2.760   1.237  1.00  0.00    -0.248 OA
BRANCH  11  13
ATOM     13  N   UNL     1       0.224   3.642   0.927  1.00  0.00    -0.321 N 
BRANCH  13  14
ATOM     14  C   UNL     1       0.638   2.484   0.081  1.00  0.00     0.086 C 
BRANCH  14  15
ATOM     15  C   UNL     1       0.375   1.115   0.755  1.00  0.00     0.022 C 
ATOM     16  C   UNL     1       1.107  -0.045   0.094  1.00  0.00     0.006 C 
ENDBRANCH  14  15
BRANCH  14  17
ATOM     17  C   UNL     1       0.196   2.587  -1.394  1.00  0.00     0.022 C 
ATOM     18  C   UNL     1      -1.291   2.471  -1.678  1.00  0.00     0.006 C 
ENDBRANCH  14  17
ENDBRANCH  13  14
BRANCH  13  19
ATOM     19  C   UNL     1       1.330   4.476   1.418  1.00  0.00     0.124 C 
BRANCH  19  20
ATOM     20  C   UNL     1       2.050   5.316   0.338  1.00  0.00     0.002 C 
ATOM     21  C   UNL     1       1.130   6.175  -0.528  1.00  0.00     0.009 C 
ATOM     22  C   UNL     1       3.105   6.202   1.005  1.00  0.00     0.009 C 
ENDBRANCH  19  20
ENDBRANCH  13  19
ENDBRANCH  11  13
ENDBRANCH   6  11
ENDBRANCH   3   5
ENDBRANCH   2   3
ENDBRANCH   1   2
BRANCH   1  23
ATOM     23  C   UNL     1       2.044   9.063   4.069  1.00  0.00     0.275 C 
BRANCH  23  24
ATOM     24  O   UNL     1       1.138  10.054   3.557  1.00  0.00    -0.458 OA
BRANCH  24  25
ATOM     25  C   UNL     1       0.712   9.830   2.292  1.00  0.00     0.338 C 
ATOM     26  O   UNL     1       1.032   8.915   1.556  1.00  0.00    -0.246 OA
BRANCH  25  27
ATOM     27  C   UNL     1      -0.341  10.791   1.947  1.00  0.00     0.060 A 
ATOM     28  C   UNL     1      -1.653  10.320   1.887  1.00  0.00     0.016 A 
ATOM     29  C   UNL     1      -0.039  12.109   1.609  1.00  0.00     0.016 A 
ATOM     30  C   UNL     1      -2.678  11.161   1.478  1.00  0.00     0.010 A 
ATOM     31  C   UNL     1      -1.075  12.964   1.221  1.00  0.00     0.010 A 
ATOM     32  C   UNL     1      -2.398  12.493   1.152  1.00  0.00    -0.014 A 
BRANCH  32  33
ATOM     33  C   UNL     1      -3.508  13.391   0.763  1.00  0.00     0.031 A 
ATOM     34  C   UNL     1      -3.670  13.819  -0.664  1.00  0.00     0.074 A 
ATOM     35  C   UNL     1      -4.378  13.798   1.706  1.00  0.00     0.049 A 
ATOM     36  N   UNL     1      -4.528  14.661  -1.179  1.00  0.00    -0.248 NA
ATOM     37  C   UNL     1      -2.746  13.225  -1.643  1.00  0.00     0.031 C 
ATOM     38  C   UNL     1      -4.334  13.406   3.117  1.00  0.00     0.029 A 
ATOM     39  N   UNL     1      -5.466  14.627   1.623  1.00  0.00    -0.354 N 
ATOM     40  C   UNL     1      -4.238  14.716  -2.536  1.00  0.00     0.074 A 
ATOM     41  C   UNL     1      -3.117  13.828  -2.764  1.00  0.00     0.031 C 
ATOM     42  C   UNL     1      -5.353  13.992   3.766  1.00  0.00     0.029 A 
ATOM     43  C   UNL     1      -6.088  14.836   2.830  1.00  0.00     0.049 A 
ATOM     44  H   UNL     1      -5.772  15.033   0.780  1.00  0.00     0.167 HD
ATOM     45  C   UNL     1      -4.854  15.444  -3.498  1.00  0.00     0.037 A 
ATOM     46  C   UNL     1      -7.116  15.643   3.151  1.00  0.00     0.037 A 
ATOM     47  C   UNL     1      -5.976  16.314  -3.256  1.00  0.00     0.049 A 
ATOM     48  C   UNL     1      -7.753  16.474   2.074  1.00  0.00     0.074 A 
ATOM     49  C   UNL     1      -6.676  17.090  -4.163  1.00  0.00     0.029 A 
ATOM     50  N   UNL     1      -6.562  16.523  -2.016  1.00  0.00    -0.354 N 
ATOM     51  N   UNL     1      -7.457  16.530   0.797  1.00  0.00    -0.248 NA
ATOM     52  C   UNL     1      -8.853  17.358   2.480  1.00  0.00     0.031 C 
ATOM     53  C   UNL     1      -7.665  17.793  -3.465  1.00  0.00     0.029 A 
ATOM     54  C   UNL     1      -7.604  17.429  -2.130  1.00  0.00     0.049 A 
ATOM     55  H   UNL     1      -6.279  16.091  -1.178  1.00  0.00     0.167 HD
ATOM     56  C   UNL     1      -8.338  17.451   0.244  1.00  0.00     0.074 A 
ATOM     57  C   UNL     1      -9.190  17.913   1.323  1.00  0.00     0.031 C 
ATOM     58  C   UNL     1      -8.432  17.878  -1.039  1.00  0.00     0.037 A 
BRANCH  45  59
ATOM     59  C   UNL     1      -4.304  15.353  -4.892  1.00  0.00     0.058 A 
ATOM     60  C   UNL     1      -4.523  14.228  -5.702  1.00  0.00     0.135 A 
ATOM     61  C   UNL     1      -3.565  16.418  -5.434  1.00  0.00     0.135 A 
ATOM     62  F   UNL     1      -5.207  13.176  -5.226  1.00  0.00    -0.206 F 
ATOM     63  C   UNL     1      -4.008  14.151  -6.993  1.00  0.00     0.059 A 
ATOM     64  C   UNL     1      -3.058  16.370  -6.729  1.00  0.00     0.059 A 
ATOM     65  F   UNL     1      -3.324  17.515  -4.700  1.00  0.00    -0.206 F 
ATOM     66  C   UNL     1      -3.272  15.226  -7.496  1.00  0.00     0.060 A 
BRANCH  66  67
ATOM     67  S   UNL     1      -2.602  15.112  -9.168  1.00  0.00     0.124 S 
ATOM     68  O   UNL     1      -1.464  14.220  -8.965  1.00  0.00    -0.237 OA
ATOM     69  O   UNL     1      -3.720  14.551  -9.919  1.00  0.00    -0.237 OA
ATOM     70  O   UNL     1      -2.264  16.494  -9.493  1.00  0.00    -0.744 OA
ENDBRANCH  66  67
ENDBRANCH  45  59
BRANCH  46  71
ATOM     71  C   UNL     1      -7.580  15.720   4.560  1.00  0.00     0.058 A 
ATOM     72  C   UNL     1      -8.802  15.156   4.951  1.00  0.00     0.135 A 
ATOM     73  C   UNL     1      -6.793  16.330   5.549  1.00  0.00     0.135 A 
ATOM     74  F   UNL     1      -9.592  14.569   4.039  1.00  0.00    -0.206 F 
ATOM     75  C   UNL     1      -9.232  15.197   6.274  1.00  0.00     0.059 A 
ATOM     76  C   UNL     1      -7.190  16.364   6.881  1.00  0.00     0.059 A 
ATOM     77  F   UNL     1      -5.608  16.872   5.226  1.00  0.00    -0.206 F 
ATOM     78  C   UNL     1      -8.416  15.801   7.232  1.00  0.00     0.060 A 
BRANCH  78  79
ATOM     79  S   UNL     1      -8.947  15.795   8.959  1.00  0.00     0.124 S 
ATOM     80  O   UNL     1      -9.935  16.867   8.965  1.00  0.00    -0.237 OA
ATOM     81  O   UNL     1      -9.471  14.442   9.117  1.00  0.00    -0.237 OA
ATOM     82  O   UNL     1      -7.712  16.068   9.688  1.00  0.00    -0.744 OA
ENDBRANCH  78  79
ENDBRANCH  46  71
BRANCH  58  83
ATOM     83  C   UNL     1      -9.499  18.890  -1.342  1.00  0.00     0.058 A 
ATOM     84  C   UNL     1      -9.348  20.239  -0.989  1.00  0.00     0.135 A 
ATOM     85  C   UNL     1     -10.666  18.513  -2.025  1.00  0.00     0.135 A 
ATOM     86  F   UNL     1      -8.253  20.645  -0.327  1.00  0.00    -0.206 F 
ATOM     87  C   UNL     1     -10.328  21.180  -1.286  1.00  0.00     0.059 A 
ATOM     88  C   UNL     1     -11.650  19.441  -2.351  1.00  0.00     0.059 A 
ATOM     89  F   UNL     1     -10.853  17.235  -2.391  1.00  0.00    -0.206 F 
ATOM     90  C   UNL     1     -11.476  20.770  -1.966  1.00  0.00     0.060 A 
BRANCH  90  91
ATOM     91  S   UNL     1     -12.730  22.003  -2.375  1.00  0.00     0.124 S 
ATOM     92  O   UNL     1     -13.408  22.168  -1.094  1.00  0.00    -0.237 OA
ATOM     93  O   UNL     1     -11.925  23.139  -2.816  1.00  0.00    -0.237 OA
ATOM     94  O   UNL     1     -13.513  21.355  -3.423  1.00  0.00    -0.744 OA
ENDBRANCH  90  91
ENDBRANCH  58  83
ENDBRANCH  32  33
ENDBRANCH  25  27
ENDBRANCH  24  25
ENDBRANCH  23  24
ENDBRANCH   1  23
TORSDOF 21
