REMARK SMILES COc1ccccc1[C@@H]1C[N@@H+](Cc2cn3cc(C)ccc3n2)C[C@H]1C(=O)OCCOC(=O)c1ccc(-c2c3nc(c(-c4c(F)cc(S(=O)(=O)[O-])cc4F)c4ccc([nH]4)c(-c4c(F)cc(S(=O)(=O)[O-])cc4F)c4nc(c(-c5c(F)cc(S(=O)(=O)[O-])cc5F)c5ccc2[nH]5)C=C4)C=C3)cc1
REMARK SMILES IDX 29 1 28 2 27 3 25 4 26 5 24 6 9 7 10 8 11 9 23 10 8 12 3 13
REMARK SMILES IDX 4 14 5 15 7 16 6 17 2 18 1 19 12 20 13 21 14 22 22 23 15 24
REMARK SMILES IDX 21 25 16 26 20 27 17 28 19 29 18 30 30 31 31 32 32 33 33 34
REMARK SMILES IDX 34 35 98 36 35 37 97 38 36 39 37 40 38 41 91 42 39 43 96 44
REMARK SMILES IDX 90 45 92 46 40 47 95 48 89 49 88 50 41 52 75 53 54 54 74 55
REMARK SMILES IDX 55 56 58 57 73 58 93 59 56 60 57 61 72 63 94 64 59 65 42 66
REMARK SMILES IDX 43 67 52 68 44 69 45 70 51 71 53 72 46 73 47 74 48 75 49 76
REMARK SMILES IDX 50 77 76 78 77 79 86 80 78 81 79 82 85 83 87 84 80 85 81 86
REMARK SMILES IDX 82 87 83 88 84 89 60 90 61 91 70 92 62 93 63 94 69 95 71 96
REMARK SMILES IDX 64 97 65 98 66 99 67 100 68 101
REMARK H PARENT 11 11 92 51 58 62
REMARK Flexibility Score: inf
ROOT
ATOM      1  C   UNL     1       4.474   0.668   5.359  1.00  0.00     0.275 C 
ENDROOT
BRANCH   1   2
ATOM      2  C   UNL     1       4.709  -0.460   4.357  1.00  0.00     0.274 C 
BRANCH   2   3
ATOM      3  O   UNL     1       4.418  -0.096   2.992  1.00  0.00    -0.462 OA
BRANCH   3   4
ATOM      4  C   UNL     1       3.172  -0.354   2.514  1.00  0.00     0.315 C 
ATOM      5  O   UNL     1       2.261  -0.825   3.188  1.00  0.00    -0.252 OA
BRANCH   4   6
ATOM      6  C   UNL     1       3.040  -0.143   1.018  1.00  0.00     0.167 C 
ATOM      7  C   UNL     1       3.289   1.239   0.406  1.00  0.00     0.098 C 
ATOM      8  C   UNL     1       3.807   0.864  -0.995  1.00  0.00     0.272 C 
ATOM      9  N   UNL     1       4.640  -0.331  -0.818  1.00  0.00    -0.329 N 
ATOM     10  C   UNL     1       4.066  -1.056   0.325  1.00  0.00     0.278 C 
ATOM     11  H   UNL     1       4.613  -0.909  -1.657  1.00  0.00     0.348 HD
BRANCH   7  12
ATOM     12  C   UNL     1       2.205   2.305   0.304  1.00  0.00     0.004 A 
ATOM     13  C   UNL     1       0.998   2.174  -0.403  1.00  0.00     0.122 A 
ATOM     14  C   UNL     1       0.110   3.253  -0.530  1.00  0.00     0.047 A 
ATOM     15  C   UNL     1       0.410   4.488   0.044  1.00  0.00     0.004 A 
ATOM     16  C   UNL     1       2.487   3.573   0.861  1.00  0.00     0.008 A 
ATOM     17  C   UNL     1       1.603   4.650   0.737  1.00  0.00     0.001 A 
BRANCH  13  18
ATOM     18  O   UNL     1       0.742   1.052  -1.145  1.00  0.00    -0.496 OA
ATOM     19  C   UNL     1      -0.119   0.137  -0.476  1.00  0.00     0.278 C 
ENDBRANCH  13  18
ENDBRANCH   7  12
BRANCH   9  20
ATOM     20  C   UNL     1       6.089  -0.066  -0.715  1.00  0.00     0.321 C 
BRANCH  20  21
ATOM     21  C   UNL     1       6.477   1.067   0.189  1.00  0.00     0.114 A 
ATOM     22  C   UNL     1       6.535   2.416  -0.115  1.00  0.00     0.122 A 
ATOM     23  N   UNL     1       6.791   0.866   1.518  1.00  0.00    -0.228 NA
ATOM     24  N   UNL     1       6.704   3.060   1.081  1.00  0.00    -0.306 N 
ATOM     25  C   UNL     1       6.888   2.074   2.041  1.00  0.00     0.137 A 
ATOM     26  C   UNL     1       6.669   4.423   1.362  1.00  0.00     0.096 A 
ATOM     27  C   UNL     1       7.084   2.515   3.379  1.00  0.00     0.048 A 
ATOM     28  C   UNL     1       6.827   4.843   2.632  1.00  0.00    -0.034 A 
ATOM     29  C   UNL     1       7.042   3.832   3.668  1.00  0.00     0.009 A 
ATOM     30  C   UNL     1       6.763   6.281   3.041  1.00  0.00     0.046 C 
ENDBRANCH  20  21
ENDBRANCH   9  20
ENDBRANCH   4   6
ENDBRANCH   3   4
ENDBRANCH   2   3
ENDBRANCH   1   2
BRANCH   1  31
ATOM     31  O   UNL     1       3.093   1.006   5.445  1.00  0.00    -0.458 OA
BRANCH  31  32
ATOM     32  C   UNL     1       2.723   1.876   4.487  1.00  0.00     0.338 C 
ATOM     33  O   UNL     1       3.421   2.343   3.590  1.00  0.00    -0.246 OA
BRANCH  32  34
ATOM     34  C   UNL     1       1.368   2.334   4.712  1.00  0.00     0.060 A 
ATOM     35  C   UNL     1       0.579   2.601   3.590  1.00  0.00     0.016 A 
ATOM     36  C   UNL     1       1.099   2.865   5.972  1.00  0.00     0.016 A 
ATOM     37  C   UNL     1      -0.370   3.594   3.674  1.00  0.00     0.010 A 
ATOM     38  C   UNL     1       0.151   3.851   6.056  1.00  0.00     0.010 A 
ATOM     39  C   UNL     1      -0.501   4.266   4.886  1.00  0.00    -0.014 A 
BRANCH  39  40
ATOM     40  C   UNL     1      -1.325   5.460   4.936  1.00  0.00     0.031 A 
ATOM     41  C   UNL     1      -2.782   5.208   5.088  1.00  0.00     0.074 A 
ATOM     42  C   UNL     1      -0.720   6.654   5.097  1.00  0.00     0.049 A 
ATOM     43  N   UNL     1      -3.784   5.755   4.479  1.00  0.00    -0.248 NA
ATOM     44  C   UNL     1      -3.165   4.117   6.006  1.00  0.00     0.031 C 
ATOM     45  C   UNL     1       0.720   6.892   5.291  1.00  0.00     0.029 A 
ATOM     46  N   UNL     1      -1.263   7.880   5.314  1.00  0.00    -0.354 N 
ATOM     47  C   UNL     1      -4.921   5.206   5.071  1.00  0.00     0.074 A 
ATOM     48  C   UNL     1      -4.487   4.100   5.878  1.00  0.00     0.031 C 
ATOM     49  C   UNL     1       0.893   8.108   5.849  1.00  0.00     0.029 A 
ATOM     50  C   UNL     1      -0.400   8.764   5.947  1.00  0.00     0.049 A 
ATOM     51  H   UNL     1      -2.181   8.118   5.048  1.00  0.00     0.167 HD
ATOM     52  C   UNL     1      -6.133   5.820   5.055  1.00  0.00     0.037 A 
ATOM     53  C   UNL     1      -0.750   9.887   6.618  1.00  0.00     0.037 A 
ATOM     54  C   UNL     1      -6.225   6.815   4.028  1.00  0.00     0.049 A 
ATOM     55  C   UNL     1      -2.144  10.225   6.231  1.00  0.00     0.074 A 
ATOM     56  C   UNL     1      -6.208   6.788   2.649  1.00  0.00     0.029 A 
ATOM     57  N   UNL     1      -6.027   8.122   4.394  1.00  0.00    -0.354 N 
ATOM     58  N   UNL     1      -2.517  10.591   5.035  1.00  0.00    -0.248 NA
ATOM     59  C   UNL     1      -3.223   9.793   7.109  1.00  0.00     0.031 C 
ATOM     60  C   UNL     1      -5.606   8.015   2.253  1.00  0.00     0.029 A 
ATOM     61  C   UNL     1      -5.290   8.730   3.410  1.00  0.00     0.049 A 
ATOM     62  H   UNL     1      -6.357   8.549   5.218  1.00  0.00     0.167 HD
ATOM     63  C   UNL     1      -3.800  10.082   4.883  1.00  0.00     0.074 A 
ATOM     64  C   UNL     1      -4.224   9.720   6.229  1.00  0.00     0.031 C 
ATOM     65  C   UNL     1      -4.287   9.748   3.653  1.00  0.00     0.037 A 
BRANCH  52  66
ATOM     66  C   UNL     1      -7.114   5.718   6.193  1.00  0.00     0.058 A 
ATOM     67  C   UNL     1      -8.457   6.087   6.006  1.00  0.00     0.135 A 
ATOM     68  C   UNL     1      -6.716   5.501   7.534  1.00  0.00     0.135 A 
ATOM     69  F   UNL     1      -8.928   6.348   4.777  1.00  0.00    -0.206 F 
ATOM     70  C   UNL     1      -9.335   6.263   7.078  1.00  0.00     0.059 A 
ATOM     71  C   UNL     1      -7.588   5.607   8.609  1.00  0.00     0.059 A 
ATOM     72  F   UNL     1      -5.439   5.271   7.868  1.00  0.00    -0.206 F 
ATOM     73  C   UNL     1      -8.884   6.032   8.377  1.00  0.00     0.060 A 
BRANCH  73  74
ATOM     74  S   UNL     1      -9.970   6.368   9.774  1.00  0.00     0.124 S 
ATOM     75  O   UNL     1      -9.923   7.824   9.829  1.00  0.00    -0.237 OA
ATOM     76  O   UNL     1     -11.232   5.783   9.334  1.00  0.00    -0.237 OA
ATOM     77  O   UNL     1      -9.316   5.672  10.879  1.00  0.00    -0.744 OA
ENDBRANCH  73  74
ENDBRANCH  52  66
BRANCH  53  78
ATOM     78  C   UNL     1      -0.086  10.461   7.817  1.00  0.00     0.058 A 
ATOM     79  C   UNL     1      -0.313  11.792   8.205  1.00  0.00     0.135 A 
ATOM     80  C   UNL     1       0.599   9.650   8.747  1.00  0.00     0.135 A 
ATOM     81  F   UNL     1      -0.987  12.623   7.396  1.00  0.00    -0.206 F 
ATOM     82  C   UNL     1       0.091  12.283   9.451  1.00  0.00     0.059 A 
ATOM     83  C   UNL     1       1.029  10.122   9.985  1.00  0.00     0.059 A 
ATOM     84  F   UNL     1       0.795   8.343   8.517  1.00  0.00    -0.206 F 
ATOM     85  C   UNL     1       0.752  11.435  10.340  1.00  0.00     0.060 A 
BRANCH  85  86
ATOM     86  S   UNL     1       1.141  12.021  12.005  1.00  0.00     0.124 S 
ATOM     87  O   UNL     1       2.183  13.007  11.742  1.00  0.00    -0.237 OA
ATOM     88  O   UNL     1      -0.143  12.552  12.450  1.00  0.00    -0.237 OA
ATOM     89  O   UNL     1       1.585  10.812  12.695  1.00  0.00    -0.744 OA
ENDBRANCH  85  86
ENDBRANCH  53  78
BRANCH  65  90
ATOM     90  C   UNL     1      -3.548  10.257   2.444  1.00  0.00     0.058 A 
ATOM     91  C   UNL     1      -2.280   9.789   2.059  1.00  0.00     0.135 A 
ATOM     92  C   UNL     1      -4.222  11.099   1.547  1.00  0.00     0.135 A 
ATOM     93  F   UNL     1      -1.619   8.901   2.812  1.00  0.00    -0.206 F 
ATOM     94  C   UNL     1      -1.696  10.159   0.848  1.00  0.00     0.059 A 
ATOM     95  C   UNL     1      -3.671  11.457   0.318  1.00  0.00     0.059 A 
ATOM     96  F   UNL     1      -5.463  11.526   1.831  1.00  0.00    -0.206 F 
ATOM     97  C   UNL     1      -2.404  10.985  -0.022  1.00  0.00     0.060 A 
BRANCH  97  98
ATOM     98  S   UNL     1      -1.708  11.339  -1.651  1.00  0.00     0.124 S 
ATOM     99  O   UNL     1      -0.706  12.354  -1.342  1.00  0.00    -0.237 OA
ATOM    100  O   UNL     1      -1.187  10.040  -2.066  1.00  0.00    -0.237 OA
ATOM    101  O   UNL     1      -2.861  11.809  -2.417  1.00  0.00    -0.744 OA
ENDBRANCH  97  98
ENDBRANCH  65  90
ENDBRANCH  39  40
ENDBRANCH  32  34
ENDBRANCH  31  32
ENDBRANCH   1  31
TORSDOF 18
