REMARK SMILES Cc1[nH]c2ccccc2c1[C@H]([NH3+])CC(=O)OCCOC(=O)c1ccc(-c2c3nc(c(-c4c(F)cc(S(=O)(=O)[O-])cc4F)c4ccc([nH]4)c(-c4c(F)cc(S(=O)(=O)[O-])cc4F)c4nc(c(-c5c(F)cc(S(=O)(=O)[O-])cc5F)c5ccc2[nH]5)C=C4)C=C3)cc1
REMARK SMILES IDX 18 1 17 2 16 3 14 4 15 5 13 6 11 7 10 8 1 9 2 10 3 11 4 12
REMARK SMILES IDX 9 14 5 15 8 16 6 17 7 18 12 19 19 23 20 24 21 25 22 26 23 27
REMARK SMILES IDX 87 28 24 29 86 30 25 31 26 32 27 33 80 34 28 35 85 36 79 37
REMARK SMILES IDX 81 38 29 39 84 40 78 41 77 42 30 44 64 45 43 46 63 47 44 48
REMARK SMILES IDX 47 49 62 50 82 51 45 52 46 53 61 55 83 56 48 57 31 58 32 59
REMARK SMILES IDX 41 60 33 61 34 62 40 63 42 64 35 65 36 66 37 67 38 68 39 69
REMARK SMILES IDX 65 70 66 71 75 72 67 73 68 74 74 75 76 76 69 77 70 78 71 79
REMARK SMILES IDX 72 80 73 81 49 82 50 83 59 84 51 85 52 86 58 87 60 88 53 89
REMARK SMILES IDX 54 90 55 91 56 92 57 93
REMARK H PARENT 3 13 12 20 12 21 12 22 81 43 47 54
REMARK Flexibility Score: inf
ROOT
ATOM      1  C   UNL     1      -3.287  -0.788   3.951  1.00  0.00     0.275 C 
ENDROOT
BRANCH   1   2
ATOM      2  C   UNL     1      -1.761  -0.718   3.943  1.00  0.00     0.274 C 
BRANCH   2   3
ATOM      3  O   UNL     1      -1.230  -1.090   2.657  1.00  0.00    -0.462 OA
BRANCH   3   4
ATOM      4  C   UNL     1      -0.837  -2.380   2.502  1.00  0.00     0.312 C 
ATOM      5  O   UNL     1      -0.843  -3.222   3.392  1.00  0.00    -0.252 OA
BRANCH   4   6
ATOM      6  C   UNL     1      -0.313  -2.658   1.114  1.00  0.00     0.192 C 
BRANCH   6   7
ATOM      7  C   UNL     1      -1.365  -2.457   0.018  1.00  0.00     0.225 C 
BRANCH   7   8
ATOM      8  C   UNL     1      -0.997  -3.194  -1.266  1.00  0.00     0.038 A 
ATOM      9  C   UNL     1       0.165  -1.437  -2.882  1.00  0.00     0.065 C 
ATOM     10  C   UNL     1      -0.364  -2.752  -2.430  1.00  0.00     0.022 A 
ATOM     11  N   UNL     1      -0.239  -3.832  -3.274  1.00  0.00    -0.358 N 
ATOM     12  C   UNL     1      -0.772  -4.963  -2.719  1.00  0.00     0.046 A 
ATOM     13  H   UNL     1       0.180  -3.796  -4.164  1.00  0.00     0.166 HD
ATOM     14  C   UNL     1      -1.269  -4.601  -1.472  1.00  0.00     0.009 A 
ATOM     15  C   UNL     1      -0.852  -6.266  -3.230  1.00  0.00     0.027 A 
ATOM     16  C   UNL     1      -1.890  -5.607  -0.703  1.00  0.00     0.011 A 
ATOM     17  C   UNL     1      -1.469  -7.238  -2.440  1.00  0.00     0.002 A 
ATOM     18  C   UNL     1      -1.986  -6.915  -1.191  1.00  0.00     0.001 A 
ENDBRANCH   7   8
BRANCH   7  19
ATOM     19  N   UNL     1      -1.569  -1.035  -0.264  1.00  0.00    -0.351 N 
ATOM     20  H   UNL     1      -0.702  -0.631  -0.618  1.00  0.00     0.345 HD
ATOM     21  H   UNL     1      -1.843  -0.554   0.592  1.00  0.00     0.345 HD
ATOM     22  H   UNL     1      -2.303  -0.929  -0.964  1.00  0.00     0.345 HD
ENDBRANCH   7  19
ENDBRANCH   6   7
ENDBRANCH   4   6
ENDBRANCH   3   4
ENDBRANCH   2   3
ENDBRANCH   1   2
BRANCH   1  23
ATOM     23  O   UNL     1      -3.716  -2.160   3.993  1.00  0.00    -0.458 OA
BRANCH  23  24
ATOM     24  C   UNL     1      -4.384  -2.605   2.906  1.00  0.00     0.338 C 
ATOM     25  O   UNL     1      -4.719  -1.974   1.921  1.00  0.00    -0.246 OA
BRANCH  24  26
ATOM     26  C   UNL     1      -4.633  -4.043   3.062  1.00  0.00     0.060 A 
ATOM     27  C   UNL     1      -3.651  -4.943   2.650  1.00  0.00     0.016 A 
ATOM     28  C   UNL     1      -5.868  -4.499   3.519  1.00  0.00     0.016 A 
ATOM     29  C   UNL     1      -3.920  -6.310   2.640  1.00  0.00     0.010 A 
ATOM     30  C   UNL     1      -6.117  -5.875   3.557  1.00  0.00     0.010 A 
ATOM     31  C   UNL     1      -5.156  -6.790   3.092  1.00  0.00    -0.014 A 
BRANCH  31  32
ATOM     32  C   UNL     1      -5.455  -8.245   3.050  1.00  0.00     0.031 A 
ATOM     33  C   UNL     1      -6.512  -8.771   2.118  1.00  0.00     0.074 A 
ATOM     34  C   UNL     1      -4.775  -9.093   3.845  1.00  0.00     0.049 A 
ATOM     35  N   UNL     1      -7.002  -9.981   2.024  1.00  0.00    -0.248 NA
ATOM     36  C   UNL     1      -7.099  -7.810   1.171  1.00  0.00     0.031 C 
ATOM     37  C   UNL     1      -3.703  -8.714   4.767  1.00  0.00     0.029 A 
ATOM     38  N   UNL     1      -4.890 -10.451   4.009  1.00  0.00    -0.354 N 
ATOM     39  C   UNL     1      -7.977  -9.921   1.035  1.00  0.00     0.074 A 
ATOM     40  C   UNL     1      -8.014  -8.552   0.563  1.00  0.00     0.031 C 
ATOM     41  C   UNL     1      -3.252  -9.813   5.393  1.00  0.00     0.029 A 
ATOM     42  C   UNL     1      -4.039 -10.964   4.959  1.00  0.00     0.049 A 
ATOM     43  H   UNL     1      -5.521 -11.005   3.495  1.00  0.00     0.167 HD
ATOM     44  C   UNL     1      -8.766 -10.916   0.563  1.00  0.00     0.037 A 
ATOM     45  C   UNL     1      -3.926 -12.213   5.451  1.00  0.00     0.037 A 
ATOM     46  C   UNL     1      -8.704 -12.283   1.012  1.00  0.00     0.049 A 
ATOM     47  C   UNL     1      -4.834 -13.293   4.934  1.00  0.00     0.074 A 
ATOM     48  C   UNL     1      -9.451 -13.366   0.582  1.00  0.00     0.029 A 
ATOM     49  N   UNL     1      -7.840 -12.757   1.988  1.00  0.00    -0.354 N 
ATOM     50  N   UNL     1      -5.768 -13.214   4.017  1.00  0.00    -0.248 NA
ATOM     51  C   UNL     1      -4.682 -14.629   5.527  1.00  0.00     0.031 C 
ATOM     52  C   UNL     1      -9.057 -14.490   1.318  1.00  0.00     0.029 A 
ATOM     53  C   UNL     1      -8.043 -14.113   2.182  1.00  0.00     0.049 A 
ATOM     54  H   UNL     1      -7.179 -12.210   2.471  1.00  0.00     0.167 HD
ATOM     55  C   UNL     1      -6.309 -14.490   3.916  1.00  0.00     0.074 A 
ATOM     56  C   UNL     1      -5.588 -15.326   4.854  1.00  0.00     0.031 C 
ATOM     57  C   UNL     1      -7.316 -14.929   3.121  1.00  0.00     0.037 A 
BRANCH  44  58
ATOM     58  C   UNL     1      -9.785 -10.557  -0.481  1.00  0.00     0.058 A 
ATOM     59  C   UNL     1      -9.424 -10.320  -1.815  1.00  0.00     0.135 A 
ATOM     60  C   UNL     1     -11.147 -10.481  -0.145  1.00  0.00     0.135 A 
ATOM     61  F   UNL     1      -8.134 -10.366  -2.184  1.00  0.00    -0.206 F 
ATOM     62  C   UNL     1     -10.375  -9.998  -2.779  1.00  0.00     0.059 A 
ATOM     63  C   UNL     1     -12.117 -10.180  -1.097  1.00  0.00     0.059 A 
ATOM     64  F   UNL     1     -11.545 -10.698   1.118  1.00  0.00    -0.206 F 
ATOM     65  C   UNL     1     -11.720  -9.927  -2.409  1.00  0.00     0.060 A 
BRANCH  65  66
ATOM     66  S   UNL     1     -12.947  -9.511  -3.667  1.00  0.00     0.124 S 
ATOM     67  O   UNL     1     -12.759  -8.069  -3.790  1.00  0.00    -0.237 OA
ATOM     68  O   UNL     1     -12.509 -10.306  -4.810  1.00  0.00    -0.237 OA
ATOM     69  O   UNL     1     -14.207  -9.931  -3.063  1.00  0.00    -0.744 OA
ENDBRANCH  65  66
ENDBRANCH  44  58
BRANCH  45  70
ATOM     70  C   UNL     1      -2.929 -12.499   6.514  1.00  0.00     0.058 A 
ATOM     71  C   UNL     1      -1.772 -13.240   6.237  1.00  0.00     0.135 A 
ATOM     72  C   UNL     1      -3.107 -12.021   7.822  1.00  0.00     0.135 A 
ATOM     73  F   UNL     1      -1.565 -13.726   5.004  1.00  0.00    -0.206 F 
ATOM     74  C   UNL     1      -0.826 -13.505   7.222  1.00  0.00     0.059 A 
ATOM     75  C   UNL     1      -2.165 -12.254   8.818  1.00  0.00     0.059 A 
ATOM     76  F   UNL     1      -4.194 -11.298   8.132  1.00  0.00    -0.206 F 
ATOM     77  C   UNL     1      -1.031 -13.005   8.510  1.00  0.00     0.060 A 
BRANCH  77  78
ATOM     78  S   UNL     1       0.228 -13.302   9.771  1.00  0.00     0.124 S 
ATOM     79  O   UNL     1      -0.066 -14.676  10.160  1.00  0.00    -0.237 OA
ATOM     80  O   UNL     1       1.468 -13.099   9.028  1.00  0.00    -0.237 OA
ATOM     81  O   UNL     1      -0.063 -12.283  10.776  1.00  0.00    -0.744 OA
ENDBRANCH  77  78
ENDBRANCH  45  70
BRANCH  57  82
ATOM     82  C   UNL     1      -7.683 -16.382   3.219  1.00  0.00     0.058 A 
ATOM     83  C   UNL     1      -8.441 -16.873   4.293  1.00  0.00     0.135 A 
ATOM     84  C   UNL     1      -7.306 -17.282   2.211  1.00  0.00     0.135 A 
ATOM     85  F   UNL     1      -8.817 -16.052   5.285  1.00  0.00    -0.206 F 
ATOM     86  C   UNL     1      -8.800 -18.215   4.372  1.00  0.00     0.059 A 
ATOM     87  C   UNL     1      -7.670 -18.624   2.260  1.00  0.00     0.059 A 
ATOM     88  F   UNL     1      -6.587 -16.858   1.160  1.00  0.00    -0.206 F 
ATOM     89  C   UNL     1      -8.408 -19.083   3.351  1.00  0.00     0.060 A 
BRANCH  89  90
ATOM     90  S   UNL     1      -8.904 -20.817   3.445  1.00  0.00     0.124 S 
ATOM     91  O   UNL     1      -7.941 -21.346   4.405  1.00  0.00    -0.237 OA
ATOM     92  O   UNL     1     -10.283 -20.727   3.915  1.00  0.00    -0.237 OA
ATOM     93  O   UNL     1      -8.747 -21.288   2.072  1.00  0.00    -0.744 OA
ENDBRANCH  89  90
ENDBRANCH  57  82
ENDBRANCH  31  32
ENDBRANCH  24  26
ENDBRANCH  23  24
ENDBRANCH   1  23
TORSDOF 17
