REMARK SMILES CCc1nn(C)c(C[C@@H](C(=O)OCCOC(=O)c2ccc(-c3c4nc(c(-c5c(F)cc(S(=O)(=O)[O-])cc5F)c5ccc([nH]5)c(-c5c(F)cc(S(=O)(=O)[O-])cc5F)c5nc(c(-c6c(F)cc(S(=O)(=O)[O-])cc6F)c6ccc3[nH]6)C=C5)C=C4)cc2)c2cccc(C)c2)c1Br
REMARK SMILES IDX 13 1 12 2 10 3 11 4 9 5 8 6 7 7 3 8 4 9 91 10 5 11 92 12
REMARK SMILES IDX 6 13 2 14 1 15 84 16 85 17 90 18 86 19 88 20 87 21 89 22
REMARK SMILES IDX 14 23 15 24 16 25 17 26 18 27 19 28 83 29 20 30 82 31 21 32
REMARK SMILES IDX 22 33 23 34 76 35 24 36 81 37 75 38 77 39 25 40 80 41 74 42
REMARK SMILES IDX 73 43 26 45 60 46 39 47 59 48 40 49 43 50 58 51 78 52 41 53
REMARK SMILES IDX 42 54 57 56 79 57 44 58 27 59 28 60 37 61 29 62 30 63 36 64
REMARK SMILES IDX 38 65 31 66 32 67 33 68 34 69 35 70 61 71 62 72 71 73 63 74
REMARK SMILES IDX 64 75 70 76 72 77 65 78 66 79 67 80 68 81 69 82 45 83 46 84
REMARK SMILES IDX 55 85 47 86 48 87 54 88 56 89 49 90 50 91 51 92 52 93 53 94
REMARK H PARENT 77 44 43 55
REMARK Flexibility Score: inf
ROOT
ATOM      1  C   UNL     1       3.127   5.630   3.552  1.00  0.00     0.274 C 
ENDROOT
BRANCH   1   2
ATOM      2  O   UNL     1       3.093   4.222   3.895  1.00  0.00    -0.462 OA
BRANCH   2   3
ATOM      3  C   UNL     1       4.181   3.719   4.542  1.00  0.00     0.313 C 
ATOM      4  O   UNL     1       5.262   4.307   4.557  1.00  0.00    -0.252 OA
BRANCH   3   5
ATOM      5  C   UNL     1       3.964   2.349   5.240  1.00  0.00     0.135 C 
BRANCH   5   6
ATOM      6  C   UNL     1       2.524   1.758   5.310  1.00  0.00     0.077 C 
BRANCH   6   7
ATOM      7  C   UNL     1       1.841   1.430   4.013  1.00  0.00     0.054 A 
ATOM      8  C   UNL     1       0.980   0.443   2.199  1.00  0.00     0.077 A 
ATOM      9  N   UNL     1       0.327   1.602   2.317  1.00  0.00    -0.177 NA
ATOM     10  C   UNL     1       1.952   0.314   3.210  1.00  0.00     0.062 A 
ATOM     11  N   UNL     1       0.791   2.136   3.466  1.00  0.00    -0.271 N 
ATOM     12  Br  UNL     1       3.079  -1.164   3.459  1.00  0.00    -0.047 Br
ATOM     13  C   UNL     1       0.075   3.282   3.971  1.00  0.00     0.174 C 
BRANCH   8  14
ATOM     14  C   UNL     1       0.578  -0.499   1.118  1.00  0.00     0.056 C 
ATOM     15  C   UNL     1       1.087  -0.068  -0.247  1.00  0.00     0.011 C 
ENDBRANCH   8  14
ENDBRANCH   6   7
ENDBRANCH   5   6
BRANCH   5  16
ATOM     16  C   UNL     1       4.599   2.288   6.665  1.00  0.00    -0.033 A 
ATOM     17  C   UNL     1       4.769   1.036   7.284  1.00  0.00     0.004 A 
ATOM     18  C   UNL     1       4.981   3.426   7.407  1.00  0.00     0.008 A 
ATOM     19  C   UNL     1       5.249   0.926   8.593  1.00  0.00     0.001 A 
ATOM     20  C   UNL     1       5.479   3.326   8.721  1.00  0.00    -0.051 A 
ATOM     21  C   UNL     1       5.598   2.066   9.310  1.00  0.00     0.003 A 
ATOM     22  C   UNL     1       5.864   4.545   9.511  1.00  0.00     0.044 C 
ENDBRANCH   5  16
ENDBRANCH   3   5
ENDBRANCH   2   3
ENDBRANCH   1   2
BRANCH   1  23
ATOM     23  C   UNL     1       2.144   6.474   4.385  1.00  0.00     0.275 C 
BRANCH  23  24
ATOM     24  O   UNL     1       2.511   6.660   5.763  1.00  0.00    -0.458 OA
BRANCH  24  25
ATOM     25  C   UNL     1       2.231   5.579   6.506  1.00  0.00     0.338 C 
ATOM     26  O   UNL     1       2.061   4.444   6.081  1.00  0.00    -0.246 OA
BRANCH  25  27
ATOM     27  C   UNL     1       1.833   5.820   7.872  1.00  0.00     0.060 A 
ATOM     28  C   UNL     1       1.845   4.695   8.717  1.00  0.00     0.016 A 
ATOM     29  C   UNL     1       1.081   6.960   8.144  1.00  0.00     0.016 A 
ATOM     30  C   UNL     1       1.010   4.664   9.803  1.00  0.00     0.010 A 
ATOM     31  C   UNL     1       0.243   6.926   9.233  1.00  0.00     0.010 A 
ATOM     32  C   UNL     1       0.186   5.764  10.021  1.00  0.00    -0.014 A 
BRANCH  32  33
ATOM     33  C   UNL     1      -0.632   5.753  11.218  1.00  0.00     0.031 A 
ATOM     34  C   UNL     1       0.156   5.952  12.473  1.00  0.00     0.074 A 
ATOM     35  C   UNL     1      -1.971   5.812  11.100  1.00  0.00     0.049 A 
ATOM     36  N   UNL     1       0.064   5.355  13.617  1.00  0.00    -0.248 NA
ATOM     37  C   UNL     1       1.296   6.893  12.392  1.00  0.00     0.031 C 
ATOM     38  C   UNL     1      -2.746   5.944   9.859  1.00  0.00     0.029 A 
ATOM     39  N   UNL     1      -2.910   5.982  12.063  1.00  0.00    -0.354 N 
ATOM     40  C   UNL     1       0.988   5.994  14.446  1.00  0.00     0.074 A 
ATOM     41  C   UNL     1       1.830   6.791  13.603  1.00  0.00     0.031 C 
ATOM     42  C   UNL     1      -3.955   6.464  10.156  1.00  0.00     0.029 A 
ATOM     43  C   UNL     1      -4.057   6.609  11.599  1.00  0.00     0.049 A 
ATOM     44  H   UNL     1      -2.791   5.691  12.996  1.00  0.00     0.167 HD
ATOM     45  C   UNL     1       0.847   6.035  15.798  1.00  0.00     0.037 A 
ATOM     46  C   UNL     1      -4.920   7.344  12.344  1.00  0.00     0.037 A 
ATOM     47  C   UNL     1       0.055   4.939  16.281  1.00  0.00     0.049 A 
ATOM     48  C   UNL     1      -4.659   7.021  13.776  1.00  0.00     0.074 A 
ATOM     49  C   UNL     1       0.161   3.564  16.174  1.00  0.00     0.029 A 
ATOM     50  N   UNL     1      -1.236   5.180  16.684  1.00  0.00    -0.354 N 
ATOM     51  N   UNL     1      -4.854   5.849  14.319  1.00  0.00    -0.248 NA
ATOM     52  C   UNL     1      -3.752   7.896  14.508  1.00  0.00     0.031 C 
ATOM     53  C   UNL     1      -1.178   3.102  16.023  1.00  0.00     0.029 A 
ATOM     54  C   UNL     1      -2.015   4.217  16.091  1.00  0.00     0.049 A 
ATOM     55  H   UNL     1      -1.542   5.901  17.281  1.00  0.00     0.167 HD
ATOM     56  C   UNL     1      -3.815   5.690  15.228  1.00  0.00     0.074 A 
ATOM     57  C   UNL     1      -3.221   7.017  15.361  1.00  0.00     0.031 C 
ATOM     58  C   UNL     1      -3.348   4.454  15.581  1.00  0.00     0.037 A 
BRANCH  45  59
ATOM     59  C   UNL     1       1.141   7.278  16.608  1.00  0.00     0.058 A 
ATOM     60  C   UNL     1       1.120   7.212  18.014  1.00  0.00     0.135 A 
ATOM     61  C   UNL     1       1.166   8.585  16.062  1.00  0.00     0.135 A 
ATOM     62  F   UNL     1       1.090   6.025  18.641  1.00  0.00    -0.206 F 
ATOM     63  C   UNL     1       1.042   8.354  18.813  1.00  0.00     0.059 A 
ATOM     64  C   UNL     1       1.151   9.734  16.840  1.00  0.00     0.059 A 
ATOM     65  F   UNL     1       1.102   8.819  14.745  1.00  0.00    -0.206 F 
ATOM     66  C   UNL     1       1.033   9.610  18.212  1.00  0.00     0.060 A 
BRANCH  66  67
ATOM     67  S   UNL     1       0.771  11.080  19.216  1.00  0.00     0.124 S 
ATOM     68  O   UNL     1      -0.641  10.946  19.554  1.00  0.00    -0.237 OA
ATOM     69  O   UNL     1       1.716  10.875  20.309  1.00  0.00    -0.237 OA
ATOM     70  O   UNL     1       1.104  12.172  18.305  1.00  0.00    -0.744 OA
ENDBRANCH  66  67
ENDBRANCH  45  59
BRANCH  46  71
ATOM     71  C   UNL     1      -5.628   8.578  11.899  1.00  0.00     0.058 A 
ATOM     72  C   UNL     1      -6.723   9.089  12.614  1.00  0.00     0.135 A 
ATOM     73  C   UNL     1      -5.112   9.411  10.882  1.00  0.00     0.135 A 
ATOM     74  F   UNL     1      -7.249   8.388  13.630  1.00  0.00    -0.206 F 
ATOM     75  C   UNL     1      -7.270  10.349  12.339  1.00  0.00     0.059 A 
ATOM     76  C   UNL     1      -5.655  10.655  10.572  1.00  0.00     0.059 A 
ATOM     77  F   UNL     1      -4.002   9.082  10.204  1.00  0.00    -0.206 F 
ATOM     78  C   UNL     1      -6.725  11.127  11.317  1.00  0.00     0.060 A 
BRANCH  78  79
ATOM     79  S   UNL     1      -7.349  12.800  11.031  1.00  0.00     0.124 S 
ATOM     80  O   UNL     1      -8.695  12.539  10.534  1.00  0.00    -0.237 OA
ATOM     81  O   UNL     1      -7.263  13.391  12.362  1.00  0.00    -0.237 OA
ATOM     82  O   UNL     1      -6.417  13.346  10.047  1.00  0.00    -0.744 OA
ENDBRANCH  78  79
ENDBRANCH  46  71
BRANCH  58  83
ATOM     83  C   UNL     1      -4.128   3.235  15.160  1.00  0.00     0.058 A 
ATOM     84  C   UNL     1      -4.325   2.861  13.819  1.00  0.00     0.135 A 
ATOM     85  C   UNL     1      -4.516   2.309  16.140  1.00  0.00     0.135 A 
ATOM     86  F   UNL     1      -3.873   3.626  12.818  1.00  0.00    -0.206 F 
ATOM     87  C   UNL     1      -4.918   1.649  13.467  1.00  0.00     0.059 A 
ATOM     88  C   UNL     1      -5.080   1.077  15.812  1.00  0.00     0.059 A 
ATOM     89  F   UNL     1      -4.288   2.569  17.438  1.00  0.00    -0.206 F 
ATOM     90  C   UNL     1      -5.287   0.759  14.471  1.00  0.00     0.060 A 
BRANCH  90  91
ATOM     91  S   UNL     1      -5.952  -0.854  14.005  1.00  0.00     0.124 S 
ATOM     92  O   UNL     1      -7.295  -0.512  13.551  1.00  0.00    -0.237 OA
ATOM     93  O   UNL     1      -5.024  -1.293  12.966  1.00  0.00    -0.237 OA
ATOM     94  O   UNL     1      -5.888  -1.621  15.247  1.00  0.00    -0.744 OA
ENDBRANCH  90  91
ENDBRANCH  58  83
ENDBRANCH  32  33
ENDBRANCH  25  27
ENDBRANCH  24  25
ENDBRANCH  23  24
ENDBRANCH   1  23
TORSDOF 18
