REMARK SMILES O=C(OCCOC(=O)c1ccccc1-c1ccccc1C(=O)N1CC[NH+](Cc2ccc3c(c2)OCO3)CC1)c1ccc(-c2c3nc(c(-c4c(F)cc(S(=O)(=O)[O-])cc4F)c4ccc([nH]4)c(-c4c(F)cc(S(=O)(=O)[O-])cc4F)c4nc(c(-c5c(F)cc(S(=O)(=O)[O-])cc5F)c5ccc2[nH]5)C=C4)C=C3)cc1
REMARK SMILES IDX 5 1 4 2 3 3 2 4 1 5 39 6 40 7 104 8 41 9 103 10 42 11 43 12
REMARK SMILES IDX 44 13 97 14 45 15 102 16 96 17 98 18 46 19 101 20 95 21
REMARK SMILES IDX 94 22 47 24 81 25 60 26 80 27 61 28 64 29 79 30 99 31 62 32
REMARK SMILES IDX 63 33 78 35 100 36 65 37 48 38 49 39 58 40 50 41 51 42 57 43
REMARK SMILES IDX 59 44 52 45 53 46 54 47 55 48 56 49 82 50 83 51 92 52 84 53
REMARK SMILES IDX 85 54 91 55 93 56 86 57 87 58 88 59 89 60 90 61 66 62 67 63
REMARK SMILES IDX 76 64 68 65 69 66 75 67 77 68 70 69 71 70 72 71 73 72 74 73
REMARK SMILES IDX 6 74 7 75 8 76 9 77 10 78 14 79 11 80 13 81 12 82 15 83
REMARK SMILES IDX 16 84 20 85 17 86 19 87 18 88 21 89 22 90 23 91 24 92 38 93
REMARK SMILES IDX 25 94 37 95 26 96 27 98 28 99 29 100 33 101 30 102 32 103
REMARK SMILES IDX 31 104 34 105 36 106 35 107
REMARK H PARENT 98 23 64 34 26 97
REMARK Flexibility Score: inf
ROOT
ATOM      1  C   UNL     1       4.777   1.087  -1.086  1.00  0.00     0.275 C 
ENDROOT
BRANCH   1   2
ATOM      2  C   UNL     1       5.277  -0.362  -1.127  1.00  0.00     0.275 C 
BRANCH   2   3
ATOM      3  O   UNL     1       4.374  -1.384  -0.650  1.00  0.00    -0.458 OA
BRANCH   3   4
ATOM      4  C   UNL     1       4.182  -1.872   0.601  1.00  0.00     0.338 C 
ATOM      5  O   UNL     1       3.512  -2.889   0.767  1.00  0.00    -0.246 OA
BRANCH   4   6
ATOM      6  C   UNL     1       4.644  -1.131   1.807  1.00  0.00     0.060 A 
ATOM      7  C   UNL     1       5.882  -0.500   1.913  1.00  0.00     0.016 A 
ATOM      8  C   UNL     1       3.758  -1.060   2.896  1.00  0.00     0.016 A 
ATOM      9  C   UNL     1       6.184   0.294   3.021  1.00  0.00     0.010 A 
ATOM     10  C   UNL     1       4.069  -0.290   4.025  1.00  0.00     0.010 A 
ATOM     11  C   UNL     1       5.285   0.399   4.089  1.00  0.00    -0.014 A 
BRANCH  11  12
ATOM     12  C   UNL     1       5.799   0.968   5.362  1.00  0.00     0.031 A 
ATOM     13  C   UNL     1       6.392  -0.004   6.309  1.00  0.00     0.074 A 
ATOM     14  C   UNL     1       5.861   2.290   5.609  1.00  0.00     0.049 A 
ATOM     15  N   UNL     1       7.135   0.233   7.348  1.00  0.00    -0.248 NA
ATOM     16  C   UNL     1       6.115  -1.426   6.051  1.00  0.00     0.031 C 
ATOM     17  C   UNL     1       5.237   3.265   4.755  1.00  0.00     0.029 A 
ATOM     18  N   UNL     1       6.458   3.062   6.570  1.00  0.00    -0.354 N 
ATOM     19  C   UNL     1       7.428  -1.014   7.863  1.00  0.00     0.074 A 
ATOM     20  C   UNL     1       6.739  -1.999   7.062  1.00  0.00     0.031 C 
ATOM     21  C   UNL     1       5.515   4.513   5.157  1.00  0.00     0.029 A 
ATOM     22  C   UNL     1       6.369   4.423   6.322  1.00  0.00     0.049 A 
ATOM     23  H   UNL     1       6.907   2.686   7.361  1.00  0.00     0.167 HD
ATOM     24  C   UNL     1       8.225  -1.301   8.911  1.00  0.00     0.037 A 
ATOM     25  C   UNL     1       6.956   5.470   6.936  1.00  0.00     0.037 A 
ATOM     26  C   UNL     1       8.842  -0.285   9.711  1.00  0.00     0.049 A 
ATOM     27  C   UNL     1       7.855   5.124   8.088  1.00  0.00     0.074 A 
ATOM     28  C   UNL     1       9.600  -0.425  10.853  1.00  0.00     0.029 A 
ATOM     29  N   UNL     1       8.745   1.079   9.447  1.00  0.00    -0.354 N 
ATOM     30  N   UNL     1       8.165   3.930   8.541  1.00  0.00    -0.248 NA
ATOM     31  C   UNL     1       8.476   6.233   8.818  1.00  0.00     0.031 C 
ATOM     32  C   UNL     1       9.936   0.859  11.299  1.00  0.00     0.029 A 
ATOM     33  C   UNL     1       9.425   1.797  10.411  1.00  0.00     0.049 A 
ATOM     34  H   UNL     1       8.261   1.474   8.686  1.00  0.00     0.167 HD
ATOM     35  C   UNL     1       9.015   4.139   9.611  1.00  0.00     0.074 A 
ATOM     36  C   UNL     1       9.204   5.577   9.712  1.00  0.00     0.031 C 
ATOM     37  C   UNL     1       9.574   3.233  10.450  1.00  0.00     0.037 A 
BRANCH  24  38
ATOM     38  C   UNL     1       8.357  -2.757   9.222  1.00  0.00     0.058 A 
ATOM     39  C   UNL     1       9.062  -3.622   8.364  1.00  0.00     0.135 A 
ATOM     40  C   UNL     1       7.600  -3.323  10.257  1.00  0.00     0.135 A 
ATOM     41  F   UNL     1       9.745  -3.128   7.318  1.00  0.00    -0.206 F 
ATOM     42  C   UNL     1       8.961  -5.002   8.489  1.00  0.00     0.059 A 
ATOM     43  C   UNL     1       7.508  -4.701  10.415  1.00  0.00     0.059 A 
ATOM     44  F   UNL     1       6.879  -2.539  11.074  1.00  0.00    -0.206 F 
ATOM     45  C   UNL     1       8.167  -5.531   9.507  1.00  0.00     0.060 A 
BRANCH  45  46
ATOM     46  S   UNL     1       7.973  -7.321   9.611  1.00  0.00     0.124 S 
ATOM     47  O   UNL     1       7.022  -7.573   8.533  1.00  0.00    -0.237 OA
ATOM     48  O   UNL     1       9.333  -7.798   9.381  1.00  0.00    -0.237 OA
ATOM     49  O   UNL     1       7.461  -7.526  10.962  1.00  0.00    -0.744 OA
ENDBRANCH  45  46
ENDBRANCH  24  38
BRANCH  25  50
ATOM     50  C   UNL     1       6.781   6.882   6.468  1.00  0.00     0.058 A 
ATOM     51  C   UNL     1       7.864   7.619   5.955  1.00  0.00     0.135 A 
ATOM     52  C   UNL     1       5.542   7.541   6.534  1.00  0.00     0.135 A 
ATOM     53  F   UNL     1       9.074   7.047   5.856  1.00  0.00    -0.206 F 
ATOM     54  C   UNL     1       7.737   8.952   5.563  1.00  0.00     0.059 A 
ATOM     55  C   UNL     1       5.383   8.868   6.127  1.00  0.00     0.059 A 
ATOM     56  F   UNL     1       4.459   6.892   6.988  1.00  0.00    -0.206 F 
ATOM     57  C   UNL     1       6.491   9.572   5.659  1.00  0.00     0.060 A 
BRANCH  57  58
ATOM     58  S   UNL     1       6.330  11.298   5.138  1.00  0.00     0.124 S 
ATOM     59  O   UNL     1       6.988  11.999   6.235  1.00  0.00    -0.237 OA
ATOM     60  O   UNL     1       7.038  11.303   3.862  1.00  0.00    -0.237 OA
ATOM     61  O   UNL     1       4.885  11.486   5.045  1.00  0.00    -0.744 OA
ENDBRANCH  57  58
ENDBRANCH  25  50
BRANCH  37  62
ATOM     62  C   UNL     1      10.437   3.789  11.535  1.00  0.00     0.058 A 
ATOM     63  C   UNL     1       9.877   4.412  12.660  1.00  0.00     0.135 A 
ATOM     64  C   UNL     1      11.828   3.634  11.474  1.00  0.00     0.135 A 
ATOM     65  F   UNL     1       8.549   4.588  12.747  1.00  0.00    -0.206 F 
ATOM     66  C   UNL     1      10.678   4.877  13.693  1.00  0.00     0.059 A 
ATOM     67  C   UNL     1      12.645   4.069  12.507  1.00  0.00     0.059 A 
ATOM     68  F   UNL     1      12.398   3.039  10.414  1.00  0.00    -0.206 F 
ATOM     69  C   UNL     1      12.060   4.695  13.608  1.00  0.00     0.060 A 
BRANCH  69  70
ATOM     70  S   UNL     1      13.086   5.249  14.982  1.00  0.00     0.124 S 
ATOM     71  O   UNL     1      13.126   6.689  14.754  1.00  0.00    -0.237 OA
ATOM     72  O   UNL     1      12.319   4.809  16.143  1.00  0.00    -0.237 OA
ATOM     73  O   UNL     1      14.345   4.542  14.767  1.00  0.00    -0.744 OA
ENDBRANCH  69  70
ENDBRANCH  37  62
ENDBRANCH  11  12
ENDBRANCH   4   6
ENDBRANCH   3   4
ENDBRANCH   2   3
ENDBRANCH   1   2
BRANCH   1  74
ATOM     74  O   UNL     1       4.555   1.651   0.217  1.00  0.00    -0.458 OA
BRANCH  74  75
ATOM     75  C   UNL     1       3.322   1.429   0.719  1.00  0.00     0.338 C 
ATOM     76  O   UNL     1       2.555   0.567   0.277  1.00  0.00    -0.246 OA
BRANCH  75  77
ATOM     77  C   UNL     1       2.944   2.292   1.873  1.00  0.00     0.067 A 
ATOM     78  C   UNL     1       2.052   1.736   2.815  1.00  0.00     0.016 A 
ATOM     79  C   UNL     1       3.305   3.647   1.996  1.00  0.00    -0.003 A 
ATOM     80  C   UNL     1       1.581   2.462   3.907  1.00  0.00     0.001 A 
ATOM     81  C   UNL     1       2.762   4.388   3.078  1.00  0.00     0.009 A 
ATOM     82  C   UNL     1       1.937   3.795   4.040  1.00  0.00     0.001 A 
BRANCH  79  83
ATOM     83  C   UNL     1       4.231   4.332   1.088  1.00  0.00    -0.005 A 
ATOM     84  C   UNL     1       5.577   4.477   1.511  1.00  0.00     0.009 A 
ATOM     85  C   UNL     1       3.872   4.838  -0.173  1.00  0.00     0.047 A 
ATOM     86  C   UNL     1       6.535   5.144   0.757  1.00  0.00     0.001 A 
ATOM     87  C   UNL     1       4.856   5.523  -0.924  1.00  0.00     0.014 A 
ATOM     88  C   UNL     1       6.168   5.685  -0.460  1.00  0.00     0.001 A 
BRANCH  85  89
ATOM     89  C   UNL     1       2.566   4.564  -0.875  1.00  0.00     0.254 C 
ATOM     90  O   UNL     1       2.512   4.715  -2.098  1.00  0.00    -0.269 OA
ATOM     91  N   UNL     1       1.501   3.982  -0.178  1.00  0.00    -0.327 N 
ATOM     92  C   UNL     1       0.846   2.864  -0.835  1.00  0.00     0.181 C 
ATOM     93  C   UNL     1       0.555   4.846   0.523  1.00  0.00     0.181 C 
ATOM     94  C   UNL     1      -0.037   2.030   0.116  1.00  0.00     0.284 C 
ATOM     95  C   UNL     1      -0.506   4.091   1.380  1.00  0.00     0.284 C 
ATOM     96  N   UNL     1      -0.991   2.770   0.951  1.00  0.00    -0.328 N 
ATOM     97  H   UNL     1      -1.028   2.265   1.836  1.00  0.00     0.348 HD
BRANCH  96  98
ATOM     98  C   UNL     1      -2.392   2.664   0.533  1.00  0.00     0.299 C 
BRANCH  98  99
ATOM     99  C   UNL     1      -2.598   3.176  -0.877  1.00  0.00     0.010 A 
ATOM    100  C   UNL     1      -2.640   4.572  -1.086  1.00  0.00     0.013 A 
ATOM    101  C   UNL     1      -2.353   2.299  -1.950  1.00  0.00     0.060 A 
ATOM    102  C   UNL     1      -2.207   5.113  -2.295  1.00  0.00     0.051 A 
ATOM    103  C   UNL     1      -1.851   2.865  -3.096  1.00  0.00     0.166 A 
ATOM    104  C   UNL     1      -1.746   4.231  -3.248  1.00  0.00     0.165 A 
ATOM    105  O   UNL     1      -1.165   2.186  -4.061  1.00  0.00    -0.454 OA
ATOM    106  O   UNL     1      -0.988   4.561  -4.331  1.00  0.00    -0.454 OA
ATOM    107  C   UNL     1      -0.390   3.276  -4.606  1.00  0.00     0.468 C 
ENDBRANCH  98  99
ENDBRANCH  96  98
ENDBRANCH  85  89
ENDBRANCH  79  83
ENDBRANCH  75  77
ENDBRANCH  74  75
ENDBRANCH   1  74
TORSDOF 18
