REMARK SMILES COc1ccc2cc([C@H](C)C(=O)OCCOC(=O)c3ccc(-c4c5nc(c(-c6c(F)cc(S(=O)(=O)[O-])cc6F)c6ccc([nH]6)c(-c6c(F)cc(S(=O)(=O)[O-])cc6F)c6nc(c(-c7c(F)cc(S(=O)(=O)[O-])cc7F)c7ccc4[nH]7)C=C6)C=C5)cc3)ccc2c1
REMARK SMILES IDX 15 1 14 2 13 3 11 4 12 5 9 6 10 7 8 8 3 9 4 10 88 11 5 12
REMARK SMILES IDX 87 13 6 14 86 15 7 16 85 17 2 18 1 19 16 20 17 21 18 22
REMARK SMILES IDX 19 23 20 24 84 25 21 26 83 27 22 28 23 29 24 30 77 31 25 32
REMARK SMILES IDX 82 33 76 34 78 35 26 36 81 37 75 38 74 39 27 41 61 42 40 43
REMARK SMILES IDX 60 44 41 45 44 46 59 47 79 48 42 49 43 50 58 52 80 53 45 54
REMARK SMILES IDX 28 55 29 56 38 57 30 58 31 59 37 60 39 61 32 62 33 63 34 64
REMARK SMILES IDX 35 65 36 66 62 67 63 68 72 69 64 70 65 71 71 72 73 73 66 74
REMARK SMILES IDX 67 75 68 76 69 77 70 78 46 79 47 80 56 81 48 82 49 83 55 84
REMARK SMILES IDX 57 85 50 86 51 87 52 88 53 89 54 90
REMARK H PARENT 78 40 44 51
REMARK Flexibility Score: inf
ROOT
ATOM      1  C   UNL     1       3.644   3.132   9.284  1.00  0.00     0.275 C 
ENDROOT
BRANCH   1   2
ATOM      2  C   UNL     1       4.044   1.664   9.415  1.00  0.00     0.274 C 
BRANCH   2   3
ATOM      3  O   UNL     1       3.079   0.813   8.771  1.00  0.00    -0.462 OA
BRANCH   3   4
ATOM      4  C   UNL     1       2.248   0.077   9.568  1.00  0.00     0.313 C 
ATOM      5  O   UNL     1       2.203   0.161  10.790  1.00  0.00    -0.252 OA
BRANCH   4   6
ATOM      6  C   UNL     1       1.472  -0.984   8.754  1.00  0.00     0.126 C 
ATOM      7  C   UNL     1       0.743  -0.398   7.546  1.00  0.00     0.025 C 
BRANCH   6   8
ATOM      8  C   UNL     1       2.486  -2.069   8.416  1.00  0.00    -0.033 A 
ATOM      9  C   UNL     1       7.384  -2.974   8.538  1.00  0.00     0.119 A 
ATOM     10  C   UNL     1       7.194  -1.953   7.608  1.00  0.00     0.047 A 
ATOM     11  C   UNL     1       6.286  -3.665   9.058  1.00  0.00     0.055 A 
ATOM     12  C   UNL     1       5.906  -1.599   7.220  1.00  0.00     0.012 A 
ATOM     13  C   UNL     1       4.980  -3.270   8.735  1.00  0.00    -0.015 A 
ATOM     14  C   UNL     1       4.802  -2.230   7.797  1.00  0.00    -0.018 A 
ATOM     15  C   UNL     1       3.856  -3.803   9.388  1.00  0.00     0.009 A 
ATOM     16  C   UNL     1       3.531  -1.730   7.549  1.00  0.00     0.013 A 
ATOM     17  C   UNL     1       2.618  -3.175   9.264  1.00  0.00     0.005 A 
BRANCH   9  18
ATOM     18  O   UNL     1       8.619  -3.379   8.967  1.00  0.00    -0.497 OA
ATOM     19  C   UNL     1       9.494  -2.302   9.299  1.00  0.00     0.278 C 
ENDBRANCH   9  18
ENDBRANCH   6   8
ENDBRANCH   4   6
ENDBRANCH   3   4
ENDBRANCH   2   3
ENDBRANCH   1   2
BRANCH   1  20
ATOM     20  O   UNL     1       2.454   3.401  10.042  1.00  0.00    -0.458 OA
BRANCH  20  21
ATOM     21  C   UNL     1       1.296   3.150   9.384  1.00  0.00     0.338 C 
ATOM     22  O   UNL     1       1.155   2.865   8.209  1.00  0.00    -0.246 OA
BRANCH  21  23
ATOM     23  C   UNL     1       0.208   3.087  10.368  1.00  0.00     0.060 A 
ATOM     24  C   UNL     1      -0.475   1.878  10.520  1.00  0.00     0.016 A 
ATOM     25  C   UNL     1      -0.158   4.213  11.102  1.00  0.00     0.016 A 
ATOM     26  C   UNL     1      -1.532   1.778  11.410  1.00  0.00     0.010 A 
ATOM     27  C   UNL     1      -1.228   4.117  11.990  1.00  0.00     0.010 A 
ATOM     28  C   UNL     1      -1.923   2.903  12.137  1.00  0.00    -0.014 A 
BRANCH  28  29
ATOM     29  C   UNL     1      -3.131   2.833  12.979  1.00  0.00     0.031 A 
ATOM     30  C   UNL     1      -4.390   3.481  12.485  1.00  0.00     0.074 A 
ATOM     31  C   UNL     1      -3.094   2.173  14.150  1.00  0.00     0.049 A 
ATOM     32  N   UNL     1      -5.524   3.658  13.105  1.00  0.00    -0.248 NA
ATOM     33  C   UNL     1      -4.365   4.002  11.107  1.00  0.00     0.031 C 
ATOM     34  C   UNL     1      -1.934   1.450  14.678  1.00  0.00     0.029 A 
ATOM     35  N   UNL     1      -4.055   2.012  15.112  1.00  0.00    -0.354 N 
ATOM     36  C   UNL     1      -6.344   4.323  12.203  1.00  0.00     0.074 A 
ATOM     37  C   UNL     1      -5.571   4.542  11.001  1.00  0.00     0.031 C 
ATOM     38  C   UNL     1      -2.250   0.933  15.877  1.00  0.00     0.029 A 
ATOM     39  C   UNL     1      -3.611   1.333  16.222  1.00  0.00     0.049 A 
ATOM     40  H   UNL     1      -4.975   2.349  15.018  1.00  0.00     0.167 HD
ATOM     41  C   UNL     1      -7.630   4.707  12.369  1.00  0.00     0.037 A 
ATOM     42  C   UNL     1      -4.228   1.101  17.395  1.00  0.00     0.037 A 
ATOM     43  C   UNL     1      -8.380   4.472  13.575  1.00  0.00     0.049 A 
ATOM     44  C   UNL     1      -5.630   1.620  17.586  1.00  0.00     0.074 A 
ATOM     45  C   UNL     1      -9.682   4.836  13.865  1.00  0.00     0.029 A 
ATOM     46  N   UNL     1      -7.892   3.804  14.690  1.00  0.00    -0.354 N 
ATOM     47  N   UNL     1      -6.391   2.274  16.739  1.00  0.00    -0.248 NA
ATOM     48  C   UNL     1      -6.257   1.375  18.891  1.00  0.00     0.031 C 
ATOM     49  C   UNL     1      -9.969   4.423  15.170  1.00  0.00     0.029 A 
ATOM     50  C   UNL     1      -8.864   3.755  15.674  1.00  0.00     0.049 A 
ATOM     51  H   UNL     1      -6.989   3.422  14.769  1.00  0.00     0.167 HD
ATOM     52  C   UNL     1      -7.597   2.486  17.396  1.00  0.00     0.074 A 
ATOM     53  C   UNL     1      -7.468   1.881  18.706  1.00  0.00     0.031 C 
ATOM     54  C   UNL     1      -8.713   3.123  16.961  1.00  0.00     0.037 A 
BRANCH  41  55
ATOM     55  C   UNL     1      -8.299   5.431  11.236  1.00  0.00     0.058 A 
ATOM     56  C   UNL     1      -8.674   4.768  10.056  1.00  0.00     0.135 A 
ATOM     57  C   UNL     1      -8.616   6.795  11.349  1.00  0.00     0.135 A 
ATOM     58  F   UNL     1      -8.372   3.471   9.884  1.00  0.00    -0.206 F 
ATOM     59  C   UNL     1      -9.332   5.433   9.027  1.00  0.00     0.059 A 
ATOM     60  C   UNL     1      -9.296   7.473  10.342  1.00  0.00     0.059 A 
ATOM     61  F   UNL     1      -8.270   7.480  12.451  1.00  0.00    -0.206 F 
ATOM     62  C   UNL     1      -9.645   6.784   9.182  1.00  0.00     0.060 A 
BRANCH  62  63
ATOM     63  S   UNL     1     -10.533   7.620   7.851  1.00  0.00     0.124 S 
ATOM     64  O   UNL     1      -9.504   7.699   6.818  1.00  0.00    -0.237 OA
ATOM     65  O   UNL     1     -11.631   6.698   7.582  1.00  0.00    -0.237 OA
ATOM     66  O   UNL     1     -10.919   8.895   8.447  1.00  0.00    -0.744 OA
ENDBRANCH  62  63
ENDBRANCH  41  55
BRANCH  42  67
ATOM     67  C   UNL     1      -3.526   0.379  18.491  1.00  0.00     0.058 A 
ATOM     68  C   UNL     1      -3.971  -0.875  18.933  1.00  0.00     0.135 A 
ATOM     69  C   UNL     1      -2.419   0.945  19.145  1.00  0.00     0.135 A 
ATOM     70  F   UNL     1      -5.028  -1.457  18.345  1.00  0.00    -0.206 F 
ATOM     71  C   UNL     1      -3.373  -1.526  20.008  1.00  0.00     0.059 A 
ATOM     72  C   UNL     1      -1.783   0.299  20.200  1.00  0.00     0.059 A 
ATOM     73  F   UNL     1      -1.941   2.136  18.753  1.00  0.00    -0.206 F 
ATOM     74  C   UNL     1      -2.282  -0.926  20.639  1.00  0.00     0.060 A 
BRANCH  74  75
ATOM     75  S   UNL     1      -1.515  -1.773  22.037  1.00  0.00     0.124 S 
ATOM     76  O   UNL     1      -2.510  -1.569  23.083  1.00  0.00    -0.237 OA
ATOM     77  O   UNL     1      -1.386  -3.138  21.537  1.00  0.00    -0.237 OA
ATOM     78  O   UNL     1      -0.256  -1.056  22.215  1.00  0.00    -0.744 OA
ENDBRANCH  74  75
ENDBRANCH  42  67
BRANCH  54  79
ATOM     79  C   UNL     1      -9.897   3.146  17.886  1.00  0.00     0.058 A 
ATOM     80  C   UNL     1      -9.922   3.947  19.037  1.00  0.00     0.135 A 
ATOM     81  C   UNL     1     -11.043   2.391  17.584  1.00  0.00     0.135 A 
ATOM     82  F   UNL     1      -8.850   4.682  19.373  1.00  0.00    -0.206 F 
ATOM     83  C   UNL     1     -11.033   3.980  19.873  1.00  0.00     0.059 A 
ATOM     84  C   UNL     1     -12.176   2.433  18.389  1.00  0.00     0.059 A 
ATOM     85  F   UNL     1     -11.074   1.617  16.488  1.00  0.00    -0.206 F 
ATOM     86  C   UNL     1     -12.156   3.221  19.538  1.00  0.00     0.060 A 
BRANCH  86  87
ATOM     87  S   UNL     1     -13.604   3.300  20.613  1.00  0.00     0.124 S 
ATOM     88  O   UNL     1     -13.158   2.524  21.765  1.00  0.00    -0.237 OA
ATOM     89  O   UNL     1     -13.750   4.736  20.834  1.00  0.00    -0.237 OA
ATOM     90  O   UNL     1     -14.657   2.685  19.811  1.00  0.00    -0.744 OA
ENDBRANCH  86  87
ENDBRANCH  54  79
ENDBRANCH  28  29
ENDBRANCH  21  23
ENDBRANCH  20  21
ENDBRANCH   1  20
TORSDOF 16
