REMARK SMILES Cc1cc(C(=O)OCCOC(=O)c2ccc(-c3c4nc(c(-c5c(F)cc(S(=O)(=O)[O-])cc5F)c5ccc([nH]5)c(-c5c(F)cc(S(=O)(=O)[O-])cc5F)c5nc(c(-c6c(F)cc(S(=O)(=O)[O-])cc6F)c6ccc3[nH]6)C=C5)C=C4)cc2)ccc1NC(=O)c1ccc(=O)n(CCOc2ccccc2)n1
REMARK SMILES IDX 7 1 5 2 6 3 4 4 1 5 2 6 3 7 81 8 80 9 79 10 82 11 83 12
REMARK SMILES IDX 84 14 85 15 86 16 100 17 87 18 90 19 88 20 89 21 91 22 92 23
REMARK SMILES IDX 93 24 94 25 95 26 99 27 96 28 98 29 97 30 8 31 9 32 10 33
REMARK SMILES IDX 11 34 12 35 13 36 14 37 78 38 15 39 77 40 16 41 17 42 18 43
REMARK SMILES IDX 71 44 19 45 76 46 70 47 72 48 20 49 75 50 69 51 68 52 21 54
REMARK SMILES IDX 55 55 34 56 54 57 35 58 38 59 53 60 73 61 36 62 37 63 52 65
REMARK SMILES IDX 74 66 39 67 22 68 23 69 32 70 24 71 25 72 31 73 33 74 26 75
REMARK SMILES IDX 27 76 28 77 29 78 30 79 56 80 57 81 66 82 58 83 59 84 65 85
REMARK SMILES IDX 67 86 60 87 61 88 62 89 63 90 64 91 40 92 41 93 50 94 42 95
REMARK SMILES IDX 43 96 49 97 51 98 44 99 45 100 46 101 47 102 48 103
REMARK H PARENT 82 13 72 53 38 64
REMARK Flexibility Score: inf
ROOT
ATOM      1  O   UNL     1      -2.882  -1.767  -2.098  1.00  0.00    -0.458 OA
ENDROOT
BRANCH   1   2
ATOM      2  C   UNL     1      -2.397  -1.167  -0.977  1.00  0.00     0.338 C 
ATOM      3  O   UNL     1      -2.940  -1.122   0.107  1.00  0.00    -0.246 OA
BRANCH   2   4
ATOM      4  C   UNL     1      -1.174  -0.382  -1.229  1.00  0.00     0.060 A 
ATOM      5  C   UNL     1       2.308   0.124   0.206  1.00  0.00     0.046 C 
ATOM      6  C   UNL     1       0.967   0.451  -0.385  1.00  0.00    -0.027 A 
ATOM      7  C   UNL     1       0.024  -0.585  -0.529  1.00  0.00     0.021 A 
ATOM      8  C   UNL     1       0.584   1.722  -0.808  1.00  0.00     0.044 A 
ATOM      9  C   UNL     1      -0.427   1.812  -1.764  1.00  0.00     0.027 A 
ATOM     10  C   UNL     1      -1.339   0.781  -1.954  1.00  0.00     0.018 A 
BRANCH   8  11
ATOM     11  N   UNL     1       1.127   2.882  -0.208  1.00  0.00    -0.320 N 
ATOM     12  C   UNL     1       0.437   4.027   0.194  1.00  0.00     0.276 C 
ATOM     13  H   UNL     1       2.100   2.882  -0.057  1.00  0.00     0.170 HD
ATOM     14  O   UNL     1       1.007   5.017   0.640  1.00  0.00    -0.267 OA
BRANCH  12  15
ATOM     15  C   UNL     1      -1.085   4.041   0.095  1.00  0.00     0.149 A 
ATOM     16  C   UNL     1      -1.619   4.575  -1.173  1.00  0.00     0.042 A 
ATOM     17  N   UNL     1      -1.823   3.557   1.053  1.00  0.00    -0.164 NA
ATOM     18  C   UNL     1      -2.755   3.998  -1.566  1.00  0.00     0.076 A 
ATOM     19  N   UNL     1      -3.147   3.275   0.690  1.00  0.00    -0.226 N 
ATOM     20  C   UNL     1      -3.461   3.068  -0.649  1.00  0.00     0.266 A 
ATOM     21  O   UNL     1      -4.301   2.301  -1.105  1.00  0.00    -0.268 OA
BRANCH  19  22
ATOM     22  C   UNL     1      -4.097   2.895   1.741  1.00  0.00     0.190 C 
BRANCH  22  23
ATOM     23  C   UNL     1      -4.904   4.098   2.284  1.00  0.00     0.253 C 
BRANCH  23  24
ATOM     24  O   UNL     1      -6.137   4.345   1.566  1.00  0.00    -0.492 OA
BRANCH  24  25
ATOM     25  C   UNL     1      -6.022   5.327   0.624  1.00  0.00     0.119 A 
ATOM     26  C   UNL     1      -6.169   6.675   0.934  1.00  0.00     0.046 A 
ATOM     27  C   UNL     1      -5.856   4.949  -0.701  1.00  0.00     0.046 A 
ATOM     28  C   UNL     1      -5.999   7.636  -0.071  1.00  0.00     0.004 A 
ATOM     29  C   UNL     1      -5.607   5.898  -1.689  1.00  0.00     0.004 A 
ATOM     30  C   UNL     1      -5.663   7.249  -1.370  1.00  0.00     0.000 A 
ENDBRANCH  24  25
ENDBRANCH  23  24
ENDBRANCH  22  23
ENDBRANCH  19  22
ENDBRANCH  12  15
ENDBRANCH   8  11
ENDBRANCH   2   4
ENDBRANCH   1   2
BRANCH   1  31
ATOM     31  C   UNL     1      -4.115  -2.482  -1.894  1.00  0.00     0.275 C 
BRANCH  31  32
ATOM     32  C   UNL     1      -4.231  -3.744  -2.778  1.00  0.00     0.275 C 
BRANCH  32  33
ATOM     33  O   UNL     1      -3.263  -4.814  -2.656  1.00  0.00    -0.458 OA
BRANCH  33  34
ATOM     34  C   UNL     1      -2.038  -4.488  -2.183  1.00  0.00     0.338 C 
ATOM     35  O   UNL     1      -1.162  -3.982  -2.879  1.00  0.00    -0.246 OA
BRANCH  34  36
ATOM     36  C   UNL     1      -2.065  -4.558  -0.701  1.00  0.00     0.060 A 
ATOM     37  C   UNL     1      -1.099  -3.853   0.023  1.00  0.00     0.016 A 
ATOM     38  C   UNL     1      -3.242  -4.995  -0.084  1.00  0.00     0.016 A 
ATOM     39  C   UNL     1      -1.367  -3.444   1.324  1.00  0.00     0.010 A 
ATOM     40  C   UNL     1      -3.574  -4.476   1.139  1.00  0.00     0.010 A 
ATOM     41  C   UNL     1      -2.627  -3.720   1.847  1.00  0.00    -0.014 A 
BRANCH  41  42
ATOM     42  C   UNL     1      -2.926  -3.658   3.263  1.00  0.00     0.031 A 
ATOM     43  C   UNL     1      -3.542  -2.483   3.899  1.00  0.00     0.074 A 
ATOM     44  C   UNL     1      -2.756  -4.892   3.790  1.00  0.00     0.049 A 
ATOM     45  N   UNL     1      -3.667  -2.354   5.170  1.00  0.00    -0.248 NA
ATOM     46  C   UNL     1      -4.052  -1.319   3.178  1.00  0.00     0.031 C 
ATOM     47  C   UNL     1      -3.195  -5.502   5.024  1.00  0.00     0.029 A 
ATOM     48  N   UNL     1      -1.913  -5.864   3.222  1.00  0.00    -0.354 N 
ATOM     49  C   UNL     1      -4.498  -1.276   5.426  1.00  0.00     0.074 A 
ATOM     50  C   UNL     1      -4.615  -0.602   4.161  1.00  0.00     0.031 C 
ATOM     51  C   UNL     1      -2.389  -6.556   5.278  1.00  0.00     0.029 A 
ATOM     52  C   UNL     1      -1.327  -6.557   4.269  1.00  0.00     0.049 A 
ATOM     53  H   UNL     1      -1.766  -6.023   2.261  1.00  0.00     0.167 HD
ATOM     54  C   UNL     1      -5.085  -1.208   6.659  1.00  0.00     0.037 A 
ATOM     55  C   UNL     1      -0.005  -6.292   4.496  1.00  0.00     0.037 A 
ATOM     56  C   UNL     1      -4.502  -2.259   7.497  1.00  0.00     0.049 A 
ATOM     57  C   UNL     1       0.123  -5.538   5.799  1.00  0.00     0.074 A 
ATOM     58  C   UNL     1      -4.895  -3.567   7.730  1.00  0.00     0.029 A 
ATOM     59  N   UNL     1      -3.155  -2.179   7.834  1.00  0.00    -0.354 N 
ATOM     60  N   UNL     1      -0.721  -4.634   6.231  1.00  0.00    -0.248 NA
ATOM     61  C   UNL     1       1.119  -5.919   6.792  1.00  0.00     0.031 C 
ATOM     62  C   UNL     1      -3.727  -4.306   8.067  1.00  0.00     0.029 A 
ATOM     63  C   UNL     1      -2.638  -3.445   8.050  1.00  0.00     0.049 A 
ATOM     64  H   UNL     1      -2.642  -1.342   7.908  1.00  0.00     0.167 HD
ATOM     65  C   UNL     1      -0.465  -4.394   7.557  1.00  0.00     0.074 A 
ATOM     66  C   UNL     1       0.708  -5.205   7.851  1.00  0.00     0.031 C 
ATOM     67  C   UNL     1      -1.234  -3.622   8.384  1.00  0.00     0.037 A 
BRANCH  54  68
ATOM     68  C   UNL     1      -6.337  -0.435   7.058  1.00  0.00     0.058 A 
ATOM     69  C   UNL     1      -7.053  -0.817   8.220  1.00  0.00     0.135 A 
ATOM     70  C   UNL     1      -6.936   0.620   6.338  1.00  0.00     0.135 A 
ATOM     71  F   UNL     1      -6.594  -1.771   9.043  1.00  0.00    -0.206 F 
ATOM     72  C   UNL     1      -8.280  -0.259   8.594  1.00  0.00     0.059 A 
ATOM     73  C   UNL     1      -8.173   1.189   6.686  1.00  0.00     0.059 A 
ATOM     74  F   UNL     1      -6.346   1.173   5.274  1.00  0.00    -0.206 F 
ATOM     75  C   UNL     1      -8.847   0.734   7.810  1.00  0.00     0.060 A 
BRANCH  75  76
ATOM     76  S   UNL     1     -10.444   1.418   8.296  1.00  0.00     0.124 S 
ATOM     77  O   UNL     1     -11.319   0.254   8.191  1.00  0.00    -0.237 OA
ATOM     78  O   UNL     1     -10.179   1.891   9.651  1.00  0.00    -0.237 OA
ATOM     79  O   UNL     1     -10.683   2.466   7.308  1.00  0.00    -0.744 OA
ENDBRANCH  75  76
ENDBRANCH  54  68
BRANCH  55  80
ATOM     80  C   UNL     1       0.835  -6.123   3.250  1.00  0.00     0.058 A 
ATOM     81  C   UNL     1       0.757  -7.129   2.255  1.00  0.00     0.135 A 
ATOM     82  C   UNL     1       1.512  -4.951   2.880  1.00  0.00     0.135 A 
ATOM     83  F   UNL     1       0.149  -8.297   2.528  1.00  0.00    -0.206 F 
ATOM     84  C   UNL     1       1.207  -6.946   0.947  1.00  0.00     0.059 A 
ATOM     85  C   UNL     1       1.996  -4.751   1.571  1.00  0.00     0.059 A 
ATOM     86  F   UNL     1       1.650  -3.943   3.752  1.00  0.00    -0.206 F 
ATOM     87  C   UNL     1       1.809  -5.742   0.603  1.00  0.00     0.060 A 
BRANCH  87  88
ATOM     88  S   UNL     1       2.143  -5.420  -1.153  1.00  0.00     0.124 S 
ATOM     89  O   UNL     1       3.424  -6.090  -1.347  1.00  0.00    -0.237 OA
ATOM     90  O   UNL     1       0.996  -6.053  -1.797  1.00  0.00    -0.237 OA
ATOM     91  O   UNL     1       2.176  -3.960  -1.214  1.00  0.00    -0.744 OA
ENDBRANCH  87  88
ENDBRANCH  55  80
BRANCH  67  92
ATOM     92  C   UNL     1      -0.734  -3.050   9.686  1.00  0.00     0.058 A 
ATOM     93  C   UNL     1       0.625  -2.786   9.929  1.00  0.00     0.135 A 
ATOM     94  C   UNL     1      -1.635  -2.588  10.676  1.00  0.00     0.135 A 
ATOM     95  F   UNL     1       1.566  -3.034   9.007  1.00  0.00    -0.206 F 
ATOM     96  C   UNL     1       1.071  -2.223  11.118  1.00  0.00     0.059 A 
ATOM     97  C   UNL     1      -1.215  -1.945  11.833  1.00  0.00     0.059 A 
ATOM     98  F   UNL     1      -2.963  -2.727  10.548  1.00  0.00    -0.206 F 
ATOM     99  C   UNL     1       0.144  -1.812  12.067  1.00  0.00     0.060 A 
BRANCH  99 100
ATOM    100  S   UNL     1       0.721  -1.080  13.602  1.00  0.00     0.124 S 
ATOM    101  O   UNL     1       0.922  -2.269  14.424  1.00  0.00    -0.237 OA
ATOM    102  O   UNL     1       1.938  -0.386  13.190  1.00  0.00    -0.237 OA
ATOM    103  O   UNL     1      -0.384  -0.214  13.996  1.00  0.00    -0.744 OA
ENDBRANCH  99 100
ENDBRANCH  67  92
ENDBRANCH  41  42
ENDBRANCH  34  36
ENDBRANCH  33  34
ENDBRANCH  32  33
ENDBRANCH  31  32
ENDBRANCH   1  31
TORSDOF 20
