REMARK SMILES O=C(N/N=C/c1ccc(C(=O)OCCOC(=O)c2ccc(-c3c4nc(c(-c5c(F)cc(S(=O)(=O)[O-])cc5F)c5ccc([nH]5)c(-c5c(F)cc(S(=O)(=O)[O-])cc5F)c5nc(c(-c6c(F)cc(S(=O)(=O)[O-])cc6F)c6ccc3[nH]6)C=C5)C=C4)cc2)cc1)C(=O)Nc1cccc(Br)c1
REMARK SMILES IDX 13 1 12 2 10 3 11 4 9 5 6 6 7 7 85 8 8 9 84 10 5 11 4 12
REMARK SMILES IDX 3 13 1 14 2 15 86 17 87 18 88 19 89 21 90 22 95 23 91 24
REMARK SMILES IDX 93 25 92 26 94 27 14 28 15 29 16 30 17 31 18 32 19 33 83 34
REMARK SMILES IDX 20 35 82 36 21 37 22 38 23 39 76 40 24 41 81 42 75 43 77 44
REMARK SMILES IDX 25 45 80 46 74 47 73 48 26 50 60 51 39 52 59 53 40 54 43 55
REMARK SMILES IDX 58 56 78 57 41 58 42 59 57 61 79 62 44 63 27 64 28 65 37 66
REMARK SMILES IDX 29 67 30 68 36 69 38 70 31 71 32 72 33 73 34 74 35 75 61 76
REMARK SMILES IDX 62 77 71 78 63 79 64 80 70 81 72 82 65 83 66 84 67 85 68 86
REMARK SMILES IDX 69 87 45 88 46 89 55 90 47 91 48 92 54 93 56 94 49 95 50 96
REMARK SMILES IDX 51 97 52 98 53 99
REMARK H PARENT 3 16 88 20 77 49 43 60
REMARK Flexibility Score: inf
ROOT
ATOM      1  C   UNL     1      13.322   1.190  -0.735  1.00  0.00     0.275 C 
ENDROOT
BRANCH   1   2
ATOM      2  O   UNL     1      11.922   1.535  -0.757  1.00  0.00    -0.458 OA
BRANCH   2   3
ATOM      3  C   UNL     1      11.098   0.480  -0.580  1.00  0.00     0.338 C 
ATOM      4  O   UNL     1      11.424  -0.694  -0.503  1.00  0.00    -0.246 OA
BRANCH   3   5
ATOM      5  C   UNL     1       9.686   0.882  -0.503  1.00  0.00     0.060 A 
ATOM      6  C   UNL     1       6.658   0.578  -0.856  1.00  0.00    -0.005 A 
ATOM      7  C   UNL     1       7.484   0.341   0.377  1.00  0.00     0.010 A 
ATOM      8  C   UNL     1       7.660   1.364  -1.702  1.00  0.00     0.010 A 
ATOM      9  C   UNL     1       8.890   0.436   0.526  1.00  0.00     0.016 A 
ATOM     10  C   UNL     1       9.069   1.483  -1.565  1.00  0.00     0.016 A 
BRANCH   6  11
ATOM     11  C   UNL     1       4.714  -0.150  -1.333  1.00  0.00     0.141 C 
ATOM     12  N   UNL     1       3.491   0.394  -1.631  1.00  0.00    -0.180 NA
BRANCH  12  13
ATOM     13  N   UNL     1       2.426  -0.340  -1.193  1.00  0.00    -0.239 N 
ATOM     14  O   UNL     1       0.665   0.269   0.084  1.00  0.00    -0.262 OA
ATOM     15  C   UNL     1       1.868   0.000   0.043  1.00  0.00     0.329 C 
ATOM     16  H   UNL     1       2.064  -1.083  -1.729  1.00  0.00     0.194 HD
BRANCH  15  17
ATOM     17  C   UNL     1       2.646  -0.117   1.383  1.00  0.00     0.315 C 
ATOM     18  O   UNL     1       1.984  -0.449   2.373  1.00  0.00    -0.263 OA
ATOM     19  N   UNL     1       4.015   0.037   1.578  1.00  0.00    -0.318 N 
ATOM     20  H   UNL     1       4.333  -0.008   2.509  1.00  0.00     0.170 HD
BRANCH  19  21
ATOM     21  C   UNL     1       4.987   0.249   0.601  1.00  0.00     0.042 A 
ATOM     22  C   UNL     1       5.778  -1.287  -0.025  1.00  0.00     0.026 A 
ATOM     23  C   UNL     1       4.859   1.727  -0.449  1.00  0.00     0.041 A 
ATOM     24  C   UNL     1       6.319  -1.363  -1.769  1.00  0.00     0.003 A 
ATOM     25  C   UNL     1       5.291   1.601  -2.217  1.00  0.00     0.020 A 
ATOM     26  C   UNL     1       5.986   0.037  -2.885  1.00  0.00     0.016 A 
ATOM     27  Br  UNL     1       4.843   3.019  -3.395  1.00  0.00    -0.051 Br
ENDBRANCH  19  21
ENDBRANCH  15  17
ENDBRANCH  12  13
ENDBRANCH   6  11
ENDBRANCH   3   5
ENDBRANCH   2   3
ENDBRANCH   1   2
BRANCH   1  28
ATOM     28  C   UNL     1      13.904   1.311   0.676  1.00  0.00     0.275 C 
BRANCH  28  29
ATOM     29  O   UNL     1      13.458   0.248   1.544  1.00  0.00    -0.458 OA
BRANCH  29  30
ATOM     30  C   UNL     1      12.406   0.559   2.334  1.00  0.00     0.338 C 
ATOM     31  O   UNL     1      11.806   1.622   2.376  1.00  0.00    -0.246 OA
BRANCH  30  32
ATOM     32  C   UNL     1      11.993  -0.590   3.154  1.00  0.00     0.060 A 
ATOM     33  C   UNL     1      11.052  -1.480   2.643  1.00  0.00     0.016 A 
ATOM     34  C   UNL     1      12.353  -0.652   4.499  1.00  0.00     0.016 A 
ATOM     35  C   UNL     1      10.370  -2.342   3.497  1.00  0.00     0.010 A 
ATOM     36  C   UNL     1      11.757  -1.612   5.328  1.00  0.00     0.010 A 
ATOM     37  C   UNL     1      10.728  -2.443   4.848  1.00  0.00    -0.014 A 
BRANCH  37  38
ATOM     38  C   UNL     1      10.027  -3.409   5.745  1.00  0.00     0.031 A 
ATOM     39  C   UNL     1       9.378  -2.939   7.025  1.00  0.00     0.074 A 
ATOM     40  C   UNL     1       9.970  -4.717   5.415  1.00  0.00     0.049 A 
ATOM     41  N   UNL     1       8.902  -3.647   8.018  1.00  0.00    -0.248 NA
ATOM     42  C   UNL     1       9.262  -1.485   7.221  1.00  0.00     0.031 C 
ATOM     43  C   UNL     1      10.520  -5.310   4.193  1.00  0.00     0.029 A 
ATOM     44  N   UNL     1       9.423  -5.789   6.078  1.00  0.00    -0.354 N 
ATOM     45  C   UNL     1       8.491  -2.730   8.981  1.00  0.00     0.074 A 
ATOM     46  C   UNL     1       8.772  -1.413   8.451  1.00  0.00     0.031 C 
ATOM     47  C   UNL     1      10.249  -6.622   4.174  1.00  0.00     0.029 A 
ATOM     48  C   UNL     1       9.604  -6.988   5.428  1.00  0.00     0.049 A 
ATOM     49  H   UNL     1       8.947  -5.707   6.936  1.00  0.00     0.167 HD
ATOM     50  C   UNL     1       7.935  -2.968  10.194  1.00  0.00     0.037 A 
ATOM     51  C   UNL     1       9.339  -8.251   5.812  1.00  0.00     0.037 A 
ATOM     52  C   UNL     1       7.608  -4.282  10.690  1.00  0.00     0.049 A 
ATOM     53  C   UNL     1       8.749  -8.492   7.171  1.00  0.00     0.074 A 
ATOM     54  C   UNL     1       7.020  -4.627  11.896  1.00  0.00     0.029 A 
ATOM     55  N   UNL     1       7.826  -5.468  10.002  1.00  0.00    -0.354 N 
ATOM     56  N   UNL     1       8.415  -7.617   8.089  1.00  0.00    -0.248 NA
ATOM     57  C   UNL     1       8.518  -9.891   7.555  1.00  0.00     0.031 C 
ATOM     58  C   UNL     1       6.920  -6.021  11.954  1.00  0.00     0.029 A 
ATOM     59  C   UNL     1       7.399  -6.544  10.764  1.00  0.00     0.049 A 
ATOM     60  H   UNL     1       8.226  -5.534   9.105  1.00  0.00     0.167 HD
ATOM     61  C   UNL     1       7.922  -8.359   9.156  1.00  0.00     0.074 A 
ATOM     62  C   UNL     1       7.985  -9.752   8.761  1.00  0.00     0.031 C 
ATOM     63  C   UNL     1       7.464  -7.925  10.355  1.00  0.00     0.037 A 
BRANCH  50  64
ATOM     64  C   UNL     1       7.674  -1.789  11.095  1.00  0.00     0.058 A 
ATOM     65  C   UNL     1       6.645  -0.868  10.845  1.00  0.00     0.135 A 
ATOM     66  C   UNL     1       8.444  -1.605  12.257  1.00  0.00     0.135 A 
ATOM     67  F   UNL     1       5.887  -0.985   9.742  1.00  0.00    -0.206 F 
ATOM     68  C   UNL     1       6.406   0.207  11.697  1.00  0.00     0.059 A 
ATOM     69  C   UNL     1       8.205  -0.554  13.137  1.00  0.00     0.059 A 
ATOM     70  F   UNL     1       9.440  -2.457  12.549  1.00  0.00    -0.206 F 
ATOM     71  C   UNL     1       7.193   0.357  12.841  1.00  0.00     0.060 A 
BRANCH  71  72
ATOM     72  S   UNL     1       6.874   1.757  13.936  1.00  0.00     0.124 S 
ATOM     73  O   UNL     1       7.409   2.866  13.152  1.00  0.00    -0.237 OA
ATOM     74  O   UNL     1       5.422   1.721  14.075  1.00  0.00    -0.237 OA
ATOM     75  O   UNL     1       7.625   1.423  15.143  1.00  0.00    -0.744 OA
ENDBRANCH  71  72
ENDBRANCH  50  64
BRANCH  51  76
ATOM     76  C   UNL     1       9.681  -9.383   4.910  1.00  0.00     0.058 A 
ATOM     77  C   UNL     1       8.678 -10.145   4.294  1.00  0.00     0.135 A 
ATOM     78  C   UNL     1      11.018  -9.704   4.619  1.00  0.00     0.135 A 
ATOM     79  F   UNL     1       7.387  -9.884   4.547  1.00  0.00    -0.206 F 
ATOM     80  C   UNL     1       8.986 -11.187   3.425  1.00  0.00     0.059 A 
ATOM     81  C   UNL     1      11.350 -10.719   3.730  1.00  0.00     0.059 A 
ATOM     82  F   UNL     1      12.015  -8.995   5.172  1.00  0.00    -0.206 F 
ATOM     83  C   UNL     1      10.326 -11.461   3.143  1.00  0.00     0.060 A 
BRANCH  83  84
ATOM     84  S   UNL     1      10.716 -12.769   1.961  1.00  0.00     0.124 S 
ATOM     85  O   UNL     1      10.451 -13.966   2.750  1.00  0.00    -0.237 OA
ATOM     86  O   UNL     1       9.774 -12.495   0.879  1.00  0.00    -0.237 OA
ATOM     87  O   UNL     1      12.117 -12.520   1.637  1.00  0.00    -0.744 OA
ENDBRANCH  83  84
ENDBRANCH  51  76
BRANCH  63  88
ATOM     88  C   UNL     1       6.960  -8.967  11.314  1.00  0.00     0.058 A 
ATOM     89  C   UNL     1       7.836  -9.819  12.003  1.00  0.00     0.135 A 
ATOM     90  C   UNL     1       5.585  -9.088  11.571  1.00  0.00     0.135 A 
ATOM     91  F   UNL     1       9.159  -9.750  11.785  1.00  0.00    -0.206 F 
ATOM     92  C   UNL     1       7.364 -10.774  12.898  1.00  0.00     0.059 A 
ATOM     93  C   UNL     1       5.093 -10.018  12.481  1.00  0.00     0.059 A 
ATOM     94  F   UNL     1       4.707  -8.291  10.942  1.00  0.00    -0.206 F 
ATOM     95  C   UNL     1       5.990 -10.865  13.130  1.00  0.00     0.060 A 
BRANCH  95  96
ATOM     96  S   UNL     1       5.391 -12.089  14.315  1.00  0.00     0.124 S 
ATOM     97  O   UNL     1       5.537 -13.327  13.556  1.00  0.00    -0.237 OA
ATOM     98  O   UNL     1       6.313 -11.919  15.434  1.00  0.00    -0.237 OA
ATOM     99  O   UNL     1       4.018 -11.669  14.572  1.00  0.00    -0.744 OA
ENDBRANCH  95  96
ENDBRANCH  63  88
ENDBRANCH  37  38
ENDBRANCH  30  32
ENDBRANCH  29  30
ENDBRANCH  28  29
ENDBRANCH   1  28
TORSDOF 18
