REMARK SMILES C[C@H]1c2ccc(O)cc2OC(=O)[C@@H]1CC(=O)N[C@@H](CC1=c2ccccc2=NC1)C(=O)OCCOC(=O)c1ccc(-c2c3nc(c(-c4c(F)cc(S(=O)(=O)[O-])cc4F)c4ccc([nH]4)c(-c4c(F)cc(S(=O)(=O)[O-])cc4F)c4nc(c(-c5c(F)cc(S(=O)(=O)[O-])cc5F)c5ccc2[nH]5)C=C4)C=C3)cc1
REMARK SMILES IDX 32 1 31 2 29 3 30 4 18 5 17 6 15 7 16 8 14 10 13 11 1 12
REMARK SMILES IDX 2 13 3 14 4 15 9 16 11 17 5 18 8 19 10 20 12 21 6 22 7 23
REMARK SMILES IDX 19 25 20 26 21 27 28 28 22 29 26 30 27 31 23 32 25 33 24 34
REMARK SMILES IDX 33 35 34 36 35 37 36 38 37 39 38 40 102 41 39 42 101 43
REMARK SMILES IDX 40 44 41 45 42 46 95 47 43 48 100 49 94 50 96 51 44 52 99 53
REMARK SMILES IDX 93 54 92 55 45 57 79 58 58 59 78 60 59 61 62 62 77 63 97 64
REMARK SMILES IDX 60 65 61 66 76 68 98 69 63 70 46 71 47 72 56 73 48 74 49 75
REMARK SMILES IDX 55 76 57 77 50 78 51 79 52 80 53 81 54 82 80 83 81 84 90 85
REMARK SMILES IDX 82 86 83 87 89 88 91 89 84 90 85 91 86 92 87 93 88 94 64 95
REMARK SMILES IDX 65 96 74 97 66 98 67 99 73 100 75 101 68 102 69 103 70 104
REMARK SMILES IDX 71 105 72 106
REMARK H PARENT 17 9 7 24 96 56 62 67
REMARK Flexibility Score: inf
ROOT
ATOM      1  C   UNL     1      -4.706  -5.388   4.135  1.00  0.00     0.274 C 
ENDROOT
BRANCH   1   2
ATOM      2  O   UNL     1      -3.351  -5.073   3.756  1.00  0.00    -0.461 OA
BRANCH   2   3
ATOM      3  C   UNL     1      -3.241  -4.183   2.737  1.00  0.00     0.329 C 
ATOM      4  O   UNL     1      -4.195  -3.675   2.152  1.00  0.00    -0.250 OA
BRANCH   3   5
ATOM      5  C   UNL     1      -1.810  -3.986   2.245  1.00  0.00     0.196 C 
BRANCH   5   6
ATOM      6  N   UNL     1      -0.690  -4.045   3.193  1.00  0.00    -0.342 N 
ATOM      7  C   UNL     1       0.397  -3.225   3.339  1.00  0.00     0.221 C 
ATOM      8  O   UNL     1       1.360  -3.637   3.989  1.00  0.00    -0.275 OA
ATOM      9  H   UNL     1      -0.726  -4.797   3.827  1.00  0.00     0.164 HD
BRANCH   7  10
ATOM     10  C   UNL     1       0.391  -1.796   2.801  1.00  0.00     0.116 C 
BRANCH  10  11
ATOM     11  C   UNL     1       1.195  -1.521   1.512  1.00  0.00     0.116 C 
ATOM     12  C   UNL     1       1.934   0.241  -0.211  1.00  0.00     0.014 C 
ATOM     13  C   UNL     1       1.012  -0.079   0.970  1.00  0.00     0.034 C 
ATOM     14  C   UNL     1      -0.419   0.092   0.534  1.00  0.00    -0.001 A 
ATOM     15  C   UNL     1      -1.095   1.310   0.624  1.00  0.00     0.011 A 
ATOM     16  C   UNL     1      -1.107  -1.030   0.069  1.00  0.00     0.138 A 
ATOM     17  C   UNL     1       0.805  -2.480   0.422  1.00  0.00     0.315 C 
ATOM     18  C   UNL     1      -2.465   1.357   0.354  1.00  0.00     0.047 A 
ATOM     19  C   UNL     1      -2.474  -1.012  -0.150  1.00  0.00     0.093 A 
ATOM     20  O   UNL     1      -0.433  -2.240  -0.161  1.00  0.00    -0.426 OA
ATOM     21  O   UNL     1       1.488  -3.448   0.109  1.00  0.00    -0.251 OA
ATOM     22  C   UNL     1      -3.143   0.182   0.041  1.00  0.00     0.119 A 
BRANCH  22  23
ATOM     23  O   UNL     1      -4.499   0.172  -0.024  1.00  0.00    -0.508 OA
ATOM     24  H   UNL     1      -4.980   0.966   0.101  1.00  0.00     0.293 HD
ENDBRANCH  22  23
ENDBRANCH  10  11
ENDBRANCH   7  10
ENDBRANCH   5   6
BRANCH   5  25
ATOM     25  C   UNL     1      -1.630  -4.942   1.032  1.00  0.00     0.070 C 
BRANCH  25  26
ATOM     26  C   UNL     1      -1.321  -6.440   1.197  1.00  0.00    -0.037 C 
ATOM     27  C   UNL     1      -0.711  -6.903   2.296  1.00  0.00     0.001 A 
ATOM     28  C   UNL     1      -0.526  -6.942  -0.001  1.00  0.00     0.174 C 
ATOM     29  C   UNL     1      -1.115  -7.913   3.246  1.00  0.00     0.010 A 
ATOM     30  C   UNL     1       0.669  -7.101   1.784  1.00  0.00     0.065 A 
ATOM     31  N   UNL     1       0.852  -7.122   0.503  1.00  0.00    -0.280 NA
ATOM     32  C   UNL     1      -0.154  -8.434   4.035  1.00  0.00     0.001 A 
ATOM     33  C   UNL     1       1.669  -7.313   2.848  1.00  0.00     0.028 A 
ATOM     34  C   UNL     1       1.220  -7.948   3.946  1.00  0.00     0.002 A 
ENDBRANCH  25  26
ENDBRANCH   5  25
ENDBRANCH   3   5
ENDBRANCH   2   3
ENDBRANCH   1   2
BRANCH   1  35
ATOM     35  C   UNL     1      -5.137  -4.623   5.389  1.00  0.00     0.275 C 
BRANCH  35  36
ATOM     36  O   UNL     1      -5.268  -3.208   5.148  1.00  0.00    -0.458 OA
BRANCH  36  37
ATOM     37  C   UNL     1      -4.141  -2.486   5.339  1.00  0.00     0.338 C 
ATOM     38  O   UNL     1      -3.059  -2.920   5.724  1.00  0.00    -0.246 OA
BRANCH  37  39
ATOM     39  C   UNL     1      -4.314  -1.107   4.839  1.00  0.00     0.060 A 
ATOM     40  C   UNL     1      -5.435  -0.320   5.116  1.00  0.00     0.016 A 
ATOM     41  C   UNL     1      -3.267  -0.575   4.089  1.00  0.00     0.016 A 
ATOM     42  C   UNL     1      -5.512   0.995   4.615  1.00  0.00     0.010 A 
ATOM     43  C   UNL     1      -3.350   0.722   3.589  1.00  0.00     0.010 A 
ATOM     44  C   UNL     1      -4.479   1.520   3.825  1.00  0.00    -0.014 A 
BRANCH  44  45
ATOM     45  C   UNL     1      -4.476   2.923   3.320  1.00  0.00     0.031 A 
ATOM     46  C   UNL     1      -5.143   3.311   2.026  1.00  0.00     0.074 A 
ATOM     47  C   UNL     1      -3.721   3.830   3.965  1.00  0.00     0.049 A 
ATOM     48  N   UNL     1      -5.018   4.410   1.321  1.00  0.00    -0.248 NA
ATOM     49  C   UNL     1      -5.991   2.296   1.401  1.00  0.00     0.031 C 
ATOM     50  C   UNL     1      -2.974   3.579   5.196  1.00  0.00     0.029 A 
ATOM     51  N   UNL     1      -3.455   5.141   3.668  1.00  0.00    -0.354 N 
ATOM     52  C   UNL     1      -5.687   4.176   0.119  1.00  0.00     0.074 A 
ATOM     53  C   UNL     1      -6.186   2.819   0.196  1.00  0.00     0.031 C 
ATOM     54  C   UNL     1      -2.356   4.710   5.568  1.00  0.00     0.029 A 
ATOM     55  C   UNL     1      -2.664   5.762   4.602  1.00  0.00     0.049 A 
ATOM     56  H   UNL     1      -3.797   5.593   2.863  1.00  0.00     0.167 HD
ATOM     57  C   UNL     1      -5.876   5.016  -0.934  1.00  0.00     0.037 A 
ATOM     58  C   UNL     1      -2.270   7.046   4.694  1.00  0.00     0.037 A 
ATOM     59  C   UNL     1      -5.520   6.419  -0.904  1.00  0.00     0.049 A 
ATOM     60  C   UNL     1      -2.717   8.033   3.655  1.00  0.00     0.074 A 
ATOM     61  C   UNL     1      -5.815   7.405  -1.833  1.00  0.00     0.029 A 
ATOM     62  N   UNL     1      -4.843   7.046   0.132  1.00  0.00    -0.354 N 
ATOM     63  N   UNL     1      -3.367   7.813   2.537  1.00  0.00    -0.248 NA
ATOM     64  C   UNL     1      -2.405   9.446   3.904  1.00  0.00     0.031 C 
ATOM     65  C   UNL     1      -5.322   8.626  -1.356  1.00  0.00     0.029 A 
ATOM     66  C   UNL     1      -4.747   8.407  -0.115  1.00  0.00     0.049 A 
ATOM     67  H   UNL     1      -4.483   6.591   0.927  1.00  0.00     0.167 HD
ATOM     68  C   UNL     1      -3.564   9.063   1.961  1.00  0.00     0.074 A 
ATOM     69  C   UNL     1      -2.981  10.035   2.863  1.00  0.00     0.031 C 
ATOM     70  C   UNL     1      -4.173   9.373   0.789  1.00  0.00     0.037 A 
BRANCH  57  71
ATOM     71  C   UNL     1      -6.548   4.487  -2.187  1.00  0.00     0.058 A 
ATOM     72  C   UNL     1      -7.869   4.010  -2.184  1.00  0.00     0.135 A 
ATOM     73  C   UNL     1      -5.889   4.527  -3.433  1.00  0.00     0.135 A 
ATOM     74  F   UNL     1      -8.572   3.970  -1.041  1.00  0.00    -0.206 F 
ATOM     75  C   UNL     1      -8.484   3.534  -3.339  1.00  0.00     0.059 A 
ATOM     76  C   UNL     1      -6.503   4.101  -4.612  1.00  0.00     0.059 A 
ATOM     77  F   UNL     1      -4.636   5.003  -3.522  1.00  0.00    -0.206 F 
ATOM     78  C   UNL     1      -7.794   3.581  -4.550  1.00  0.00     0.060 A 
BRANCH  78  79
ATOM     79  S   UNL     1      -8.620   2.971  -6.036  1.00  0.00     0.124 S 
ATOM     80  O   UNL     1      -8.568   1.527  -5.827  1.00  0.00    -0.237 OA
ATOM     81  O   UNL     1      -9.944   3.575  -5.928  1.00  0.00    -0.237 OA
ATOM     82  O   UNL     1      -7.790   3.479  -7.123  1.00  0.00    -0.744 OA
ENDBRANCH  78  79
ENDBRANCH  57  71
BRANCH  58  83
ATOM     83  C   UNL     1      -1.551   7.478   5.915  1.00  0.00     0.058 A 
ATOM     84  C   UNL     1      -2.250   8.151   6.928  1.00  0.00     0.135 A 
ATOM     85  C   UNL     1      -0.210   7.142   6.148  1.00  0.00     0.135 A 
ATOM     86  F   UNL     1      -3.537   8.483   6.747  1.00  0.00    -0.206 F 
ATOM     87  C   UNL     1      -1.646   8.476   8.134  1.00  0.00     0.059 A 
ATOM     88  C   UNL     1       0.411   7.439   7.358  1.00  0.00     0.059 A 
ATOM     89  F   UNL     1       0.486   6.468   5.220  1.00  0.00    -0.206 F 
ATOM     90  C   UNL     1      -0.318   8.105   8.344  1.00  0.00     0.060 A 
BRANCH  90  91
ATOM     91  S   UNL     1       0.417   8.451   9.956  1.00  0.00     0.124 S 
ATOM     92  O   UNL     1       0.508   9.906   9.931  1.00  0.00    -0.237 OA
ATOM     93  O   UNL     1      -0.575   7.888  10.867  1.00  0.00    -0.237 OA
ATOM     94  O   UNL     1       1.689   7.737   9.906  1.00  0.00    -0.744 OA
ENDBRANCH  90  91
ENDBRANCH  58  83
BRANCH  70  95
ATOM     95  C   UNL     1      -4.265  10.828   0.416  1.00  0.00     0.058 A 
ATOM     96  C   UNL     1      -3.139  11.555  -0.000  1.00  0.00     0.135 A 
ATOM     97  C   UNL     1      -5.504  11.490   0.427  1.00  0.00     0.135 A 
ATOM     98  F   UNL     1      -1.930  10.973  -0.024  1.00  0.00    -0.206 F 
ATOM     99  C   UNL     1      -3.233  12.893  -0.370  1.00  0.00     0.059 A 
ATOM    100  C   UNL     1      -5.626  12.821   0.037  1.00  0.00     0.059 A 
ATOM    101  F   UNL     1      -6.615  10.840   0.809  1.00  0.00    -0.206 F 
ATOM    102  C   UNL     1      -4.482  13.517  -0.351  1.00  0.00     0.060 A 
BRANCH 102 103
ATOM    103  S   UNL     1      -4.589  15.246  -0.861  1.00  0.00     0.124 S 
ATOM    104  O   UNL     1      -3.929  15.923   0.251  1.00  0.00    -0.237 OA
ATOM    105  O   UNL     1      -3.858  15.243  -2.124  1.00  0.00    -0.237 OA
ATOM    106  O   UNL     1      -6.025  15.481  -0.974  1.00  0.00    -0.744 OA
ENDBRANCH 102 103
ENDBRANCH  70  95
ENDBRANCH  44  45
ENDBRANCH  37  39
ENDBRANCH  36  37
ENDBRANCH  35  36
ENDBRANCH   1  35
TORSDOF 20
