REMARK SMILES Cc1nn(-c2ccc(C(=O)OCCOC(=O)c3ccc(-c4c5nc(c(-c6c(F)cc(S(=O)(=O)[O-])cc6F)c6ccc([nH]6)c(-c6c(F)cc(S(=O)(=O)[O-])cc6F)c6nc(c(-c7c(F)cc(S(=O)(=O)[O-])cc7F)c7ccc4[nH]7)C=C6)C=C5)cc3)cc2)c2c1[C@@H](c1ccc[nH]c1=O)SCC(O)=N2
REMARK SMILES IDX 12 1 11 2 9 3 10 4 8 5 5 6 6 7 84 8 7 9 83 10 4 11 1 12 2 13
REMARK SMILES IDX 3 14 86 15 85 16 87 17 88 18 89 19 93 20 90 21 92 22 94 23
REMARK SMILES IDX 91 24 95 26 96 27 99 29 97 30 98 32 13 34 14 35 15 36 16 37
REMARK SMILES IDX 17 38 18 39 82 40 19 41 81 42 20 43 21 44 22 45 75 46 23 47
REMARK SMILES IDX 80 48 74 49 76 50 24 51 79 52 73 53 72 54 25 56 59 57 38 58
REMARK SMILES IDX 58 59 39 60 42 61 57 62 77 63 40 64 41 65 56 67 78 68 43 69
REMARK SMILES IDX 26 70 27 71 36 72 28 73 29 74 35 75 37 76 30 77 31 78 32 79
REMARK SMILES IDX 33 80 34 81 60 82 61 83 70 84 62 85 63 86 69 87 71 88 64 89
REMARK SMILES IDX 65 90 66 91 67 92 68 93 44 94 45 95 54 96 46 97 47 98 53 99
REMARK SMILES IDX 55 100 48 101 49 102 50 103 51 104 52 105
REMARK H PARENT 92 25 98 33 76 55 42 66
REMARK Flexibility Score: 90.00
ROOT
ATOM      1  C   UNL     1       0.205 -10.943  -2.748  1.00  0.00     0.275 C 
ENDROOT
BRANCH   1   2
ATOM      2  O   UNL     1       0.212  -9.563  -2.349  1.00  0.00    -0.458 OA
BRANCH   2   3
ATOM      3  C   UNL     1       1.150  -8.788  -2.949  1.00  0.00     0.338 C 
ATOM      4  O   UNL     1       2.080  -9.178  -3.640  1.00  0.00    -0.246 OA
BRANCH   3   5
ATOM      5  C   UNL     1       0.841  -7.354  -2.741  1.00  0.00     0.060 A 
ATOM      6  C   UNL     1       0.297  -4.628  -2.447  1.00  0.00     0.067 A 
ATOM      7  C   UNL     1       0.913  -5.094  -3.616  1.00  0.00     0.029 A 
ATOM      8  C   UNL     1      -0.048  -5.526  -1.427  1.00  0.00     0.029 A 
ATOM      9  C   UNL     1       1.207  -6.451  -3.749  1.00  0.00     0.018 A 
ATOM     10  C   UNL     1       0.194  -6.893  -1.589  1.00  0.00     0.018 A 
BRANCH   6  11
ATOM     11  N   UNL     1       0.044  -3.240  -2.270  1.00  0.00    -0.215 N 
ATOM     12  C   UNL     1       0.232  -0.498  -0.052  1.00  0.00     0.069 C 
ATOM     13  C   UNL     1       0.049  -1.382  -1.236  1.00  0.00     0.067 A 
ATOM     14  N   UNL     1       0.190  -2.692  -1.044  1.00  0.00    -0.171 NA
ATOM     15  C   UNL     1      -0.270  -1.050  -2.600  1.00  0.00     0.038 A 
ATOM     16  C   UNL     1      -0.312  -2.294  -3.235  1.00  0.00     0.164 A 
BRANCH  15  17
ATOM     17  C   UNL     1      -0.624   0.342  -3.109  1.00  0.00     0.118 C 
BRANCH  17  18
ATOM     18  C   UNL     1       0.336   1.449  -2.697  1.00  0.00     0.035 A 
ATOM     19  C   UNL     1       1.647   1.324  -2.400  1.00  0.00     0.012 A 
ATOM     20  C   UNL     1      -0.279   2.817  -2.549  1.00  0.00     0.252 A 
ATOM     21  C   UNL     1       2.430   2.439  -1.916  1.00  0.00     0.018 A 
ATOM     22  N   UNL     1       0.560   3.827  -2.142  1.00  0.00    -0.329 N 
ATOM     23  O   UNL     1      -1.466   3.040  -2.755  1.00  0.00    -0.269 OA
ATOM     24  C   UNL     1       1.875   3.650  -1.811  1.00  0.00     0.086 A 
ATOM     25  H   UNL     1       0.190   4.737  -2.083  1.00  0.00     0.169 HD
ENDBRANCH  17  18
BRANCH  17  26
ATOM     26  S   UNL     1      -0.925   0.548  -4.915  1.00  0.00    -0.139 SA
BRANCH  26  27
ATOM     27  C   UNL     1       0.159  -0.711  -5.605  1.00  0.00     0.167 CG0
ATOM     28  G   UNL     1      -0.547  -2.030  -5.511  1.00  0.00     0.000 G0
ENDBRANCH  26  27
ENDBRANCH  17  26
ENDBRANCH  15  17
BRANCH  16  29
ATOM     29  N   UNL     1      -0.735  -2.732  -4.450  1.00  0.00    -0.197 NA
ATOM     30  C   UNL     1      -0.547  -2.030  -5.511  1.00  0.00     0.197 CG0
ATOM     31  G   UNL     1       0.159  -0.711  -5.605  1.00  0.00     0.000 G0
BRANCH  30  32
ATOM     32  O   UNL     1      -1.040  -2.516  -6.665  1.00  0.00    -0.496 OA
ATOM     33  H   UNL     1      -0.926  -2.037  -7.463  1.00  0.00     0.295 HD
ENDBRANCH  30  32
ENDBRANCH  16  29
ENDBRANCH   6  11
ENDBRANCH   3   5
ENDBRANCH   2   3
ENDBRANCH   1   2
BRANCH   1  34
ATOM     34  C   UNL     1      -0.714 -11.165  -3.940  1.00  0.00     0.275 C 
BRANCH  34  35
ATOM     35  O   UNL     1      -0.174 -10.611  -5.139  1.00  0.00    -0.458 OA
BRANCH  35  36
ATOM     36  C   UNL     1      -0.668  -9.396  -5.475  1.00  0.00     0.338 C 
ATOM     37  O   UNL     1      -1.171  -8.576  -4.727  1.00  0.00    -0.246 OA
BRANCH  36  38
ATOM     38  C   UNL     1      -0.731  -9.296  -6.938  1.00  0.00     0.060 A 
ATOM     39  C   UNL     1      -1.068  -8.061  -7.501  1.00  0.00     0.016 A 
ATOM     40  C   UNL     1      -0.706 -10.470  -7.706  1.00  0.00     0.016 A 
ATOM     41  C   UNL     1      -1.496  -8.024  -8.815  1.00  0.00     0.010 A 
ATOM     42  C   UNL     1      -1.147 -10.434  -9.008  1.00  0.00     0.010 A 
ATOM     43  C   UNL     1      -1.591  -9.222  -9.532  1.00  0.00    -0.014 A 
BRANCH  43  44
ATOM     44  C   UNL     1      -2.101  -9.184 -10.889  1.00  0.00     0.031 A 
ATOM     45  C   UNL     1      -1.163  -8.608 -11.882  1.00  0.00     0.074 A 
ATOM     46  C   UNL     1      -3.249  -9.791 -11.242  1.00  0.00     0.049 A 
ATOM     47  N   UNL     1      -1.319  -7.553 -12.610  1.00  0.00    -0.248 NA
ATOM     48  C   UNL     1       0.172  -9.219 -11.990  1.00  0.00     0.031 C 
ATOM     49  C   UNL     1      -4.102 -10.663 -10.430  1.00  0.00     0.029 A 
ATOM     50  N   UNL     1      -3.833  -9.845 -12.468  1.00  0.00    -0.354 N 
ATOM     51  C   UNL     1      -0.185  -7.473 -13.411  1.00  0.00     0.074 A 
ATOM     52  C   UNL     1       0.761  -8.418 -12.876  1.00  0.00     0.031 C 
ATOM     53  C   UNL     1      -4.953 -11.328 -11.244  1.00  0.00     0.029 A 
ATOM     54  C   UNL     1      -4.786 -10.844 -12.604  1.00  0.00     0.049 A 
ATOM     55  H   UNL     1      -3.599  -9.227 -13.198  1.00  0.00     0.167 HD
ATOM     56  C   UNL     1      -0.179  -6.785 -14.585  1.00  0.00     0.037 A 
ATOM     57  C   UNL     1      -5.325 -11.284 -13.770  1.00  0.00     0.037 A 
ATOM     58  C   UNL     1      -1.299  -5.887 -14.682  1.00  0.00     0.049 A 
ATOM     59  C   UNL     1      -5.094 -10.223 -14.790  1.00  0.00     0.074 A 
ATOM     60  C   UNL     1      -1.745  -4.818 -13.928  1.00  0.00     0.029 A 
ATOM     61  N   UNL     1      -2.367  -6.266 -15.461  1.00  0.00    -0.354 N 
ATOM     62  N   UNL     1      -5.669  -9.051 -14.767  1.00  0.00    -0.248 NA
ATOM     63  C   UNL     1      -3.878 -10.299 -15.590  1.00  0.00     0.031 C 
ATOM     64  C   UNL     1      -3.166  -4.930 -13.931  1.00  0.00     0.029 A 
ATOM     65  C   UNL     1      -3.502  -6.027 -14.726  1.00  0.00     0.049 A 
ATOM     66  H   UNL     1      -2.326  -6.638 -16.371  1.00  0.00     0.167 HD
ATOM     67  C   UNL     1      -4.688  -8.161 -15.184  1.00  0.00     0.074 A 
ATOM     68  C   UNL     1      -3.641  -8.996 -15.768  1.00  0.00     0.031 C 
ATOM     69  C   UNL     1      -4.684  -6.860 -14.767  1.00  0.00     0.037 A 
BRANCH  56  70
ATOM     70  C   UNL     1       0.662  -7.164 -15.775  1.00  0.00     0.058 A 
ATOM     71  C   UNL     1       0.809  -6.258 -16.844  1.00  0.00     0.135 A 
ATOM     72  C   UNL     1       1.108  -8.482 -16.021  1.00  0.00     0.135 A 
ATOM     73  F   UNL     1       0.402  -4.985 -16.721  1.00  0.00    -0.206 F 
ATOM     74  C   UNL     1       1.307  -6.650 -18.087  1.00  0.00     0.059 A 
ATOM     75  C   UNL     1       1.661  -8.879 -17.232  1.00  0.00     0.059 A 
ATOM     76  F   UNL     1       0.933  -9.470 -15.134  1.00  0.00    -0.206 F 
ATOM     77  C   UNL     1       1.716  -7.968 -18.273  1.00  0.00     0.060 A 
BRANCH  77  78
ATOM     78  S   UNL     1       2.248  -8.508 -19.907  1.00  0.00     0.124 S 
ATOM     79  O   UNL     1       0.986  -8.502 -20.638  1.00  0.00    -0.237 OA
ATOM     80  O   UNL     1       3.205  -7.470 -20.274  1.00  0.00    -0.237 OA
ATOM     81  O   UNL     1       2.826  -9.824 -19.653  1.00  0.00    -0.744 OA
ENDBRANCH  77  78
ENDBRANCH  56  70
BRANCH  57  82
ATOM     82  C   UNL     1      -5.737 -12.668 -14.127  1.00  0.00     0.058 A 
ATOM     83  C   UNL     1      -6.482 -12.928 -15.291  1.00  0.00     0.135 A 
ATOM     84  C   UNL     1      -5.185 -13.795 -13.483  1.00  0.00     0.135 A 
ATOM     85  F   UNL     1      -7.026 -11.916 -15.984  1.00  0.00    -0.206 F 
ATOM     86  C   UNL     1      -6.628 -14.219 -15.812  1.00  0.00     0.059 A 
ATOM     87  C   UNL     1      -5.330 -15.091 -13.974  1.00  0.00     0.059 A 
ATOM     88  F   UNL     1      -4.401 -13.665 -12.403  1.00  0.00    -0.206 F 
ATOM     89  C   UNL     1      -6.029 -15.293 -15.156  1.00  0.00     0.060 A 
BRANCH  89  90
ATOM     90  S   UNL     1      -6.051 -16.931 -15.921  1.00  0.00     0.124 S 
ATOM     91  O   UNL     1      -7.453 -17.311 -15.783  1.00  0.00    -0.237 OA
ATOM     92  O   UNL     1      -5.599 -16.643 -17.278  1.00  0.00    -0.237 OA
ATOM     93  O   UNL     1      -5.113 -17.699 -15.106  1.00  0.00    -0.744 OA
ENDBRANCH  89  90
ENDBRANCH  57  82
BRANCH  69  94
ATOM     94  C   UNL     1      -5.910  -6.330 -14.068  1.00  0.00     0.058 A 
ATOM     95  C   UNL     1      -6.391  -6.818 -12.839  1.00  0.00     0.135 A 
ATOM     96  C   UNL     1      -6.530  -5.182 -14.584  1.00  0.00     0.135 A 
ATOM     97  F   UNL     1      -5.785  -7.839 -12.218  1.00  0.00    -0.206 F 
ATOM     98  C   UNL     1      -7.467  -6.223 -12.179  1.00  0.00     0.059 A 
ATOM     99  C   UNL     1      -7.584  -4.552 -13.927  1.00  0.00     0.059 A 
ATOM    100  F   UNL     1      -6.075  -4.625 -15.719  1.00  0.00    -0.206 F 
ATOM    101  C   UNL     1      -8.058  -5.088 -12.732  1.00  0.00     0.060 A 
BRANCH 101 102
ATOM    102  S   UNL     1      -9.399  -4.273 -11.838  1.00  0.00     0.124 S 
ATOM    103  O   UNL     1     -10.512  -5.191 -12.052  1.00  0.00    -0.237 OA
ATOM    104  O   UNL     1      -8.881  -4.210 -10.474  1.00  0.00    -0.237 OA
ATOM    105  O   UNL     1      -9.517  -2.980 -12.508  1.00  0.00    -0.744 OA
ENDBRANCH 101 102
ENDBRANCH  69  94
ENDBRANCH  43  44
ENDBRANCH  36  38
ENDBRANCH  35  36
ENDBRANCH  34  35
ENDBRANCH   1  34
TORSDOF 17
