REMARK SMILES CCOc1cc(OCC)cc(-c2ccc([C@@H](C)C(=O)OCCOC(=O)c3ccc(-c4c5nc(c(-c6c(F)cc(S(=O)(=O)[O-])cc6F)c6ccc([nH]6)c(-c6c(F)cc(S(=O)(=O)[O-])cc6F)c6nc(c(-c7c(F)cc(S(=O)(=O)[O-])cc7F)c7ccc4[nH]7)C=C6)C=C5)cc3)cc2F)c1
REMARK SMILES IDX 21 1 20 2 18 3 19 4 16 5 17 6 15 7 12 8 13 9 93 10 14 11
REMARK SMILES IDX 92 12 94 13 11 14 4 15 5 16 95 17 6 18 10 19 3 20 2 21 1 22
REMARK SMILES IDX 7 23 8 24 9 25 22 26 23 27 24 28 25 29 26 30 27 31 91 32
REMARK SMILES IDX 28 33 90 34 29 35 30 36 31 37 84 38 32 39 89 40 83 41 85 42
REMARK SMILES IDX 33 43 88 44 82 45 81 46 34 48 68 49 47 50 67 51 48 52 51 53
REMARK SMILES IDX 66 54 86 55 49 56 50 57 65 59 87 60 52 61 35 62 36 63 45 64
REMARK SMILES IDX 37 65 38 66 44 67 46 68 39 69 40 70 41 71 42 72 43 73 69 74
REMARK SMILES IDX 70 75 79 76 71 77 72 78 78 79 80 80 73 81 74 82 75 83 76 84
REMARK SMILES IDX 77 85 53 86 54 87 63 88 55 89 56 90 62 91 64 92 57 93 58 94
REMARK SMILES IDX 59 95 60 96 61 97
REMARK H PARENT 85 47 51 58
REMARK Flexibility Score: inf
ROOT
ATOM      1  C   UNL     1       8.502   3.317  -2.855  1.00  0.00     0.274 C 
ENDROOT
BRANCH   1   2
ATOM      2  O   UNL     1       8.427   2.903  -1.477  1.00  0.00    -0.462 OA
BRANCH   2   3
ATOM      3  C   UNL     1       8.705   3.844  -0.536  1.00  0.00     0.313 C 
ATOM      4  O   UNL     1       9.084   4.982  -0.791  1.00  0.00    -0.252 OA
BRANCH   3   5
ATOM      5  C   UNL     1       8.565   3.336   0.897  1.00  0.00     0.126 C 
ATOM      6  C   UNL     1       9.939   2.963   1.451  1.00  0.00     0.025 C 
BRANCH   5   7
ATOM      7  C   UNL     1       7.542   2.230   1.112  1.00  0.00    -0.031 A 
ATOM      8  C   UNL     1       5.612   0.189   1.555  1.00  0.00     0.018 A 
ATOM      9  C   UNL     1       6.784  -0.063   0.822  1.00  0.00     0.012 A 
ATOM     10  C   UNL     1       5.421   1.484   2.043  1.00  0.00     0.131 A 
ATOM     11  C   UNL     1       7.735   0.937   0.608  1.00  0.00     0.005 A 
ATOM     12  C   UNL     1       6.371   2.485   1.841  1.00  0.00     0.044 A 
ATOM     13  F   UNL     1       4.328   1.785   2.761  1.00  0.00    -0.206 F 
BRANCH   8  14
ATOM     14  C   UNL     1       4.667  -0.900   1.838  1.00  0.00    -0.008 A 
ATOM     15  C   UNL     1       2.445  -1.869   1.799  1.00  0.00     0.123 A 
ATOM     16  C   UNL     1       2.930  -3.036   2.392  1.00  0.00     0.092 A 
ATOM     17  C   UNL     1       3.302  -0.798   1.546  1.00  0.00     0.055 A 
ATOM     18  C   UNL     1       4.280  -3.146   2.722  1.00  0.00     0.123 A 
ATOM     19  C   UNL     1       5.136  -2.083   2.435  1.00  0.00     0.055 A 
BRANCH  15  20
ATOM     20  O   UNL     1       1.097  -1.772   1.593  1.00  0.00    -0.494 OA
BRANCH  20  21
ATOM     21  C   UNL     1       0.729  -1.676   0.212  1.00  0.00     0.226 C 
ATOM     22  C   UNL     1       0.504  -0.234  -0.215  1.00  0.00     0.049 C 
ENDBRANCH  20  21
ENDBRANCH  15  20
BRANCH  18  23
ATOM     23  O   UNL     1       4.665  -4.330   3.293  1.00  0.00    -0.494 OA
BRANCH  23  24
ATOM     24  C   UNL     1       5.893  -4.336   4.026  1.00  0.00     0.226 C 
ATOM     25  C   UNL     1       7.056  -4.767   3.147  1.00  0.00     0.049 C 
ENDBRANCH  23  24
ENDBRANCH  18  23
ENDBRANCH   8  14
ENDBRANCH   5   7
ENDBRANCH   3   5
ENDBRANCH   2   3
ENDBRANCH   1   2
BRANCH   1  26
ATOM     26  C   UNL     1       7.106   3.493  -3.453  1.00  0.00     0.275 C 
BRANCH  26  27
ATOM     27  O   UNL     1       6.420   4.600  -2.840  1.00  0.00    -0.458 OA
BRANCH  27  28
ATOM     28  C   UNL     1       5.518   4.261  -1.890  1.00  0.00     0.338 C 
ATOM     29  O   UNL     1       5.186   3.139  -1.550  1.00  0.00    -0.246 OA
BRANCH  28  30
ATOM     30  C   UNL     1       5.067   5.475  -1.192  1.00  0.00     0.060 A 
ATOM     31  C   UNL     1       5.494   5.659   0.122  1.00  0.00     0.016 A 
ATOM     32  C   UNL     1       4.182   6.377  -1.782  1.00  0.00     0.016 A 
ATOM     33  C   UNL     1       5.019   6.729   0.871  1.00  0.00     0.010 A 
ATOM     34  C   UNL     1       3.720   7.469  -1.035  1.00  0.00     0.010 A 
ATOM     35  C   UNL     1       4.124   7.643   0.301  1.00  0.00    -0.014 A 
BRANCH  35  36
ATOM     36  C   UNL     1       3.614   8.759   1.133  1.00  0.00     0.031 A 
ATOM     37  C   UNL     1       2.204   8.737   1.652  1.00  0.00     0.074 A 
ATOM     38  C   UNL     1       4.445   9.763   1.474  1.00  0.00     0.049 A 
ATOM     39  N   UNL     1       1.587   9.613   2.403  1.00  0.00    -0.248 NA
ATOM     40  C   UNL     1       1.379   7.579   1.276  1.00  0.00     0.031 C 
ATOM     41  C   UNL     1       5.843   9.879   1.053  1.00  0.00     0.029 A 
ATOM     42  N   UNL     1       4.241  10.866   2.263  1.00  0.00    -0.354 N 
ATOM     43  C   UNL     1       0.299   9.122   2.580  1.00  0.00     0.074 A 
ATOM     44  C   UNL     1       0.217   7.880   1.841  1.00  0.00     0.031 C 
ATOM     45  C   UNL     1       6.376  10.981   1.605  1.00  0.00     0.029 A 
ATOM     46  C   UNL     1       5.351  11.666   2.388  1.00  0.00     0.049 A 
ATOM     47  H   UNL     1       3.381  11.066   2.699  1.00  0.00     0.167 HD
ATOM     48  C   UNL     1      -0.719   9.657   3.298  1.00  0.00     0.037 A 
ATOM     49  C   UNL     1       5.522  12.825   3.052  1.00  0.00     0.037 A 
ATOM     50  C   UNL     1      -0.629  10.886   4.045  1.00  0.00     0.049 A 
ATOM     51  C   UNL     1       4.373  13.403   3.829  1.00  0.00     0.074 A 
ATOM     52  C   UNL     1      -1.605  11.506   4.807  1.00  0.00     0.029 A 
ATOM     53  N   UNL     1       0.504  11.681   4.128  1.00  0.00    -0.354 N 
ATOM     54  N   UNL     1       3.158  12.930   3.977  1.00  0.00    -0.248 NA
ATOM     55  C   UNL     1       4.618  14.671   4.528  1.00  0.00     0.031 C 
ATOM     56  C   UNL     1      -1.070  12.691   5.327  1.00  0.00     0.029 A 
ATOM     57  C   UNL     1       0.250  12.792   4.918  1.00  0.00     0.049 A 
ATOM     58  H   UNL     1       1.364  11.486   3.689  1.00  0.00     0.167 HD
ATOM     59  C   UNL     1       2.495  13.839   4.794  1.00  0.00     0.074 A 
ATOM     60  C   UNL     1       3.452  14.876   5.126  1.00  0.00     0.031 C 
ATOM     61  C   UNL     1       1.210  13.820   5.227  1.00  0.00     0.037 A 
BRANCH  48  62
ATOM     62  C   UNL     1      -2.030   8.922   3.288  1.00  0.00     0.058 A 
ATOM     63  C   UNL     1      -2.219   7.737   4.015  1.00  0.00     0.135 A 
ATOM     64  C   UNL     1      -3.119   9.423   2.556  1.00  0.00     0.135 A 
ATOM     65  F   UNL     1      -1.205   7.206   4.717  1.00  0.00    -0.206 F 
ATOM     66  C   UNL     1      -3.434   7.059   3.997  1.00  0.00     0.059 A 
ATOM     67  C   UNL     1      -4.350   8.773   2.541  1.00  0.00     0.059 A 
ATOM     68  F   UNL     1      -2.991  10.552   1.842  1.00  0.00    -0.206 F 
ATOM     69  C   UNL     1      -4.493   7.583   3.253  1.00  0.00     0.060 A 
BRANCH  69  70
ATOM     70  S   UNL     1      -6.065   6.695   3.233  1.00  0.00     0.124 S 
ATOM     71  O   UNL     1      -5.767   5.597   2.318  1.00  0.00    -0.237 OA
ATOM     72  O   UNL     1      -6.237   6.323   4.634  1.00  0.00    -0.237 OA
ATOM     73  O   UNL     1      -7.010   7.689   2.733  1.00  0.00    -0.744 OA
ENDBRANCH  69  70
ENDBRANCH  48  62
BRANCH  49  74
ATOM     74  C   UNL     1       6.837  13.515   3.006  1.00  0.00     0.058 A 
ATOM     75  C   UNL     1       7.676  13.552   4.128  1.00  0.00     0.135 A 
ATOM     76  C   UNL     1       7.285  14.140   1.831  1.00  0.00     0.135 A 
ATOM     77  F   UNL     1       7.286  12.976   5.276  1.00  0.00    -0.206 F 
ATOM     78  C   UNL     1       8.911  14.191   4.093  1.00  0.00     0.059 A 
ATOM     79  C   UNL     1       8.525  14.765   1.764  1.00  0.00     0.059 A 
ATOM     80  F   UNL     1       6.522  14.121   0.727  1.00  0.00    -0.206 F 
ATOM     81  C   UNL     1       9.328  14.793   2.904  1.00  0.00     0.060 A 
BRANCH  81  82
ATOM     82  S   UNL     1      10.957  15.569   2.844  1.00  0.00     0.124 S 
ATOM     83  O   UNL     1      10.703  16.838   3.514  1.00  0.00    -0.237 OA
ATOM     84  O   UNL     1      11.784  14.614   3.576  1.00  0.00    -0.237 OA
ATOM     85  O   UNL     1      11.233  15.652   1.413  1.00  0.00    -0.744 OA
ENDBRANCH  81  82
ENDBRANCH  49  74
BRANCH  61  86
ATOM     86  C   UNL     1       0.779  14.954   6.114  1.00  0.00     0.058 A 
ATOM     87  C   UNL     1       0.551  16.240   5.600  1.00  0.00     0.135 A 
ATOM     88  C   UNL     1       0.599  14.754   7.492  1.00  0.00     0.135 A 
ATOM     89  F   UNL     1       0.715  16.483   4.290  1.00  0.00    -0.206 F 
ATOM     90  C   UNL     1       0.198  17.301   6.429  1.00  0.00     0.059 A 
ATOM     91  C   UNL     1       0.225  15.796   8.335  1.00  0.00     0.059 A 
ATOM     92  F   UNL     1       0.794  13.540   8.031  1.00  0.00    -0.206 F 
ATOM     93  C   UNL     1       0.048  17.070   7.797  1.00  0.00     0.060 A 
BRANCH  93  94
ATOM     94  S   UNL     1      -0.396  18.452   8.871  1.00  0.00     0.124 S 
ATOM     95  O   UNL     1       0.893  19.113   9.045  1.00  0.00    -0.237 OA
ATOM     96  O   UNL     1      -1.376  19.178   8.068  1.00  0.00    -0.237 OA
ATOM     97  O   UNL     1      -0.934  17.796  10.059  1.00  0.00    -0.744 OA
ENDBRANCH  93  94
ENDBRANCH  61  86
ENDBRANCH  35  36
ENDBRANCH  28  30
ENDBRANCH  27  28
ENDBRANCH  26  27
ENDBRANCH   1  26
TORSDOF 20
