REMARK SMILES CC1(C)[C@H](C(=O)OCCOC(=O)c2ccc(-c3c4nc(c(-c5c(F)cc(S(=O)(=O)[O-])cc5F)c5ccc([nH]5)c(-c5c(F)cc(S(=O)(=O)[O-])cc5F)c5nc(c(-c6c(F)cc(S(=O)(=O)[O-])cc6F)c6ccc3[nH]6)C=C5)C=C4)cc2)[C@@H]1c1nc2ccc(F)cc2s1
REMARK SMILES IDX 9 1 8 2 7 3 5 4 6 5 4 6 1 7 2 8 3 9 79 10 80 11 81 12 89 13
REMARK SMILES IDX 82 14 88 15 83 16 87 17 84 18 85 19 86 20 10 21 11 22 12 23
REMARK SMILES IDX 13 24 14 25 78 26 15 27 77 28 16 29 17 30 18 31 71 32 19 33
REMARK SMILES IDX 76 34 70 35 72 36 20 37 75 38 69 39 68 40 21 42 55 43 34 44
REMARK SMILES IDX 54 45 35 46 38 47 53 48 73 49 36 50 37 51 52 53 74 54 39 55
REMARK SMILES IDX 22 56 23 57 32 58 24 59 25 60 31 61 33 62 26 63 27 64 28 65
REMARK SMILES IDX 29 66 30 67 56 68 57 69 66 70 58 71 59 72 65 73 67 74 60 75
REMARK SMILES IDX 61 76 62 77 63 78 64 79 40 80 41 81 50 82 42 83 43 84 49 85
REMARK SMILES IDX 51 86 44 87 45 88 46 89 47 90 48 91
REMARK H PARENT 72 41 38 52
REMARK Flexibility Score: inf
ROOT
ATOM      1  C   UNL     1      -1.701   2.854  -3.707  1.00  0.00     0.275 C 
ENDROOT
BRANCH   1   2
ATOM      2  C   UNL     1      -2.248   2.990  -2.284  1.00  0.00     0.274 C 
BRANCH   2   3
ATOM      3  O   UNL     1      -1.499   2.166  -1.374  1.00  0.00    -0.462 OA
BRANCH   3   4
ATOM      4  C   UNL     1      -2.110   1.032  -0.954  1.00  0.00     0.310 C 
ATOM      5  O   UNL     1      -3.263   0.715  -1.209  1.00  0.00    -0.252 OA
BRANCH   4   6
ATOM      6  C   UNL     1      -1.233   0.093  -0.211  1.00  0.00     0.116 C 
ATOM      7  C   UNL     1       1.054  -0.961   0.243  1.00  0.00     0.013 C 
ATOM      8  C   UNL     1       0.186   0.283   0.304  1.00  0.00    -0.011 C 
ATOM      9  C   UNL     1       0.982   1.520  -0.018  1.00  0.00     0.013 C 
ATOM     10  C   UNL     1      -0.986   0.266   1.272  1.00  0.00     0.070 C 
BRANCH  10  11
ATOM     11  C   UNL     1      -1.688   1.433   1.959  1.00  0.00     0.098 A 
ATOM     12  N   UNL     1      -2.919   1.240   2.373  1.00  0.00    -0.241 NA
ATOM     13  S   UNL     1      -1.052   2.990   2.226  1.00  0.00    -0.118 S 
ATOM     14  C   UNL     1      -3.474   2.441   2.759  1.00  0.00     0.082 A 
ATOM     15  C   UNL     1      -2.589   3.521   2.786  1.00  0.00     0.057 A 
ATOM     16  C   UNL     1      -4.824   2.654   3.105  1.00  0.00     0.033 A 
ATOM     17  C   UNL     1      -2.991   4.800   3.197  1.00  0.00     0.060 A 
ATOM     18  C   UNL     1      -5.245   3.933   3.481  1.00  0.00     0.041 A 
ATOM     19  C   UNL     1      -4.331   4.976   3.534  1.00  0.00     0.124 A 
ATOM     20  F   UNL     1      -4.751   6.192   3.909  1.00  0.00    -0.207 F 
ENDBRANCH  10  11
ENDBRANCH   4   6
ENDBRANCH   3   4
ENDBRANCH   2   3
ENDBRANCH   1   2
BRANCH   1  21
ATOM     21  O   UNL     1      -1.917   1.534  -4.240  1.00  0.00    -0.458 OA
BRANCH  21  22
ATOM     22  C   UNL     1      -0.915   0.653  -4.013  1.00  0.00     0.338 C 
ATOM     23  O   UNL     1       0.136   0.860  -3.430  1.00  0.00    -0.246 OA
BRANCH  22  24
ATOM     24  C   UNL     1      -1.307  -0.679  -4.493  1.00  0.00     0.060 A 
ATOM     25  C   UNL     1      -1.508  -1.689  -3.551  1.00  0.00     0.016 A 
ATOM     26  C   UNL     1      -1.365  -0.959  -5.857  1.00  0.00     0.016 A 
ATOM     27  C   UNL     1      -1.748  -2.995  -3.963  1.00  0.00     0.010 A 
ATOM     28  C   UNL     1      -1.617  -2.270  -6.272  1.00  0.00     0.010 A 
ATOM     29  C   UNL     1      -1.791  -3.298  -5.328  1.00  0.00    -0.014 A 
BRANCH  29  30
ATOM     30  C   UNL     1      -1.958  -4.702  -5.771  1.00  0.00     0.031 A 
ATOM     31  C   UNL     1      -0.790  -5.430  -6.373  1.00  0.00     0.074 A 
ATOM     32  C   UNL     1      -3.147  -5.316  -5.629  1.00  0.00     0.049 A 
ATOM     33  N   UNL     1      -0.757  -6.598  -6.958  1.00  0.00    -0.248 NA
ATOM     34  C   UNL     1       0.513  -4.750  -6.310  1.00  0.00     0.031 C 
ATOM     35  C   UNL     1      -4.332  -4.727  -5.004  1.00  0.00     0.029 A 
ATOM     36  N   UNL     1      -3.557  -6.567  -6.014  1.00  0.00    -0.354 N 
ATOM     37  C   UNL     1       0.559  -6.781  -7.363  1.00  0.00     0.074 A 
ATOM     38  C   UNL     1       1.294  -5.601  -6.961  1.00  0.00     0.031 C 
ATOM     39  C   UNL     1      -5.340  -5.614  -5.056  1.00  0.00     0.029 A 
ATOM     40  C   UNL     1      -4.887  -6.807  -5.766  1.00  0.00     0.049 A 
ATOM     41  H   UNL     1      -2.957  -7.229  -6.427  1.00  0.00     0.167 HD
ATOM     42  C   UNL     1       1.099  -7.839  -8.014  1.00  0.00     0.037 A 
ATOM     43  C   UNL     1      -5.663  -7.854  -6.109  1.00  0.00     0.037 A 
ATOM     44  C   UNL     1       0.359  -9.015  -8.390  1.00  0.00     0.049 A 
ATOM     45  C   UNL     1      -5.053  -8.995  -6.876  1.00  0.00     0.074 A 
ATOM     46  C   UNL     1       0.810 -10.141  -9.056  1.00  0.00     0.029 A 
ATOM     47  N   UNL     1      -0.988  -9.218  -8.127  1.00  0.00    -0.354 N 
ATOM     48  N   UNL     1      -3.814  -9.143  -7.284  1.00  0.00    -0.248 NA
ATOM     49  C   UNL     1      -5.943 -10.107  -7.237  1.00  0.00     0.031 C 
ATOM     50  C   UNL     1      -0.273 -11.012  -9.223  1.00  0.00     0.029 A 
ATOM     51  C   UNL     1      -1.388 -10.446  -8.625  1.00  0.00     0.049 A 
ATOM     52  H   UNL     1      -1.574  -8.582  -7.656  1.00  0.00     0.167 HD
ATOM     53  C   UNL     1      -3.770 -10.375  -7.926  1.00  0.00     0.074 A 
ATOM     54  C   UNL     1      -5.106 -10.933  -7.851  1.00  0.00     0.031 C 
ATOM     55  C   UNL     1      -2.719 -10.990  -8.521  1.00  0.00     0.037 A 
BRANCH  42  56
ATOM     56  C   UNL     1       2.551  -7.755  -8.393  1.00  0.00     0.058 A 
ATOM     57  C   UNL     1       3.574  -7.885  -7.442  1.00  0.00     0.135 A 
ATOM     58  C   UNL     1       2.923  -7.567  -9.735  1.00  0.00     0.135 A 
ATOM     59  F   UNL     1       3.274  -8.048  -6.144  1.00  0.00    -0.206 F 
ATOM     60  C   UNL     1       4.916  -7.807  -7.803  1.00  0.00     0.059 A 
ATOM     61  C   UNL     1       4.258  -7.508 -10.122  1.00  0.00     0.059 A 
ATOM     62  F   UNL     1       1.983  -7.434 -10.684  1.00  0.00    -0.206 F 
ATOM     63  C   UNL     1       5.248  -7.614  -9.146  1.00  0.00     0.060 A 
BRANCH  63  64
ATOM     64  S   UNL     1       6.992  -7.510  -9.601  1.00  0.00     0.124 S 
ATOM     65  O   UNL     1       7.334  -6.169  -9.136  1.00  0.00    -0.237 OA
ATOM     66  O   UNL     1       7.581  -8.611  -8.846  1.00  0.00    -0.237 OA
ATOM     67  O   UNL     1       6.976  -7.686 -11.050  1.00  0.00    -0.744 OA
ENDBRANCH  63  64
ENDBRANCH  42  56
BRANCH  43  68
ATOM     68  C   UNL     1      -7.106  -7.852  -5.754  1.00  0.00     0.058 A 
ATOM     69  C   UNL     1      -7.609  -8.713  -4.769  1.00  0.00     0.135 A 
ATOM     70  C   UNL     1      -8.005  -6.971  -6.376  1.00  0.00     0.135 A 
ATOM     71  F   UNL     1      -6.791  -9.579  -4.153  1.00  0.00    -0.206 F 
ATOM     72  C   UNL     1      -8.956  -8.708  -4.418  1.00  0.00     0.059 A 
ATOM     73  C   UNL     1      -9.350  -6.931  -6.025  1.00  0.00     0.059 A 
ATOM     74  F   UNL     1      -7.569  -6.119  -7.317  1.00  0.00    -0.206 F 
ATOM     75  C   UNL     1      -9.818  -7.810  -5.050  1.00  0.00     0.060 A 
BRANCH  75  76
ATOM     76  S   UNL     1     -11.553  -7.772  -4.550  1.00  0.00     0.124 S 
ATOM     77  O   UNL     1     -12.072  -8.969  -5.200  1.00  0.00    -0.237 OA
ATOM     78  O   UNL     1     -11.457  -7.826  -3.094  1.00  0.00    -0.237 OA
ATOM     79  O   UNL     1     -12.029  -6.502  -5.091  1.00  0.00    -0.744 OA
ENDBRANCH  75  76
ENDBRANCH  43  68
BRANCH  55  80
ATOM     80  C   UNL     1      -2.952 -12.358  -9.097  1.00  0.00     0.058 A 
ATOM     81  C   UNL     1      -3.618 -12.540 -10.317  1.00  0.00     0.135 A 
ATOM     82  C   UNL     1      -2.433 -13.492  -8.452  1.00  0.00     0.135 A 
ATOM     83  F   UNL     1      -4.139 -11.488 -10.967  1.00  0.00    -0.206 F 
ATOM     84  C   UNL     1      -3.771 -13.805 -10.876  1.00  0.00     0.059 A 
ATOM     85  C   UNL     1      -2.555 -14.763  -9.003  1.00  0.00     0.059 A 
ATOM     86  F   UNL     1      -1.780 -13.367  -7.286  1.00  0.00    -0.206 F 
ATOM     87  C   UNL     1      -3.232 -14.910 -10.213  1.00  0.00     0.060 A 
BRANCH  87  88
ATOM     88  S   UNL     1      -3.385 -16.540 -10.976  1.00  0.00     0.124 S 
ATOM     89  O   UNL     1      -4.780 -16.864 -10.697  1.00  0.00    -0.237 OA
ATOM     90  O   UNL     1      -3.064 -16.265 -12.373  1.00  0.00    -0.237 OA
ATOM     91  O   UNL     1      -2.398 -17.343 -10.260  1.00  0.00    -0.744 OA
ENDBRANCH  87  88
ENDBRANCH  55  80
ENDBRANCH  29  30
ENDBRANCH  22  24
ENDBRANCH  21  22
ENDBRANCH   1  21
TORSDOF 15
