REMARK SMILES O=C(CCC(=O)N1c2ccccc2NC2=C(C(=O)C[C@H](c3ccco3)C2)[C@H]1c1cccs1)OCCOC(=O)c1ccc(-c2c3nc(c(-c4c(F)cc(S(=O)(=O)[O-])cc4F)c4ccc([nH]4)c(-c4c(F)cc(S(=O)(=O)[O-])cc4F)c4nc(c(-c5c(F)cc(S(=O)(=O)[O-])cc5F)c5ccc2[nH]5)C=C4)C=C3)cc1
REMARK SMILES IDX 1 1 2 2 3 3 4 4 5 5 6 6 7 7 8 8 9 9 13 10 10 11 12 12 11 13
REMARK SMILES IDX 14 14 15 16 16 17 26 18 17 19 20 21 18 22 19 23 21 24 22 25
REMARK SMILES IDX 25 26 23 27 24 28 27 29 28 31 29 32 32 33 30 34 31 35 33 36
REMARK SMILES IDX 34 37 35 38 36 39 37 40 38 41 39 42 40 43 104 44 41 45
REMARK SMILES IDX 103 46 42 47 43 48 44 49 97 50 45 51 102 52 96 53 98 54
REMARK SMILES IDX 46 55 101 56 95 57 94 58 47 60 81 61 60 62 80 63 61 64 64 65
REMARK SMILES IDX 79 66 99 67 62 68 63 69 78 71 100 72 65 73 48 74 49 75 58 76
REMARK SMILES IDX 50 77 51 78 57 79 59 80 52 81 53 82 54 83 55 84 56 85 82 86
REMARK SMILES IDX 83 87 92 88 84 89 85 90 91 91 93 92 86 93 87 94 88 95 89 96
REMARK SMILES IDX 90 97 66 98 67 99 76 100 68 101 69 102 75 103 77 104 70 105
REMARK SMILES IDX 71 106 72 107 73 108 74 109
REMARK H PARENT 14 15 98 59 64 70
REMARK Flexibility Score: 80.00
ROOT
ATOM      1  O   UNL     1       1.602  -0.083  -0.956  1.00  0.00    -0.252 OA
ATOM      2  C   UNL     1       2.825  -0.199  -1.000  1.00  0.00     0.306 C 
ENDROOT
BRANCH   2   3
ATOM      3  C   UNL     1       3.659   0.791  -1.745  1.00  0.00     0.132 C 
BRANCH   3   4
ATOM      4  C   UNL     1       3.801   2.027  -0.890  1.00  0.00     0.112 C 
BRANCH   4   5
ATOM      5  C   UNL     1       4.858   1.877   0.187  1.00  0.00     0.228 C 
ATOM      6  O   UNL     1       6.049   1.950  -0.135  1.00  0.00    -0.274 OA
BRANCH   5   7
ATOM      7  N   UNL     1       4.476   1.758   1.515  1.00  0.00    -0.298 N 
BRANCH   7   8
ATOM      8  C   UNL     1       3.326   1.058   1.962  1.00  0.00     0.068 A 
ATOM      9  C   UNL     1       3.461  -0.251   2.444  1.00  0.00     0.028 A 
ATOM     10  C   UNL     1       2.084   1.690   2.012  1.00  0.00     0.062 A 
ATOM     11  C   UNL     1       2.345  -0.968   2.874  1.00  0.00     0.002 A 
ATOM     12  C   UNL     1       0.961   0.952   2.414  1.00  0.00     0.028 A 
ATOM     13  C   UNL     1       1.088  -0.374   2.832  1.00  0.00     0.002 A 
BRANCH  10  14
ATOM     14  N   UNL     1       1.959   3.074   1.819  1.00  0.00    -0.357 N 
ATOM     15  H   UNL     1       1.222   3.390   1.247  1.00  0.00     0.166 HD
BRANCH  14  16
ATOM     16  C   UNL     1       2.797   4.029   2.373  1.00  0.00     0.025 C 
ATOM     17  C   UNL     1       4.119   3.909   2.676  1.00  0.00     0.043 CG0
ATOM     18  C   UNL     1       2.013   5.271   2.791  1.00  0.00     0.066 C 
ATOM     19  C   UNL     1       4.825   5.093   3.282  1.00  0.00     0.163 C 
ATOM     20  G   UNL     1       5.069   2.733   2.437  1.00  0.00     0.000 G0
ATOM     21  C   UNL     1       2.594   5.917   4.051  1.00  0.00     0.069 C 
ATOM     22  O   UNL     1       6.052   5.114   3.383  1.00  0.00    -0.294 OA
ATOM     23  C   UNL     1       4.026   6.302   3.711  1.00  0.00     0.093 C 
BRANCH  21  24
ATOM     24  C   UNL     1       2.529   5.027   5.268  1.00  0.00     0.107 A 
ATOM     25  C   UNL     1       3.217   5.006   6.465  1.00  0.00     0.046 A 
ATOM     26  O   UNL     1       1.670   3.965   5.223  1.00  0.00    -0.469 OA
ATOM     27  C   UNL     1       2.797   3.844   7.155  1.00  0.00     0.042 A 
ATOM     28  C   UNL     1       1.856   3.243   6.355  1.00  0.00     0.195 A 
ENDBRANCH  21  24
ENDBRANCH  14  16
ENDBRANCH  10  14
ENDBRANCH   7   8
BRANCH   7  29
ATOM     29  C   UNL     1       5.069   2.733   2.437  1.00  0.00     0.167 CG0
ATOM     30  G   UNL     1       4.119   3.909   2.676  1.00  0.00     0.000 G0
BRANCH  29  31
ATOM     31  C   UNL     1       5.585   1.998   3.668  1.00  0.00     0.032 A 
ATOM     32  C   UNL     1       4.900   1.584   4.797  1.00  0.00     0.018 A 
ATOM     33  S   UNL     1       7.234   1.514   3.742  1.00  0.00    -0.146 S 
ATOM     34  C   UNL     1       5.716   0.842   5.697  1.00  0.00     0.012 A 
ATOM     35  C   UNL     1       7.011   0.736   5.246  1.00  0.00     0.065 A 
ENDBRANCH  29  31
ENDBRANCH   7  29
ENDBRANCH   5   7
ENDBRANCH   4   5
ENDBRANCH   3   4
ENDBRANCH   2   3
BRANCH   2  36
ATOM     36  O   UNL     1       3.453  -1.155  -0.295  1.00  0.00    -0.462 OA
BRANCH  36  37
ATOM     37  C   UNL     1       4.851  -1.525  -0.368  1.00  0.00     0.274 C 
BRANCH  37  38
ATOM     38  C   UNL     1       4.925  -3.018  -0.037  1.00  0.00     0.275 C 
BRANCH  38  39
ATOM     39  O   UNL     1       4.421  -3.748  -1.169  1.00  0.00    -0.458 OA
BRANCH  39  40
ATOM     40  C   UNL     1       3.066  -3.716  -1.288  1.00  0.00     0.338 C 
ATOM     41  O   UNL     1       2.269  -3.893  -0.382  1.00  0.00    -0.246 OA
BRANCH  40  42
ATOM     42  C   UNL     1       2.731  -3.192  -2.642  1.00  0.00     0.060 A 
ATOM     43  C   UNL     1       3.671  -3.216  -3.679  1.00  0.00     0.016 A 
ATOM     44  C   UNL     1       1.486  -2.580  -2.846  1.00  0.00     0.016 A 
ATOM     45  C   UNL     1       3.352  -2.675  -4.922  1.00  0.00     0.010 A 
ATOM     46  C   UNL     1       1.162  -2.039  -4.094  1.00  0.00     0.010 A 
ATOM     47  C   UNL     1       2.080  -2.124  -5.149  1.00  0.00    -0.014 A 
BRANCH  47  48
ATOM     48  C   UNL     1       1.649  -1.940  -6.552  1.00  0.00     0.031 A 
ATOM     49  C   UNL     1       1.764  -0.637  -7.272  1.00  0.00     0.074 A 
ATOM     50  C   UNL     1       1.233  -3.052  -7.189  1.00  0.00     0.049 A 
ATOM     51  N   UNL     1       1.621  -0.400  -8.550  1.00  0.00    -0.248 NA
ATOM     52  C   UNL     1       2.079   0.550  -6.467  1.00  0.00     0.031 C 
ATOM     53  C   UNL     1       1.091  -4.369  -6.558  1.00  0.00     0.029 A 
ATOM     54  N   UNL     1       0.894  -3.271  -8.496  1.00  0.00    -0.354 N 
ATOM     55  C   UNL     1       1.858   0.957  -8.716  1.00  0.00     0.074 A 
ATOM     56  C   UNL     1       2.114   1.500  -7.397  1.00  0.00     0.031 C 
ATOM     57  C   UNL     1       0.736  -5.266  -7.487  1.00  0.00     0.029 A 
ATOM     58  C   UNL     1       0.607  -4.586  -8.770  1.00  0.00     0.049 A 
ATOM     59  H   UNL     1       0.859  -2.557  -9.173  1.00  0.00     0.167 HD
ATOM     60  C   UNL     1       1.869   1.668  -9.871  1.00  0.00     0.037 A 
ATOM     61  C   UNL     1       0.292  -5.188  -9.931  1.00  0.00     0.037 A 
ATOM     62  C   UNL     1       1.578   1.105 -11.168  1.00  0.00     0.049 A 
ATOM     63  C   UNL     1       0.271  -4.366 -11.184  1.00  0.00     0.074 A 
ATOM     64  C   UNL     1       1.583   1.735 -12.402  1.00  0.00     0.029 A 
ATOM     65  N   UNL     1       1.215  -0.216 -11.401  1.00  0.00    -0.354 N 
ATOM     66  N   UNL     1       0.558  -3.095 -11.335  1.00  0.00    -0.248 NA
ATOM     67  C   UNL     1      -0.110  -5.055 -12.421  1.00  0.00     0.031 C 
ATOM     68  C   UNL     1       1.178   0.810 -13.370  1.00  0.00     0.029 A 
ATOM     69  C   UNL     1       0.964  -0.411 -12.751  1.00  0.00     0.049 A 
ATOM     70  H   UNL     1       1.146  -0.912 -10.708  1.00  0.00     0.167 HD
ATOM     71  C   UNL     1       0.400  -2.831 -12.688  1.00  0.00     0.074 A 
ATOM     72  C   UNL     1       0.012  -4.081 -13.313  1.00  0.00     0.031 C 
ATOM     73  C   UNL     1       0.558  -1.659 -13.351  1.00  0.00     0.037 A 
BRANCH  60  74
ATOM     74  C   UNL     1       2.208   3.131  -9.795  1.00  0.00     0.058 A 
ATOM     75  C   UNL     1       3.523   3.565  -9.567  1.00  0.00     0.135 A 
ATOM     76  C   UNL     1       1.229   4.111 -10.034  1.00  0.00     0.135 A 
ATOM     77  F   UNL     1       4.497   2.673  -9.326  1.00  0.00    -0.206 F 
ATOM     78  C   UNL     1       3.855   4.917  -9.565  1.00  0.00     0.059 A 
ATOM     79  C   UNL     1       1.542   5.468 -10.056  1.00  0.00     0.059 A 
ATOM     80  F   UNL     1      -0.044   3.752 -10.261  1.00  0.00    -0.206 F 
ATOM     81  C   UNL     1       2.857   5.862  -9.812  1.00  0.00     0.060 A 
BRANCH  81  82
ATOM     82  S   UNL     1       3.309   7.611  -9.819  1.00  0.00     0.124 S 
ATOM     83  O   UNL     1       3.572   7.849  -8.403  1.00  0.00    -0.237 OA
ATOM     84  O   UNL     1       4.478   7.627 -10.692  1.00  0.00    -0.237 OA
ATOM     85  O   UNL     1       2.120   8.269 -10.354  1.00  0.00    -0.744 OA
ENDBRANCH  81  82
ENDBRANCH  60  74
BRANCH  61  86
ATOM     86  C   UNL     1       0.014  -6.645  -9.942  1.00  0.00     0.058 A 
ATOM     87  C   UNL     1       0.930  -7.551 -10.494  1.00  0.00     0.135 A 
ATOM     88  C   UNL     1      -1.141  -7.164  -9.336  1.00  0.00     0.135 A 
ATOM     89  F   UNL     1       2.049  -7.101 -11.080  1.00  0.00    -0.206 F 
ATOM     90  C   UNL     1       0.709  -8.923 -10.448  1.00  0.00     0.059 A 
ATOM     91  C   UNL     1      -1.372  -8.532  -9.257  1.00  0.00     0.059 A 
ATOM     92  F   UNL     1      -2.035  -6.336  -8.773  1.00  0.00    -0.206 F 
ATOM     93  C   UNL     1      -0.443  -9.404  -9.821  1.00  0.00     0.060 A 
BRANCH  93  94
ATOM     94  S   UNL     1      -0.685 -11.190  -9.710  1.00  0.00     0.124 S 
ATOM     95  O   UNL     1      -1.016 -11.527 -11.089  1.00  0.00    -0.237 OA
ATOM     96  O   UNL     1       0.618 -11.647  -9.235  1.00  0.00    -0.237 OA
ATOM     97  O   UNL     1      -1.775 -11.322  -8.748  1.00  0.00    -0.744 OA
ENDBRANCH  93  94
ENDBRANCH  61  86
BRANCH  73  98
ATOM     98  C   UNL     1       0.297  -1.675 -14.830  1.00  0.00     0.058 A 
ATOM     99  C   UNL     1      -1.009  -1.745 -15.339  1.00  0.00     0.135 A 
ATOM    100  C   UNL     1       1.356  -1.574 -15.746  1.00  0.00     0.135 A 
ATOM    101  F   UNL     1      -2.054  -1.854 -14.504  1.00  0.00    -0.206 F 
ATOM    102  C   UNL     1      -1.256  -1.731 -16.707  1.00  0.00     0.059 A 
ATOM    103  C   UNL     1       1.131  -1.535 -17.118  1.00  0.00     0.059 A 
ATOM    104  F   UNL     1       2.624  -1.500 -15.310  1.00  0.00    -0.206 F 
ATOM    105  C   UNL     1      -0.179  -1.623 -17.589  1.00  0.00     0.060 A 
BRANCH 105 106
ATOM    106  S   UNL     1      -0.519  -1.567 -19.361  1.00  0.00     0.124 S 
ATOM    107  O   UNL     1      -0.892  -2.952 -19.633  1.00  0.00    -0.237 OA
ATOM    108  O   UNL     1      -1.602  -0.592 -19.440  1.00  0.00    -0.237 OA
ATOM    109  O   UNL     1       0.750  -1.134 -19.938  1.00  0.00    -0.744 OA
ENDBRANCH 105 106
ENDBRANCH  73  98
ENDBRANCH  47  48
ENDBRANCH  40  42
ENDBRANCH  39  40
ENDBRANCH  38  39
ENDBRANCH  37  38
ENDBRANCH  36  37
ENDBRANCH   2  36
TORSDOF 19
