REMARK SMILES C/C(=C(/F)C(=O)OCCOC(=O)c1ccc(-c2c3nc(c(-c4c(F)cc(S(=O)(=O)[O-])cc4F)c4ccc([nH]4)c(-c4c(F)cc(S(=O)(=O)[O-])cc4F)c4nc(c(-c5c(F)cc(S(=O)(=O)[O-])cc5F)c5ccc2[nH]5)C=C4)C=C3)cc1)c1ccccc1F
REMARK SMILES IDX 9 1 8 2 7 3 5 4 6 5 3 6 1 7 2 8 4 9 79 10 80 11 84 12 81 13
REMARK SMILES IDX 83 14 85 15 82 16 10 17 11 18 12 19 13 20 14 21 78 22 15 23
REMARK SMILES IDX 77 24 16 25 17 26 18 27 71 28 19 29 76 30 70 31 72 32 20 33
REMARK SMILES IDX 75 34 69 35 68 36 21 38 55 39 34 40 54 41 35 42 38 43 53 44
REMARK SMILES IDX 73 45 36 46 37 47 52 49 74 50 39 51 22 52 23 53 32 54 24 55
REMARK SMILES IDX 25 56 31 57 33 58 26 59 27 60 28 61 29 62 30 63 56 64 57 65
REMARK SMILES IDX 66 66 58 67 59 68 65 69 67 70 60 71 61 72 62 73 63 74 64 75
REMARK SMILES IDX 40 76 41 77 50 78 42 79 43 80 49 81 51 82 44 83 45 84 46 85
REMARK SMILES IDX 47 86 48 87
REMARK H PARENT 72 37 38 48
REMARK Flexibility Score: inf
ROOT
ATOM      1  C   UNL     1      -0.502   2.706  -3.759  1.00  0.00     0.275 C 
ENDROOT
BRANCH   1   2
ATOM      2  C   UNL     1      -1.672   2.913  -2.796  1.00  0.00     0.275 C 
BRANCH   2   3
ATOM      3  O   UNL     1      -1.188   3.185  -1.463  1.00  0.00    -0.457 OA
BRANCH   3   4
ATOM      4  C   UNL     1      -1.237   2.139  -0.595  1.00  0.00     0.367 C 
ATOM      5  O   UNL     1      -1.702   1.035  -0.843  1.00  0.00    -0.243 OA
BRANCH   4   6
ATOM      6  C   UNL     1      -0.650   2.528   0.714  1.00  0.00     0.211 C 
ATOM      7  C   UNL     1       0.507   0.316   1.122  1.00  0.00     0.048 C 
ATOM      8  C   UNL     1       0.097   1.716   1.485  1.00  0.00     0.002 C 
ATOM      9  F   UNL     1      -0.910   3.801   1.091  1.00  0.00    -0.199 F 
BRANCH   8  10
ATOM     10  C   UNL     1       0.608   2.122   2.813  1.00  0.00     0.016 A 
ATOM     11  C   UNL     1      -0.288   2.460   3.835  1.00  0.00     0.011 A 
ATOM     12  C   UNL     1       1.966   1.974   3.138  1.00  0.00     0.130 A 
ATOM     13  C   UNL     1       0.164   2.598   5.152  1.00  0.00     0.001 A 
ATOM     14  C   UNL     1       2.419   2.108   4.446  1.00  0.00     0.040 A 
ATOM     15  F   UNL     1       2.859   1.654   2.187  1.00  0.00    -0.206 F 
ATOM     16  C   UNL     1       1.512   2.407   5.459  1.00  0.00     0.003 A 
ENDBRANCH   8  10
ENDBRANCH   4   6
ENDBRANCH   3   4
ENDBRANCH   2   3
ENDBRANCH   1   2
BRANCH   1  17
ATOM     17  O   UNL     1       0.206   1.511  -3.391  1.00  0.00    -0.458 OA
BRANCH  17  18
ATOM     18  C   UNL     1       1.553   1.535  -3.553  1.00  0.00     0.338 C 
ATOM     19  O   UNL     1       2.202   2.438  -4.054  1.00  0.00    -0.246 OA
BRANCH  18  20
ATOM     20  C   UNL     1       2.158   0.297  -2.995  1.00  0.00     0.060 A 
ATOM     21  C   UNL     1       1.513  -0.428  -1.999  1.00  0.00     0.016 A 
ATOM     22  C   UNL     1       3.436  -0.101  -3.397  1.00  0.00     0.016 A 
ATOM     23  C   UNL     1       2.188  -1.449  -1.321  1.00  0.00     0.010 A 
ATOM     24  C   UNL     1       4.059  -1.209  -2.792  1.00  0.00     0.010 A 
ATOM     25  C   UNL     1       3.470  -1.874  -1.703  1.00  0.00    -0.014 A 
BRANCH  25  26
ATOM     26  C   UNL     1       4.194  -2.949  -0.934  1.00  0.00     0.031 A 
ATOM     27  C   UNL     1       5.635  -2.756  -0.501  1.00  0.00     0.074 A 
ATOM     28  C   UNL     1       3.580  -4.098  -0.569  1.00  0.00     0.049 A 
ATOM     29  N   UNL     1       6.493  -3.643  -0.058  1.00  0.00    -0.248 NA
ATOM     30  C   UNL     1       6.192  -1.398  -0.602  1.00  0.00     0.031 C 
ATOM     31  C   UNL     1       2.190  -4.455  -0.859  1.00  0.00     0.029 A 
ATOM     32  N   UNL     1       4.042  -5.176   0.154  1.00  0.00    -0.354 N 
ATOM     33  C   UNL     1       7.709  -2.977   0.070  1.00  0.00     0.074 A 
ATOM     34  C   UNL     1       7.473  -1.603  -0.320  1.00  0.00     0.031 C 
ATOM     35  C   UNL     1       1.886  -5.604  -0.241  1.00  0.00     0.029 A 
ATOM     36  C   UNL     1       3.091  -6.147   0.374  1.00  0.00     0.049 A 
ATOM     37  H   UNL     1       4.967  -5.245   0.482  1.00  0.00     0.167 HD
ATOM     38  C   UNL     1       8.912  -3.464   0.467  1.00  0.00     0.037 A 
ATOM     39  C   UNL     1       3.172  -7.363   0.950  1.00  0.00     0.037 A 
ATOM     40  C   UNL     1       9.127  -4.798   0.972  1.00  0.00     0.049 A 
ATOM     41  C   UNL     1       4.503  -7.874   1.419  1.00  0.00     0.074 A 
ATOM     42  C   UNL     1      10.308  -5.372   1.414  1.00  0.00     0.029 A 
ATOM     43  N   UNL     1       8.136  -5.752   1.144  1.00  0.00    -0.354 N 
ATOM     44  N   UNL     1       5.668  -7.275   1.398  1.00  0.00    -0.248 NA
ATOM     45  C   UNL     1       4.538  -9.245   1.948  1.00  0.00     0.031 C 
ATOM     46  C   UNL     1      10.034  -6.679   1.835  1.00  0.00     0.029 A 
ATOM     47  C   UNL     1       8.677  -6.907   1.687  1.00  0.00     0.049 A 
ATOM     48  H   UNL     1       7.187  -5.627   0.915  1.00  0.00     0.167 HD
ATOM     49  C   UNL     1       6.579  -8.203   1.889  1.00  0.00     0.074 A 
ATOM     50  C   UNL     1       5.824  -9.388   2.239  1.00  0.00     0.031 C 
ATOM     51  C   UNL     1       7.923  -8.088   2.017  1.00  0.00     0.037 A 
BRANCH  38  52
ATOM     52  C   UNL     1      10.114  -2.565   0.339  1.00  0.00     0.058 A 
ATOM     53  C   UNL     1      10.353  -1.496   1.214  1.00  0.00     0.135 A 
ATOM     54  C   UNL     1      11.074  -2.822  -0.656  1.00  0.00     0.135 A 
ATOM     55  F   UNL     1       9.465  -1.197   2.175  1.00  0.00    -0.206 F 
ATOM     56  C   UNL     1      11.488  -0.697   1.093  1.00  0.00     0.059 A 
ATOM     57  C   UNL     1      12.228  -2.053  -0.779  1.00  0.00     0.059 A 
ATOM     58  F   UNL     1      10.899  -3.837  -1.517  1.00  0.00    -0.206 F 
ATOM     59  C   UNL     1      12.419  -0.983   0.092  1.00  0.00     0.060 A 
BRANCH  59  60
ATOM     60  S   UNL     1      13.893   0.051  -0.049  1.00  0.00     0.124 S 
ATOM     61  O   UNL     1      13.349   1.248  -0.683  1.00  0.00    -0.237 OA
ATOM     62  O   UNL     1      14.306   0.204   1.343  1.00  0.00    -0.237 OA
ATOM     63  O   UNL     1      14.790  -0.747  -0.880  1.00  0.00    -0.744 OA
ENDBRANCH  59  60
ENDBRANCH  38  52
BRANCH  39  64
ATOM     64  C   UNL     1       1.956  -8.217   1.045  1.00  0.00     0.058 A 
ATOM     65  C   UNL     1       1.352  -8.481   2.282  1.00  0.00     0.135 A 
ATOM     66  C   UNL     1       1.354  -8.754  -0.105  1.00  0.00     0.135 A 
ATOM     67  F   UNL     1       1.902  -8.010   3.412  1.00  0.00    -0.206 F 
ATOM     68  C   UNL     1       0.187  -9.236   2.377  1.00  0.00     0.059 A 
ATOM     69  C   UNL     1       0.173  -9.484  -0.038  1.00  0.00     0.059 A 
ATOM     70  F   UNL     1       1.891  -8.527  -1.313  1.00  0.00    -0.206 F 
ATOM     71  C   UNL     1      -0.402  -9.724   1.209  1.00  0.00     0.060 A 
BRANCH  71  72
ATOM     72  S   UNL     1      -1.969 -10.615   1.320  1.00  0.00     0.124 S 
ATOM     73  O   UNL     1      -1.520 -11.949   1.701  1.00  0.00    -0.237 OA
ATOM     74  O   UNL     1      -2.684  -9.864   2.347  1.00  0.00    -0.237 OA
ATOM     75  O   UNL     1      -2.516 -10.491  -0.028  1.00  0.00    -0.744 OA
ENDBRANCH  71  72
ENDBRANCH  39  64
BRANCH  51  76
ATOM     76  C   UNL     1       8.658  -9.280   2.561  1.00  0.00     0.058 A 
ATOM     77  C   UNL     1       8.884 -10.420   1.772  1.00  0.00     0.135 A 
ATOM     78  C   UNL     1       9.139  -9.287   3.879  1.00  0.00     0.135 A 
ATOM     79  F   UNL     1       8.437 -10.465   0.507  1.00  0.00    -0.206 F 
ATOM     80  C   UNL     1       9.532 -11.540   2.283  1.00  0.00     0.059 A 
ATOM     81  C   UNL     1       9.807 -10.389   4.404  1.00  0.00     0.059 A 
ATOM     82  F   UNL     1       8.955  -8.219   4.671  1.00  0.00    -0.206 F 
ATOM     83  C   UNL     1       9.982 -11.518   3.604  1.00  0.00     0.060 A 
BRANCH  83  84
ATOM     84  S   UNL     1      10.814 -12.979   4.263  1.00  0.00     0.124 S 
ATOM     85  O   UNL     1       9.685 -13.866   4.523  1.00  0.00    -0.237 OA
ATOM     86  O   UNL     1      11.687 -13.371   3.160  1.00  0.00    -0.237 OA
ATOM     87  O   UNL     1      11.501 -12.472   5.447  1.00  0.00    -0.744 OA
ENDBRANCH  83  84
ENDBRANCH  51  76
ENDBRANCH  25  26
ENDBRANCH  18  20
ENDBRANCH  17  18
ENDBRANCH   1  17
TORSDOF 15
