REMARK SMILES C/C(=N\NC(N)=O)c1nnn(-c2ccc(C(=O)OCCOC(=O)c3ccc(-c4c5nc(c(-c6c(F)cc(S(=O)(=O)[O-])cc6F)c6ccc([nH]6)c(-c6c(F)cc(S(=O)(=O)[O-])cc6F)c6nc(c(-c7c(F)cc(S(=O)(=O)[O-])cc7F)c7ccc4[nH]7)C=C6)C=C5)cc3)cc2)c1C
REMARK SMILES IDX 19 1 18 2 16 3 17 4 15 5 12 6 13 7 91 8 14 9 90 10 11 11
REMARK SMILES IDX 8 12 9 13 92 14 10 15 93 16 2 17 1 18 3 19 4 20 5 21 6 23
REMARK SMILES IDX 7 24 20 27 21 28 22 29 23 30 24 31 25 32 89 33 26 34 88 35
REMARK SMILES IDX 27 36 28 37 29 38 82 39 30 40 87 41 81 42 83 43 31 44 86 45
REMARK SMILES IDX 80 46 79 47 32 49 66 50 45 51 65 52 46 53 49 54 64 55 84 56
REMARK SMILES IDX 47 57 48 58 63 60 85 61 50 62 33 63 34 64 43 65 35 66 36 67
REMARK SMILES IDX 42 68 44 69 37 70 38 71 39 72 40 73 41 74 67 75 68 76 77 77
REMARK SMILES IDX 69 78 70 79 76 80 78 81 71 82 72 83 73 84 74 85 75 86 51 87
REMARK SMILES IDX 52 88 61 89 53 90 54 91 60 92 62 93 55 94 56 95 57 96 58 97
REMARK SMILES IDX 59 98
REMARK H PARENT 4 22 6 25 6 26 83 48 49 59
REMARK Flexibility Score: inf
ROOT
ATOM      1  C   UNL     1       9.424  -4.091   5.790  1.00  0.00     0.275 C 
ENDROOT
BRANCH   1   2
ATOM      2  O   UNL     1       8.184  -3.466   5.429  1.00  0.00    -0.458 OA
BRANCH   2   3
ATOM      3  C   UNL     1       7.328  -4.227   4.704  1.00  0.00     0.338 C 
ATOM      4  O   UNL     1       7.578  -5.305   4.180  1.00  0.00    -0.246 OA
BRANCH   3   5
ATOM      5  C   UNL     1       5.993  -3.585   4.653  1.00  0.00     0.060 A 
ATOM      6  C   UNL     1       3.529  -2.383   4.223  1.00  0.00     0.067 A 
ATOM      7  C   UNL     1       3.625  -3.775   4.145  1.00  0.00     0.029 A 
ATOM      8  C   UNL     1       4.612  -1.609   4.652  1.00  0.00     0.029 A 
ATOM      9  C   UNL     1       4.873  -4.372   4.337  1.00  0.00     0.018 A 
ATOM     10  C   UNL     1       5.844  -2.212   4.875  1.00  0.00     0.018 A 
BRANCH   6  11
ATOM     11  N   UNL     1       2.404  -1.739   3.670  1.00  0.00    -0.217 N 
ATOM     12  C   UNL     1       1.098  -0.654   2.305  1.00  0.00     0.132 A 
ATOM     13  N   UNL     1       0.331  -1.480   3.080  1.00  0.00    -0.128 NA
ATOM     14  C   UNL     1       2.428  -0.799   2.649  1.00  0.00     0.071 A 
ATOM     15  N   UNL     1       1.143  -2.188   3.854  1.00  0.00    -0.061 NA
ATOM     16  C   UNL     1       3.652  -0.305   1.970  1.00  0.00     0.069 C 
BRANCH  12  17
ATOM     17  C   UNL     1       0.583   0.027   1.132  1.00  0.00     0.087 C 
ATOM     18  C   UNL     1       0.754  -0.713  -0.169  1.00  0.00     0.071 C 
ATOM     19  N   UNL     1       0.033   1.185   1.346  1.00  0.00    -0.174 NA
BRANCH  19  20
ATOM     20  N   UNL     1      -0.451   1.972   0.339  1.00  0.00    -0.229 N 
ATOM     21  C   UNL     1       0.143   2.232  -0.877  1.00  0.00     0.332 C 
ATOM     22  H   UNL     1      -1.322   2.401   0.499  1.00  0.00     0.195 HD
ATOM     23  N   UNL     1      -0.606   3.068  -1.651  1.00  0.00    -0.350 N 
ATOM     24  O   UNL     1       1.206   1.800  -1.300  1.00  0.00    -0.247 OA
ATOM     25  H   UNL     1      -1.462   3.417  -1.312  1.00  0.00     0.161 HD
ATOM     26  H   UNL     1      -0.291   3.323  -2.548  1.00  0.00     0.161 HD
ENDBRANCH  19  20
ENDBRANCH  12  17
ENDBRANCH   6  11
ENDBRANCH   3   5
ENDBRANCH   2   3
ENDBRANCH   1   2
BRANCH   1  27
ATOM     27  C   UNL     1       9.291  -4.830   7.113  1.00  0.00     0.275 C 
BRANCH  27  28
ATOM     28  O   UNL     1       8.517  -6.022   6.985  1.00  0.00    -0.458 OA
BRANCH  28  29
ATOM     29  C   UNL     1       7.219  -5.891   7.344  1.00  0.00     0.338 C 
ATOM     30  O   UNL     1       6.553  -4.869   7.344  1.00  0.00    -0.246 OA
BRANCH  29  31
ATOM     31  C   UNL     1       6.775  -7.124   7.998  1.00  0.00     0.060 A 
ATOM     32  C   UNL     1       5.416  -7.247   8.297  1.00  0.00     0.016 A 
ATOM     33  C   UNL     1       7.729  -8.008   8.525  1.00  0.00     0.016 A 
ATOM     34  C   UNL     1       5.029  -8.195   9.223  1.00  0.00     0.010 A 
ATOM     35  C   UNL     1       7.343  -8.944   9.459  1.00  0.00     0.010 A 
ATOM     36  C   UNL     1       6.003  -8.998   9.835  1.00  0.00    -0.014 A 
BRANCH  36  37
ATOM     37  C   UNL     1       5.552 -10.078  10.696  1.00  0.00     0.031 A 
ATOM     38  C   UNL     1       4.813 -11.095   9.913  1.00  0.00     0.074 A 
ATOM     39  C   UNL     1       5.889 -10.204  11.995  1.00  0.00     0.049 A 
ATOM     40  N   UNL     1       3.539 -11.303   9.914  1.00  0.00    -0.248 NA
ATOM     41  C   UNL     1       5.524 -11.791   8.823  1.00  0.00     0.031 C 
ATOM     42  C   UNL     1       6.844  -9.378  12.739  1.00  0.00     0.029 A 
ATOM     43  N   UNL     1       5.537 -11.156  12.909  1.00  0.00    -0.354 N 
ATOM     44  C   UNL     1       3.353 -12.389   9.065  1.00  0.00     0.074 A 
ATOM     45  C   UNL     1       4.524 -12.454   8.238  1.00  0.00     0.031 C 
ATOM     46  C   UNL     1       7.170 -10.001  13.894  1.00  0.00     0.029 A 
ATOM     47  C   UNL     1       6.357 -11.197  14.035  1.00  0.00     0.049 A 
ATOM     48  H   UNL     1       4.770 -11.761  12.783  1.00  0.00     0.167 HD
ATOM     49  C   UNL     1       2.463 -13.357   9.414  1.00  0.00     0.037 A 
ATOM     50  C   UNL     1       6.394 -12.168  14.986  1.00  0.00     0.037 A 
ATOM     51  C   UNL     1       1.559 -12.858  10.424  1.00  0.00     0.049 A 
ATOM     52  C   UNL     1       5.088 -12.870  14.945  1.00  0.00     0.074 A 
ATOM     53  C   UNL     1       0.556 -11.916  10.503  1.00  0.00     0.029 A 
ATOM     54  N   UNL     1       1.986 -13.108  11.700  1.00  0.00    -0.354 N 
ATOM     55  N   UNL     1       3.960 -12.306  15.279  1.00  0.00    -0.248 NA
ATOM     56  C   UNL     1       4.962 -14.106  14.179  1.00  0.00     0.031 C 
ATOM     57  C   UNL     1       0.513 -11.497  11.867  1.00  0.00     0.029 A 
ATOM     58  C   UNL     1       1.448 -12.230  12.595  1.00  0.00     0.049 A 
ATOM     59  H   UNL     1       2.606 -13.833  11.942  1.00  0.00     0.167 HD
ATOM     60  C   UNL     1       3.037 -12.841  14.403  1.00  0.00     0.074 A 
ATOM     61  C   UNL     1       3.659 -14.056  13.891  1.00  0.00     0.031 C 
ATOM     62  C   UNL     1       2.018 -12.073  13.918  1.00  0.00     0.037 A 
BRANCH  49  63
ATOM     63  C   UNL     1       2.761 -14.851   9.324  1.00  0.00     0.058 A 
ATOM     64  C   UNL     1       1.759 -15.760   9.730  1.00  0.00     0.135 A 
ATOM     65  C   UNL     1       4.053 -15.410   9.185  1.00  0.00     0.135 A 
ATOM     66  F   UNL     1       0.493 -15.346   9.902  1.00  0.00    -0.206 F 
ATOM     67  C   UNL     1       2.035 -17.091  10.050  1.00  0.00     0.059 A 
ATOM     68  C   UNL     1       4.340 -16.742   9.456  1.00  0.00     0.059 A 
ATOM     69  F   UNL     1       5.132 -14.687   8.868  1.00  0.00    -0.206 F 
ATOM     70  C   UNL     1       3.335 -17.568   9.921  1.00  0.00     0.060 A 
BRANCH  70  71
ATOM     71  S   UNL     1       3.715 -19.265  10.384  1.00  0.00     0.124 S 
ATOM     72  O   UNL     1       3.543 -19.217  11.831  1.00  0.00    -0.237 OA
ATOM     73  O   UNL     1       2.706 -20.010   9.640  1.00  0.00    -0.237 OA
ATOM     74  O   UNL     1       5.087 -19.439   9.914  1.00  0.00    -0.744 OA
ENDBRANCH  70  71
ENDBRANCH  49  63
BRANCH  50  75
ATOM     75  C   UNL     1       7.559 -12.707  15.747  1.00  0.00     0.058 A 
ATOM     76  C   UNL     1       7.380 -13.609  16.816  1.00  0.00     0.135 A 
ATOM     77  C   UNL     1       8.875 -12.588  15.260  1.00  0.00     0.135 A 
ATOM     78  F   UNL     1       6.162 -13.796  17.347  1.00  0.00    -0.206 F 
ATOM     79  C   UNL     1       8.424 -14.399  17.315  1.00  0.00     0.059 A 
ATOM     80  C   UNL     1       9.932 -13.355  15.750  1.00  0.00     0.059 A 
ATOM     81  F   UNL     1       9.160 -11.786  14.224  1.00  0.00    -0.206 F 
ATOM     82  C   UNL     1       9.694 -14.284  16.755  1.00  0.00     0.060 A 
BRANCH  82  83
ATOM     83  S   UNL     1      11.001 -15.434  17.250  1.00  0.00     0.124 S 
ATOM     84  O   UNL     1      11.295 -14.993  18.609  1.00  0.00    -0.237 OA
ATOM     85  O   UNL     1      10.338 -16.728  17.130  1.00  0.00    -0.237 OA
ATOM     86  O   UNL     1      12.058 -15.187  16.273  1.00  0.00    -0.744 OA
ENDBRANCH  82  83
ENDBRANCH  50  75
BRANCH  62  87
ATOM     87  C   UNL     1       1.539 -10.934  14.767  1.00  0.00     0.058 A 
ATOM     88  C   UNL     1       2.291  -9.802  15.119  1.00  0.00     0.135 A 
ATOM     89  C   UNL     1       0.205 -10.983  15.203  1.00  0.00     0.135 A 
ATOM     90  F   UNL     1       3.543  -9.633  14.666  1.00  0.00    -0.206 F 
ATOM     91  C   UNL     1       1.754  -8.790  15.919  1.00  0.00     0.059 A 
ATOM     92  C   UNL     1      -0.361  -9.972  15.967  1.00  0.00     0.059 A 
ATOM     93  F   UNL     1      -0.579 -12.018  14.857  1.00  0.00    -0.206 F 
ATOM     94  C   UNL     1       0.426  -8.888  16.341  1.00  0.00     0.060 A 
BRANCH  94  95
ATOM     95  S   UNL     1      -0.281  -7.573  17.354  1.00  0.00     0.124 S 
ATOM     96  O   UNL     1       0.427  -7.745  18.618  1.00  0.00    -0.237 OA
ATOM     97  O   UNL     1       0.055  -6.373  16.595  1.00  0.00    -0.237 OA
ATOM     98  O   UNL     1      -1.706  -7.898  17.390  1.00  0.00    -0.744 OA
ENDBRANCH  94  95
ENDBRANCH  62  87
ENDBRANCH  36  37
ENDBRANCH  29  31
ENDBRANCH  28  29
ENDBRANCH  27  28
ENDBRANCH   1  27
TORSDOF 17
