REMARK SMILES Cc1nc2scc(C)n2c1CNc1ccc(C(=O)OCCOC(=O)c2ccc(-c3c4nc(c(-c5c(F)cc(S(=O)(=O)[O-])cc5F)c5ccc([nH]5)c(-c5c(F)cc(S(=O)(=O)[O-])cc5F)c5nc(c(-c6c(F)cc(S(=O)(=O)[O-])cc6F)c6ccc3[nH]6)C=C5)C=C4)cc2)cc1
REMARK SMILES IDX 20 1 19 2 17 3 18 4 16 5 13 6 14 7 92 8 15 9 91 10 12 11
REMARK SMILES IDX 11 13 10 14 1 15 2 16 3 17 4 18 9 19 5 20 7 21 6 22 8 23
REMARK SMILES IDX 21 24 22 25 23 26 24 27 25 28 26 29 90 30 27 31 89 32 28 33
REMARK SMILES IDX 29 34 30 35 83 36 31 37 88 38 82 39 84 40 32 41 87 42 81 43
REMARK SMILES IDX 80 44 33 46 67 47 46 48 66 49 47 50 50 51 65 52 85 53 48 54
REMARK SMILES IDX 49 55 64 57 86 58 51 59 34 60 35 61 44 62 36 63 37 64 43 65
REMARK SMILES IDX 45 66 38 67 39 68 40 69 41 70 42 71 68 72 69 73 78 74 70 75
REMARK SMILES IDX 71 76 77 77 79 78 72 79 73 80 74 81 75 82 76 83 52 84 53 85
REMARK SMILES IDX 62 86 54 87 55 88 61 89 63 90 56 91 57 92 58 93 59 94 60 95
REMARK H PARENT 12 12 84 45 50 56
REMARK Flexibility Score: inf
ROOT
ATOM      1  C   UNL     1      -5.927   1.155  -9.489  1.00  0.00     0.275 C 
ENDROOT
BRANCH   1   2
ATOM      2  O   UNL     1      -5.165   0.922  -8.294  1.00  0.00    -0.458 OA
BRANCH   2   3
ATOM      3  C   UNL     1      -5.163   1.936  -7.392  1.00  0.00     0.338 C 
ATOM      4  O   UNL     1      -5.574   3.073  -7.578  1.00  0.00    -0.246 OA
BRANCH   3   5
ATOM      5  C   UNL     1      -4.651   1.471  -6.082  1.00  0.00     0.060 A 
ATOM      6  C   UNL     1      -3.467   0.874  -3.610  1.00  0.00     0.034 A 
ATOM      7  C   UNL     1      -4.473   1.841  -3.695  1.00  0.00     0.026 A 
ATOM      8  C   UNL     1      -3.174   0.112  -4.749  1.00  0.00     0.026 A 
ATOM      9  C   UNL     1      -5.044   2.159  -4.928  1.00  0.00     0.018 A 
ATOM     10  C   UNL     1      -3.765   0.399  -5.979  1.00  0.00     0.018 A 
BRANCH   6  11
ATOM     11  N   UNL     1      -2.666   0.836  -2.478  1.00  0.00    -0.379 N 
ATOM     12  H   UNL     1      -3.070   0.871  -1.582  1.00  0.00     0.160 HD
BRANCH  11  13
ATOM     13  C   UNL     1      -1.226   0.744  -2.628  1.00  0.00     0.169 C 
BRANCH  13  14
ATOM     14  C   UNL     1      -0.460   1.656  -1.742  1.00  0.00     0.066 A 
ATOM     15  C   UNL     1       0.765   0.042  -0.103  1.00  0.00     0.069 C 
ATOM     16  C   UNL     1       0.390   1.359  -0.674  1.00  0.00     0.062 A 
ATOM     17  N   UNL     1       0.942   2.500  -0.133  1.00  0.00    -0.224 NA
ATOM     18  C   UNL     1       0.441   3.453  -0.862  1.00  0.00     0.194 A 
ATOM     19  N   UNL     1      -0.389   3.030  -1.866  1.00  0.00    -0.290 N 
ATOM     20  S   UNL     1       0.657   5.174  -0.868  1.00  0.00    -0.105 S 
ATOM     21  C   UNL     1      -0.864   4.059  -2.678  1.00  0.00     0.032 A 
ATOM     22  C   UNL     1      -0.395   5.258  -2.274  1.00  0.00     0.090 A 
ATOM     23  C   UNL     1      -1.744   3.897  -3.863  1.00  0.00     0.066 C 
ENDBRANCH  13  14
ENDBRANCH  11  13
ENDBRANCH   6  11
ENDBRANCH   3   5
ENDBRANCH   2   3
ENDBRANCH   1   2
BRANCH   1  24
ATOM     24  C   UNL     1      -7.378   0.730  -9.309  1.00  0.00     0.275 C 
BRANCH  24  25
ATOM     25  O   UNL     1      -8.069   1.615  -8.430  1.00  0.00    -0.458 OA
BRANCH  25  26
ATOM     26  C   UNL     1      -8.100   1.220  -7.136  1.00  0.00     0.338 C 
ATOM     27  O   UNL     1      -7.402   0.369  -6.611  1.00  0.00    -0.246 OA
BRANCH  26  28
ATOM     28  C   UNL     1      -9.282   1.792  -6.488  1.00  0.00     0.060 A 
ATOM     29  C   UNL     1      -9.506   1.419  -5.160  1.00  0.00     0.016 A 
ATOM     30  C   UNL     1     -10.282   2.381  -7.275  1.00  0.00     0.016 A 
ATOM     31  C   UNL     1     -10.798   1.440  -4.687  1.00  0.00     0.010 A 
ATOM     32  C   UNL     1     -11.573   2.389  -6.806  1.00  0.00     0.010 A 
ATOM     33  C   UNL     1     -11.824   1.839  -5.552  1.00  0.00    -0.014 A 
BRANCH  33  34
ATOM     34  C   UNL     1     -13.184   1.757  -5.064  1.00  0.00     0.031 A 
ATOM     35  C   UNL     1     -13.477   2.763  -4.016  1.00  0.00     0.074 A 
ATOM     36  C   UNL     1     -14.097   0.938  -5.620  1.00  0.00     0.049 A 
ATOM     37  N   UNL     1     -13.788   2.564  -2.780  1.00  0.00    -0.248 NA
ATOM     38  C   UNL     1     -13.209   4.174  -4.349  1.00  0.00     0.031 C 
ATOM     39  C   UNL     1     -13.979   0.145  -6.846  1.00  0.00     0.029 A 
ATOM     40  N   UNL     1     -15.388   0.737  -5.256  1.00  0.00    -0.354 N 
ATOM     41  C   UNL     1     -13.982   3.832  -2.240  1.00  0.00     0.074 A 
ATOM     42  C   UNL     1     -13.419   4.767  -3.176  1.00  0.00     0.031 C 
ATOM     43  C   UNL     1     -15.214  -0.238  -7.246  1.00  0.00     0.029 A 
ATOM     44  C   UNL     1     -16.184   0.176  -6.247  1.00  0.00     0.049 A 
ATOM     45  H   UNL     1     -15.733   0.969  -4.364  1.00  0.00     0.167 HD
ATOM     46  C   UNL     1     -14.826   4.034  -1.192  1.00  0.00     0.037 A 
ATOM     47  C   UNL     1     -17.543   0.165  -6.262  1.00  0.00     0.037 A 
ATOM     48  C   UNL     1     -15.069   2.810  -0.472  1.00  0.00     0.049 A 
ATOM     49  C   UNL     1     -17.996   0.441  -4.868  1.00  0.00     0.074 A 
ATOM     50  C   UNL     1     -14.256   1.895   0.172  1.00  0.00     0.029 A 
ATOM     51  N   UNL     1     -16.267   2.167  -0.671  1.00  0.00    -0.354 N 
ATOM     52  N   UNL     1     -17.823  -0.379  -3.867  1.00  0.00    -0.248 NA
ATOM     53  C   UNL     1     -18.227   1.831  -4.498  1.00  0.00     0.031 C 
ATOM     54  C   UNL     1     -14.826   0.623  -0.123  1.00  0.00     0.029 A 
ATOM     55  C   UNL     1     -15.983   0.839  -0.871  1.00  0.00     0.049 A 
ATOM     56  H   UNL     1     -17.160   2.581  -0.670  1.00  0.00     0.167 HD
ATOM     57  C   UNL     1     -17.507   0.434  -2.788  1.00  0.00     0.074 A 
ATOM     58  C   UNL     1     -17.845   1.789  -3.219  1.00  0.00     0.031 C 
ATOM     59  C   UNL     1     -16.739  -0.021  -1.754  1.00  0.00     0.037 A 
BRANCH  46  60
ATOM     60  C   UNL     1     -15.711   5.250  -1.069  1.00  0.00     0.058 A 
ATOM     61  C   UNL     1     -16.445   5.450   0.116  1.00  0.00     0.135 A 
ATOM     62  C   UNL     1     -16.085   6.068  -2.162  1.00  0.00     0.135 A 
ATOM     63  F   UNL     1     -16.182   4.723   1.213  1.00  0.00    -0.206 F 
ATOM     64  C   UNL     1     -17.519   6.337   0.186  1.00  0.00     0.059 A 
ATOM     65  C   UNL     1     -17.112   6.999  -2.096  1.00  0.00     0.059 A 
ATOM     66  F   UNL     1     -15.546   5.938  -3.380  1.00  0.00    -0.206 F 
ATOM     67  C   UNL     1     -17.855   7.094  -0.933  1.00  0.00     0.060 A 
BRANCH  67  68
ATOM     68  S   UNL     1     -19.309   8.152  -0.888  1.00  0.00     0.124 S 
ATOM     69  O   UNL     1     -20.382   7.164  -0.860  1.00  0.00    -0.237 OA
ATOM     70  O   UNL     1     -19.097   8.904   0.344  1.00  0.00    -0.237 OA
ATOM     71  O   UNL     1     -19.196   8.930  -2.118  1.00  0.00    -0.744 OA
ENDBRANCH  67  68
ENDBRANCH  46  60
BRANCH  47  72
ATOM     72  C   UNL     1     -18.453   0.325  -7.431  1.00  0.00     0.058 A 
ATOM     73  C   UNL     1     -19.840   0.122  -7.294  1.00  0.00     0.135 A 
ATOM     74  C   UNL     1     -18.038   0.962  -8.618  1.00  0.00     0.135 A 
ATOM     75  F   UNL     1     -20.329  -0.468  -6.192  1.00  0.00    -0.206 F 
ATOM     76  C   UNL     1     -20.761   0.586  -8.239  1.00  0.00     0.059 A 
ATOM     77  C   UNL     1     -18.937   1.419  -9.581  1.00  0.00     0.059 A 
ATOM     78  F   UNL     1     -16.748   1.251  -8.839  1.00  0.00    -0.206 F 
ATOM     79  C   UNL     1     -20.300   1.259  -9.369  1.00  0.00     0.060 A 
BRANCH  79  80
ATOM     80  S   UNL     1     -21.486   2.043 -10.486  1.00  0.00     0.124 S 
ATOM     81  O   UNL     1     -22.104   0.889 -11.130  1.00  0.00    -0.237 OA
ATOM     82  O   UNL     1     -22.334   2.788  -9.562  1.00  0.00    -0.237 OA
ATOM     83  O   UNL     1     -20.644   2.864 -11.352  1.00  0.00    -0.744 OA
ENDBRANCH  79  80
ENDBRANCH  47  72
BRANCH  59  84
ATOM     84  C   UNL     1     -16.474  -1.500  -1.654  1.00  0.00     0.058 A 
ATOM     85  C   UNL     1     -15.781  -2.255  -2.618  1.00  0.00     0.135 A 
ATOM     86  C   UNL     1     -16.811  -2.149  -0.456  1.00  0.00     0.135 A 
ATOM     87  F   UNL     1     -15.324  -1.686  -3.742  1.00  0.00    -0.206 F 
ATOM     88  C   UNL     1     -15.484  -3.605  -2.420  1.00  0.00     0.059 A 
ATOM     89  C   UNL     1     -16.495  -3.484  -0.224  1.00  0.00     0.059 A 
ATOM     90  F   UNL     1     -17.415  -1.468   0.531  1.00  0.00    -0.206 F 
ATOM     91  C   UNL     1     -15.847  -4.212  -1.218  1.00  0.00     0.060 A 
BRANCH  91  92
ATOM     92  S   UNL     1     -15.409  -5.941  -0.935  1.00  0.00     0.124 S 
ATOM     93  O   UNL     1     -16.315  -6.639  -1.842  1.00  0.00    -0.237 OA
ATOM     94  O   UNL     1     -13.996  -5.976  -1.300  1.00  0.00    -0.237 OA
ATOM     95  O   UNL     1     -15.680  -6.134   0.487  1.00  0.00    -0.744 OA
ENDBRANCH  91  92
ENDBRANCH  59  84
ENDBRANCH  33  34
ENDBRANCH  26  28
ENDBRANCH  25  26
ENDBRANCH  24  25
ENDBRANCH   1  24
TORSDOF 17
