REMARK SMILES CCCOc1cccc([C@H]2CC[NH2+][C@@H]2C(=O)OCCOC(=O)c2ccc(-c3c4nc(c(-c5c(F)cc(S(=O)(=O)[O-])cc5F)c5ccc([nH]5)c(-c5c(F)cc(S(=O)(=O)[O-])cc5F)c5nc(c(-c6c(F)cc(S(=O)(=O)[O-])cc6F)c6ccc3[nH]6)C=C5)C=C4)cc2)c1
REMARK SMILES IDX 18 1 17 2 15 3 16 4 14 5 10 6 11 7 12 8 13 9 9 12 5 13 6 14
REMARK SMILES IDX 89 15 7 16 8 17 4 18 3 19 2 20 1 21 19 22 20 23 21 24 22 25
REMARK SMILES IDX 23 26 24 27 88 28 25 29 87 30 26 31 27 32 28 33 81 34 29 35
REMARK SMILES IDX 86 36 80 37 82 38 30 39 85 40 79 41 78 42 31 44 65 45 44 46
REMARK SMILES IDX 64 47 45 48 48 49 63 50 83 51 46 52 47 53 62 55 84 56 49 57
REMARK SMILES IDX 32 58 33 59 42 60 34 61 35 62 41 63 43 64 36 65 37 66 38 67
REMARK SMILES IDX 39 68 40 69 66 70 67 71 76 72 68 73 69 74 75 75 77 76 70 77
REMARK SMILES IDX 71 78 72 79 73 80 74 81 50 82 51 83 60 84 52 85 53 86 59 87
REMARK SMILES IDX 61 88 54 89 55 90 56 91 57 92 58 93
REMARK H PARENT 13 10 13 11 82 43 48 54
REMARK Flexibility Score: inf
ROOT
ATOM      1  C   UNL     1       4.339  -2.018  -0.328  1.00  0.00     0.274 C 
ENDROOT
BRANCH   1   2
ATOM      2  O   UNL     1       3.281  -2.367  -1.245  1.00  0.00    -0.458 OA
BRANCH   2   3
ATOM      3  C   UNL     1       2.025  -1.932  -0.916  1.00  0.00     0.365 C 
ATOM      4  O   UNL     1       1.757  -1.292   0.093  1.00  0.00    -0.245 OA
BRANCH   3   5
ATOM      5  C   UNL     1       1.019  -2.336  -2.013  1.00  0.00     0.301 C 
ATOM      6  C   UNL     1       0.817  -1.196  -3.044  1.00  0.00     0.095 C 
ATOM      7  C   UNL     1      -0.704  -1.036  -3.086  1.00  0.00     0.076 C 
ATOM      8  C   UNL     1      -1.125  -1.417  -1.683  1.00  0.00     0.262 C 
ATOM      9  N   UNL     1      -0.320  -2.611  -1.404  1.00  0.00    -0.334 N 
ATOM     10  H   UNL     1      -0.744  -3.435  -1.829  1.00  0.00     0.347 HD
ATOM     11  H   UNL     1      -0.251  -2.796  -0.403  1.00  0.00     0.347 HD
BRANCH   6  12
ATOM     12  C   UNL     1       1.481  -1.332  -4.399  1.00  0.00    -0.034 A 
ATOM     13  C   UNL     1       3.220  -2.287  -5.808  1.00  0.00     0.119 A 
ATOM     14  C   UNL     1       2.755  -1.584  -6.911  1.00  0.00     0.046 A 
ATOM     15  C   UNL     1       2.637  -2.102  -4.557  1.00  0.00     0.050 A 
ATOM     16  C   UNL     1       1.658  -0.738  -6.761  1.00  0.00     0.004 A 
ATOM     17  C   UNL     1       1.020  -0.622  -5.519  1.00  0.00     0.004 A 
BRANCH  13  18
ATOM     18  O   UNL     1       4.290  -3.130  -5.936  1.00  0.00    -0.494 OA
BRANCH  18  19
ATOM     19  C   UNL     1       3.867  -4.505  -5.980  1.00  0.00     0.229 C 
BRANCH  19  20
ATOM     20  C   UNL     1       3.822  -5.143  -4.585  1.00  0.00     0.038 C 
ATOM     21  C   UNL     1       2.404  -5.509  -4.161  1.00  0.00     0.007 C 
ENDBRANCH  19  20
ENDBRANCH  18  19
ENDBRANCH  13  18
ENDBRANCH   6  12
ENDBRANCH   3   5
ENDBRANCH   2   3
ENDBRANCH   1   2
BRANCH   1  22
ATOM     22  C   UNL     1       5.118  -0.811  -0.847  1.00  0.00     0.275 C 
BRANCH  22  23
ATOM     23  O   UNL     1       4.229   0.313  -0.917  1.00  0.00    -0.458 OA
BRANCH  23  24
ATOM     24  C   UNL     1       4.453   1.181  -1.931  1.00  0.00     0.338 C 
ATOM     25  O   UNL     1       5.396   1.162  -2.704  1.00  0.00    -0.246 OA
BRANCH  24  26
ATOM     26  C   UNL     1       3.350   2.171  -2.001  1.00  0.00     0.060 A 
ATOM     27  C   UNL     1       2.064   1.853  -1.564  1.00  0.00     0.016 A 
ATOM     28  C   UNL     1       3.578   3.407  -2.603  1.00  0.00     0.016 A 
ATOM     29  C   UNL     1       0.990   2.690  -1.863  1.00  0.00     0.010 A 
ATOM     30  C   UNL     1       2.520   4.310  -2.768  1.00  0.00     0.010 A 
ATOM     31  C   UNL     1       1.200   3.947  -2.444  1.00  0.00    -0.014 A 
BRANCH  31  32
ATOM     32  C   UNL     1       0.061   4.871  -2.732  1.00  0.00     0.031 A 
ATOM     33  C   UNL     1      -0.092   5.479  -4.107  1.00  0.00     0.074 A 
ATOM     34  C   UNL     1      -0.835   5.191  -1.773  1.00  0.00     0.049 A 
ATOM     35  N   UNL     1      -0.827   6.494  -4.486  1.00  0.00    -0.248 NA
ATOM     36  C   UNL     1       0.705   4.885  -5.194  1.00  0.00     0.031 C 
ATOM     37  C   UNL     1      -0.851   4.663  -0.406  1.00  0.00     0.029 A 
ATOM     38  N   UNL     1      -1.913   6.043  -1.802  1.00  0.00    -0.354 N 
ATOM     39  C   UNL     1      -0.508   6.721  -5.822  1.00  0.00     0.074 A 
ATOM     40  C   UNL     1       0.466   5.719  -6.197  1.00  0.00     0.031 C 
ATOM     41  C   UNL     1      -1.911   5.156   0.251  1.00  0.00     0.029 A 
ATOM     42  C   UNL     1      -2.586   6.124  -0.604  1.00  0.00     0.049 A 
ATOM     43  H   UNL     1      -2.179   6.549  -2.604  1.00  0.00     0.167 HD
ATOM     44  C   UNL     1      -0.978   7.683  -6.651  1.00  0.00     0.037 A 
ATOM     45  C   UNL     1      -3.595   6.923  -0.208  1.00  0.00     0.037 A 
ATOM     46  C   UNL     1      -2.022   8.613  -6.302  1.00  0.00     0.049 A 
ATOM     47  C   UNL     1      -4.119   7.966  -1.153  1.00  0.00     0.074 A 
ATOM     48  C   UNL     1      -2.594   9.601  -7.087  1.00  0.00     0.029 A 
ATOM     49  N   UNL     1      -2.672   8.651  -5.078  1.00  0.00    -0.354 N 
ATOM     50  N   UNL     1      -3.746   8.222  -2.384  1.00  0.00    -0.248 NA
ATOM     51  C   UNL     1      -5.176   8.850  -0.645  1.00  0.00     0.031 C 
ATOM     52  C   UNL     1      -3.577  10.249  -6.330  1.00  0.00     0.029 A 
ATOM     53  C   UNL     1      -3.638   9.644  -5.086  1.00  0.00     0.049 A 
ATOM     54  H   UNL     1      -2.475   8.060  -4.316  1.00  0.00     0.167 HD
ATOM     55  C   UNL     1      -4.527   9.293  -2.799  1.00  0.00     0.074 A 
ATOM     56  C   UNL     1      -5.407   9.623  -1.697  1.00  0.00     0.031 C 
ATOM     57  C   UNL     1      -4.511   9.950  -3.984  1.00  0.00     0.037 A 
BRANCH  44  58
ATOM     58  C   UNL     1      -0.352   7.814  -8.012  1.00  0.00     0.058 A 
ATOM     59  C   UNL     1      -0.638   6.927  -9.058  1.00  0.00     0.135 A 
ATOM     60  C   UNL     1       0.502   8.898  -8.286  1.00  0.00     0.135 A 
ATOM     61  F   UNL     1      -1.433   5.866  -8.846  1.00  0.00    -0.206 F 
ATOM     62  C   UNL     1      -0.094   7.101 -10.328  1.00  0.00     0.059 A 
ATOM     63  C   UNL     1       1.040   9.103  -9.552  1.00  0.00     0.059 A 
ATOM     64  F   UNL     1       0.809   9.776  -7.319  1.00  0.00    -0.206 F 
ATOM     65  C   UNL     1       0.744   8.194 -10.566  1.00  0.00     0.060 A 
BRANCH  65  66
ATOM     66  S   UNL     1       1.419   8.428 -12.225  1.00  0.00     0.124 S 
ATOM     67  O   UNL     1       2.475   7.420 -12.253  1.00  0.00    -0.237 OA
ATOM     68  O   UNL     1       0.264   8.158 -13.075  1.00  0.00    -0.237 OA
ATOM     69  O   UNL     1       1.874   9.815 -12.213  1.00  0.00    -0.744 OA
ENDBRANCH  65  66
ENDBRANCH  44  58
BRANCH  45  70
ATOM     70  C   UNL     1      -4.139   6.809   1.172  1.00  0.00     0.058 A 
ATOM     71  C   UNL     1      -5.426   6.300   1.398  1.00  0.00     0.135 A 
ATOM     72  C   UNL     1      -3.382   7.195   2.289  1.00  0.00     0.135 A 
ATOM     73  F   UNL     1      -6.192   5.929   0.360  1.00  0.00    -0.206 F 
ATOM     74  C   UNL     1      -5.949   6.186   2.682  1.00  0.00     0.059 A 
ATOM     75  C   UNL     1      -3.872   7.065   3.584  1.00  0.00     0.059 A 
ATOM     76  F   UNL     1      -2.140   7.677   2.126  1.00  0.00    -0.206 F 
ATOM     77  C   UNL     1      -5.162   6.571   3.769  1.00  0.00     0.060 A 
BRANCH  77  78
ATOM     78  S   UNL     1      -5.820   6.373   5.439  1.00  0.00     0.124 S 
ATOM     79  O   UNL     1      -6.657   7.560   5.565  1.00  0.00    -0.237 OA
ATOM     80  O   UNL     1      -6.528   5.099   5.349  1.00  0.00    -0.237 OA
ATOM     81  O   UNL     1      -4.618   6.354   6.268  1.00  0.00    -0.744 OA
ENDBRANCH  77  78
ENDBRANCH  45  70
BRANCH  57  82
ATOM     82  C   UNL     1      -5.500  11.064  -4.157  1.00  0.00     0.058 A 
ATOM     83  C   UNL     1      -5.305  12.319  -3.560  1.00  0.00     0.135 A 
ATOM     84  C   UNL     1      -6.647  10.879  -4.945  1.00  0.00     0.135 A 
ATOM     85  F   UNL     1      -4.227  12.540  -2.790  1.00  0.00    -0.206 F 
ATOM     86  C   UNL     1      -6.228  13.347  -3.717  1.00  0.00     0.059 A 
ATOM     87  C   UNL     1      -7.573  11.899  -5.132  1.00  0.00     0.059 A 
ATOM     88  F   UNL     1      -6.873   9.698  -5.542  1.00  0.00    -0.206 F 
ATOM     89  C   UNL     1      -7.362  13.126  -4.502  1.00  0.00     0.060 A 
BRANCH  89  90
ATOM     90  S   UNL     1      -8.550  14.468  -4.713  1.00  0.00     0.124 S 
ATOM     91  O   UNL     1      -9.288  14.406  -3.456  1.00  0.00    -0.237 OA
ATOM     92  O   UNL     1      -7.686  15.632  -4.885  1.00  0.00    -0.237 OA
ATOM     93  O   UNL     1      -9.299  14.071  -5.902  1.00  0.00    -0.744 OA
ENDBRANCH  89  90
ENDBRANCH  57  82
ENDBRANCH  31  32
ENDBRANCH  24  26
ENDBRANCH  23  24
ENDBRANCH  22  23
ENDBRANCH   1  22
TORSDOF 18
