REMARK SMILES COc1ccc2c(c1)c(CC(=O)OCCOC(=O)c1ccc(-c3c4nc(c(-c5c(F)cc(S(=O)(=O)[O-])cc5F)c5ccc([nH]5)c(-c5c(F)cc(S(=O)(=O)[O-])cc5F)c5nc(c(-c6c(F)cc(S(=O)(=O)[O-])cc6F)c6ccc3[nH]6)C=C5)C=C4)cc1)c(C)n2Cc1ccn(C(F)F)c(=O)c1
REMARK SMILES IDX 14 1 13 2 11 3 12 4 10 5 9 6 3 7 4 8 8 9 5 10 7 11 6 12
REMARK SMILES IDX 87 13 85 14 86 15 2 16 1 17 88 18 89 19 90 20 98 21 91 22
REMARK SMILES IDX 96 23 92 24 97 25 93 26 94 27 95 28 15 29 16 30 17 31 18 32
REMARK SMILES IDX 19 33 20 34 84 35 21 36 83 37 22 38 23 39 24 40 77 41 25 42
REMARK SMILES IDX 82 43 76 44 78 45 26 46 81 47 75 48 74 49 27 51 61 52 40 53
REMARK SMILES IDX 60 54 41 55 44 56 59 57 79 58 42 59 43 60 58 62 80 63 45 64
REMARK SMILES IDX 28 65 29 66 38 67 30 68 31 69 37 70 39 71 32 72 33 73 34 74
REMARK SMILES IDX 35 75 36 76 62 77 63 78 72 79 64 80 65 81 71 82 73 83 66 84
REMARK SMILES IDX 67 85 68 86 69 87 70 88 46 89 47 90 56 91 48 92 49 93 55 94
REMARK SMILES IDX 57 95 50 96 51 97 52 98 53 99 54 100
REMARK H PARENT 78 50 44 61
REMARK Flexibility Score: inf
ROOT
ATOM      1  C   UNL     1      -1.574   2.903  -6.744  1.00  0.00     0.274 C 
ENDROOT
BRANCH   1   2
ATOM      2  O   UNL     1      -0.995   3.671  -5.664  1.00  0.00    -0.462 OA
BRANCH   2   3
ATOM      3  C   UNL     1      -1.888   4.442  -5.002  1.00  0.00     0.310 C 
ATOM      4  O   UNL     1      -3.079   4.481  -5.299  1.00  0.00    -0.252 OA
BRANCH   3   5
ATOM      5  C   UNL     1      -1.320   5.382  -3.979  1.00  0.00     0.160 C 
BRANCH   5   6
ATOM      6  C   UNL     1       0.049   5.215  -3.385  1.00  0.00    -0.008 A 
ATOM      7  C   UNL     1       1.457   1.980  -1.757  1.00  0.00     0.119 A 
ATOM      8  C   UNL     1       2.745   2.448  -1.587  1.00  0.00     0.048 A 
ATOM      9  C   UNL     1       0.515   2.775  -2.425  1.00  0.00     0.057 A 
ATOM     10  C   UNL     1       3.076   3.749  -1.984  1.00  0.00     0.031 A 
ATOM     11  C   UNL     1       0.774   4.123  -2.777  1.00  0.00     0.007 A 
ATOM     12  C   UNL     1       2.070   4.590  -2.508  1.00  0.00     0.049 A 
ATOM     13  N   UNL     1       2.100   5.918  -2.893  1.00  0.00    -0.340 N 
ATOM     14  C   UNL     1       0.819   6.348  -3.137  1.00  0.00     0.020 A 
ATOM     15  C   UNL     1       0.382   7.777  -3.204  1.00  0.00     0.065 C 
BRANCH   7  16
ATOM     16  O   UNL     1       1.073   0.707  -1.422  1.00  0.00    -0.497 OA
ATOM     17  C   UNL     1       1.293   0.369  -0.052  1.00  0.00     0.278 C 
ENDBRANCH   7  16
BRANCH  13  18
ATOM     18  C   UNL     1       3.306   6.727  -3.068  1.00  0.00     0.158 C 
BRANCH  18  19
ATOM     19  C   UNL     1       3.622   6.911  -4.538  1.00  0.00    -0.021 A 
ATOM     20  C   UNL     1       2.924   7.944  -5.277  1.00  0.00     0.024 A 
ATOM     21  C   UNL     1       4.488   6.122  -5.196  1.00  0.00     0.077 A 
ATOM     22  C   UNL     1       2.982   7.984  -6.612  1.00  0.00     0.095 A 
ATOM     23  C   UNL     1       4.657   6.236  -6.675  1.00  0.00     0.255 A 
ATOM     24  N   UNL     1       3.797   7.117  -7.311  1.00  0.00    -0.258 N 
ATOM     25  O   UNL     1       5.510   5.545  -7.222  1.00  0.00    -0.269 OA
BRANCH  24  26
ATOM     26  C   UNL     1       3.843   7.173  -8.748  1.00  0.00     0.451 C 
ATOM     27  F   UNL     1       5.019   7.698  -9.173  1.00  0.00    -0.185 F 
ATOM     28  F   UNL     1       3.714   5.941  -9.297  1.00  0.00    -0.185 F 
ENDBRANCH  24  26
ENDBRANCH  18  19
ENDBRANCH  13  18
ENDBRANCH   5   6
ENDBRANCH   3   5
ENDBRANCH   2   3
ENDBRANCH   1   2
BRANCH   1  29
ATOM     29  C   UNL     1      -1.846   1.462  -6.303  1.00  0.00     0.275 C 
BRANCH  29  30
ATOM     30  O   UNL     1      -2.980   1.434  -5.418  1.00  0.00    -0.458 OA
BRANCH  30  31
ATOM     31  C   UNL     1      -2.743   1.159  -4.112  1.00  0.00     0.338 C 
ATOM     32  O   UNL     1      -1.778   0.575  -3.648  1.00  0.00    -0.246 OA
BRANCH  31  33
ATOM     33  C   UNL     1      -3.670   2.012  -3.337  1.00  0.00     0.060 A 
ATOM     34  C   UNL     1      -5.001   2.173  -3.721  1.00  0.00     0.016 A 
ATOM     35  C   UNL     1      -3.094   2.894  -2.425  1.00  0.00     0.016 A 
ATOM     36  C   UNL     1      -5.659   3.351  -3.379  1.00  0.00     0.010 A 
ATOM     37  C   UNL     1      -3.727   4.079  -2.128  1.00  0.00     0.010 A 
ATOM     38  C   UNL     1      -4.961   4.354  -2.697  1.00  0.00    -0.014 A 
BRANCH  38  39
ATOM     39  C   UNL     1      -5.570   5.632  -2.375  1.00  0.00     0.031 A 
ATOM     40  C   UNL     1      -6.245   5.585  -1.061  1.00  0.00     0.074 A 
ATOM     41  C   UNL     1      -5.421   6.805  -3.023  1.00  0.00     0.049 A 
ATOM     42  N   UNL     1      -7.495   5.346  -0.858  1.00  0.00    -0.248 NA
ATOM     43  C   UNL     1      -5.419   5.571   0.158  1.00  0.00     0.031 C 
ATOM     44  C   UNL     1      -4.541   7.187  -4.124  1.00  0.00     0.029 A 
ATOM     45  N   UNL     1      -6.072   7.971  -2.754  1.00  0.00    -0.354 N 
ATOM     46  C   UNL     1      -7.651   5.372   0.517  1.00  0.00     0.074 A 
ATOM     47  C   UNL     1      -6.331   5.260   1.080  1.00  0.00     0.031 C 
ATOM     48  C   UNL     1      -4.580   8.531  -4.305  1.00  0.00     0.029 A 
ATOM     49  C   UNL     1      -5.614   9.085  -3.449  1.00  0.00     0.049 A 
ATOM     50  H   UNL     1      -6.816   8.022  -2.112  1.00  0.00     0.167 HD
ATOM     51  C   UNL     1      -8.826   5.746   1.088  1.00  0.00     0.037 A 
ATOM     52  C   UNL     1      -6.077  10.356  -3.322  1.00  0.00     0.037 A 
ATOM     53  C   UNL     1      -9.894   5.794   0.120  1.00  0.00     0.049 A 
ATOM     54  C   UNL     1      -7.442  10.252  -2.736  1.00  0.00     0.074 A 
ATOM     55  C   UNL     1     -10.457   4.863  -0.733  1.00  0.00     0.029 A 
ATOM     56  N   UNL     1     -10.229   7.023  -0.403  1.00  0.00    -0.354 N 
ATOM     57  N   UNL     1      -8.464   9.730  -3.360  1.00  0.00    -0.248 NA
ATOM     58  C   UNL     1      -7.555  10.300  -1.286  1.00  0.00     0.031 C 
ATOM     59  C   UNL     1     -10.670   5.561  -1.960  1.00  0.00     0.029 A 
ATOM     60  C   UNL     1     -10.288   6.889  -1.770  1.00  0.00     0.049 A 
ATOM     61  H   UNL     1     -10.396   7.847   0.110  1.00  0.00     0.167 HD
ATOM     62  C   UNL     1      -9.149   9.014  -2.389  1.00  0.00     0.074 A 
ATOM     63  C   UNL     1      -8.581   9.461  -1.118  1.00  0.00     0.031 C 
ATOM     64  C   UNL     1      -9.918   7.931  -2.709  1.00  0.00     0.037 A 
BRANCH  51  65
ATOM     65  C   UNL     1      -8.906   6.373   2.448  1.00  0.00     0.058 A 
ATOM     66  C   UNL     1     -10.130   6.396   3.136  1.00  0.00     0.135 A 
ATOM     67  C   UNL     1      -7.861   7.136   3.020  1.00  0.00     0.135 A 
ATOM     68  F   UNL     1     -11.197   5.741   2.651  1.00  0.00    -0.206 F 
ATOM     69  C   UNL     1     -10.307   7.134   4.306  1.00  0.00     0.059 A 
ATOM     70  C   UNL     1      -7.994   7.821   4.218  1.00  0.00     0.059 A 
ATOM     71  F   UNL     1      -6.692   7.324   2.394  1.00  0.00    -0.206 F 
ATOM     72  C   UNL     1      -9.231   7.841   4.839  1.00  0.00     0.060 A 
BRANCH  72  73
ATOM     73  S   UNL     1      -9.473   8.841   6.316  1.00  0.00     0.124 S 
ATOM     74  O   UNL     1     -10.338   9.900   5.810  1.00  0.00    -0.237 OA
ATOM     75  O   UNL     1     -10.094   7.886   7.227  1.00  0.00    -0.237 OA
ATOM     76  O   UNL     1      -8.117   9.248   6.673  1.00  0.00    -0.744 OA
ENDBRANCH  72  73
ENDBRANCH  51  65
BRANCH  52  77
ATOM     77  C   UNL     1      -5.325  11.642  -3.324  1.00  0.00     0.058 A 
ATOM     78  C   UNL     1      -6.008  12.874  -3.326  1.00  0.00     0.135 A 
ATOM     79  C   UNL     1      -3.958  11.692  -2.990  1.00  0.00     0.135 A 
ATOM     80  F   UNL     1      -7.314  12.922  -3.630  1.00  0.00    -0.206 F 
ATOM     81  C   UNL     1      -5.397  14.071  -2.935  1.00  0.00     0.059 A 
ATOM     82  C   UNL     1      -3.326  12.874  -2.601  1.00  0.00     0.059 A 
ATOM     83  F   UNL     1      -3.219  10.574  -2.935  1.00  0.00    -0.206 F 
ATOM     84  C   UNL     1      -4.060  14.054  -2.541  1.00  0.00     0.060 A 
BRANCH  84  85
ATOM     85  S   UNL     1      -3.328  15.549  -1.831  1.00  0.00     0.124 S 
ATOM     86  O   UNL     1      -3.298  16.447  -2.980  1.00  0.00    -0.237 OA
ATOM     87  O   UNL     1      -4.281  15.888  -0.780  1.00  0.00    -0.237 OA
ATOM     88  O   UNL     1      -2.021  15.094  -1.362  1.00  0.00    -0.744 OA
ENDBRANCH  84  85
ENDBRANCH  52  77
BRANCH  64  89
ATOM     89  C   UNL     1     -10.228   7.681  -4.168  1.00  0.00     0.058 A 
ATOM     90  C   UNL     1      -9.268   7.379  -5.152  1.00  0.00     0.135 A 
ATOM     91  C   UNL     1     -11.575   7.604  -4.553  1.00  0.00     0.135 A 
ATOM     92  F   UNL     1      -7.963   7.339  -4.852  1.00  0.00    -0.206 F 
ATOM     93  C   UNL     1      -9.630   7.048  -6.463  1.00  0.00     0.059 A 
ATOM     94  C   UNL     1     -11.961   7.248  -5.844  1.00  0.00     0.059 A 
ATOM     95  F   UNL     1     -12.545   7.830  -3.652  1.00  0.00    -0.206 F 
ATOM     96  C   UNL     1     -10.982   6.981  -6.799  1.00  0.00     0.060 A 
BRANCH  96  97
ATOM     97  S   UNL     1     -11.454   6.486  -8.472  1.00  0.00     0.124 S 
ATOM     98  O   UNL     1     -11.003   7.622  -9.269  1.00  0.00    -0.237 OA
ATOM     99  O   UNL     1     -10.707   5.246  -8.658  1.00  0.00    -0.237 OA
ATOM    100  O   UNL     1     -12.903   6.323  -8.385  1.00  0.00    -0.744 OA
ENDBRANCH  96  97
ENDBRANCH  64  89
ENDBRANCH  38  39
ENDBRANCH  31  33
ENDBRANCH  30  31
ENDBRANCH  29  30
ENDBRANCH   1  29
TORSDOF 19
