REMARK SMILES Cc1c(CC(=O)OCCOC(=O)c2ccc(-c3c4nc(c(-c5c(F)cc(S(=O)(=O)[O-])cc5F)c5ccc([nH]5)c(-c5c(F)cc(S(=O)(=O)[O-])cc5F)c5nc(c(-c6c(F)cc(S(=O)(=O)[O-])cc6F)c6ccc3[nH]6)C=C5)C=C4)cc2)cccc1-c1ccn(C(F)F)c(=O)c1
REMARK SMILES IDX 8 1 7 2 5 3 6 4 4 5 3 6 1 7 2 8 82 9 79 10 81 11 80 12 83 13
REMARK SMILES IDX 84 14 92 15 85 16 90 17 86 18 91 19 87 20 88 21 89 22 9 23
REMARK SMILES IDX 10 24 11 25 12 26 13 27 14 28 78 29 15 30 77 31 16 32 17 33
REMARK SMILES IDX 18 34 71 35 19 36 76 37 70 38 72 39 20 40 75 41 69 42 68 43
REMARK SMILES IDX 21 45 55 46 34 47 54 48 35 49 38 50 53 51 73 52 36 53 37 54
REMARK SMILES IDX 52 56 74 57 39 58 22 59 23 60 32 61 24 62 25 63 31 64 33 65
REMARK SMILES IDX 26 66 27 67 28 68 29 69 30 70 56 71 57 72 66 73 58 74 59 75
REMARK SMILES IDX 65 76 67 77 60 78 61 79 62 80 63 81 64 82 40 83 41 84 50 85
REMARK SMILES IDX 42 86 43 87 49 88 51 89 44 90 45 91 46 92 47 93 48 94
REMARK H PARENT 72 44 38 55
REMARK Flexibility Score: inf
ROOT
ATOM      1  C   UNL     1      -0.534  -4.234   4.350  1.00  0.00     0.274 C 
ENDROOT
BRANCH   1   2
ATOM      2  O   UNL     1       0.417  -3.462   3.591  1.00  0.00    -0.462 OA
BRANCH   2   3
ATOM      3  C   UNL     1       0.482  -3.744   2.171  1.00  0.00     0.310 C 
ATOM      4  O   UNL     1       0.187  -4.974   2.075  1.00  0.00    -0.252 OA
BRANCH   3   5
ATOM      5  C   UNL     1       0.964  -2.289   0.631  1.00  0.00     0.158 C 
BRANCH   5   6
ATOM      6  C   UNL     1       0.292  -0.789   0.122  1.00  0.00    -0.033 A 
ATOM      7  C   UNL     1       2.538   0.408   0.401  1.00  0.00     0.045 C 
ATOM      8  C   UNL     1       1.044   0.417   0.175  1.00  0.00    -0.039 A 
ATOM      9  C   UNL     1       0.366   1.635  -0.078  1.00  0.00    -0.015 A 
ATOM     10  C   UNL     1      -0.973  -0.753  -0.508  1.00  0.00     0.004 A 
ATOM     11  C   UNL     1      -0.985   1.640  -0.451  1.00  0.00     0.009 A 
ATOM     12  C   UNL     1      -1.636   0.447  -0.715  1.00  0.00     0.001 A 
BRANCH   9  13
ATOM     13  C   UNL     1       1.065   2.928  -0.025  1.00  0.00    -0.011 A 
ATOM     14  C   UNL     1       1.873   3.398  -1.131  1.00  0.00     0.027 A 
ATOM     15  C   UNL     1       1.020   3.630   1.118  1.00  0.00     0.080 A 
ATOM     16  C   UNL     1       2.671   4.458  -0.973  1.00  0.00     0.095 A 
ATOM     17  C   UNL     1       1.837   4.864   1.272  1.00  0.00     0.255 A 
ATOM     18  N   UNL     1       2.685   5.162   0.216  1.00  0.00    -0.258 N 
ATOM     19  O   UNL     1       1.731   5.514   2.308  1.00  0.00    -0.269 OA
BRANCH  18  20
ATOM     20  C   UNL     1       3.599   6.255   0.402  1.00  0.00     0.451 C 
ATOM     21  F   UNL     1       2.936   7.427   0.554  1.00  0.00    -0.185 F 
ATOM     22  F   UNL     1       4.374   6.064   1.496  1.00  0.00    -0.185 F 
ENDBRANCH  18  20
ENDBRANCH   9  13
ENDBRANCH   5   6
ENDBRANCH   3   5
ENDBRANCH   2   3
ENDBRANCH   1   2
BRANCH   1  23
ATOM     23  C   UNL     1      -1.925  -3.619   4.147  1.00  0.00     0.275 C 
BRANCH  23  24
ATOM     24  O   UNL     1      -2.454  -3.788   2.808  1.00  0.00    -0.458 OA
BRANCH  24  25
ATOM     25  C   UNL     1      -2.385  -2.737   1.949  1.00  0.00     0.338 C 
ATOM     26  O   UNL     1      -3.289  -1.963   1.690  1.00  0.00    -0.246 OA
BRANCH  25  27
ATOM     27  C   UNL     1      -1.019  -2.607   1.405  1.00  0.00     0.060 A 
ATOM     28  C   UNL     1      -0.379  -3.864   0.275  1.00  0.00     0.016 A 
ATOM     29  C   UNL     1       0.107  -1.663   2.449  1.00  0.00     0.016 A 
ATOM     30  C   UNL     1       1.390  -4.327   0.353  1.00  0.00     0.010 A 
ATOM     31  C   UNL     1       1.841  -2.138   2.535  1.00  0.00     0.010 A 
ATOM     32  C   UNL     1       2.456  -3.525   1.554  1.00  0.00    -0.014 A 
BRANCH  32  33
ATOM     33  C   UNL     1       3.574  -4.185   2.217  1.00  0.00     0.031 A 
ATOM     34  C   UNL     1       4.860  -3.481   2.358  1.00  0.00     0.074 A 
ATOM     35  C   UNL     1       3.296  -5.274   2.976  1.00  0.00     0.049 A 
ATOM     36  N   UNL     1       5.913  -4.030   2.849  1.00  0.00    -0.248 NA
ATOM     37  C   UNL     1       5.097  -2.107   1.922  1.00  0.00     0.031 C 
ATOM     38  C   UNL     1       4.073  -5.833   4.078  1.00  0.00     0.029 A 
ATOM     39  N   UNL     1       2.274  -6.205   2.842  1.00  0.00    -0.354 N 
ATOM     40  C   UNL     1       6.807  -3.028   3.133  1.00  0.00     0.074 A 
ATOM     41  C   UNL     1       6.331  -1.890   2.391  1.00  0.00     0.031 C 
ATOM     42  C   UNL     1       3.692  -7.108   4.273  1.00  0.00     0.029 A 
ATOM     43  C   UNL     1       2.764  -7.453   3.209  1.00  0.00     0.049 A 
ATOM     44  H   UNL     1       1.357  -6.013   2.538  1.00  0.00     0.167 HD
ATOM     45  C   UNL     1       7.756  -3.268   4.080  1.00  0.00     0.037 A 
ATOM     46  C   UNL     1       2.937  -8.439   2.277  1.00  0.00     0.037 A 
ATOM     47  C   UNL     1       7.824  -4.704   4.381  1.00  0.00     0.049 A 
ATOM     48  C   UNL     1       4.421  -8.683   1.992  1.00  0.00     0.074 A 
ATOM     49  C   UNL     1       7.462  -5.526   5.433  1.00  0.00     0.029 A 
ATOM     50  N   UNL     1       8.073  -5.558   3.319  1.00  0.00    -0.354 N 
ATOM     51  N   UNL     1       5.399  -8.128   2.663  1.00  0.00    -0.248 NA
ATOM     52  C   UNL     1       4.931  -9.515   0.902  1.00  0.00     0.031 C 
ATOM     53  C   UNL     1       7.368  -6.869   4.924  1.00  0.00     0.029 A 
ATOM     54  C   UNL     1       7.731  -6.867   3.586  1.00  0.00     0.049 A 
ATOM     55  H   UNL     1       8.454  -5.260   2.462  1.00  0.00     0.167 HD
ATOM     56  C   UNL     1       6.603  -8.399   2.074  1.00  0.00     0.074 A 
ATOM     57  C   UNL     1       6.258  -9.300   0.984  1.00  0.00     0.031 C 
ATOM     58  C   UNL     1       7.782  -7.834   2.484  1.00  0.00     0.037 A 
BRANCH  45  59
ATOM     59  C   UNL     1       8.546  -2.202   4.809  1.00  0.00     0.058 A 
ATOM     60  C   UNL     1       9.616  -2.569   5.651  1.00  0.00     0.135 A 
ATOM     61  C   UNL     1       8.241  -0.820   4.814  1.00  0.00     0.135 A 
ATOM     62  F   UNL     1       9.995  -3.851   5.766  1.00  0.00    -0.206 F 
ATOM     63  C   UNL     1      10.325  -1.646   6.428  1.00  0.00     0.059 A 
ATOM     64  C   UNL     1       8.968   0.127   5.540  1.00  0.00     0.059 A 
ATOM     65  F   UNL     1       7.180  -0.319   4.170  1.00  0.00    -0.206 F 
ATOM     66  C   UNL     1       9.998  -0.297   6.362  1.00  0.00     0.060 A 
BRANCH  66  67
ATOM     67  S   UNL     1      10.900   0.887   7.378  1.00  0.00     0.124 S 
ATOM     68  O   UNL     1      10.468   0.518   8.722  1.00  0.00    -0.237 OA
ATOM     69  O   UNL     1      12.289   0.583   7.049  1.00  0.00    -0.237 OA
ATOM     70  O   UNL     1      10.419   2.181   6.902  1.00  0.00    -0.744 OA
ENDBRANCH  66  67
ENDBRANCH  45  59
BRANCH  46  71
ATOM     71  C   UNL     1       1.780  -8.547   1.327  1.00  0.00     0.058 A 
ATOM     72  C   UNL     1       0.526  -8.905   1.874  1.00  0.00     0.135 A 
ATOM     73  C   UNL     1       1.760  -7.955   0.057  1.00  0.00     0.135 A 
ATOM     74  F   UNL     1       0.471  -9.516   3.069  1.00  0.00    -0.206 F 
ATOM     75  C   UNL     1      -0.683  -8.550   1.274  1.00  0.00     0.059 A 
ATOM     76  C   UNL     1       0.554  -7.613  -0.578  1.00  0.00     0.059 A 
ATOM     77  F   UNL     1       2.904  -7.566  -0.525  1.00  0.00    -0.206 F 
ATOM     78  C   UNL     1      -0.660  -7.859   0.067  1.00  0.00     0.060 A 
BRANCH  78  79
ATOM     79  S   UNL     1      -2.216  -7.175  -0.566  1.00  0.00     0.124 S 
ATOM     80  O   UNL     1      -2.973  -8.379  -0.886  1.00  0.00    -0.237 OA
ATOM     81  O   UNL     1      -2.707  -6.403   0.570  1.00  0.00    -0.237 OA
ATOM     82  O   UNL     1      -1.791  -6.376  -1.712  1.00  0.00    -0.744 OA
ENDBRANCH  78  79
ENDBRANCH  46  71
BRANCH  58  83
ATOM     83  C   UNL     1       9.107  -8.142   1.824  1.00  0.00     0.058 A 
ATOM     84  C   UNL     1       9.513  -9.458   1.552  1.00  0.00     0.135 A 
ATOM     85  C   UNL     1      10.066  -7.138   1.550  1.00  0.00     0.135 A 
ATOM     86  F   UNL     1       8.706 -10.495   1.828  1.00  0.00    -0.206 F 
ATOM     87  C   UNL     1      10.761  -9.754   1.000  1.00  0.00     0.059 A 
ATOM     88  C   UNL     1      11.342  -7.415   1.071  1.00  0.00     0.059 A 
ATOM     89  F   UNL     1       9.788  -5.835   1.694  1.00  0.00    -0.206 F 
ATOM     90  C   UNL     1      11.670  -8.725   0.766  1.00  0.00     0.060 A 
BRANCH  90  91
ATOM     91  S   UNL     1      13.284  -9.100   0.061  1.00  0.00     0.124 S 
ATOM     92  O   UNL     1      13.650 -10.335   0.748  1.00  0.00    -0.237 OA
ATOM     93  O   UNL     1      12.955  -9.236  -1.354  1.00  0.00    -0.237 OA
ATOM     94  O   UNL     1      14.088  -7.933   0.410  1.00  0.00    -0.744 OA
ENDBRANCH  90  91
ENDBRANCH  58  83
ENDBRANCH  32  33
ENDBRANCH  25  27
ENDBRANCH  24  25
ENDBRANCH  23  24
ENDBRANCH   1  23
TORSDOF 17
