REMARK SMILES COc1ccccc1-c1nnc(S[C@@H](C)C(=O)OCCOC(=O)c2ccc(-c3c4nc(c(-c5c(F)cc(S(=O)(=O)[O-])cc5F)c5ccc([nH]5)c(-c5c(F)cc(S(=O)(=O)[O-])cc5F)c5nc(c(-c6c(F)cc(S(=O)(=O)[O-])cc6F)c6ccc3[nH]6)C=C5)C=C4)cc2)n1-c1ccccc1
REMARK SMILES IDX 19 1 18 2 16 3 17 4 14 5 15 6 13 7 12 8 9 9 10 10 90 11
REMARK SMILES IDX 11 12 8 13 3 14 4 15 5 16 7 17 6 18 2 19 1 20 91 21 92 22
REMARK SMILES IDX 96 23 93 24 95 25 94 26 20 27 21 28 22 29 23 30 24 31 25 32
REMARK SMILES IDX 89 33 26 34 88 35 27 36 28 37 29 38 82 39 30 40 87 41 81 42
REMARK SMILES IDX 83 43 31 44 86 45 80 46 79 47 32 49 66 50 45 51 65 52 46 53
REMARK SMILES IDX 49 54 64 55 84 56 47 57 48 58 63 60 85 61 50 62 33 63 34 64
REMARK SMILES IDX 43 65 35 66 36 67 42 68 44 69 37 70 38 71 39 72 40 73 41 74
REMARK SMILES IDX 67 75 68 76 77 77 69 78 70 79 76 80 78 81 71 82 72 83 73 84
REMARK SMILES IDX 74 85 75 86 51 87 52 88 61 89 53 90 54 91 60 92 62 93 55 94
REMARK SMILES IDX 56 95 57 96 58 97 59 98
REMARK H PARENT 83 48 49 59
REMARK Flexibility Score: inf
ROOT
ATOM      1  C   UNL     1       5.133  -4.309  -0.689  1.00  0.00     0.274 C 
ENDROOT
BRANCH   1   2
ATOM      2  O   UNL     1       4.934  -3.221   0.251  1.00  0.00    -0.461 OA
BRANCH   2   3
ATOM      3  C   UNL     1       4.696  -3.467   1.573  1.00  0.00     0.319 C 
ATOM      4  O   UNL     1       4.570  -4.596   2.041  1.00  0.00    -0.251 OA
BRANCH   3   5
ATOM      5  C   UNL     1       4.734  -2.211   2.450  1.00  0.00     0.161 C 
ATOM      6  C   UNL     1       3.760  -2.149   3.632  1.00  0.00     0.032 C 
BRANCH   5   7
ATOM      7  S   UNL     1       4.721  -0.588   1.697  1.00  0.00    -0.071 SA
BRANCH   7   8
ATOM      8  C   UNL     1       3.902  -0.534   0.184  1.00  0.00     0.196 A 
ATOM      9  C   UNL     1       2.752  -0.746  -1.659  1.00  0.00     0.173 A 
ATOM     10  N   UNL     1       3.577   0.262  -1.818  1.00  0.00    -0.129 NA
ATOM     11  N   UNL     1       2.923  -1.332  -0.405  1.00  0.00    -0.270 N 
ATOM     12  N   UNL     1       4.263   0.414  -0.659  1.00  0.00    -0.122 NA
BRANCH   9  13
ATOM     13  C   UNL     1       1.718  -1.109  -2.606  1.00  0.00     0.062 A 
ATOM     14  C   UNL     1       0.365  -1.189  -2.241  1.00  0.00     0.129 A 
ATOM     15  C   UNL     1      -0.530  -1.803  -3.116  1.00  0.00     0.047 A 
ATOM     16  C   UNL     1      -0.102  -2.267  -4.363  1.00  0.00     0.004 A 
ATOM     17  C   UNL     1       2.135  -1.528  -3.881  1.00  0.00     0.016 A 
ATOM     18  C   UNL     1       1.226  -2.113  -4.755  1.00  0.00     0.001 A 
BRANCH  14  19
ATOM     19  O   UNL     1      -0.151  -0.873  -1.008  1.00  0.00    -0.496 OA
ATOM     20  C   UNL     1       0.133   0.440  -0.521  1.00  0.00     0.278 C 
ENDBRANCH  14  19
ENDBRANCH   9  13
BRANCH  11  21
ATOM     21  C   UNL     1       2.223  -2.498   0.046  1.00  0.00     0.050 A 
ATOM     22  C   UNL     1       1.688  -2.583   1.325  1.00  0.00     0.027 A 
ATOM     23  C   UNL     1       2.136  -3.623  -0.795  1.00  0.00     0.027 A 
ATOM     24  C   UNL     1       1.273  -3.824   1.827  1.00  0.00     0.002 A 
ATOM     25  C   UNL     1       1.754  -4.865  -0.286  1.00  0.00     0.002 A 
ATOM     26  C   UNL     1       1.361  -4.972   1.041  1.00  0.00     0.000 A 
ENDBRANCH  11  21
ENDBRANCH   7   8
ENDBRANCH   5   7
ENDBRANCH   3   5
ENDBRANCH   2   3
ENDBRANCH   1   2
BRANCH   1  27
ATOM     27  C   UNL     1       6.563  -4.319  -1.200  1.00  0.00     0.275 C 
BRANCH  27  28
ATOM     28  O   UNL     1       7.367  -4.745  -0.119  1.00  0.00    -0.458 OA
BRANCH  28  29
ATOM     29  C   UNL     1       7.545  -3.776   0.816  1.00  0.00     0.338 C 
ATOM     30  O   UNL     1       7.428  -2.581   0.655  1.00  0.00    -0.246 OA
BRANCH  29  31
ATOM     31  C   UNL     1       7.871  -4.420   2.122  1.00  0.00     0.060 A 
ATOM     32  C   UNL     1       8.462  -3.476   2.961  1.00  0.00     0.016 A 
ATOM     33  C   UNL     1       8.412  -5.694   1.964  1.00  0.00     0.016 A 
ATOM     34  C   UNL     1       9.828  -3.529   3.039  1.00  0.00     0.010 A 
ATOM     35  C   UNL     1       9.776  -5.734   1.972  1.00  0.00     0.010 A 
ATOM     36  C   UNL     1      10.463  -4.599   2.410  1.00  0.00    -0.014 A 
BRANCH  36  37
ATOM     37  C   UNL     1      11.896  -4.583   2.321  1.00  0.00     0.031 A 
ATOM     38  C   UNL     1      12.494  -5.170   3.532  1.00  0.00     0.074 A 
ATOM     39  C   UNL     1      12.543  -4.213   1.205  1.00  0.00     0.049 A 
ATOM     40  N   UNL     1      12.986  -4.538   4.546  1.00  0.00    -0.248 NA
ATOM     41  C   UNL     1      12.201  -6.591   3.793  1.00  0.00     0.031 C 
ATOM     42  C   UNL     1      12.008  -3.890  -0.119  1.00  0.00     0.029 A 
ATOM     43  N   UNL     1      13.886  -4.195   1.014  1.00  0.00    -0.354 N 
ATOM     44  C   UNL     1      13.271  -5.538   5.464  1.00  0.00     0.074 A 
ATOM     45  C   UNL     1      12.453  -6.658   5.099  1.00  0.00     0.031 C 
ATOM     46  C   UNL     1      13.014  -3.956  -1.024  1.00  0.00     0.029 A 
ATOM     47  C   UNL     1      14.259  -4.225  -0.326  1.00  0.00     0.049 A 
ATOM     48  H   UNL     1      14.534  -4.163   1.754  1.00  0.00     0.167 HD
ATOM     49  C   UNL     1      14.390  -5.510   6.235  1.00  0.00     0.037 A 
ATOM     50  C   UNL     1      15.486  -4.636  -0.742  1.00  0.00     0.037 A 
ATOM     51  C   UNL     1      15.009  -4.208   6.197  1.00  0.00     0.049 A 
ATOM     52  C   UNL     1      16.392  -4.508   0.451  1.00  0.00     0.074 A 
ATOM     53  C   UNL     1      14.589  -2.939   6.547  1.00  0.00     0.029 A 
ATOM     54  N   UNL     1      16.068  -4.032   5.333  1.00  0.00    -0.354 N 
ATOM     55  N   UNL     1      16.676  -3.360   1.019  1.00  0.00    -0.248 NA
ATOM     56  C   UNL     1      16.522  -5.671   1.325  1.00  0.00     0.031 C 
ATOM     57  C   UNL     1      15.089  -2.087   5.520  1.00  0.00     0.029 A 
ATOM     58  C   UNL     1      15.852  -2.862   4.644  1.00  0.00     0.049 A 
ATOM     59  H   UNL     1      16.839  -4.635   5.228  1.00  0.00     0.167 HD
ATOM     60  C   UNL     1      16.618  -3.603   2.390  1.00  0.00     0.074 A 
ATOM     61  C   UNL     1      16.565  -5.059   2.514  1.00  0.00     0.031 C 
ATOM     62  C   UNL     1      16.316  -2.618   3.291  1.00  0.00     0.037 A 
BRANCH  49  63
ATOM     63  C   UNL     1      15.105  -6.747   6.718  1.00  0.00     0.058 A 
ATOM     64  C   UNL     1      16.104  -6.614   7.698  1.00  0.00     0.135 A 
ATOM     65  C   UNL     1      15.018  -8.023   6.110  1.00  0.00     0.135 A 
ATOM     66  F   UNL     1      16.283  -5.446   8.336  1.00  0.00    -0.206 F 
ATOM     67  C   UNL     1      16.987  -7.649   8.006  1.00  0.00     0.059 A 
ATOM     68  C   UNL     1      15.839  -9.086   6.452  1.00  0.00     0.059 A 
ATOM     69  F   UNL     1      14.206  -8.290   5.082  1.00  0.00    -0.206 F 
ATOM     70  C   UNL     1      16.852  -8.878   7.367  1.00  0.00     0.060 A 
BRANCH  70  71
ATOM     71  S   UNL     1      18.053 -10.180   7.669  1.00  0.00     0.124 S 
ATOM     72  O   UNL     1      19.249  -9.618   7.053  1.00  0.00    -0.237 OA
ATOM     73  O   UNL     1      18.055 -10.255   9.126  1.00  0.00    -0.237 OA
ATOM     74  O   UNL     1      17.476 -11.336   6.988  1.00  0.00    -0.744 OA
ENDBRANCH  70  71
ENDBRANCH  49  63
BRANCH  50  75
ATOM     75  C   UNL     1      15.751  -5.529  -1.907  1.00  0.00     0.058 A 
ATOM     76  C   UNL     1      17.045  -5.730  -2.418  1.00  0.00     0.135 A 
ATOM     77  C   UNL     1      14.754  -6.394  -2.412  1.00  0.00     0.135 A 
ATOM     78  F   UNL     1      18.067  -4.985  -1.971  1.00  0.00    -0.206 F 
ATOM     79  C   UNL     1      17.332  -6.732  -3.360  1.00  0.00     0.059 A 
ATOM     80  C   UNL     1      15.011  -7.383  -3.358  1.00  0.00     0.059 A 
ATOM     81  F   UNL     1      13.501  -6.367  -1.937  1.00  0.00    -0.206 F 
ATOM     82  C   UNL     1      16.306  -7.562  -3.816  1.00  0.00     0.060 A 
BRANCH  82  83
ATOM     83  S   UNL     1      16.678  -8.947  -4.920  1.00  0.00     0.124 S 
ATOM     84  O   UNL     1      17.079  -8.261  -6.143  1.00  0.00    -0.237 OA
ATOM     85  O   UNL     1      17.739  -9.640  -4.198  1.00  0.00    -0.237 OA
ATOM     86  O   UNL     1      15.410  -9.669  -4.999  1.00  0.00    -0.744 OA
ENDBRANCH  82  83
ENDBRANCH  50  75
BRANCH  62  87
ATOM     87  C   UNL     1      16.224  -1.187   2.810  1.00  0.00     0.058 A 
ATOM     88  C   UNL     1      15.271  -0.726   1.883  1.00  0.00     0.135 A 
ATOM     89  C   UNL     1      16.985  -0.211   3.471  1.00  0.00     0.135 A 
ATOM     90  F   UNL     1      14.424  -1.578   1.292  1.00  0.00    -0.206 F 
ATOM     91  C   UNL     1      15.108   0.632   1.598  1.00  0.00     0.059 A 
ATOM     92  C   UNL     1      16.818   1.151   3.229  1.00  0.00     0.059 A 
ATOM     93  F   UNL     1      17.864  -0.574   4.420  1.00  0.00    -0.206 F 
ATOM     94  C   UNL     1      15.886   1.565   2.281  1.00  0.00     0.060 A 
BRANCH  94  95
ATOM     95  S   UNL     1      15.624   3.326   1.971  1.00  0.00     0.124 S 
ATOM     96  O   UNL     1      16.163   3.482   0.624  1.00  0.00    -0.237 OA
ATOM     97  O   UNL     1      14.176   3.459   2.095  1.00  0.00    -0.237 OA
ATOM     98  O   UNL     1      16.393   3.977   3.029  1.00  0.00    -0.744 OA
ENDBRANCH  94  95
ENDBRANCH  62  87
ENDBRANCH  36  37
ENDBRANCH  29  31
ENDBRANCH  28  29
ENDBRANCH  27  28
ENDBRANCH   1  27
TORSDOF 19
