REMARK SMILES Cc1nc([C@]2(C)CCCO2)nc(C)c1C(=O)OCCOC(=O)c1ccc(-c2c3nc(c(-c4c(F)cc(S(=O)(=O)[O-])cc4F)c4ccc([nH]4)c(-c4c(F)cc(S(=O)(=O)[O-])cc4F)c4nc(c(-c5c(F)cc(S(=O)(=O)[O-])cc5F)c5ccc2[nH]5)C=C4)C=C3)cc1
REMARK SMILES IDX 19 1 18 2 17 3 15 4 16 5 14 6 1 7 2 8 3 9 4 10 12 11 11 12
REMARK SMILES IDX 13 13 5 14 7 15 10 16 6 17 8 18 9 19 20 20 21 21 22 22 23 23
REMARK SMILES IDX 24 24 88 25 25 26 87 27 26 28 27 29 28 30 81 31 29 32 86 33
REMARK SMILES IDX 80 34 82 35 30 36 85 37 79 38 78 39 31 41 65 42 44 43 64 44
REMARK SMILES IDX 45 45 48 46 63 47 83 48 46 49 47 50 62 52 84 53 49 54 32 55
REMARK SMILES IDX 33 56 42 57 34 58 35 59 41 60 43 61 36 62 37 63 38 64 39 65
REMARK SMILES IDX 40 66 66 67 67 68 76 69 68 70 69 71 75 72 77 73 70 74 71 75
REMARK SMILES IDX 72 76 73 77 74 78 50 79 51 80 60 81 52 82 53 83 59 84 61 85
REMARK SMILES IDX 54 86 55 87 56 88 57 89 58 90
REMARK H PARENT 82 40 48 51
REMARK Flexibility Score: inf
ROOT
ATOM      1  C   UNL     1      -6.994  -3.467   4.543  1.00  0.00     0.275 C 
ENDROOT
BRANCH   1   2
ATOM      2  C   UNL     1      -6.883  -3.989   3.112  1.00  0.00     0.275 C 
BRANCH   2   3
ATOM      3  O   UNL     1      -5.508  -4.004   2.661  1.00  0.00    -0.458 OA
BRANCH   3   4
ATOM      4  C   UNL     1      -5.199  -3.152   1.649  1.00  0.00     0.341 C 
ATOM      5  O   UNL     1      -5.961  -2.344   1.156  1.00  0.00    -0.246 OA
BRANCH   4   6
ATOM      6  C   UNL     1      -3.797  -3.306   1.189  1.00  0.00     0.102 A 
ATOM      7  C   UNL     1      -3.801  -5.841   1.340  1.00  0.00     0.068 C 
ATOM      8  C   UNL     1      -3.153  -4.526   1.018  1.00  0.00     0.056 A 
ATOM      9  N   UNL     1      -1.870  -4.619   0.559  1.00  0.00    -0.234 NA
ATOM     10  C   UNL     1      -1.228  -3.473   0.245  1.00  0.00     0.160 A 
ATOM     11  C   UNL     1      -3.059  -2.195   0.806  1.00  0.00     0.056 A 
ATOM     12  N   UNL     1      -1.815  -2.279   0.305  1.00  0.00    -0.234 NA
ATOM     13  C   UNL     1      -3.430  -0.784   1.088  1.00  0.00     0.068 C 
BRANCH  10  14
ATOM     14  C   UNL     1       0.245  -3.470  -0.180  1.00  0.00     0.125 C 
ATOM     15  C   UNL     1       0.423  -3.970  -1.609  1.00  0.00     0.046 C 
ATOM     16  O   UNL     1       1.015  -4.381   0.635  1.00  0.00    -0.367 OA
ATOM     17  C   UNL     1       0.856  -2.068  -0.012  1.00  0.00     0.051 C 
ATOM     18  C   UNL     1       0.491  -5.468  -1.431  1.00  0.00     0.032 C 
ATOM     19  C   UNL     1       1.093  -5.637  -0.048  1.00  0.00     0.161 C 
ENDBRANCH  10  14
ENDBRANCH   4   6
ENDBRANCH   3   4
ENDBRANCH   2   3
ENDBRANCH   1   2
BRANCH   1  20
ATOM     20  O   UNL     1      -6.720  -2.055   4.572  1.00  0.00    -0.458 OA
BRANCH  20  21
ATOM     21  C   UNL     1      -5.538  -1.705   5.128  1.00  0.00     0.338 C 
ATOM     22  O   UNL     1      -4.722  -2.446   5.653  1.00  0.00    -0.246 OA
BRANCH  21  23
ATOM     23  C   UNL     1      -5.286  -0.269   4.923  1.00  0.00     0.060 A 
ATOM     24  C   UNL     1      -5.183   0.187   3.620  1.00  0.00     0.016 A 
ATOM     25  C   UNL     1      -4.907   0.561   5.975  1.00  0.00     0.016 A 
ATOM     26  C   UNL     1      -4.498   1.375   3.364  1.00  0.00     0.010 A 
ATOM     27  C   UNL     1      -4.386   1.840   5.704  1.00  0.00     0.010 A 
ATOM     28  C   UNL     1      -4.096   2.245   4.388  1.00  0.00    -0.014 A 
BRANCH  28  29
ATOM     29  C   UNL     1      -3.335   3.509   4.075  1.00  0.00     0.031 A 
ATOM     30  C   UNL     1      -2.115   3.901   4.891  1.00  0.00     0.074 A 
ATOM     31  C   UNL     1      -3.679   4.308   3.037  1.00  0.00     0.049 A 
ATOM     32  N   UNL     1      -1.507   5.060   4.971  1.00  0.00    -0.248 NA
ATOM     33  C   UNL     1      -1.510   2.862   5.741  1.00  0.00     0.031 C 
ATOM     34  C   UNL     1      -4.771   4.064   2.090  1.00  0.00     0.029 A 
ATOM     35  N   UNL     1      -3.134   5.493   2.588  1.00  0.00    -0.354 N 
ATOM     36  C   UNL     1      -0.515   4.914   5.939  1.00  0.00     0.074 A 
ATOM     37  C   UNL     1      -0.597   3.550   6.414  1.00  0.00     0.031 C 
ATOM     38  C   UNL     1      -4.761   5.004   1.137  1.00  0.00     0.029 A 
ATOM     39  C   UNL     1      -3.788   6.023   1.498  1.00  0.00     0.049 A 
ATOM     40  H   UNL     1      -2.352   5.919   3.008  1.00  0.00     0.167 HD
ATOM     41  C   UNL     1       0.375   5.833   6.391  1.00  0.00     0.037 A 
ATOM     42  C   UNL     1      -3.703   7.227   0.896  1.00  0.00     0.037 A 
ATOM     43  C   UNL     1       0.512   7.162   5.847  1.00  0.00     0.049 A 
ATOM     44  C   UNL     1      -2.758   8.253   1.448  1.00  0.00     0.074 A 
ATOM     45  C   UNL     1       1.383   8.167   6.237  1.00  0.00     0.029 A 
ATOM     46  N   UNL     1      -0.216   7.664   4.778  1.00  0.00    -0.354 N 
ATOM     47  N   UNL     1      -1.918   8.143   2.449  1.00  0.00    -0.248 NA
ATOM     48  C   UNL     1      -2.771   9.577   0.814  1.00  0.00     0.031 C 
ATOM     49  C   UNL     1       1.150   9.289   5.436  1.00  0.00     0.029 A 
ATOM     50  C   UNL     1       0.175   8.966   4.506  1.00  0.00     0.049 A 
ATOM     51  H   UNL     1      -0.909   7.168   4.285  1.00  0.00     0.167 HD
ATOM     52  C   UNL     1      -1.294   9.379   2.555  1.00  0.00     0.074 A 
ATOM     53  C   UNL     1      -1.836  10.214   1.504  1.00  0.00     0.031 C 
ATOM     54  C   UNL     1      -0.360   9.787   3.450  1.00  0.00     0.037 A 
BRANCH  41  55
ATOM     55  C   UNL     1       1.250   5.464   7.564  1.00  0.00     0.058 A 
ATOM     56  C   UNL     1       2.314   4.555   7.460  1.00  0.00     0.135 A 
ATOM     57  C   UNL     1       1.052   6.090   8.809  1.00  0.00     0.135 A 
ATOM     58  F   UNL     1       2.546   3.917   6.302  1.00  0.00    -0.206 F 
ATOM     59  C   UNL     1       3.133   4.263   8.549  1.00  0.00     0.059 A 
ATOM     60  C   UNL     1       1.876   5.837   9.902  1.00  0.00     0.059 A 
ATOM     61  F   UNL     1       0.053   6.973   8.969  1.00  0.00    -0.206 F 
ATOM     62  C   UNL     1       2.907   4.911   9.766  1.00  0.00     0.060 A 
BRANCH  62  63
ATOM     63  S   UNL     1       3.986   4.531  11.165  1.00  0.00     0.124 S 
ATOM     64  O   UNL     1       3.557   3.178  11.505  1.00  0.00    -0.237 OA
ATOM     65  O   UNL     1       5.315   4.644  10.574  1.00  0.00    -0.237 OA
ATOM     66  O   UNL     1       3.649   5.560  12.145  1.00  0.00    -0.744 OA
ENDBRANCH  62  63
ENDBRANCH  41  55
BRANCH  42  67
ATOM     67  C   UNL     1      -4.621   7.562  -0.231  1.00  0.00     0.058 A 
ATOM     68  C   UNL     1      -4.134   7.795  -1.525  1.00  0.00     0.135 A 
ATOM     69  C   UNL     1      -6.011   7.646  -0.035  1.00  0.00     0.135 A 
ATOM     70  F   UNL     1      -2.815   7.747  -1.765  1.00  0.00    -0.206 F 
ATOM     71  C   UNL     1      -4.988   8.104  -2.581  1.00  0.00     0.059 A 
ATOM     72  C   UNL     1      -6.887   7.912  -1.081  1.00  0.00     0.059 A 
ATOM     73  F   UNL     1      -6.534   7.427   1.182  1.00  0.00    -0.206 F 
ATOM     74  C   UNL     1      -6.364   8.152  -2.349  1.00  0.00     0.060 A 
BRANCH  74  75
ATOM     75  S   UNL     1      -7.470   8.502  -3.732  1.00  0.00     0.124 S 
ATOM     76  O   UNL     1      -7.246   9.929  -3.933  1.00  0.00    -0.237 OA
ATOM     77  O   UNL     1      -6.950   7.621  -4.773  1.00  0.00    -0.237 OA
ATOM     78  O   UNL     1      -8.785   8.137  -3.212  1.00  0.00    -0.744 OA
ENDBRANCH  74  75
ENDBRANCH  42  67
BRANCH  54  79
ATOM     79  C   UNL     1       0.173  11.184   3.299  1.00  0.00     0.058 A 
ATOM     80  C   UNL     1      -0.598  12.311   3.621  1.00  0.00     0.135 A 
ATOM     81  C   UNL     1       1.489  11.394   2.854  1.00  0.00     0.135 A 
ATOM     82  F   UNL     1      -1.866  12.165   4.039  1.00  0.00    -0.206 F 
ATOM     83  C   UNL     1      -0.093  13.599   3.484  1.00  0.00     0.059 A 
ATOM     84  C   UNL     1       2.025  12.672   2.738  1.00  0.00     0.059 A 
ATOM     85  F   UNL     1       2.271  10.350   2.538  1.00  0.00    -0.206 F 
ATOM     86  C   UNL     1       1.221  13.770   3.044  1.00  0.00     0.060 A 
BRANCH  86  87
ATOM     87  S   UNL     1       1.874  15.446   2.898  1.00  0.00     0.124 S 
ATOM     88  O   UNL     1       1.167  15.936   1.719  1.00  0.00    -0.237 OA
ATOM     89  O   UNL     1       1.478  16.046   4.168  1.00  0.00    -0.237 OA
ATOM     90  O   UNL     1       3.309  15.240   2.729  1.00  0.00    -0.744 OA
ENDBRANCH  86  87
ENDBRANCH  54  79
ENDBRANCH  28  29
ENDBRANCH  21  23
ENDBRANCH  20  21
ENDBRANCH   1  20
TORSDOF 15
