REMARK SMILES Cc1ccccc1OCC(=O)N[C@@H](Cc1c[nH]c2ccccc12)C(=O)OCCOC(=O)c1ccc(-c2c3nc(c(-c4c(F)cc(S(=O)(=O)[O-])cc4F)c4ccc([nH]4)c(-c4c(F)cc(S(=O)(=O)[O-])cc4F)c4nc(c(-c5c(F)cc(S(=O)(=O)[O-])cc5F)c5ccc2[nH]5)C=C4)C=C3)cc1
REMARK SMILES IDX 27 1 26 2 24 3 25 4 13 5 12 6 10 7 11 8 9 10 8 11 7 12 1 13
REMARK SMILES IDX 2 14 3 15 4 16 6 17 5 18 14 19 15 20 16 21 23 22 17 23 18 24
REMARK SMILES IDX 22 25 19 27 21 28 20 29 28 30 29 31 30 32 31 33 32 34 33 35
REMARK SMILES IDX 97 36 34 37 96 38 35 39 36 40 37 41 90 42 38 43 95 44 89 45
REMARK SMILES IDX 91 46 39 47 94 48 88 49 87 50 40 52 74 53 53 54 73 55 54 56
REMARK SMILES IDX 57 57 72 58 92 59 55 60 56 61 71 63 93 64 58 65 41 66 42 67
REMARK SMILES IDX 51 68 43 69 44 70 50 71 52 72 45 73 46 74 47 75 48 76 49 77
REMARK SMILES IDX 75 78 76 79 85 80 77 81 78 82 84 83 86 84 79 85 80 86 81 87
REMARK SMILES IDX 82 88 83 89 59 90 60 91 69 92 61 93 62 94 68 95 70 96 63 97
REMARK SMILES IDX 64 98 65 99 66 100 67 101
REMARK H PARENT 12 9 17 26 91 51 57 62
REMARK Flexibility Score: inf
ROOT
ATOM      1  C   UNL     1       4.601   6.747   4.860  1.00  0.00     0.274 C 
ENDROOT
BRANCH   1   2
ATOM      2  O   UNL     1       3.514   6.851   3.895  1.00  0.00    -0.461 OA
BRANCH   2   3
ATOM      3  C   UNL     1       2.364   6.264   3.506  1.00  0.00     0.329 C 
ATOM      4  O   UNL     1       1.561   7.057   3.032  1.00  0.00    -0.250 OA
BRANCH   3   5
ATOM      5  C   UNL     1       1.830   4.752   3.461  1.00  0.00     0.196 C 
BRANCH   5   6
ATOM      6  N   UNL     1       2.996   2.946   3.407  1.00  0.00    -0.339 N 
ATOM      7  C   UNL     1       3.238   1.784   2.395  1.00  0.00     0.258 C 
ATOM      8  O   UNL     1       3.739   0.748   2.856  1.00  0.00    -0.271 OA
ATOM      9  H   UNL     1       3.511   2.820   4.236  1.00  0.00     0.164 HD
BRANCH   7  10
ATOM     10  C   UNL     1       2.851   1.824   0.733  1.00  0.00     0.329 C 
BRANCH  10  11
ATOM     11  O   UNL     1       1.536   1.868   0.162  1.00  0.00    -0.484 OA
BRANCH  11  12
ATOM     12  C   UNL     1       0.718   0.780   0.064  1.00  0.00     0.122 A 
ATOM     13  C   UNL     1       2.482  -1.103  -0.203  1.00  0.00     0.048 C 
ATOM     14  C   UNL     1       1.098  -0.558  -0.039  1.00  0.00    -0.009 A 
ATOM     15  C   UNL     1       0.094  -1.552  -0.015  1.00  0.00     0.007 A 
ATOM     16  C   UNL     1      -1.261  -1.244   0.020  1.00  0.00     0.001 A 
ATOM     17  C   UNL     1      -0.667   1.087   0.018  1.00  0.00     0.047 A 
ATOM     18  C   UNL     1      -1.649   0.084   0.004  1.00  0.00     0.004 A 
ENDBRANCH  11  12
ENDBRANCH  10  11
ENDBRANCH   7  10
ENDBRANCH   5   6
BRANCH   5  19
ATOM     19  C   UNL     1      -0.113   4.090   3.938  1.00  0.00     0.074 C 
BRANCH  19  20
ATOM     20  C   UNL     1      -0.123   2.494   5.147  1.00  0.00    -0.020 A 
ATOM     21  C   UNL     1       0.300   2.607   6.556  1.00  0.00     0.087 A 
ATOM     22  C   UNL     1       0.033   0.954   5.117  1.00  0.00     0.003 A 
ATOM     23  N   UNL     1       0.665   1.513   7.213  1.00  0.00    -0.361 N 
ATOM     24  C   UNL     1       0.457   0.479   6.403  1.00  0.00     0.046 A 
ATOM     25  C   UNL     1      -0.070  -0.109   4.194  1.00  0.00     0.010 A 
ATOM     26  H   UNL     1       1.023   1.475   8.129  1.00  0.00     0.166 HD
ATOM     27  C   UNL     1       0.692  -0.820   6.838  1.00  0.00     0.026 A 
ATOM     28  C   UNL     1       0.121  -1.464   4.630  1.00  0.00     0.001 A 
ATOM     29  C   UNL     1       0.474  -1.814   5.933  1.00  0.00     0.002 A 
ENDBRANCH  19  20
ENDBRANCH   5  19
ENDBRANCH   3   5
ENDBRANCH   2   3
ENDBRANCH   1   2
BRANCH   1  30
ATOM     30  C   UNL     1       5.965   6.254   4.287  1.00  0.00     0.275 C 
BRANCH  30  31
ATOM     31  O   UNL     1       6.086   5.695   2.910  1.00  0.00    -0.458 OA
BRANCH  31  32
ATOM     32  C   UNL     1       5.276   4.973   2.056  1.00  0.00     0.338 C 
ATOM     33  O   UNL     1       5.685   4.517   0.995  1.00  0.00    -0.246 OA
BRANCH  32  34
ATOM     34  C   UNL     1       3.987   4.521   2.592  1.00  0.00     0.060 A 
ATOM     35  C   UNL     1       2.509   3.937   1.784  1.00  0.00     0.016 A 
ATOM     36  C   UNL     1       4.186   4.347   4.308  1.00  0.00     0.016 A 
ATOM     37  C   UNL     1       1.275   3.095   2.936  1.00  0.00     0.010 A 
ATOM     38  C   UNL     1       3.069   4.052   5.373  1.00  0.00     0.010 A 
ATOM     39  C   UNL     1       1.644   3.571   4.838  1.00  0.00    -0.014 A 
BRANCH  39  40
ATOM     40  C   UNL     1       0.693   4.999   5.787  1.00  0.00     0.031 A 
ATOM     41  C   UNL     1      -0.979   4.693   6.357  1.00  0.00     0.074 A 
ATOM     42  C   UNL     1       0.777   6.400   6.030  1.00  0.00     0.049 A 
ATOM     43  N   UNL     1      -1.155   4.923   7.618  1.00  0.00    -0.248 NA
ATOM     44  C   UNL     1      -2.127   3.765   5.867  1.00  0.00     0.031 C 
ATOM     45  C   UNL     1       0.207   7.163   7.182  1.00  0.00     0.029 A 
ATOM     46  N   UNL     1       1.141   7.517   5.260  1.00  0.00    -0.354 N 
ATOM     47  C   UNL     1      -2.114   4.069   8.080  1.00  0.00     0.074 A 
ATOM     48  C   UNL     1      -2.561   3.224   7.021  1.00  0.00     0.031 C 
ATOM     49  C   UNL     1       0.049   8.471   6.903  1.00  0.00     0.029 A 
ATOM     50  C   UNL     1       0.368   8.656   5.514  1.00  0.00     0.049 A 
ATOM     51  H   UNL     1       1.872   7.500   4.600  1.00  0.00     0.167 HD
ATOM     52  C   UNL     1      -2.675   4.362   9.258  1.00  0.00     0.037 A 
ATOM     53  C   UNL     1      -0.312   9.438   4.615  1.00  0.00     0.037 A 
ATOM     54  C   UNL     1      -2.819   5.802   9.296  1.00  0.00     0.049 A 
ATOM     55  C   UNL     1      -1.766   9.539   5.028  1.00  0.00     0.074 A 
ATOM     56  C   UNL     1      -2.112   6.866   9.810  1.00  0.00     0.029 A 
ATOM     57  N   UNL     1      -3.585   6.317   8.264  1.00  0.00    -0.354 N 
ATOM     58  N   UNL     1      -2.305   8.675   5.848  1.00  0.00    -0.248 NA
ATOM     59  C   UNL     1      -2.704  10.587   4.640  1.00  0.00     0.031 C 
ATOM     60  C   UNL     1      -2.512   8.031   9.071  1.00  0.00     0.029 A 
ATOM     61  C   UNL     1      -3.467   7.671   8.126  1.00  0.00     0.049 A 
ATOM     62  H   UNL     1      -4.157   5.763   7.685  1.00  0.00     0.167 HD
ATOM     63  C   UNL     1      -3.573   9.060   6.181  1.00  0.00     0.074 A 
ATOM     64  C   UNL     1      -3.785  10.246   5.369  1.00  0.00     0.031 C 
ATOM     65  C   UNL     1      -4.290   8.358   7.114  1.00  0.00     0.037 A 
BRANCH  52  66
ATOM     66  C   UNL     1      -2.971   3.349  10.299  1.00  0.00     0.058 A 
ATOM     67  C   UNL     1      -3.618   3.782  11.461  1.00  0.00     0.135 A 
ATOM     68  C   UNL     1      -2.474   2.021  10.312  1.00  0.00     0.135 A 
ATOM     69  F   UNL     1      -4.088   5.033  11.558  1.00  0.00    -0.206 F 
ATOM     70  C   UNL     1      -3.755   2.972  12.577  1.00  0.00     0.059 A 
ATOM     71  C   UNL     1      -2.628   1.175  11.418  1.00  0.00     0.059 A 
ATOM     72  F   UNL     1      -1.769   1.528   9.278  1.00  0.00    -0.206 F 
ATOM     73  C   UNL     1      -3.260   1.673  12.553  1.00  0.00     0.060 A 
BRANCH  73  74
ATOM     74  S   UNL     1      -3.454   0.690  14.050  1.00  0.00     0.124 S 
ATOM     75  O   UNL     1      -2.630   1.428  15.002  1.00  0.00    -0.237 OA
ATOM     76  O   UNL     1      -4.894   0.757  14.272  1.00  0.00    -0.237 OA
ATOM     77  O   UNL     1      -2.941  -0.623  13.670  1.00  0.00    -0.744 OA
ENDBRANCH  73  74
ENDBRANCH  52  66
BRANCH  53  78
ATOM     78  C   UNL     1       0.215   9.548   3.215  1.00  0.00     0.058 A 
ATOM     79  C   UNL     1       1.472  10.165   3.022  1.00  0.00     0.135 A 
ATOM     80  C   UNL     1      -0.241   8.701   2.189  1.00  0.00     0.135 A 
ATOM     81  F   UNL     1       1.933  11.044   3.929  1.00  0.00    -0.206 F 
ATOM     82  C   UNL     1       2.342   9.779   1.996  1.00  0.00     0.059 A 
ATOM     83  C   UNL     1       0.604   8.322   1.122  1.00  0.00     0.059 A 
ATOM     84  F   UNL     1      -1.387   8.020   2.355  1.00  0.00    -0.206 F 
ATOM     85  C   UNL     1       1.928   8.800   1.091  1.00  0.00     0.060 A 
BRANCH  85  86
ATOM     86  S   UNL     1       3.239   7.810   0.271  1.00  0.00     0.124 S 
ATOM     87  O   UNL     1       3.494   8.592  -0.932  1.00  0.00    -0.237 OA
ATOM     88  O   UNL     1       4.320   7.806   1.256  1.00  0.00    -0.237 OA
ATOM     89  O   UNL     1       2.609   6.510   0.059  1.00  0.00    -0.744 OA
ENDBRANCH  85  86
ENDBRANCH  53  78
BRANCH  65  90
ATOM     90  C   UNL     1      -5.817   8.263   7.211  1.00  0.00     0.058 A 
ATOM     91  C   UNL     1      -6.724   9.095   6.540  1.00  0.00     0.135 A 
ATOM     92  C   UNL     1      -6.454   7.237   7.973  1.00  0.00     0.135 A 
ATOM     93  F   UNL     1      -6.343  10.031   5.672  1.00  0.00    -0.206 F 
ATOM     94  C   UNL     1      -8.107   8.995   6.694  1.00  0.00     0.059 A 
ATOM     95  C   UNL     1      -7.826   7.102   8.123  1.00  0.00     0.059 A 
ATOM     96  F   UNL     1      -5.793   6.247   8.579  1.00  0.00    -0.206 F 
ATOM     97  C   UNL     1      -8.648   8.009   7.501  1.00  0.00     0.060 A 
BRANCH  97  98
ATOM     98  S   UNL     1     -10.421   7.929   7.709  1.00  0.00     0.124 S 
ATOM     99  O   UNL     1     -10.694   9.211   8.351  1.00  0.00    -0.237 OA
ATOM    100  O   UNL     1     -10.877   7.800   6.328  1.00  0.00    -0.237 OA
ATOM    101  O   UNL     1     -10.618   6.751   8.547  1.00  0.00    -0.744 OA
ENDBRANCH  97  98
ENDBRANCH  65  90
ENDBRANCH  39  40
ENDBRANCH  32  34
ENDBRANCH  31  32
ENDBRANCH  30  31
ENDBRANCH   1  30
TORSDOF 20
