REMARK SMILES CC1=NN(c2ccc(C(=O)OCCOC(=O)c3ccc(-c4c5nc(c(-c6c(F)cc(S(=O)(=O)[O-])cc6F)c6ccc([nH]6)c(-c6c(F)cc(S(=O)(=O)[O-])cc6F)c6nc(c(-c7c(F)cc(S(=O)(=O)[O-])cc7F)c7ccc4[nH]7)C=C6)C=C5)cc3)cc2)C(=O)/C1=C\c1ccc(N2CCCC2)cc1
REMARK SMILES IDX 12 1 11 2 9 3 10 4 8 5 5 6 6 7 84 8 7 9 83 10 4 11 1 12 2 13
REMARK SMILES IDX 3 14 87 15 85 16 88 17 86 18 89 19 90 20 99 21 91 22 98 23
REMARK SMILES IDX 92 24 93 25 94 26 97 27 95 28 96 29 13 30 14 31 15 32 16 33
REMARK SMILES IDX 17 34 18 35 82 36 19 37 81 38 20 39 21 40 22 41 75 42 23 43
REMARK SMILES IDX 80 44 74 45 76 46 24 47 79 48 73 49 72 50 25 52 59 53 38 54
REMARK SMILES IDX 58 55 39 56 42 57 57 58 77 59 40 60 41 61 56 63 78 64 43 65
REMARK SMILES IDX 26 66 27 67 36 68 28 69 29 70 35 71 37 72 30 73 31 74 32 75
REMARK SMILES IDX 33 76 34 77 60 78 61 79 70 80 62 81 63 82 69 83 71 84 64 85
REMARK SMILES IDX 65 86 66 87 67 88 68 89 44 90 45 91 54 92 46 93 47 94 53 95
REMARK SMILES IDX 55 96 48 97 49 98 50 99 51 100 52 101
REMARK H PARENT 76 51 42 62
REMARK Flexibility Score: inf
ROOT
ATOM      1  C   UNL     1       4.738   7.765  -1.111  1.00  0.00     0.275 C 
ENDROOT
BRANCH   1   2
ATOM      2  O   UNL     1       3.938   6.577  -1.272  1.00  0.00    -0.458 OA
BRANCH   2   3
ATOM      3  C   UNL     1       3.684   5.896  -0.130  1.00  0.00     0.338 C 
ATOM      4  O   UNL     1       4.097   6.162   0.987  1.00  0.00    -0.246 OA
BRANCH   3   5
ATOM      5  C   UNL     1       2.786   4.757  -0.394  1.00  0.00     0.060 A 
ATOM      6  C   UNL     1       1.263   2.414  -0.574  1.00  0.00     0.069 A 
ATOM      7  C   UNL     1       0.842   3.452   0.254  1.00  0.00     0.029 A 
ATOM      8  C   UNL     1       2.411   2.589  -1.364  1.00  0.00     0.029 A 
ATOM      9  C   UNL     1       1.623   4.598   0.368  1.00  0.00     0.018 A 
ATOM     10  C   UNL     1       3.161   3.766  -1.296  1.00  0.00     0.018 A 
BRANCH   6  11
ATOM     11  N   UNL     1       0.600   1.177  -0.516  1.00  0.00    -0.196 N 
ATOM     12  C   UNL     1      -2.437  -0.648   0.117  1.00  0.00     0.069 C 
ATOM     13  C   UNL     1      -1.056  -0.138  -0.121  1.00  0.00     0.071 C 
ATOM     14  N   UNL     1      -0.752   1.131  -0.199  1.00  0.00    -0.169 NA
ATOM     15  C   UNL     1       0.126  -1.001  -0.285  1.00  0.00     0.065 C 
ATOM     16  C   UNL     1       1.224  -0.069  -0.647  1.00  0.00     0.280 C 
ATOM     17  C   UNL     1       0.215  -2.310  -0.022  1.00  0.00     0.024 C 
ATOM     18  O   UNL     1       2.366  -0.352  -0.934  1.00  0.00    -0.267 OA
BRANCH  17  19
ATOM     19  C   UNL     1       1.508  -2.994   0.050  1.00  0.00    -0.025 A 
ATOM     20  C   UNL     1       1.994  -3.747  -1.016  1.00  0.00     0.010 A 
ATOM     21  C   UNL     1       2.313  -2.815   1.179  1.00  0.00     0.010 A 
ATOM     22  C   UNL     1       3.281  -4.301  -0.951  1.00  0.00     0.026 A 
ATOM     23  C   UNL     1       3.590  -3.382   1.236  1.00  0.00     0.026 A 
ATOM     24  C   UNL     1       4.102  -4.137   0.175  1.00  0.00     0.037 A 
BRANCH  24  25
ATOM     25  N   UNL     1       5.370  -4.673   0.202  1.00  0.00    -0.372 N 
ATOM     26  C   UNL     1       6.022  -5.163   1.412  1.00  0.00     0.116 C 
ATOM     27  C   UNL     1       6.343  -4.258  -0.808  1.00  0.00     0.116 C 
ATOM     28  C   UNL     1       7.467  -4.702   1.257  1.00  0.00     0.023 C 
ATOM     29  C   UNL     1       7.681  -4.744  -0.248  1.00  0.00     0.023 C 
ENDBRANCH  24  25
ENDBRANCH  17  19
ENDBRANCH   6  11
ENDBRANCH   3   5
ENDBRANCH   2   3
ENDBRANCH   1   2
BRANCH   1  30
ATOM     30  C   UNL     1       3.869   9.022  -1.052  1.00  0.00     0.275 C 
BRANCH  30  31
ATOM     31  O   UNL     1       3.116   9.078   0.175  1.00  0.00    -0.458 OA
BRANCH  31  32
ATOM     32  C   UNL     1       1.814   8.735   0.058  1.00  0.00     0.338 C 
ATOM     33  O   UNL     1       1.224   8.416  -0.962  1.00  0.00    -0.246 OA
BRANCH  32  34
ATOM     34  C   UNL     1       1.154   8.723   1.371  1.00  0.00     0.060 A 
ATOM     35  C   UNL     1       1.345   7.621   2.193  1.00  0.00     0.016 A 
ATOM     36  C   UNL     1       0.168   9.656   1.680  1.00  0.00     0.016 A 
ATOM     37  C   UNL     1       0.435   7.342   3.206  1.00  0.00     0.010 A 
ATOM     38  C   UNL     1      -0.633   9.461   2.814  1.00  0.00     0.010 A 
ATOM     39  C   UNL     1      -0.549   8.273   3.562  1.00  0.00    -0.014 A 
BRANCH  39  40
ATOM     40  C   UNL     1      -1.475   7.994   4.704  1.00  0.00     0.031 A 
ATOM     41  C   UNL     1      -2.972   8.109   4.529  1.00  0.00     0.074 A 
ATOM     42  C   UNL     1      -0.977   7.629   5.906  1.00  0.00     0.049 A 
ATOM     43  N   UNL     1      -3.914   8.106   5.438  1.00  0.00    -0.248 NA
ATOM     44  C   UNL     1      -3.476   8.267   3.154  1.00  0.00     0.031 C 
ATOM     45  C   UNL     1       0.443   7.435   6.217  1.00  0.00     0.029 A 
ATOM     46  N   UNL     1      -1.606   7.350   7.096  1.00  0.00    -0.354 N 
ATOM     47  C   UNL     1      -5.109   8.324   4.758  1.00  0.00     0.074 A 
ATOM     48  C   UNL     1      -4.772   8.463   3.357  1.00  0.00     0.031 C 
ATOM     49  C   UNL     1       0.572   7.022   7.484  1.00  0.00     0.029 A 
ATOM     50  C   UNL     1      -0.738   7.040   8.118  1.00  0.00     0.049 A 
ATOM     51  H   UNL     1      -2.584   7.369   7.206  1.00  0.00     0.167 HD
ATOM     52  C   UNL     1      -6.367   8.401   5.256  1.00  0.00     0.037 A 
ATOM     53  C   UNL     1      -0.949   6.853   9.435  1.00  0.00     0.037 A 
ATOM     54  C   UNL     1      -6.695   8.204   6.647  1.00  0.00     0.049 A 
ATOM     55  C   UNL     1      -2.344   6.988   9.971  1.00  0.00     0.074 A 
ATOM     56  C   UNL     1      -7.941   8.241   7.251  1.00  0.00     0.029 A 
ATOM     57  N   UNL     1      -5.777   7.920   7.648  1.00  0.00    -0.354 N 
ATOM     58  N   UNL     1      -3.454   7.246   9.321  1.00  0.00    -0.248 NA
ATOM     59  C   UNL     1      -2.516   6.825  11.420  1.00  0.00     0.031 C 
ATOM     60  C   UNL     1      -7.770   8.027   8.623  1.00  0.00     0.029 A 
ATOM     61  C   UNL     1      -6.426   7.798   8.867  1.00  0.00     0.049 A 
ATOM     62  H   UNL     1      -4.807   7.820   7.513  1.00  0.00     0.167 HD
ATOM     63  C   UNL     1      -4.459   7.256  10.280  1.00  0.00     0.074 A 
ATOM     64  C   UNL     1      -3.828   6.961  11.550  1.00  0.00     0.031 C 
ATOM     65  C   UNL     1      -5.785   7.493  10.122  1.00  0.00     0.037 A 
BRANCH  52  66
ATOM     66  C   UNL     1      -7.488   8.744   4.307  1.00  0.00     0.058 A 
ATOM     67  C   UNL     1      -7.949   7.843   3.334  1.00  0.00     0.135 A 
ATOM     68  C   UNL     1      -8.146   9.982   4.410  1.00  0.00     0.135 A 
ATOM     69  F   UNL     1      -7.353   6.650   3.180  1.00  0.00    -0.206 F 
ATOM     70  C   UNL     1      -9.002   8.167   2.482  1.00  0.00     0.059 A 
ATOM     71  C   UNL     1      -9.219  10.316   3.588  1.00  0.00     0.059 A 
ATOM     72  F   UNL     1      -7.751  10.883   5.324  1.00  0.00    -0.206 F 
ATOM     73  C   UNL     1      -9.632   9.406   2.617  1.00  0.00     0.060 A 
BRANCH  73  74
ATOM     74  S   UNL     1     -11.001   9.806   1.509  1.00  0.00     0.124 S 
ATOM     75  O   UNL     1     -10.302  10.013   0.244  1.00  0.00    -0.237 OA
ATOM     76  O   UNL     1     -11.827   8.606   1.587  1.00  0.00    -0.237 OA
ATOM     77  O   UNL     1     -11.584  11.005   2.105  1.00  0.00    -0.744 OA
ENDBRANCH  73  74
ENDBRANCH  52  66
BRANCH  53  78
ATOM     78  C   UNL     1       0.200   6.575  10.340  1.00  0.00     0.058 A 
ATOM     79  C   UNL     1       0.337   5.333  10.976  1.00  0.00     0.135 A 
ATOM     80  C   UNL     1       1.197   7.538  10.570  1.00  0.00     0.135 A 
ATOM     81  F   UNL     1      -0.592   4.382  10.796  1.00  0.00    -0.206 F 
ATOM     82  C   UNL     1       1.411   5.059  11.818  1.00  0.00     0.059 A 
ATOM     83  C   UNL     1       2.297   7.276  11.379  1.00  0.00     0.059 A 
ATOM     84  F   UNL     1       1.123   8.739   9.975  1.00  0.00    -0.206 F 
ATOM     85  C   UNL     1       2.389   6.037  12.009  1.00  0.00     0.060 A 
BRANCH  85  86
ATOM     86  S   UNL     1       3.800   5.657  13.069  1.00  0.00     0.124 S 
ATOM     87  O   UNL     1       3.189   5.691  14.393  1.00  0.00    -0.237 OA
ATOM     88  O   UNL     1       4.202   4.340  12.584  1.00  0.00    -0.237 OA
ATOM     89  O   UNL     1       4.739   6.736  12.778  1.00  0.00    -0.744 OA
ENDBRANCH  85  86
ENDBRANCH  53  78
BRANCH  65  90
ATOM     90  C   UNL     1      -6.649   7.394  11.348  1.00  0.00     0.058 A 
ATOM     91  C   UNL     1      -6.616   8.366  12.359  1.00  0.00     0.135 A 
ATOM     92  C   UNL     1      -7.551   6.327  11.492  1.00  0.00     0.135 A 
ATOM     93  F   UNL     1      -5.764   9.400  12.275  1.00  0.00    -0.206 F 
ATOM     94  C   UNL     1      -7.428   8.271  13.484  1.00  0.00     0.059 A 
ATOM     95  C   UNL     1      -8.394   6.228  12.594  1.00  0.00     0.059 A 
ATOM     96  F   UNL     1      -7.628   5.373  10.550  1.00  0.00    -0.206 F 
ATOM     97  C   UNL     1      -8.316   7.199  13.591  1.00  0.00     0.060 A 
BRANCH  97  98
ATOM     98  S   UNL     1      -9.388   7.105  15.040  1.00  0.00     0.124 S 
ATOM     99  O   UNL     1      -8.442   6.715  16.081  1.00  0.00    -0.237 OA
ATOM    100  O   UNL     1      -9.908   8.466  15.133  1.00  0.00    -0.237 OA
ATOM    101  O   UNL     1     -10.369   6.089  14.672  1.00  0.00    -0.744 OA
ENDBRANCH  97  98
ENDBRANCH  65  90
ENDBRANCH  39  40
ENDBRANCH  32  34
ENDBRANCH  31  32
ENDBRANCH  30  31
ENDBRANCH   1  30
TORSDOF 17
