REMARK SMILES CC1(C)O[C@H]2CC3[C@@H]4CCC5=CC(=O)C=C[C@]5(C)[C@@]4(F)[C@H](O)C[C@@]3(C)[C@@]2(C(=O)OCCOC(=O)c2ccc(-c3c4nc(c(-c5c(F)cc(S(=O)(=O)[O-])cc5F)c5ccc([nH]5)c(-c5c(F)cc(S(=O)(=O)[O-])cc5F)c5nc(c(-c6c(F)cc(S(=O)(=O)[O-])cc6F)c6ccc3[nH]6)C=C5)C=C4)cc2)O1
REMARK SMILES IDX 31 1 30 2 29 3 27 4 28 5 26 6 1 7 2 8 3 9 4 10 101 11 5 12
REMARK SMILES IDX 6 13 24 14 7 15 23 16 25 17 8 18 21 19 9 20 19 21 10 22
REMARK SMILES IDX 17 23 20 24 11 25 16 26 18 27 12 28 15 29 13 30 14 31 22 32
REMARK SMILES IDX 32 34 33 35 34 36 35 37 36 38 100 39 37 40 99 41 38 42 39 43
REMARK SMILES IDX 40 44 93 45 41 46 98 47 92 48 94 49 42 50 97 51 91 52 90 53
REMARK SMILES IDX 43 55 77 56 56 57 76 58 57 59 60 60 75 61 95 62 58 63 59 64
REMARK SMILES IDX 74 66 96 67 61 68 44 69 45 70 54 71 46 72 47 73 53 74 55 75
REMARK SMILES IDX 48 76 49 77 50 78 51 79 52 80 78 81 79 82 88 83 80 84 81 85
REMARK SMILES IDX 87 86 89 87 82 88 83 89 84 90 85 91 86 92 62 93 63 94 72 95
REMARK SMILES IDX 64 96 65 97 71 98 73 99 66 100 67 101 68 102 69 103 70 104
REMARK H PARENT 22 33 94 54 60 65
REMARK Flexibility Score: inf
ROOT
ATOM      1  C   UNL     1       1.716   5.778  -3.989  1.00  0.00     0.275 C 
ENDROOT
BRANCH   1   2
ATOM      2  C   UNL     1       1.818   6.214  -2.534  1.00  0.00     0.274 C 
BRANCH   2   3
ATOM      3  O   UNL     1       1.555   5.091  -1.674  1.00  0.00    -0.460 OA
BRANCH   3   4
ATOM      4  C   UNL     1       0.335   5.026  -1.059  1.00  0.00     0.342 C 
ATOM      5  O   UNL     1      -0.559   5.851  -1.174  1.00  0.00    -0.249 OA
BRANCH   4   6
ATOM      6  C   UNL     1       0.307   3.827  -0.112  1.00  0.00     0.200 C 
ATOM      7  C   UNL     1       0.451   0.341  -0.180  1.00  0.00     0.075 C 
ATOM      8  C   UNL     1       0.125   1.630  -0.967  1.00  0.00     0.165 C 
ATOM      9  C   UNL     1       0.230   1.237  -2.433  1.00  0.00     0.075 C 
ATOM     10  O   UNL     1      -1.195   2.063  -0.638  1.00  0.00    -0.344 OA
ATOM     11  O   UNL     1       1.057   2.707  -0.696  1.00  0.00    -0.329 OA
ATOM     12  C   UNL     1      -1.064   3.187   0.243  1.00  0.00     0.166 C 
ATOM     13  C   UNL     1      -0.945   2.704   1.764  1.00  0.00     0.040 C 
ATOM     14  C   UNL     1       0.843   4.265   1.319  1.00  0.00     0.016 C 
ATOM     15  C   UNL     1       0.553   2.932   2.035  1.00  0.00     0.008 C 
ATOM     16  C   UNL     1       2.290   4.732   1.453  1.00  0.00     0.046 C 
ATOM     17  C   UNL     1      -0.016   5.448   1.871  1.00  0.00     0.015 C 
ATOM     18  C   UNL     1       1.619   2.114   2.787  1.00  0.00     0.035 C 
ATOM     19  C   UNL     1       3.325   3.651   1.694  1.00  0.00     0.154 C 
ATOM     20  C   UNL     1       1.183   1.312   3.997  1.00  0.00     0.012 C 
ATOM     21  C   UNL     1       3.008   2.771   2.946  1.00  0.00     0.152 C 
ATOM     22  C   UNL     1       2.124   0.100   4.080  1.00  0.00     0.032 C 
ATOM     23  C   UNL     1       4.110   1.649   3.228  1.00  0.00     0.044 C 
ATOM     24  F   UNL     1       2.936   3.609   4.030  1.00  0.00    -0.239 F 
ATOM     25  C   UNL     1       3.587   0.490   4.123  1.00  0.00    -0.053 C 
ATOM     26  C   UNL     1       5.380   2.226   3.857  1.00  0.00    -0.009 C 
ATOM     27  C   UNL     1       4.575   1.009   1.883  1.00  0.00     0.024 C 
ATOM     28  C   UNL     1       4.419  -0.226   4.903  1.00  0.00     0.052 C 
ATOM     29  C   UNL     1       6.194   1.529   4.663  1.00  0.00     0.048 C 
ATOM     30  C   UNL     1       5.839   0.152   5.059  1.00  0.00     0.178 C 
ATOM     31  O   UNL     1       6.660  -0.609   5.551  1.00  0.00    -0.290 OA
BRANCH  19  32
ATOM     32  O   UNL     1       4.578   4.333   1.833  1.00  0.00    -0.390 OA
ATOM     33  H   UNL     1       4.529   4.949   2.580  1.00  0.00     0.211 HD
ENDBRANCH  19  32
ENDBRANCH   4   6
ENDBRANCH   3   4
ENDBRANCH   2   3
ENDBRANCH   1   2
BRANCH   1  34
ATOM     34  O   UNL     1       0.365   5.357  -4.231  1.00  0.00    -0.458 OA
BRANCH  34  35
ATOM     35  C   UNL     1       0.219   4.172  -4.858  1.00  0.00     0.338 C 
ATOM     36  O   UNL     1       1.096   3.492  -5.374  1.00  0.00    -0.246 OA
BRANCH  35  37
ATOM     37  C   UNL     1      -1.195   3.764  -4.794  1.00  0.00     0.060 A 
ATOM     38  C   UNL     1      -1.847   3.714  -3.559  1.00  0.00     0.016 A 
ATOM     39  C   UNL     1      -1.829   3.287  -5.936  1.00  0.00     0.016 A 
ATOM     40  C   UNL     1      -3.100   3.127  -3.444  1.00  0.00     0.010 A 
ATOM     41  C   UNL     1      -3.130   2.788  -5.837  1.00  0.00     0.010 A 
ATOM     42  C   UNL     1      -3.768   2.684  -4.587  1.00  0.00    -0.014 A 
BRANCH  42  43
ATOM     43  C   UNL     1      -5.118   2.081  -4.480  1.00  0.00     0.031 A 
ATOM     44  C   UNL     1      -5.332   0.661  -4.920  1.00  0.00     0.074 A 
ATOM     45  C   UNL     1      -6.145   2.805  -3.994  1.00  0.00     0.049 A 
ATOM     46  N   UNL     1      -6.451   0.034  -5.166  1.00  0.00    -0.248 NA
ATOM     47  C   UNL     1      -4.124  -0.158  -5.116  1.00  0.00     0.031 C 
ATOM     48  C   UNL     1      -6.050   4.163  -3.452  1.00  0.00     0.029 A 
ATOM     49  N   UNL     1      -7.478   2.499  -3.884  1.00  0.00    -0.354 N 
ATOM     50  C   UNL     1      -6.085  -1.237  -5.593  1.00  0.00     0.074 A 
ATOM     51  C   UNL     1      -4.638  -1.293  -5.569  1.00  0.00     0.031 C 
ATOM     52  C   UNL     1      -7.267   4.567  -3.058  1.00  0.00     0.029 A 
ATOM     53  C   UNL     1      -8.239   3.538  -3.404  1.00  0.00     0.049 A 
ATOM     54  H   UNL     1      -7.852   1.621  -4.126  1.00  0.00     0.167 HD
ATOM     55  C   UNL     1      -6.889  -2.256  -5.976  1.00  0.00     0.037 A 
ATOM     56  C   UNL     1      -9.575   3.671  -3.311  1.00  0.00     0.037 A 
ATOM     57  C   UNL     1      -8.328  -2.189  -5.963  1.00  0.00     0.049 A 
ATOM     58  C   UNL     1     -10.449   2.554  -3.808  1.00  0.00     0.074 A 
ATOM     59  C   UNL     1      -9.242  -3.142  -6.375  1.00  0.00     0.029 A 
ATOM     60  N   UNL     1      -9.060  -1.109  -5.492  1.00  0.00    -0.354 N 
ATOM     61  N   UNL     1     -10.097   1.397  -4.316  1.00  0.00    -0.248 NA
ATOM     62  C   UNL     1     -11.900   2.771  -3.746  1.00  0.00     0.031 C 
ATOM     63  C   UNL     1     -10.529  -2.630  -6.169  1.00  0.00     0.029 A 
ATOM     64  C   UNL     1     -10.415  -1.372  -5.598  1.00  0.00     0.049 A 
ATOM     65  H   UNL     1      -8.673  -0.277  -5.134  1.00  0.00     0.167 HD
ATOM     66  C   UNL     1     -11.283   0.741  -4.621  1.00  0.00     0.074 A 
ATOM     67  C   UNL     1     -12.362   1.625  -4.227  1.00  0.00     0.031 C 
ATOM     68  C   UNL     1     -11.466  -0.478  -5.183  1.00  0.00     0.037 A 
BRANCH  55  69
ATOM     69  C   UNL     1      -6.234  -3.513  -6.474  1.00  0.00     0.058 A 
ATOM     70  C   UNL     1      -5.620  -4.423  -5.600  1.00  0.00     0.135 A 
ATOM     71  C   UNL     1      -6.244  -3.824  -7.843  1.00  0.00     0.135 A 
ATOM     72  F   UNL     1      -5.562  -4.163  -4.284  1.00  0.00    -0.206 F 
ATOM     73  C   UNL     1      -5.023  -5.590  -6.069  1.00  0.00     0.059 A 
ATOM     74  C   UNL     1      -5.672  -4.995  -8.332  1.00  0.00     0.059 A 
ATOM     75  F   UNL     1      -6.814  -2.985  -8.723  1.00  0.00    -0.206 F 
ATOM     76  C   UNL     1      -5.052  -5.866  -7.437  1.00  0.00     0.060 A 
BRANCH  76  77
ATOM     77  S   UNL     1      -4.278  -7.385  -8.032  1.00  0.00     0.124 S 
ATOM     78  O   UNL     1      -2.862  -7.041  -7.949  1.00  0.00    -0.237 OA
ATOM     79  O   UNL     1      -4.746  -8.375  -7.067  1.00  0.00    -0.237 OA
ATOM     80  O   UNL     1      -4.811  -7.531  -9.383  1.00  0.00    -0.744 OA
ENDBRANCH  76  77
ENDBRANCH  55  69
BRANCH  56  81
ATOM     81  C   UNL     1     -10.167   4.930  -2.789  1.00  0.00     0.058 A 
ATOM     82  C   UNL     1     -10.837   4.956  -1.557  1.00  0.00     0.135 A 
ATOM     83  C   UNL     1     -10.078   6.132  -3.510  1.00  0.00     0.135 A 
ATOM     84  F   UNL     1     -10.955   3.831  -0.836  1.00  0.00    -0.206 F 
ATOM     85  C   UNL     1     -11.414   6.122  -1.066  1.00  0.00     0.059 A 
ATOM     86  C   UNL     1     -10.623   7.317  -3.027  1.00  0.00     0.059 A 
ATOM     87  F   UNL     1      -9.435   6.164  -4.688  1.00  0.00    -0.206 F 
ATOM     88  C   UNL     1     -11.303   7.298  -1.811  1.00  0.00     0.060 A 
BRANCH  88  89
ATOM     89  S   UNL     1     -12.024   8.819  -1.155  1.00  0.00     0.124 S 
ATOM     90  O   UNL     1     -13.433   8.637  -1.480  1.00  0.00    -0.237 OA
ATOM     91  O   UNL     1     -11.679   8.742   0.261  1.00  0.00    -0.237 OA
ATOM     92  O   UNL     1     -11.331   9.864  -1.903  1.00  0.00    -0.744 OA
ENDBRANCH  88  89
ENDBRANCH  56  81
BRANCH  68  93
ATOM     93  C   UNL     1     -12.883  -0.939  -5.362  1.00  0.00     0.058 A 
ATOM     94  C   UNL     1     -13.692  -0.440  -6.393  1.00  0.00     0.135 A 
ATOM     95  C   UNL     1     -13.422  -1.915  -4.510  1.00  0.00     0.135 A 
ATOM     96  F   UNL     1     -13.222   0.502  -7.226  1.00  0.00    -0.206 F 
ATOM     97  C   UNL     1     -15.000  -0.880  -6.562  1.00  0.00     0.059 A 
ATOM     98  C   UNL     1     -14.720  -2.384  -4.673  1.00  0.00     0.059 A 
ATOM     99  F   UNL     1     -12.682  -2.426  -3.513  1.00  0.00    -0.206 F 
ATOM    100  C   UNL     1     -15.506  -1.852  -5.696  1.00  0.00     0.060 A 
BRANCH 100 101
ATOM    101  S   UNL     1     -17.195  -2.439  -5.940  1.00  0.00     0.124 S 
ATOM    102  O   UNL     1     -17.971  -1.346  -5.365  1.00  0.00    -0.237 OA
ATOM    103  O   UNL     1     -17.273  -2.578  -7.391  1.00  0.00    -0.237 OA
ATOM    104  O   UNL     1     -17.227  -3.694  -5.196  1.00  0.00    -0.744 OA
ENDBRANCH 100 101
ENDBRANCH  68  93
ENDBRANCH  42  43
ENDBRANCH  35  37
ENDBRANCH  34  35
ENDBRANCH   1  34
TORSDOF 15
