REMARK SMILES CC(C)(O)CCOc1ccc(C(=O)OCCOC(=O)c2ccc(-c3c4nc(c(-c5c(F)cc(S(=O)(=O)[O-])cc5F)c5ccc([nH]5)c(-c5c(F)cc(S(=O)(=O)[O-])cc5F)c5nc(c(-c6c(F)cc(S(=O)(=O)[O-])cc6F)c6ccc3[nH]6)C=C5)C=C4)cc2)cc1
REMARK SMILES IDX 15 1 14 2 12 3 13 4 11 5 8 6 9 7 87 8 10 9 86 10 7 11 6 12
REMARK SMILES IDX 5 13 2 14 1 15 3 16 4 17 16 19 17 20 18 21 19 22 20 23 21 24
REMARK SMILES IDX 85 25 22 26 84 27 23 28 24 29 25 30 78 31 26 32 83 33 77 34
REMARK SMILES IDX 79 35 27 36 82 37 76 38 75 39 28 41 62 42 41 43 61 44 42 45
REMARK SMILES IDX 45 46 60 47 80 48 43 49 44 50 59 52 81 53 46 54 29 55 30 56
REMARK SMILES IDX 39 57 31 58 32 59 38 60 40 61 33 62 34 63 35 64 36 65 37 66
REMARK SMILES IDX 63 67 64 68 73 69 65 70 66 71 72 72 74 73 67 74 68 75 69 76
REMARK SMILES IDX 70 77 71 78 47 79 48 80 57 81 49 82 50 83 56 84 58 85 51 86
REMARK SMILES IDX 52 87 53 88 54 89 55 90
REMARK H PARENT 4 18 79 40 45 51
REMARK Flexibility Score: inf
ROOT
ATOM      1  C   UNL     1      -0.668  -4.314  -2.994  1.00  0.00     0.275 C 
ENDROOT
BRANCH   1   2
ATOM      2  O   UNL     1      -0.310  -3.394  -1.946  1.00  0.00    -0.458 OA
BRANCH   2   3
ATOM      3  C   UNL     1      -1.310  -3.093  -1.081  1.00  0.00     0.338 C 
ATOM      4  O   UNL     1      -2.453  -3.514  -1.099  1.00  0.00    -0.246 OA
BRANCH   3   5
ATOM      5  C   UNL     1      -0.853  -2.056  -0.138  1.00  0.00     0.060 A 
ATOM      6  C   UNL     1      -0.005   0.031   1.496  1.00  0.00     0.119 A 
ATOM      7  C   UNL     1       0.736  -1.152   1.435  1.00  0.00     0.047 A 
ATOM      8  C   UNL     1      -1.248   0.102   0.869  1.00  0.00     0.047 A 
ATOM      9  C   UNL     1       0.346  -2.175   0.571  1.00  0.00     0.019 A 
ATOM     10  C   UNL     1      -1.676  -0.945   0.053  1.00  0.00     0.019 A 
BRANCH   6  11
ATOM     11  O   UNL     1       0.612   1.068   2.135  1.00  0.00    -0.493 OA
BRANCH  11  12
ATOM     12  C   UNL     1       0.425   2.372   1.575  1.00  0.00     0.232 C 
BRANCH  12  13
ATOM     13  C   UNL     1       1.454   2.764   0.494  1.00  0.00     0.076 C 
BRANCH  13  14
ATOM     14  C   UNL     1       1.321   2.107  -0.902  1.00  0.00     0.062 C 
ATOM     15  C   UNL     1       2.121   0.803  -1.014  1.00  0.00     0.042 C 
ATOM     16  C   UNL     1       1.837   3.054  -1.994  1.00  0.00     0.042 C 
BRANCH  14  17
ATOM     17  O   UNL     1      -0.061   1.903  -1.195  1.00  0.00    -0.390 OA
ATOM     18  H   UNL     1      -0.148   1.491  -2.070  1.00  0.00     0.211 HD
ENDBRANCH  14  17
ENDBRANCH  13  14
ENDBRANCH  12  13
ENDBRANCH  11  12
ENDBRANCH   6  11
ENDBRANCH   3   5
ENDBRANCH   2   3
ENDBRANCH   1   2
BRANCH   1  19
ATOM     19  C   UNL     1       0.026  -5.659  -2.800  1.00  0.00     0.275 C 
BRANCH  19  20
ATOM     20  O   UNL     1      -0.248  -6.177  -1.488  1.00  0.00    -0.458 OA
BRANCH  20  21
ATOM     21  C   UNL     1       0.804  -6.138  -0.639  1.00  0.00     0.338 C 
ATOM     22  O   UNL     1       1.949  -5.798  -0.888  1.00  0.00    -0.246 OA
BRANCH  21  23
ATOM     23  C   UNL     1       0.376  -6.495   0.719  1.00  0.00     0.060 A 
ATOM     24  C   UNL     1      -0.256  -5.523   1.490  1.00  0.00     0.016 A 
ATOM     25  C   UNL     1       0.790  -7.693   1.296  1.00  0.00     0.016 A 
ATOM     26  C   UNL     1      -0.361  -5.687   2.865  1.00  0.00     0.010 A 
ATOM     27  C   UNL     1       0.580  -7.903   2.663  1.00  0.00     0.010 A 
ATOM     28  C   UNL     1       0.051  -6.880   3.473  1.00  0.00    -0.014 A 
BRANCH  28  29
ATOM     29  C   UNL     1      -0.013  -7.019   4.954  1.00  0.00     0.031 A 
ATOM     30  C   UNL     1       1.244  -7.292   5.742  1.00  0.00     0.074 A 
ATOM     31  C   UNL     1      -1.184  -6.857   5.603  1.00  0.00     0.049 A 
ATOM     32  N   UNL     1       1.376  -7.608   7.005  1.00  0.00    -0.248 NA
ATOM     33  C   UNL     1       2.519  -7.215   5.010  1.00  0.00     0.031 C 
ATOM     34  C   UNL     1      -2.467  -6.538   4.971  1.00  0.00     0.029 A 
ATOM     35  N   UNL     1      -1.484  -6.919   6.941  1.00  0.00    -0.354 N 
ATOM     36  C   UNL     1       2.734  -7.835   7.201  1.00  0.00     0.074 A 
ATOM     37  C   UNL     1       3.387  -7.613   5.929  1.00  0.00     0.031 C 
ATOM     38  C   UNL     1      -3.400  -6.380   5.921  1.00  0.00     0.029 A 
ATOM     39  C   UNL     1      -2.809  -6.678   7.220  1.00  0.00     0.049 A 
ATOM     40  H   UNL     1      -0.815  -7.117   7.635  1.00  0.00     0.167 HD
ATOM     41  C   UNL     1       3.374  -8.198   8.339  1.00  0.00     0.037 A 
ATOM     42  C   UNL     1      -3.485  -6.730   8.383  1.00  0.00     0.037 A 
ATOM     43  C   UNL     1       2.725  -8.346   9.616  1.00  0.00     0.049 A 
ATOM     44  C   UNL     1      -2.754  -7.129   9.633  1.00  0.00     0.074 A 
ATOM     45  C   UNL     1       3.283  -8.707  10.831  1.00  0.00     0.029 A 
ATOM     46  N   UNL     1       1.378  -8.113   9.850  1.00  0.00    -0.354 N 
ATOM     47  N   UNL     1      -1.486  -7.426   9.784  1.00  0.00    -0.248 NA
ATOM     48  C   UNL     1      -3.550  -7.226  10.864  1.00  0.00     0.031 C 
ATOM     49  C   UNL     1       2.267  -8.715  11.794  1.00  0.00     0.029 A 
ATOM     50  C   UNL     1       1.084  -8.326  11.186  1.00  0.00     0.049 A 
ATOM     51  H   UNL     1       0.726  -7.837   9.165  1.00  0.00     0.167 HD
ATOM     52  C   UNL     1      -1.331  -7.750  11.126  1.00  0.00     0.074 A 
ATOM     53  C   UNL     1      -2.629  -7.584  11.749  1.00  0.00     0.031 C 
ATOM     54  C   UNL     1      -0.217  -8.159  11.783  1.00  0.00     0.037 A 
BRANCH  41  55
ATOM     55  C   UNL     1       4.844  -8.501   8.245  1.00  0.00     0.058 A 
ATOM     56  C   UNL     1       5.809  -7.493   8.106  1.00  0.00     0.135 A 
ATOM     57  C   UNL     1       5.294  -9.831   8.320  1.00  0.00     0.135 A 
ATOM     58  F   UNL     1       5.434  -6.207   8.011  1.00  0.00    -0.206 F 
ATOM     59  C   UNL     1       7.167  -7.792   8.017  1.00  0.00     0.059 A 
ATOM     60  C   UNL     1       6.647 -10.152   8.257  1.00  0.00     0.059 A 
ATOM     61  F   UNL     1       4.413 -10.835   8.453  1.00  0.00    -0.206 F 
ATOM     62  C   UNL     1       7.575  -9.126   8.088  1.00  0.00     0.060 A 
BRANCH  62  63
ATOM     63  S   UNL     1       9.337  -9.504   7.967  1.00  0.00     0.124 S 
ATOM     64  O   UNL     1       9.569  -9.348   6.535  1.00  0.00    -0.237 OA
ATOM     65  O   UNL     1       9.938  -8.484   8.821  1.00  0.00    -0.237 OA
ATOM     66  O   UNL     1       9.426 -10.870   8.473  1.00  0.00    -0.744 OA
ENDBRANCH  62  63
ENDBRANCH  41  55
BRANCH  42  67
ATOM     67  C   UNL     1      -4.944  -6.442   8.403  1.00  0.00     0.058 A 
ATOM     68  C   UNL     1      -5.443  -5.275   8.999  1.00  0.00     0.135 A 
ATOM     69  C   UNL     1      -5.864  -7.312   7.797  1.00  0.00     0.135 A 
ATOM     70  F   UNL     1      -4.604  -4.418   9.602  1.00  0.00    -0.206 F 
ATOM     71  C   UNL     1      -6.803  -4.979   8.994  1.00  0.00     0.059 A 
ATOM     72  C   UNL     1      -7.224  -7.026   7.755  1.00  0.00     0.059 A 
ATOM     73  F   UNL     1      -5.435  -8.436   7.203  1.00  0.00    -0.206 F 
ATOM     74  C   UNL     1      -7.685  -5.860   8.365  1.00  0.00     0.060 A 
BRANCH  74  75
ATOM     75  S   UNL     1      -9.441  -5.440   8.298  1.00  0.00     0.124 S 
ATOM     76  O   UNL     1      -9.881  -5.810   9.637  1.00  0.00    -0.237 OA
ATOM     77  O   UNL     1      -9.408  -4.009   8.009  1.00  0.00    -0.237 OA
ATOM     78  O   UNL     1      -9.942  -6.277   7.212  1.00  0.00    -0.744 OA
ENDBRANCH  74  75
ENDBRANCH  42  67
BRANCH  54  79
ATOM     79  C   UNL     1      -0.359  -8.441  13.250  1.00  0.00     0.058 A 
ATOM     80  C   UNL     1      -0.977  -9.613  13.711  1.00  0.00     0.135 A 
ATOM     81  C   UNL     1       0.150  -7.544  14.201  1.00  0.00     0.135 A 
ATOM     82  F   UNL     1      -1.486 -10.498  12.839  1.00  0.00    -0.206 F 
ATOM     83  C   UNL     1      -1.109  -9.876  15.071  1.00  0.00     0.059 A 
ATOM     84  C   UNL     1       0.048  -7.796  15.565  1.00  0.00     0.059 A 
ATOM     85  F   UNL     1       0.757  -6.413  13.808  1.00  0.00    -0.206 F 
ATOM     86  C   UNL     1      -0.596  -8.958  15.990  1.00  0.00     0.060 A 
BRANCH  86  87
ATOM     87  S   UNL     1      -0.756  -9.314  17.753  1.00  0.00     0.124 S 
ATOM     88  O   UNL     1      -2.151  -8.964  17.997  1.00  0.00    -0.237 OA
ATOM     89  O   UNL     1      -0.438 -10.737  17.818  1.00  0.00    -0.237 OA
ATOM     90  O   UNL     1       0.231  -8.430  18.367  1.00  0.00    -0.744 OA
ENDBRANCH  86  87
ENDBRANCH  54  79
ENDBRANCH  28  29
ENDBRANCH  21  23
ENDBRANCH  20  21
ENDBRANCH  19  20
ENDBRANCH   1  19
TORSDOF 19
