REMARK SMILES O=C1O[C@@H](c2ccc(O)c(O)c2)[C@H](C(=O)OCCOC(=O)c2ccc(-c3c4nc(c(-c5c(F)cc(S(=O)(=O)[O-])cc5F)c5ccc([nH]5)c(-c5c(F)cc(S(=O)(=O)[O-])cc5F)c5nc(c(-c6c(F)cc(S(=O)(=O)[O-])cc6F)c6ccc3[nH]6)C=C5)C=C4)cc2)/C1=C\c1ccc(O)c(O)c1
REMARK SMILES IDX 18 1 17 2 16 3 14 4 15 5 13 6 1 7 2 8 3 9 88 10 4 11 89 12
REMARK SMILES IDX 5 13 6 14 12 15 7 16 10 17 8 18 11 19 9 21 90 23 91 24 97 25
REMARK SMILES IDX 92 26 95 27 93 28 96 29 94 31 19 33 20 34 21 35 22 36 23 37
REMARK SMILES IDX 87 38 24 39 86 40 25 41 26 42 27 43 80 44 28 45 85 46 79 47
REMARK SMILES IDX 81 48 29 49 84 50 78 51 77 52 30 54 64 55 43 56 63 57 44 58
REMARK SMILES IDX 47 59 62 60 82 61 45 62 46 63 61 65 83 66 48 67 31 68 32 69
REMARK SMILES IDX 41 70 33 71 34 72 40 73 42 74 35 75 36 76 37 77 38 78 39 79
REMARK SMILES IDX 65 80 66 81 75 82 67 83 68 84 74 85 76 86 69 87 70 88 71 89
REMARK SMILES IDX 72 90 73 91 49 92 50 93 59 94 51 95 52 96 58 97 60 98 53 99
REMARK SMILES IDX 54 100 55 101 56 102 57 103
REMARK H PARENT 11 20 9 22 96 30 94 32 81 53 47 64
REMARK Flexibility Score: inf
ROOT
ATOM      1  C   UNL     1       2.558   2.921   4.228  1.00  0.00     0.275 C 
ENDROOT
BRANCH   1   2
ATOM      2  C   UNL     1       2.957   1.566   3.629  1.00  0.00     0.274 C 
BRANCH   2   3
ATOM      3  O   UNL     1       2.863   1.549   2.185  1.00  0.00    -0.461 OA
BRANCH   3   4
ATOM      4  C   UNL     1       1.704   1.049   1.665  1.00  0.00     0.318 C 
ATOM      5  O   UNL     1       0.817   0.545   2.339  1.00  0.00    -0.251 OA
BRANCH   4   6
ATOM      6  C   UNL     1       1.723   1.098   0.140  1.00  0.00     0.182 C 
ATOM      7  O   UNL     1      -1.470  -0.242  -0.587  1.00  0.00    -0.247 OA
ATOM      8  C   UNL     1      -0.289  -0.022  -0.462  1.00  0.00     0.335 C 
ATOM      9  O   UNL     1       0.689  -0.964  -0.287  1.00  0.00    -0.453 OA
ATOM     10  C   UNL     1       0.380   1.302  -0.474  1.00  0.00     0.056 C 
ATOM     11  C   UNL     1       1.984  -0.335  -0.320  1.00  0.00     0.226 C 
ATOM     12  C   UNL     1      -0.198   2.339  -1.105  1.00  0.00     0.020 C 
BRANCH  11  13
ATOM     13  C   UNL     1       2.600  -0.455  -1.709  1.00  0.00    -0.002 A 
ATOM     14  C   UNL     1       3.735   0.304  -2.051  1.00  0.00     0.012 A 
ATOM     15  C   UNL     1       2.063  -1.330  -2.670  1.00  0.00     0.057 A 
ATOM     16  C   UNL     1       4.278   0.249  -3.337  1.00  0.00     0.050 A 
ATOM     17  C   UNL     1       2.613  -1.383  -3.943  1.00  0.00     0.157 A 
ATOM     18  C   UNL     1       3.703  -0.590  -4.282  1.00  0.00     0.157 A 
BRANCH  17  19
ATOM     19  O   UNL     1       2.062  -2.219  -4.871  1.00  0.00    -0.504 OA
ATOM     20  H   UNL     1       2.423  -2.264  -5.734  1.00  0.00     0.293 HD
ENDBRANCH  17  19
BRANCH  18  21
ATOM     21  O   UNL     1       4.178  -0.669  -5.561  1.00  0.00    -0.504 OA
ATOM     22  H   UNL     1       4.912  -0.147  -5.821  1.00  0.00     0.293 HD
ENDBRANCH  18  21
ENDBRANCH  11  13
BRANCH  12  23
ATOM     23  C   UNL     1       0.360   3.689  -1.260  1.00  0.00    -0.021 A 
ATOM     24  C   UNL     1       1.228   4.049  -2.293  1.00  0.00     0.012 A 
ATOM     25  C   UNL     1      -0.040   4.679  -0.367  1.00  0.00     0.058 A 
ATOM     26  C   UNL     1       1.690   5.374  -2.404  1.00  0.00     0.051 A 
ATOM     27  C   UNL     1       0.464   5.965  -0.429  1.00  0.00     0.157 A 
ATOM     28  C   UNL     1       1.311   6.322  -1.458  1.00  0.00     0.157 A 
BRANCH  27  29
ATOM     29  O   UNL     1       0.099   6.875   0.522  1.00  0.00    -0.504 OA
ATOM     30  H   UNL     1       0.435   7.749   0.488  1.00  0.00     0.293 HD
ENDBRANCH  27  29
BRANCH  28  31
ATOM     31  O   UNL     1       1.724   7.622  -1.504  1.00  0.00    -0.504 OA
ATOM     32  H   UNL     1       2.299   7.908  -2.186  1.00  0.00     0.293 HD
ENDBRANCH  28  31
ENDBRANCH  12  23
ENDBRANCH   4   6
ENDBRANCH   3   4
ENDBRANCH   2   3
ENDBRANCH   1   2
BRANCH   1  33
ATOM     33  O   UNL     1       1.129   3.129   4.208  1.00  0.00    -0.458 OA
BRANCH  33  34
ATOM     34  C   UNL     1       0.703   3.717   3.069  1.00  0.00     0.338 C 
ATOM     35  O   UNL     1       1.422   4.037   2.134  1.00  0.00    -0.246 OA
BRANCH  34  36
ATOM     36  C   UNL     1      -0.763   3.870   2.991  1.00  0.00     0.060 A 
ATOM     37  C   UNL     1      -1.468   2.897   2.284  1.00  0.00     0.016 A 
ATOM     38  C   UNL     1      -1.328   5.136   3.178  1.00  0.00     0.016 A 
ATOM     39  C   UNL     1      -2.641   3.250   1.613  1.00  0.00     0.010 A 
ATOM     40  C   UNL     1      -2.568   5.449   2.589  1.00  0.00     0.010 A 
ATOM     41  C   UNL     1      -3.210   4.535   1.738  1.00  0.00    -0.014 A 
BRANCH  41  42
ATOM     42  C   UNL     1      -4.446   4.888   0.964  1.00  0.00     0.031 A 
ATOM     43  C   UNL     1      -4.522   6.077   0.021  1.00  0.00     0.074 A 
ATOM     44  C   UNL     1      -5.521   4.080   1.063  1.00  0.00     0.049 A 
ATOM     45  N   UNL     1      -5.556   6.568  -0.624  1.00  0.00    -0.248 NA
ATOM     46  C   UNL     1      -3.276   6.806  -0.245  1.00  0.00     0.031 C 
ATOM     47  C   UNL     1      -5.590   2.866   1.879  1.00  0.00     0.029 A 
ATOM     48  N   UNL     1      -6.757   4.148   0.470  1.00  0.00    -0.354 N 
ATOM     49  C   UNL     1      -5.089   7.669  -1.345  1.00  0.00     0.074 A 
ATOM     50  C   UNL     1      -3.674   7.773  -1.065  1.00  0.00     0.031 C 
ATOM     51  C   UNL     1      -6.776   2.278   1.699  1.00  0.00     0.029 A 
ATOM     52  C   UNL     1      -7.605   3.146   0.874  1.00  0.00     0.049 A 
ATOM     53  H   UNL     1      -7.011   4.845  -0.178  1.00  0.00     0.167 HD
ATOM     54  C   UNL     1      -5.778   8.518  -2.151  1.00  0.00     0.037 A 
ATOM     55  C   UNL     1      -8.925   2.970   0.688  1.00  0.00     0.037 A 
ATOM     56  C   UNL     1      -7.190   8.397  -2.436  1.00  0.00     0.049 A 
ATOM     57  C   UNL     1      -9.691   3.971  -0.115  1.00  0.00     0.074 A 
ATOM     58  C   UNL     1      -7.982   9.203  -3.240  1.00  0.00     0.029 A 
ATOM     59  N   UNL     1      -8.023   7.411  -1.927  1.00  0.00    -0.354 N 
ATOM     60  N   UNL     1      -9.252   5.046  -0.722  1.00  0.00    -0.248 NA
ATOM     61  C   UNL     1     -11.135   3.746  -0.242  1.00  0.00     0.031 C 
ATOM     62  C   UNL     1      -9.300   8.740  -3.170  1.00  0.00     0.029 A 
ATOM     63  C   UNL     1      -9.323   7.608  -2.372  1.00  0.00     0.049 A 
ATOM     64  H   UNL     1      -7.734   6.679  -1.336  1.00  0.00     0.167 HD
ATOM     65  C   UNL     1     -10.367   5.627  -1.310  1.00  0.00     0.074 A 
ATOM     66  C   UNL     1     -11.495   4.771  -1.001  1.00  0.00     0.031 C 
ATOM     67  C   UNL     1     -10.445   6.768  -2.039  1.00  0.00     0.037 A 
BRANCH  54  68
ATOM     68  C   UNL     1      -5.053   9.696  -2.763  1.00  0.00     0.058 A 
ATOM     69  C   UNL     1      -4.164   9.557  -3.840  1.00  0.00     0.135 A 
ATOM     70  C   UNL     1      -5.345  11.003  -2.332  1.00  0.00     0.135 A 
ATOM     71  F   UNL     1      -3.839   8.338  -4.297  1.00  0.00    -0.206 F 
ATOM     72  C   UNL     1      -3.586  10.666  -4.460  1.00  0.00     0.059 A 
ATOM     73  C   UNL     1      -4.798  12.127  -2.951  1.00  0.00     0.059 A 
ATOM     74  F   UNL     1      -6.195  11.203  -1.312  1.00  0.00    -0.206 F 
ATOM     75  C   UNL     1      -3.912  11.948  -4.011  1.00  0.00     0.060 A 
BRANCH  75  76
ATOM     76  S   UNL     1      -3.172  13.375  -4.839  1.00  0.00     0.124 S 
ATOM     77  O   UNL     1      -1.783  13.281  -4.398  1.00  0.00    -0.237 OA
ATOM     78  O   UNL     1      -3.408  13.078  -6.248  1.00  0.00    -0.237 OA
ATOM     79  O   UNL     1      -3.922  14.508  -4.306  1.00  0.00    -0.744 OA
ENDBRANCH  75  76
ENDBRANCH  54  68
BRANCH  55  80
ATOM     80  C   UNL     1      -9.592   1.836   1.378  1.00  0.00     0.058 A 
ATOM     81  C   UNL     1     -10.058   0.722   0.672  1.00  0.00     0.135 A 
ATOM     82  C   UNL     1      -9.672   1.809   2.782  1.00  0.00     0.135 A 
ATOM     83  F   UNL     1     -10.015   0.710  -0.669  1.00  0.00    -0.206 F 
ATOM     84  C   UNL     1     -10.563  -0.393   1.333  1.00  0.00     0.059 A 
ATOM     85  C   UNL     1     -10.138   0.694   3.465  1.00  0.00     0.059 A 
ATOM     86  F   UNL     1      -9.222   2.848   3.503  1.00  0.00    -0.206 F 
ATOM     87  C   UNL     1     -10.584  -0.403   2.730  1.00  0.00     0.060 A 
BRANCH  87  88
ATOM     88  S   UNL     1     -11.139  -1.892   3.585  1.00  0.00     0.124 S 
ATOM     89  O   UNL     1     -12.586  -1.796   3.429  1.00  0.00    -0.237 OA
ATOM     90  O   UNL     1     -10.483  -2.950   2.824  1.00  0.00    -0.237 OA
ATOM     91  O   UNL     1     -10.637  -1.706   4.944  1.00  0.00    -0.744 OA
ENDBRANCH  87  88
ENDBRANCH  55  80
BRANCH  67  92
ATOM     92  C   UNL     1     -11.802   7.136  -2.567  1.00  0.00     0.058 A 
ATOM     93  C   UNL     1     -12.816   7.612  -1.722  1.00  0.00     0.135 A 
ATOM     94  C   UNL     1     -12.098   6.990  -3.932  1.00  0.00     0.135 A 
ATOM     95  F   UNL     1     -12.586   7.760  -0.407  1.00  0.00    -0.206 F 
ATOM     96  C   UNL     1     -14.092   7.887  -2.203  1.00  0.00     0.059 A 
ATOM     97  C   UNL     1     -13.358   7.286  -4.439  1.00  0.00     0.059 A 
ATOM     98  F   UNL     1     -11.160   6.548  -4.785  1.00  0.00    -0.206 F 
ATOM     99  C   UNL     1     -14.355   7.713  -3.562  1.00  0.00     0.060 A 
BRANCH  99 100
ATOM    100  S   UNL     1     -16.020   8.052  -4.173  1.00  0.00     0.124 S 
ATOM    101  O   UNL     1     -16.754   6.890  -3.683  1.00  0.00    -0.237 OA
ATOM    102  O   UNL     1     -16.338   9.322  -3.526  1.00  0.00    -0.237 OA
ATOM    103  O   UNL     1     -15.844   8.120  -5.620  1.00  0.00    -0.744 OA
ENDBRANCH  99 100
ENDBRANCH  67  92
ENDBRANCH  41  42
ENDBRANCH  34  36
ENDBRANCH  33  34
ENDBRANCH   1  33
TORSDOF 20
