REMARK SMILES Cc1ccccc1[C@@H](Cc1c(Cl)cccc1Cl)C(=O)OCCOC(=O)c1ccc(-c2c3nc(c(-c4c(F)cc(S(=O)(=O)[O-])cc4F)c4ccc([nH]4)c(-c4c(F)cc(S(=O)(=O)[O-])cc4F)c4nc(c(-c5c(F)cc(S(=O)(=O)[O-])cc5F)c5ccc2[nH]5)C=C4)C=C3)cc1
REMARK SMILES IDX 22 1 21 2 20 3 18 4 19 5 8 6 7 7 1 8 2 9 3 10 4 11 6 12 5 13
REMARK SMILES IDX 9 14 10 15 11 16 16 17 12 18 13 19 15 20 17 21 14 22 23 23
REMARK SMILES IDX 24 24 25 25 26 26 27 27 91 28 28 29 90 30 29 31 30 32 31 33
REMARK SMILES IDX 84 34 32 35 89 36 83 37 85 38 33 39 88 40 82 41 81 42 34 44
REMARK SMILES IDX 68 45 47 46 67 47 48 48 51 49 66 50 86 51 49 52 50 53 65 55
REMARK SMILES IDX 87 56 52 57 35 58 36 59 45 60 37 61 38 62 44 63 46 64 39 65
REMARK SMILES IDX 40 66 41 67 42 68 43 69 69 70 70 71 79 72 71 73 72 74 78 75
REMARK SMILES IDX 80 76 73 77 74 78 75 79 76 80 77 81 53 82 54 83 63 84 55 85
REMARK SMILES IDX 56 86 62 87 64 88 57 89 58 90 59 91 60 92 61 93
REMARK H PARENT 85 43 51 54
REMARK Flexibility Score: inf
ROOT
ATOM      1  C   UNL     1      -2.117   1.760   3.626  1.00  0.00     0.275 C 
ENDROOT
BRANCH   1   2
ATOM      2  C   UNL     1      -2.289   2.209   2.158  1.00  0.00     0.274 C 
BRANCH   2   3
ATOM      3  O   UNL     1      -1.114   2.052   1.358  1.00  0.00    -0.462 OA
BRANCH   3   4
ATOM      4  C   UNL     1      -1.177   2.550   0.082  1.00  0.00     0.313 C 
ATOM      5  O   UNL     1      -2.184   3.073  -0.379  1.00  0.00    -0.252 OA
BRANCH   4   6
ATOM      6  C   UNL     1       0.048   2.074  -0.745  1.00  0.00     0.134 C 
BRANCH   6   7
ATOM      7  C   UNL     1      -0.230   0.564  -0.924  1.00  0.00    -0.031 A 
ATOM      8  C   UNL     1       2.137  -0.172  -0.264  1.00  0.00     0.044 C 
ATOM      9  C   UNL     1       0.677  -0.421  -0.501  1.00  0.00    -0.047 A 
ATOM     10  C   UNL     1       0.189  -1.708  -0.224  1.00  0.00     0.004 A 
ATOM     11  C   UNL     1      -1.159  -2.027  -0.393  1.00  0.00     0.000 A 
ATOM     12  C   UNL     1      -1.556   0.178  -1.242  1.00  0.00     0.005 A 
ATOM     13  C   UNL     1      -2.028  -1.091  -0.932  1.00  0.00     0.000 A 
ENDBRANCH   6   7
BRANCH   6  14
ATOM     14  C   UNL     1       0.311   2.785  -2.114  1.00  0.00     0.058 C 
BRANCH  14  15
ATOM     15  C   UNL     1       0.995   4.163  -2.212  1.00  0.00    -0.010 A 
ATOM     16  C   UNL     1       0.445   5.198  -3.007  1.00  0.00     0.045 A 
ATOM     17  C   UNL     1       2.253   4.466  -1.649  1.00  0.00     0.045 A 
ATOM     18  Cl  UNL     1      -0.874   4.919  -4.098  1.00  0.00    -0.084 Cl
ATOM     19  C   UNL     1       0.985   6.500  -3.031  1.00  0.00     0.021 A 
ATOM     20  C   UNL     1       2.790   5.770  -1.663  1.00  0.00     0.021 A 
ATOM     21  Cl  UNL     1       3.299   3.266  -0.991  1.00  0.00    -0.084 Cl
ATOM     22  C   UNL     1       2.130   6.802  -2.312  1.00  0.00     0.003 A 
ENDBRANCH  14  15
ENDBRANCH   6  14
ENDBRANCH   4   6
ENDBRANCH   3   4
ENDBRANCH   2   3
ENDBRANCH   1   2
BRANCH   1  23
ATOM     23  O   UNL     1      -0.840   1.232   4.078  1.00  0.00    -0.458 OA
BRANCH  23  24
ATOM     24  C   UNL     1       0.397   1.653   3.687  1.00  0.00     0.338 C 
ATOM     25  O   UNL     1       1.292   0.829   3.490  1.00  0.00    -0.246 OA
BRANCH  24  26
ATOM     26  C   UNL     1       0.524   3.097   3.365  1.00  0.00     0.060 A 
ATOM     27  C   UNL     1       1.304   3.494   2.273  1.00  0.00     0.016 A 
ATOM     28  C   UNL     1      -0.367   3.994   3.939  1.00  0.00     0.016 A 
ATOM     29  C   UNL     1       1.010   4.695   1.621  1.00  0.00     0.010 A 
ATOM     30  C   UNL     1      -0.776   5.080   3.194  1.00  0.00     0.010 A 
ATOM     31  C   UNL     1      -0.105   5.434   2.012  1.00  0.00    -0.014 A 
BRANCH  31  32
ATOM     32  C   UNL     1      -0.446   6.765   1.501  1.00  0.00     0.031 A 
ATOM     33  C   UNL     1      -1.177   7.076   0.255  1.00  0.00     0.074 A 
ATOM     34  C   UNL     1      -0.092   7.727   2.376  1.00  0.00     0.049 A 
ATOM     35  N   UNL     1      -1.354   8.263  -0.215  1.00  0.00    -0.248 NA
ATOM     36  C   UNL     1      -1.784   6.078  -0.599  1.00  0.00     0.031 C 
ATOM     37  C   UNL     1      -0.379   9.144   2.410  1.00  0.00     0.029 A 
ATOM     38  N   UNL     1       0.876   7.548   3.364  1.00  0.00    -0.354 N 
ATOM     39  C   UNL     1      -2.217   8.205  -1.298  1.00  0.00     0.074 A 
ATOM     40  C   UNL     1      -2.465   6.805  -1.492  1.00  0.00     0.031 C 
ATOM     41  C   UNL     1       0.598   9.742   3.120  1.00  0.00     0.029 A 
ATOM     42  C   UNL     1       1.605   8.729   3.432  1.00  0.00     0.049 A 
ATOM     43  H   UNL     1       1.016   6.740   3.909  1.00  0.00     0.167 HD
ATOM     44  C   UNL     1      -2.649   9.373  -1.857  1.00  0.00     0.037 A 
ATOM     45  C   UNL     1       2.881   8.664   2.942  1.00  0.00     0.037 A 
ATOM     46  C   UNL     1      -1.836  10.472  -1.332  1.00  0.00     0.049 A 
ATOM     47  C   UNL     1       3.027   9.453   1.649  1.00  0.00     0.074 A 
ATOM     48  C   UNL     1      -1.966  11.335  -0.258  1.00  0.00     0.029 A 
ATOM     49  N   UNL     1      -0.497  10.504  -1.686  1.00  0.00    -0.354 N 
ATOM     50  N   UNL     1       2.028   9.885   0.920  1.00  0.00    -0.248 NA
ATOM     51  C   UNL     1       4.319   9.805   1.071  1.00  0.00     0.031 C 
ATOM     52  C   UNL     1      -0.658  11.799   0.089  1.00  0.00     0.029 A 
ATOM     53  C   UNL     1       0.253  11.254  -0.800  1.00  0.00     0.049 A 
ATOM     54  H   UNL     1      -0.125  10.047  -2.474  1.00  0.00     0.167 HD
ATOM     55  C   UNL     1       2.502  10.626  -0.127  1.00  0.00     0.074 A 
ATOM     56  C   UNL     1       3.947  10.486  -0.026  1.00  0.00     0.031 C 
ATOM     57  C   UNL     1       1.698  11.326  -0.986  1.00  0.00     0.037 A 
BRANCH  44  58
ATOM     58  C   UNL     1      -3.898   9.559  -2.709  1.00  0.00     0.058 A 
ATOM     59  C   UNL     1      -4.547  10.816  -2.732  1.00  0.00     0.135 A 
ATOM     60  C   UNL     1      -4.572   8.554  -3.436  1.00  0.00     0.135 A 
ATOM     61  F   UNL     1      -3.994  11.894  -2.157  1.00  0.00    -0.206 F 
ATOM     62  C   UNL     1      -5.803  11.026  -3.316  1.00  0.00     0.059 A 
ATOM     63  C   UNL     1      -5.846   8.729  -4.002  1.00  0.00     0.059 A 
ATOM     64  F   UNL     1      -4.015   7.361  -3.668  1.00  0.00    -0.206 F 
ATOM     65  C   UNL     1      -6.468   9.965  -3.913  1.00  0.00     0.060 A 
BRANCH  65  66
ATOM     66  S   UNL     1      -8.141  10.221  -4.543  1.00  0.00     0.124 S 
ATOM     67  O   UNL     1      -8.862  10.622  -3.339  1.00  0.00    -0.237 OA
ATOM     68  O   UNL     1      -7.940  11.268  -5.539  1.00  0.00    -0.237 OA
ATOM     69  O   UNL     1      -8.511   8.914  -5.079  1.00  0.00    -0.744 OA
ENDBRANCH  65  66
ENDBRANCH  44  58
BRANCH  45  70
ATOM     70  C   UNL     1       3.604   7.380   3.300  1.00  0.00     0.058 A 
ATOM     71  C   UNL     1       3.510   6.893   4.631  1.00  0.00     0.135 A 
ATOM     72  C   UNL     1       4.153   6.493   2.364  1.00  0.00     0.135 A 
ATOM     73  F   UNL     1       3.014   7.678   5.605  1.00  0.00    -0.206 F 
ATOM     74  C   UNL     1       3.805   5.576   4.979  1.00  0.00     0.059 A 
ATOM     75  C   UNL     1       4.491   5.171   2.699  1.00  0.00     0.059 A 
ATOM     76  F   UNL     1       4.307   6.865   1.085  1.00  0.00    -0.206 F 
ATOM     77  C   UNL     1       4.275   4.712   3.999  1.00  0.00     0.060 A 
BRANCH  77  78
ATOM     78  S   UNL     1       4.432   2.955   4.414  1.00  0.00     0.124 S 
ATOM     79  O   UNL     1       5.705   2.932   5.126  1.00  0.00    -0.237 OA
ATOM     80  O   UNL     1       3.245   2.736   5.238  1.00  0.00    -0.237 OA
ATOM     81  O   UNL     1       4.428   2.313   3.104  1.00  0.00    -0.744 OA
ENDBRANCH  77  78
ENDBRANCH  45  70
BRANCH  57  82
ATOM     82  C   UNL     1       2.240  12.197  -2.089  1.00  0.00     0.058 A 
ATOM     83  C   UNL     1       3.330  13.062  -1.903  1.00  0.00     0.135 A 
ATOM     84  C   UNL     1       1.598  12.274  -3.345  1.00  0.00     0.135 A 
ATOM     85  F   UNL     1       3.949  13.149  -0.715  1.00  0.00    -0.206 F 
ATOM     86  C   UNL     1       3.811  13.879  -2.925  1.00  0.00     0.059 A 
ATOM     87  C   UNL     1       2.014  13.134  -4.354  1.00  0.00     0.059 A 
ATOM     88  F   UNL     1       0.558  11.487  -3.655  1.00  0.00    -0.206 F 
ATOM     89  C   UNL     1       3.147  13.905  -4.149  1.00  0.00     0.060 A 
BRANCH  89  90
ATOM     90  S   UNL     1       3.768  14.959  -5.468  1.00  0.00     0.124 S 
ATOM     91  O   UNL     1       4.143  16.174  -4.751  1.00  0.00    -0.237 OA
ATOM     92  O   UNL     1       4.875  14.157  -5.979  1.00  0.00    -0.237 OA
ATOM     93  O   UNL     1       2.623  15.094  -6.362  1.00  0.00    -0.744 OA
ENDBRANCH  89  90
ENDBRANCH  57  82
ENDBRANCH  31  32
ENDBRANCH  24  26
ENDBRANCH  23  24
ENDBRANCH   1  23
TORSDOF 17
