REMARK SMILES O=C(OCCOC(=O)c1cn2ccccc2n1)c1ccc(-c2c3nc(c(-c4c(F)cc(S(=O)(=O)[O-])cc4F)c4ccc([nH]4)c(-c4c(F)cc(S(=O)(=O)[O-])cc4F)c4nc(c(-c5c(F)cc(S(=O)(=O)[O-])cc5F)c5ccc2[nH]5)C=C4)C=C3)cc1
REMARK SMILES IDX 3 1 2 2 1 3 18 4 19 5 83 6 20 7 82 8 21 9 22 10 23 11 76 12
REMARK SMILES IDX 24 13 81 14 75 15 77 16 25 17 80 18 74 19 73 20 26 22 60 23
REMARK SMILES IDX 39 24 59 25 40 26 43 27 58 28 78 29 41 30 42 31 57 33 79 34
REMARK SMILES IDX 44 35 27 36 28 37 37 38 29 39 30 40 36 41 38 42 31 43 32 44
REMARK SMILES IDX 33 45 34 46 35 47 61 48 62 49 71 50 63 51 64 52 70 53 72 54
REMARK SMILES IDX 65 55 66 56 67 57 68 58 69 59 45 60 46 61 55 62 47 63 48 64
REMARK SMILES IDX 54 65 56 66 49 67 50 68 51 69 52 70 53 71 4 72 5 73 6 74
REMARK SMILES IDX 7 75 8 76 9 77 10 78 17 79 11 80 16 81 12 82 15 83 13 84
REMARK SMILES IDX 14 85
REMARK H PARENT 77 21 43 32
REMARK Flexibility Score: inf
ROOT
ATOM      1  O   UNL     1       2.805   0.856   0.321  1.00  0.00    -0.458 OA
ENDROOT
BRANCH   1   2
ATOM      2  C   UNL     1       3.106   0.737  -0.998  1.00  0.00     0.338 C 
ATOM      3  O   UNL     1       2.649   1.517  -1.826  1.00  0.00    -0.246 OA
BRANCH   2   4
ATOM      4  C   UNL     1       3.771  -0.510  -1.464  1.00  0.00     0.060 A 
ATOM      5  C   UNL     1       5.060  -0.898  -1.084  1.00  0.00     0.016 A 
ATOM      6  C   UNL     1       3.087  -1.279  -2.414  1.00  0.00     0.016 A 
ATOM      7  C   UNL     1       5.623  -2.078  -1.580  1.00  0.00     0.010 A 
ATOM      8  C   UNL     1       3.653  -2.453  -2.922  1.00  0.00     0.010 A 
ATOM      9  C   UNL     1       4.923  -2.865  -2.499  1.00  0.00    -0.014 A 
BRANCH   9  10
ATOM     10  C   UNL     1       5.542  -4.080  -3.079  1.00  0.00     0.031 A 
ATOM     11  C   UNL     1       6.145  -4.015  -4.451  1.00  0.00     0.074 A 
ATOM     12  C   UNL     1       5.544  -5.237  -2.389  1.00  0.00     0.049 A 
ATOM     13  N   UNL     1       6.707  -4.969  -5.146  1.00  0.00    -0.248 NA
ATOM     14  C   UNL     1       6.138  -2.703  -5.119  1.00  0.00     0.031 C 
ATOM     15  C   UNL     1       5.034  -5.413  -1.030  1.00  0.00     0.029 A 
ATOM     16  N   UNL     1       5.948  -6.496  -2.756  1.00  0.00    -0.354 N 
ATOM     17  C   UNL     1       7.170  -4.364  -6.306  1.00  0.00     0.074 A 
ATOM     18  C   UNL     1       6.761  -2.977  -6.257  1.00  0.00     0.031 C 
ATOM     19  C   UNL     1       5.059  -6.720  -0.716  1.00  0.00     0.029 A 
ATOM     20  C   UNL     1       5.590  -7.468  -1.851  1.00  0.00     0.049 A 
ATOM     21  H   UNL     1       6.445  -6.685  -3.584  1.00  0.00     0.167 HD
ATOM     22  C   UNL     1       7.908  -4.910  -7.301  1.00  0.00     0.037 A 
ATOM     23  C   UNL     1       5.646  -8.810  -1.950  1.00  0.00     0.037 A 
ATOM     24  C   UNL     1       8.293  -6.295  -7.349  1.00  0.00     0.049 A 
ATOM     25  C   UNL     1       6.300  -9.427  -3.156  1.00  0.00     0.074 A 
ATOM     26  C   UNL     1       9.108  -6.934  -8.266  1.00  0.00     0.029 A 
ATOM     27  N   UNL     1       7.861  -7.261  -6.454  1.00  0.00    -0.354 N 
ATOM     28  N   UNL     1       6.831  -8.828  -4.194  1.00  0.00    -0.248 NA
ATOM     29  C   UNL     1       6.390 -10.893  -3.193  1.00  0.00     0.031 C 
ATOM     30  C   UNL     1       9.132  -8.297  -7.950  1.00  0.00     0.029 A 
ATOM     31  C   UNL     1       8.355  -8.500  -6.821  1.00  0.00     0.049 A 
ATOM     32  H   UNL     1       7.287  -7.091  -5.672  1.00  0.00     0.167 HD
ATOM     33  C   UNL     1       7.366  -9.839  -4.982  1.00  0.00     0.074 A 
ATOM     34  C   UNL     1       7.073 -11.090  -4.313  1.00  0.00     0.031 C 
ATOM     35  C   UNL     1       8.060  -9.736  -6.141  1.00  0.00     0.037 A 
BRANCH  22  36
ATOM     36  C   UNL     1       8.370  -4.000  -8.398  1.00  0.00     0.058 A 
ATOM     37  C   UNL     1       9.430  -3.103  -8.192  1.00  0.00     0.135 A 
ATOM     38  C   UNL     1       7.785  -4.048  -9.671  1.00  0.00     0.135 A 
ATOM     39  F   UNL     1      10.013  -3.010  -6.986  1.00  0.00    -0.206 F 
ATOM     40  C   UNL     1       9.886  -2.272  -9.209  1.00  0.00     0.059 A 
ATOM     41  C   UNL     1       8.235  -3.236 -10.709  1.00  0.00     0.059 A 
ATOM     42  F   UNL     1       6.764  -4.884  -9.914  1.00  0.00    -0.206 F 
ATOM     43  C   UNL     1       9.280  -2.345 -10.465  1.00  0.00     0.060 A 
BRANCH  43  44
ATOM     44  S   UNL     1       9.893  -1.268 -11.778  1.00  0.00     0.124 S 
ATOM     45  O   UNL     1       9.359   0.026 -11.366  1.00  0.00    -0.237 OA
ATOM     46  O   UNL     1      11.339  -1.423 -11.661  1.00  0.00    -0.237 OA
ATOM     47  O   UNL     1       9.301  -1.836 -12.986  1.00  0.00    -0.744 OA
ENDBRANCH  43  44
ENDBRANCH  22  36
BRANCH  23  48
ATOM     48  C   UNL     1       5.021  -9.668  -0.911  1.00  0.00     0.058 A 
ATOM     49  C   UNL     1       5.790 -10.404  -0.000  1.00  0.00     0.135 A 
ATOM     50  C   UNL     1       3.624  -9.800  -0.850  1.00  0.00     0.135 A 
ATOM     51  F   UNL     1       7.128 -10.314  -0.026  1.00  0.00    -0.206 F 
ATOM     52  C   UNL     1       5.198 -11.266   0.918  1.00  0.00     0.059 A 
ATOM     53  C   UNL     1       3.009 -10.643   0.068  1.00  0.00     0.059 A 
ATOM     54  F   UNL     1       2.846  -9.107  -1.695  1.00  0.00    -0.206 F 
ATOM     55  C   UNL     1       3.807 -11.385   0.938  1.00  0.00     0.060 A 
BRANCH  55  56
ATOM     56  S   UNL     1       3.046 -12.508   2.132  1.00  0.00     0.124 S 
ATOM     57  O   UNL     1       3.328 -13.806   1.533  1.00  0.00    -0.237 OA
ATOM     58  O   UNL     1       3.777 -12.194   3.356  1.00  0.00    -0.237 OA
ATOM     59  O   UNL     1       1.644 -12.098   2.126  1.00  0.00    -0.744 OA
ENDBRANCH  55  56
ENDBRANCH  23  48
BRANCH  35  60
ATOM     60  C   UNL     1       8.592 -11.004  -6.739  1.00  0.00     0.058 A 
ATOM     61  C   UNL     1       7.764 -11.884  -7.448  1.00  0.00     0.135 A 
ATOM     62  C   UNL     1       9.960 -11.309  -6.649  1.00  0.00     0.135 A 
ATOM     63  F   UNL     1       6.447 -11.641  -7.548  1.00  0.00    -0.206 F 
ATOM     64  C   UNL     1       8.273 -13.032  -8.046  1.00  0.00     0.059 A 
ATOM     65  C   UNL     1      10.494 -12.440  -7.256  1.00  0.00     0.059 A 
ATOM     66  F   UNL     1      10.792 -10.492  -5.983  1.00  0.00    -0.206 F 
ATOM     67  C   UNL     1       9.640 -13.299  -7.947  1.00  0.00     0.060 A 
BRANCH  67  68
ATOM     68  S   UNL     1      10.304 -14.761  -8.772  1.00  0.00     0.124 S 
ATOM     69  O   UNL     1       9.932 -15.819  -7.838  1.00  0.00    -0.237 OA
ATOM     70  O   UNL     1       9.589 -14.758 -10.044  1.00  0.00    -0.237 OA
ATOM     71  O   UNL     1      11.733 -14.476  -8.864  1.00  0.00    -0.744 OA
ENDBRANCH  67  68
ENDBRANCH  35  60
ENDBRANCH   9  10
ENDBRANCH   2   4
ENDBRANCH   1   2
BRANCH   1  72
ATOM     72  C   UNL     1       3.771   0.693   1.371  1.00  0.00     0.275 C 
BRANCH  72  73
ATOM     73  C   UNL     1       3.518  -0.538   2.247  1.00  0.00     0.275 C 
BRANCH  73  74
ATOM     74  O   UNL     1       3.105  -1.683   1.492  1.00  0.00    -0.457 OA
BRANCH  74  75
ATOM     75  C   UNL     1       1.745  -1.790   1.317  1.00  0.00     0.358 C 
ATOM     76  O   UNL     1       0.922  -1.066   1.858  1.00  0.00    -0.244 OA
BRANCH  75  77
ATOM     77  C   UNL     1       1.408  -2.822   0.342  1.00  0.00     0.167 A 
ATOM     78  C   UNL     1       1.879  -4.122   0.302  1.00  0.00     0.128 A 
ATOM     79  N   UNL     1       0.593  -2.575  -0.751  1.00  0.00    -0.222 NA
ATOM     80  N   UNL     1       1.405  -4.656  -0.870  1.00  0.00    -0.306 N 
ATOM     81  C   UNL     1       0.655  -3.663  -1.489  1.00  0.00     0.137 A 
ATOM     82  C   UNL     1       1.629  -5.908  -1.433  1.00  0.00     0.093 A 
ATOM     83  C   UNL     1       0.153  -3.944  -2.792  1.00  0.00     0.048 A 
ATOM     84  C   UNL     1       1.159  -6.169  -2.664  1.00  0.00     0.018 A 
ATOM     85  C   UNL     1       0.410  -5.137  -3.364  1.00  0.00     0.005 A 
ENDBRANCH  75  77
ENDBRANCH  74  75
ENDBRANCH  73  74
ENDBRANCH  72  73
ENDBRANCH   1  72
TORSDOF 14
