REMARK SMILES COc1cc2c(cc1OC)C1=C(C#N)C[N@@H+](CC(=O)OCCOC(=O)c3ccc(-c4c5nc(c(-c6c(F)cc(S(=O)(=O)[O-])cc6F)c6ccc([nH]6)c(-c6c(F)cc(S(=O)(=O)[O-])cc6F)c6nc(c(-c7c(F)cc(S(=O)(=O)[O-])cc7F)c7ccc4[nH]7)C=C6)C=C5)cc3)CN1CC2
REMARK SMILES IDX 22 1 21 2 20 3 18 4 19 5 17 6 16 7 3 8 4 9 8 10 5 11 7 12
REMARK SMILES IDX 6 13 95 14 11 15 94 16 12 17 93 18 15 19 92 20 2 22 1 23
REMARK SMILES IDX 9 24 10 25 13 26 14 27 23 28 24 29 25 30 26 31 27 32 91 33
REMARK SMILES IDX 28 34 90 35 29 36 30 37 31 38 84 39 32 40 89 41 83 42 85 43
REMARK SMILES IDX 33 44 88 45 82 46 81 47 34 49 68 50 47 51 67 52 48 53 51 54
REMARK SMILES IDX 66 55 86 56 49 57 50 58 65 60 87 61 52 62 35 63 36 64 45 65
REMARK SMILES IDX 37 66 38 67 44 68 46 69 39 70 40 71 41 72 42 73 43 74 69 75
REMARK SMILES IDX 70 76 79 77 71 78 72 79 78 80 80 81 73 82 74 83 75 84 76 85
REMARK SMILES IDX 77 86 53 87 54 88 63 89 55 90 56 91 62 92 64 93 57 94 58 95
REMARK SMILES IDX 59 96 60 97 61 98
REMARK H PARENT 16 21 85 48 51 59
REMARK Flexibility Score: inf
ROOT
ATOM      1  C   UNL     1       3.489   6.128  -3.029  1.00  0.00     0.275 C 
ENDROOT
BRANCH   1   2
ATOM      2  C   UNL     1       2.510   6.726  -4.046  1.00  0.00     0.274 C 
BRANCH   2   3
ATOM      3  O   UNL     1       2.570   6.084  -5.338  1.00  0.00    -0.458 OA
BRANCH   3   4
ATOM      4  C   UNL     1       3.371   6.670  -6.261  1.00  0.00     0.361 C 
ATOM      5  O   UNL     1       4.018   7.694  -6.048  1.00  0.00    -0.245 OA
BRANCH   4   6
ATOM      6  C   UNL     1       3.355   6.034  -7.647  1.00  0.00     0.388 C 
BRANCH   6   7
ATOM      7  N   UNL     1       2.906   4.651  -7.799  1.00  0.00    -0.304 N 
ATOM      8  C   UNL     1       1.093   0.037  -2.465  1.00  0.00     0.161 A 
ATOM      9  C   UNL     1       2.406   0.426  -2.743  1.00  0.00     0.055 A 
ATOM     10  C   UNL     1       0.089   0.345  -3.380  1.00  0.00     0.161 A 
ATOM     11  C   UNL     1       2.704   1.215  -3.870  1.00  0.00    -0.033 A 
ATOM     12  C   UNL     1       0.406   1.156  -4.487  1.00  0.00     0.061 A 
ATOM     13  C   UNL     1       1.681   1.708  -4.697  1.00  0.00     0.006 A 
ATOM     14  C   UNL     1       4.142   1.522  -4.194  1.00  0.00     0.058 C 
ATOM     15  C   UNL     1       2.020   2.714  -5.774  1.00  0.00     0.068 C 
ATOM     16  C   UNL     1       4.333   1.761  -5.698  1.00  0.00     0.127 C 
ATOM     17  C   UNL     1       1.169   3.621  -6.311  1.00  0.00     0.108 C 
ATOM     18  N   UNL     1       3.337   2.700  -6.228  1.00  0.00    -0.323 N 
ATOM     19  C   UNL     1       1.504   4.438  -7.519  1.00  0.00     0.314 C 
ATOM     20  C   UNL     1       3.772   3.583  -7.309  1.00  0.00     0.390 C 
ATOM     21  H   UNL     1       3.017   4.545  -8.808  1.00  0.00     0.350 HD
BRANCH   8  22
ATOM     22  O   UNL     1       0.844  -0.732  -1.360  1.00  0.00    -0.493 OA
ATOM     23  C   UNL     1       1.156  -0.036  -0.152  1.00  0.00     0.278 C 
ENDBRANCH   8  22
BRANCH  10  24
ATOM     24  O   UNL     1      -1.228  -0.031  -3.367  1.00  0.00    -0.493 OA
ATOM     25  C   UNL     1      -1.737  -0.695  -2.223  1.00  0.00     0.278 C 
ENDBRANCH  10  24
BRANCH  17  26
ATOM     26  C   UNL     1      -0.304   3.623  -5.939  1.00  0.00     0.103 C 
ATOM     27  N   UNL     1      -1.527   3.625  -5.631  1.00  0.00    -0.192 NA
ENDBRANCH  17  26
ENDBRANCH   6   7
ENDBRANCH   4   6
ENDBRANCH   3   4
ENDBRANCH   2   3
ENDBRANCH   1   2
BRANCH   1  28
ATOM     28  O   UNL     1       4.865   6.384  -3.374  1.00  0.00    -0.458 OA
BRANCH  28  29
ATOM     29  C   UNL     1       5.409   5.410  -4.130  1.00  0.00     0.338 C 
ATOM     30  O   UNL     1       4.871   4.381  -4.485  1.00  0.00    -0.246 OA
BRANCH  29  31
ATOM     31  C   UNL     1       6.735   5.726  -4.640  1.00  0.00     0.060 A 
ATOM     32  C   UNL     1       7.860   5.603  -3.830  1.00  0.00     0.016 A 
ATOM     33  C   UNL     1       6.853   5.930  -6.018  1.00  0.00     0.016 A 
ATOM     34  C   UNL     1       9.117   5.753  -4.412  1.00  0.00     0.010 A 
ATOM     35  C   UNL     1       8.099   6.052  -6.601  1.00  0.00     0.010 A 
ATOM     36  C   UNL     1       9.234   5.998  -5.791  1.00  0.00    -0.014 A 
BRANCH  36  37
ATOM     37  C   UNL     1      10.544   6.291  -6.393  1.00  0.00     0.031 A 
ATOM     38  C   UNL     1      10.887   7.717  -6.703  1.00  0.00     0.074 A 
ATOM     39  C   UNL     1      11.387   5.284  -6.671  1.00  0.00     0.049 A 
ATOM     40  N   UNL     1      12.019   8.216  -7.120  1.00  0.00    -0.248 NA
ATOM     41  C   UNL     1       9.812   8.712  -6.538  1.00  0.00     0.031 C 
ATOM     42  C   UNL     1      11.098   3.861  -6.482  1.00  0.00     0.029 A 
ATOM     43  N   UNL     1      12.663   5.306  -7.163  1.00  0.00    -0.354 N 
ATOM     44  C   UNL     1      11.801   9.582  -7.237  1.00  0.00     0.074 A 
ATOM     45  C   UNL     1      10.412   9.827  -6.924  1.00  0.00     0.031 C 
ATOM     46  C   UNL     1      12.184   3.147  -6.820  1.00  0.00     0.029 A 
ATOM     47  C   UNL     1      13.241   4.063  -7.242  1.00  0.00     0.049 A 
ATOM     48  H   UNL     1      13.123   6.134  -7.434  1.00  0.00     0.167 HD
ATOM     49  C   UNL     1      12.698  10.548  -7.539  1.00  0.00     0.037 A 
ATOM     50  C   UNL     1      14.496   3.718  -7.582  1.00  0.00     0.037 A 
ATOM     51  C   UNL     1      14.075  10.280  -7.844  1.00  0.00     0.049 A 
ATOM     52  C   UNL     1      15.481   4.808  -7.901  1.00  0.00     0.074 A 
ATOM     53  C   UNL     1      15.089  11.177  -8.121  1.00  0.00     0.029 A 
ATOM     54  N   UNL     1      14.628   9.008  -7.914  1.00  0.00    -0.354 N 
ATOM     55  N   UNL     1      15.293   6.108  -7.917  1.00  0.00    -0.248 NA
ATOM     56  C   UNL     1      16.850   4.391  -8.229  1.00  0.00     0.031 C 
ATOM     57  C   UNL     1      16.253  10.444  -8.385  1.00  0.00     0.029 A 
ATOM     58  C   UNL     1      15.968   9.094  -8.243  1.00  0.00     0.049 A 
ATOM     59  H   UNL     1      14.139   8.170  -7.754  1.00  0.00     0.167 HD
ATOM     60  C   UNL     1      16.523   6.666  -8.242  1.00  0.00     0.074 A 
ATOM     61  C   UNL     1      17.450   5.562  -8.401  1.00  0.00     0.031 C 
ATOM     62  C   UNL     1      16.858   7.971  -8.397  1.00  0.00     0.037 A 
BRANCH  49  63
ATOM     63  C   UNL     1      12.214  11.967  -7.515  1.00  0.00     0.058 A 
ATOM     64  C   UNL     1      11.925  12.613  -6.301  1.00  0.00     0.135 A 
ATOM     65  C   UNL     1      12.045  12.695  -8.702  1.00  0.00     0.135 A 
ATOM     66  F   UNL     1      12.047  11.953  -5.138  1.00  0.00    -0.206 F 
ATOM     67  C   UNL     1      11.466  13.924  -6.266  1.00  0.00     0.059 A 
ATOM     68  C   UNL     1      11.606  14.016  -8.689  1.00  0.00     0.059 A 
ATOM     69  F   UNL     1      12.296  12.120  -9.889  1.00  0.00    -0.206 F 
ATOM     70  C   UNL     1      11.308  14.618  -7.466  1.00  0.00     0.060 A 
BRANCH  70  71
ATOM     71  S   UNL     1      10.720  16.323  -7.402  1.00  0.00     0.124 S 
ATOM     72  O   UNL     1       9.307  16.133  -7.086  1.00  0.00    -0.237 OA
ATOM     73  O   UNL     1      11.535  16.896  -6.336  1.00  0.00    -0.237 OA
ATOM     74  O   UNL     1      11.000  16.830  -8.742  1.00  0.00    -0.744 OA
ENDBRANCH  70  71
ENDBRANCH  49  63
BRANCH  50  75
ATOM     75  C   UNL     1      14.900   2.291  -7.549  1.00  0.00     0.058 A 
ATOM     76  C   UNL     1      15.688   1.794  -6.501  1.00  0.00     0.135 A 
ATOM     77  C   UNL     1      14.467   1.387  -8.530  1.00  0.00     0.135 A 
ATOM     78  F   UNL     1      16.123   2.622  -5.539  1.00  0.00    -0.206 F 
ATOM     79  C   UNL     1      16.038   0.450  -6.427  1.00  0.00     0.059 A 
ATOM     80  C   UNL     1      14.791   0.035  -8.470  1.00  0.00     0.059 A 
ATOM     81  F   UNL     1      13.694   1.812  -9.542  1.00  0.00    -0.206 F 
ATOM     82  C   UNL     1      15.581  -0.423  -7.416  1.00  0.00     0.060 A 
BRANCH  82  83
ATOM     83  S   UNL     1      15.983  -2.178  -7.271  1.00  0.00     0.124 S 
ATOM     84  O   UNL     1      17.395  -2.187  -7.638  1.00  0.00    -0.237 OA
ATOM     85  O   UNL     1      15.686  -2.446  -5.868  1.00  0.00    -0.237 OA
ATOM     86  O   UNL     1      15.077  -2.809  -8.227  1.00  0.00    -0.744 OA
ENDBRANCH  82  83
ENDBRANCH  50  75
BRANCH  62  87
ATOM     87  C   UNL     1      18.282   8.273  -8.758  1.00  0.00     0.058 A 
ATOM     88  C   UNL     1      18.749   8.096 -10.068  1.00  0.00     0.135 A 
ATOM     89  C   UNL     1      19.159   8.818  -7.808  1.00  0.00     0.135 A 
ATOM     90  F   UNL     1      17.946   7.573 -11.008  1.00  0.00    -0.206 F 
ATOM     91  C   UNL     1      20.047   8.441 -10.424  1.00  0.00     0.059 A 
ATOM     92  C   UNL     1      20.455   9.188  -8.146  1.00  0.00     0.059 A 
ATOM     93  F   UNL     1      18.750   9.014  -6.544  1.00  0.00    -0.206 F 
ATOM     94  C   UNL     1      20.892   8.989  -9.456  1.00  0.00     0.060 A 
BRANCH  94  95
ATOM     95  S   UNL     1      22.559   9.481  -9.944  1.00  0.00     0.124 S 
ATOM     96  O   UNL     1      23.230   8.188 -10.033  1.00  0.00    -0.237 OA
ATOM     97  O   UNL     1      22.326  10.164 -11.212  1.00  0.00    -0.237 OA
ATOM     98  O   UNL     1      22.993  10.340  -8.847  1.00  0.00    -0.744 OA
ENDBRANCH  94  95
ENDBRANCH  62  87
ENDBRANCH  36  37
ENDBRANCH  29  31
ENDBRANCH  28  29
ENDBRANCH   1  28
TORSDOF 18
