REMARK SMILES Cc1ccc(-c2cc(C(=O)OCCOC(=O)c3ccc(-c4c5nc(c(-c6c(F)cc(S(=O)(=O)[O-])cc6F)c6ccc([nH]6)c(-c6c(F)cc(S(=O)(=O)[O-])cc6F)c6nc(c(-c7c(F)cc(S(=O)(=O)[O-])cc7F)c7ccc4[nH]7)C=C6)C=C5)cc3)c3c(-c4cccc([N+](=O)[O-])c4)[nH]nc3n2)cc1
REMARK SMILES IDX 13 1 12 2 11 3 9 4 10 5 8 6 6 7 7 8 97 9 96 10 83 11 95 12
REMARK SMILES IDX 84 13 94 14 5 16 1 17 2 18 3 19 99 20 4 21 98 22 85 23 86 24
REMARK SMILES IDX 93 25 87 26 89 27 88 28 90 29 91 30 92 31 14 32 15 33 16 34
REMARK SMILES IDX 17 35 18 36 82 37 19 38 81 39 20 40 21 41 22 42 75 43 23 44
REMARK SMILES IDX 80 45 74 46 76 47 24 48 79 49 73 50 72 51 25 53 59 54 38 55
REMARK SMILES IDX 58 56 39 57 42 58 57 59 77 60 40 61 41 62 56 64 78 65 43 66
REMARK SMILES IDX 26 67 27 68 36 69 28 70 29 71 35 72 37 73 30 74 31 75 32 76
REMARK SMILES IDX 33 77 34 78 60 79 61 80 70 81 62 82 63 83 69 84 71 85 64 86
REMARK SMILES IDX 65 87 66 88 67 89 68 90 44 91 45 92 54 93 46 94 47 95 53 96
REMARK SMILES IDX 55 97 48 98 49 99 50 100 51 101 52 102
REMARK H PARENT 94 15 76 52 42 63
REMARK Flexibility Score: inf
ROOT
ATOM      1  C   UNL     1      -4.415   1.129  -5.759  1.00  0.00     0.275 C 
ENDROOT
BRANCH   1   2
ATOM      2  C   UNL     1      -3.797   1.361  -4.354  1.00  0.00     0.275 C 
BRANCH   2   3
ATOM      3  O   UNL     1      -4.103   0.285  -3.431  1.00  0.00    -0.458 OA
BRANCH   3   4
ATOM      4  C   UNL     1      -4.430   0.617  -2.136  1.00  0.00     0.339 C 
ATOM      5  O   UNL     1      -4.201   1.703  -1.623  1.00  0.00    -0.246 OA
BRANCH   4   6
ATOM      6  C   UNL     1      -4.733  -0.616  -1.326  1.00  0.00     0.075 A 
ATOM      7  C   UNL     1      -2.870  -1.007   0.232  1.00  0.00     0.074 A 
ATOM      8  C   UNL     1      -3.398  -1.028  -1.067  1.00  0.00     0.045 A 
ATOM      9  N   UNL     1      -3.577  -1.045   1.369  1.00  0.00    -0.226 NA
ATOM     10  C   UNL     1      -4.910  -1.027   1.165  1.00  0.00     0.182 A 
ATOM     11  C   UNL     1      -5.560  -0.760  -0.130  1.00  0.00     0.061 A 
ATOM     12  N   UNL     1      -5.761  -1.276   2.145  1.00  0.00    -0.154 NA
ATOM     13  C   UNL     1      -6.949  -0.820   0.212  1.00  0.00     0.076 A 
ATOM     14  N   UNL     1      -6.923  -1.262   1.531  1.00  0.00    -0.275 N 
ATOM     15  H   UNL     1      -7.745  -1.554   1.988  1.00  0.00     0.190 HD
BRANCH   7  16
ATOM     16  C   UNL     1      -1.443  -0.727   0.379  1.00  0.00     0.000 A 
ATOM     17  C   UNL     1       2.772   0.081   0.041  1.00  0.00     0.044 C 
ATOM     18  C   UNL     1       1.309  -0.179   0.231  1.00  0.00    -0.051 A 
ATOM     19  C   UNL     1       0.845  -1.500   0.286  1.00  0.00     0.004 A 
ATOM     20  C   UNL     1       0.392   0.874   0.311  1.00  0.00     0.004 A 
ATOM     21  C   UNL     1      -0.519  -1.771   0.364  1.00  0.00     0.010 A 
ATOM     22  C   UNL     1      -0.975   0.602   0.386  1.00  0.00     0.010 A 
ENDBRANCH   7  16
BRANCH  13  23
ATOM     23  C   UNL     1      -8.391  -0.626  -0.185  1.00  0.00     0.007 A 
ATOM     24  C   UNL     1      -9.129   0.247   0.678  1.00  0.00     0.011 A 
ATOM     25  C   UNL     1      -9.172  -1.406  -1.061  1.00  0.00     0.096 A 
ATOM     26  C   UNL     1     -10.527   0.390   0.652  1.00  0.00     0.008 A 
ATOM     27  C   UNL     1     -10.596  -1.213  -1.129  1.00  0.00     0.270 A 
ATOM     28  C   UNL     1     -11.265  -0.317  -0.279  1.00  0.00     0.085 A 
BRANCH  27  29
ATOM     29  N   UNL     1     -11.446  -1.981  -2.066  1.00  0.00     0.062 N 
ATOM     30  O   UNL     1     -12.603  -1.565  -2.266  1.00  0.00    -0.258 OA
ATOM     31  O   UNL     1     -11.028  -3.084  -2.447  1.00  0.00    -0.258 OA
ENDBRANCH  27  29
ENDBRANCH  13  23
ENDBRANCH   4   6
ENDBRANCH   3   4
ENDBRANCH   2   3
ENDBRANCH   1   2
BRANCH   1  32
ATOM     32  O   UNL     1      -5.752   0.582  -5.869  1.00  0.00    -0.458 OA
BRANCH  32  33
ATOM     33  C   UNL     1      -6.457   0.398  -4.725  1.00  0.00     0.338 C 
ATOM     34  O   UNL     1      -6.522  -0.701  -4.175  1.00  0.00    -0.246 OA
BRANCH  33  35
ATOM     35  C   UNL     1      -6.796   1.708  -4.111  1.00  0.00     0.060 A 
ATOM     36  C   UNL     1      -6.852   1.791  -2.718  1.00  0.00     0.016 A 
ATOM     37  C   UNL     1      -6.775   2.864  -4.888  1.00  0.00     0.016 A 
ATOM     38  C   UNL     1      -6.698   3.005  -2.073  1.00  0.00     0.010 A 
ATOM     39  C   UNL     1      -6.600   4.071  -4.266  1.00  0.00     0.010 A 
ATOM     40  C   UNL     1      -6.546   4.124  -2.869  1.00  0.00    -0.014 A 
BRANCH  40  41
ATOM     41  C   UNL     1      -6.446   5.447  -2.304  1.00  0.00     0.031 A 
ATOM     42  C   UNL     1      -5.172   5.823  -1.667  1.00  0.00     0.074 A 
ATOM     43  C   UNL     1      -7.574   6.160  -2.504  1.00  0.00     0.049 A 
ATOM     44  N   UNL     1      -5.052   6.583  -0.638  1.00  0.00    -0.248 NA
ATOM     45  C   UNL     1      -3.877   5.263  -2.083  1.00  0.00     0.031 C 
ATOM     46  C   UNL     1      -7.898   7.558  -2.335  1.00  0.00     0.029 A 
ATOM     47  N   UNL     1      -8.814   5.584  -2.777  1.00  0.00    -0.354 N 
ATOM     48  C   UNL     1      -3.732   7.002  -0.637  1.00  0.00     0.074 A 
ATOM     49  C   UNL     1      -3.015   5.983  -1.354  1.00  0.00     0.031 C 
ATOM     50  C   UNL     1      -9.234   7.676  -2.177  1.00  0.00     0.029 A 
ATOM     51  C   UNL     1      -9.805   6.336  -2.160  1.00  0.00     0.049 A 
ATOM     52  H   UNL     1      -8.963   4.775  -3.319  1.00  0.00     0.167 HD
ATOM     53  C   UNL     1      -3.475   8.312  -0.340  1.00  0.00     0.037 A 
ATOM     54  C   UNL     1     -10.454   5.761  -1.103  1.00  0.00     0.037 A 
ATOM     55  C   UNL     1      -4.744   8.969  -0.024  1.00  0.00     0.049 A 
ATOM     56  C   UNL     1      -9.979   6.391   0.198  1.00  0.00     0.074 A 
ATOM     57  C   UNL     1      -5.597   9.725  -0.813  1.00  0.00     0.029 A 
ATOM     58  N   UNL     1      -5.500   8.523   1.055  1.00  0.00    -0.354 N 
ATOM     59  N   UNL     1      -8.786   6.893   0.407  1.00  0.00    -0.248 NA
ATOM     60  C   UNL     1     -10.903   6.678   1.290  1.00  0.00     0.031 C 
ATOM     61  C   UNL     1      -6.885   9.693  -0.223  1.00  0.00     0.029 A 
ATOM     62  C   UNL     1      -6.829   8.867   0.886  1.00  0.00     0.049 A 
ATOM     63  H   UNL     1      -5.139   8.033   1.829  1.00  0.00     0.167 HD
ATOM     64  C   UNL     1      -8.818   7.691   1.534  1.00  0.00     0.074 A 
ATOM     65  C   UNL     1     -10.159   7.491   2.060  1.00  0.00     0.031 C 
ATOM     66  C   UNL     1      -7.807   8.543   1.909  1.00  0.00     0.037 A 
BRANCH  53  67
ATOM     67  C   UNL     1      -2.218   9.076  -0.724  1.00  0.00     0.058 A 
ATOM     68  C   UNL     1      -2.280  10.467  -0.985  1.00  0.00     0.135 A 
ATOM     69  C   UNL     1      -0.931   8.517  -0.865  1.00  0.00     0.135 A 
ATOM     70  F   UNL     1      -3.409  11.167  -0.828  1.00  0.00    -0.206 F 
ATOM     71  C   UNL     1      -1.189  11.221  -1.418  1.00  0.00     0.059 A 
ATOM     72  C   UNL     1       0.179   9.252  -1.318  1.00  0.00     0.059 A 
ATOM     73  F   UNL     1      -0.685   7.245  -0.526  1.00  0.00    -0.206 F 
ATOM     74  C   UNL     1       0.038  10.606  -1.595  1.00  0.00     0.060 A 
BRANCH  74  75
ATOM     75  S   UNL     1       1.428  11.620  -2.135  1.00  0.00     0.124 S 
ATOM     76  O   UNL     1       0.959  12.120  -3.424  1.00  0.00    -0.237 OA
ATOM     77  O   UNL     1       1.518  12.609  -1.067  1.00  0.00    -0.237 OA
ATOM     78  O   UNL     1       2.536  10.671  -2.203  1.00  0.00    -0.744 OA
ENDBRANCH  74  75
ENDBRANCH  53  67
BRANCH  54  79
ATOM     79  C   UNL     1     -10.776   4.319  -1.396  1.00  0.00     0.058 A 
ATOM     80  C   UNL     1     -11.631   4.052  -2.498  1.00  0.00     0.135 A 
ATOM     81  C   UNL     1      -9.918   3.290  -1.029  1.00  0.00     0.135 A 
ATOM     82  F   UNL     1     -12.517   4.982  -2.886  1.00  0.00    -0.206 F 
ATOM     83  C   UNL     1     -11.499   2.925  -3.314  1.00  0.00     0.059 A 
ATOM     84  C   UNL     1      -9.775   2.165  -1.853  1.00  0.00     0.059 A 
ATOM     85  F   UNL     1      -9.114   3.410   0.039  1.00  0.00    -0.206 F 
ATOM     86  C   UNL     1     -10.503   2.016  -3.028  1.00  0.00     0.060 A 
BRANCH  86  87
ATOM     87  S   UNL     1     -10.129   0.729  -4.247  1.00  0.00     0.124 S 
ATOM     88  O   UNL     1     -11.437   0.149  -4.510  1.00  0.00    -0.237 OA
ATOM     89  O   UNL     1      -9.544   1.497  -5.340  1.00  0.00    -0.237 OA
ATOM     90  O   UNL     1      -9.215  -0.147  -3.533  1.00  0.00    -0.744 OA
ENDBRANCH  86  87
ENDBRANCH  54  79
BRANCH  66  91
ATOM     91  C   UNL     1      -7.673   9.316   3.214  1.00  0.00     0.058 A 
ATOM     92  C   UNL     1      -8.335   8.987   4.403  1.00  0.00     0.135 A 
ATOM     93  C   UNL     1      -6.720  10.372   3.333  1.00  0.00     0.135 A 
ATOM     94  F   UNL     1      -9.156   7.932   4.485  1.00  0.00    -0.206 F 
ATOM     95  C   UNL     1      -8.141   9.702   5.587  1.00  0.00     0.059 A 
ATOM     96  C   UNL     1      -6.448  11.034   4.521  1.00  0.00     0.059 A 
ATOM     97  F   UNL     1      -5.990  10.807   2.296  1.00  0.00    -0.206 F 
ATOM     98  C   UNL     1      -7.195  10.720   5.638  1.00  0.00     0.060 A 
BRANCH  98  99
ATOM     99  S   UNL     1      -6.917  11.608   7.174  1.00  0.00     0.124 S 
ATOM    100  O   UNL     1      -8.009  12.576   7.147  1.00  0.00    -0.237 OA
ATOM    101  O   UNL     1      -7.033  10.550   8.173  1.00  0.00    -0.237 OA
ATOM    102  O   UNL     1      -5.577  12.162   7.011  1.00  0.00    -0.744 OA
ENDBRANCH  98  99
ENDBRANCH  66  91
ENDBRANCH  40  41
ENDBRANCH  33  35
ENDBRANCH  32  33
ENDBRANCH   1  32
TORSDOF 17
