REMARK SMILES CC(C)OC[C@H](O)CC1(C(=O)OCCOC(=O)c2ccc(-c3c4nc(c(-c5c(F)cc(S(=O)(=O)[O-])cc5F)c5ccc([nH]5)c(-c5c(F)cc(S(=O)(=O)[O-])cc5F)c5nc(c(-c6c(F)cc(S(=O)(=O)[O-])cc6F)c6ccc3[nH]6)C=C5)C=C4)cc2)CCCCC1
REMARK SMILES IDX 13 1 12 2 10 3 11 4 9 5 84 6 88 7 85 8 87 9 86 10 8 11 6 12
REMARK SMILES IDX 5 13 4 14 2 15 1 16 3 17 7 18 14 20 15 21 16 22 17 23 18 24
REMARK SMILES IDX 19 25 83 26 20 27 82 28 21 29 22 30 23 31 76 32 24 33 81 34
REMARK SMILES IDX 75 35 77 36 25 37 80 38 74 39 73 40 26 42 60 43 39 44 59 45
REMARK SMILES IDX 40 46 43 47 58 48 78 49 41 50 42 51 57 53 79 54 44 55 27 56
REMARK SMILES IDX 28 57 37 58 29 59 30 60 36 61 38 62 31 63 32 64 33 65 34 66
REMARK SMILES IDX 35 67 61 68 62 69 71 70 63 71 64 72 70 73 72 74 65 75 66 76
REMARK SMILES IDX 67 77 68 78 69 79 45 80 46 81 55 82 47 83 48 84 54 85 56 86
REMARK SMILES IDX 49 87 50 88 51 89 52 90 53 91
REMARK H PARENT 7 19 77 41 43 52
REMARK Flexibility Score: inf
ROOT
ATOM      1  C   UNL     1      -4.646  -0.461   0.591  1.00  0.00     0.274 C 
ENDROOT
BRANCH   1   2
ATOM      2  O   UNL     1      -4.237  -0.344   1.962  1.00  0.00    -0.462 OA
BRANCH   2   3
ATOM      3  C   UNL     1      -4.117  -1.525   2.625  1.00  0.00     0.312 C 
ATOM      4  O   UNL     1      -4.505  -2.603   2.183  1.00  0.00    -0.252 OA
BRANCH   3   5
ATOM      5  C   UNL     1      -3.400  -1.367   3.988  1.00  0.00     0.071 C 
ATOM      6  C   UNL     1      -3.996  -2.416   4.964  1.00  0.00     0.019 C 
ATOM      7  C   UNL     1      -3.641   0.035   4.606  1.00  0.00     0.019 C 
ATOM      8  C   UNL     1      -5.477  -2.174   5.262  1.00  0.00     0.001 C 
ATOM      9  C   UNL     1      -5.115   0.309   4.915  1.00  0.00     0.001 C 
ATOM     10  C   UNL     1      -5.723  -0.770   5.803  1.00  0.00     0.000 C 
BRANCH   5  11
ATOM     11  C   UNL     1      -1.854  -1.622   3.863  1.00  0.00     0.053 C 
BRANCH  11  12
ATOM     12  C   UNL     1      -1.397  -2.236   2.537  1.00  0.00     0.141 C 
BRANCH  12  13
ATOM     13  C   UNL     1       0.093  -2.576   2.474  1.00  0.00     0.192 C 
BRANCH  13  14
ATOM     14  O   UNL     1       0.538  -2.532   1.115  1.00  0.00    -0.376 OA
BRANCH  14  15
ATOM     15  C   UNL     1       0.322  -3.630   0.228  1.00  0.00     0.112 C 
ATOM     16  C   UNL     1       0.742  -4.971   0.803  1.00  0.00     0.038 C 
ATOM     17  C   UNL     1      -1.079  -3.647  -0.373  1.00  0.00     0.038 C 
ENDBRANCH  14  15
ENDBRANCH  13  14
ENDBRANCH  12  13
BRANCH  12  18
ATOM     18  O   UNL     1      -1.666  -1.274   1.516  1.00  0.00    -0.391 OA
ATOM     19  H   UNL     1      -1.155  -0.468   1.688  1.00  0.00     0.211 HD
ENDBRANCH  12  18
ENDBRANCH  11  12
ENDBRANCH   5  11
ENDBRANCH   3   5
ENDBRANCH   2   3
ENDBRANCH   1   2
BRANCH   1  20
ATOM     20  C   UNL     1      -4.315   0.831  -0.158  1.00  0.00     0.275 C 
BRANCH  20  21
ATOM     21  O   UNL     1      -2.889   0.991  -0.275  1.00  0.00    -0.458 OA
BRANCH  21  22
ATOM     22  C   UNL     1      -2.303   1.717   0.716  1.00  0.00     0.338 C 
ATOM     23  O   UNL     1      -2.865   2.374   1.567  1.00  0.00    -0.246 OA
BRANCH  22  24
ATOM     24  C   UNL     1      -0.832   1.503   0.682  1.00  0.00     0.060 A 
ATOM     25  C   UNL     1      -0.158   1.443   1.907  1.00  0.00     0.016 A 
ATOM     26  C   UNL     1      -0.127   1.315  -0.512  1.00  0.00     0.016 A 
ATOM     27  C   UNL     1       1.212   1.172   1.941  1.00  0.00     0.010 A 
ATOM     28  C   UNL     1       1.254   1.084  -0.478  1.00  0.00     0.010 A 
ATOM     29  C   UNL     1       1.934   1.012   0.747  1.00  0.00    -0.014 A 
BRANCH  29  30
ATOM     30  C   UNL     1       3.414   0.879   0.802  1.00  0.00     0.031 A 
ATOM     31  C   UNL     1       4.235   2.087   1.132  1.00  0.00     0.074 A 
ATOM     32  C   UNL     1       4.023  -0.304   0.596  1.00  0.00     0.049 A 
ATOM     33  N   UNL     1       5.526   2.183   1.304  1.00  0.00    -0.248 NA
ATOM     34  C   UNL     1       3.505   3.357   1.276  1.00  0.00     0.031 C 
ATOM     35  C   UNL     1       3.330  -1.532   0.242  1.00  0.00     0.029 A 
ATOM     36  N   UNL     1       5.340  -0.683   0.664  1.00  0.00    -0.354 N 
ATOM     37  C   UNL     1       5.766   3.520   1.585  1.00  0.00     0.074 A 
ATOM     38  C   UNL     1       4.487   4.198   1.562  1.00  0.00     0.031 C 
ATOM     39  C   UNL     1       4.203  -2.548   0.188  1.00  0.00     0.029 A 
ATOM     40  C   UNL     1       5.543  -2.027   0.434  1.00  0.00     0.049 A 
ATOM     41  H   UNL     1       6.072  -0.055   0.860  1.00  0.00     0.167 HD
ATOM     42  C   UNL     1       6.950   4.131   1.814  1.00  0.00     0.037 A 
ATOM     43  C   UNL     1       6.680  -2.750   0.398  1.00  0.00     0.037 A 
ATOM     44  C   UNL     1       8.225   3.470   1.742  1.00  0.00     0.049 A 
ATOM     45  C   UNL     1       7.988  -2.036   0.609  1.00  0.00     0.074 A 
ATOM     46  C   UNL     1       9.487   4.016   1.888  1.00  0.00     0.029 A 
ATOM     47  N   UNL     1       8.400   2.120   1.471  1.00  0.00    -0.354 N 
ATOM     48  N   UNL     1       8.196  -0.771   0.892  1.00  0.00    -0.248 NA
ATOM     49  C   UNL     1       9.215  -2.831   0.464  1.00  0.00     0.031 C 
ATOM     50  C   UNL     1      10.427   3.003   1.664  1.00  0.00     0.029 A 
ATOM     51  C   UNL     1       9.750   1.817   1.425  1.00  0.00     0.049 A 
ATOM     52  H   UNL     1       7.671   1.473   1.332  1.00  0.00     0.167 HD
ATOM     53  C   UNL     1       9.575  -0.617   0.952  1.00  0.00     0.074 A 
ATOM     54  C   UNL     1      10.152  -1.925   0.708  1.00  0.00     0.031 C 
ATOM     55  C   UNL     1      10.299   0.507   1.174  1.00  0.00     0.037 A 
BRANCH  42  56
ATOM     56  C   UNL     1       6.899   5.603   2.091  1.00  0.00     0.058 A 
ATOM     57  C   UNL     1       6.451   6.101   3.325  1.00  0.00     0.135 A 
ATOM     58  C   UNL     1       7.255   6.527   1.096  1.00  0.00     0.135 A 
ATOM     59  F   UNL     1       6.070   5.256   4.296  1.00  0.00    -0.206 F 
ATOM     60  C   UNL     1       6.329   7.467   3.553  1.00  0.00     0.059 A 
ATOM     61  C   UNL     1       7.159   7.897   1.310  1.00  0.00     0.059 A 
ATOM     62  F   UNL     1       7.673   6.099  -0.105  1.00  0.00    -0.206 F 
ATOM     63  C   UNL     1       6.677   8.357   2.535  1.00  0.00     0.060 A 
BRANCH  63  64
ATOM     64  S   UNL     1       6.481  10.127   2.831  1.00  0.00     0.124 S 
ATOM     65  O   UNL     1       5.033  10.278   2.737  1.00  0.00    -0.237 OA
ATOM     66  O   UNL     1       7.050  10.287   4.165  1.00  0.00    -0.237 OA
ATOM     67  O   UNL     1       7.248  10.738   1.749  1.00  0.00    -0.744 OA
ENDBRANCH  63  64
ENDBRANCH  42  56
BRANCH  43  68
ATOM     68  C   UNL     1       6.644  -4.214   0.117  1.00  0.00     0.058 A 
ATOM     69  C   UNL     1       7.011  -5.151   1.095  1.00  0.00     0.135 A 
ATOM     70  C   UNL     1       6.248  -4.707  -1.137  1.00  0.00     0.135 A 
ATOM     71  F   UNL     1       7.412  -4.735   2.306  1.00  0.00    -0.206 F 
ATOM     72  C   UNL     1       6.995  -6.521   0.840  1.00  0.00     0.059 A 
ATOM     73  C   UNL     1       6.197  -6.072  -1.407  1.00  0.00     0.059 A 
ATOM     74  F   UNL     1       5.881  -3.858  -2.109  1.00  0.00    -0.206 F 
ATOM     75  C   UNL     1       6.584  -6.972  -0.416  1.00  0.00     0.060 A 
BRANCH  75  76
ATOM     76  S   UNL     1       6.511  -8.750  -0.727  1.00  0.00     0.124 S 
ATOM     77  O   UNL     1       7.918  -9.069  -0.939  1.00  0.00    -0.237 OA
ATOM     78  O   UNL     1       5.919  -9.258   0.507  1.00  0.00    -0.237 OA
ATOM     79  O   UNL     1       5.655  -8.847  -1.906  1.00  0.00    -0.744 OA
ENDBRANCH  75  76
ENDBRANCH  43  68
BRANCH  55  80
ATOM     80  C   UNL     1      11.794   0.370   1.171  1.00  0.00     0.058 A 
ATOM     81  C   UNL     1      12.514   0.218  -0.025  1.00  0.00     0.135 A 
ATOM     82  C   UNL     1      12.517   0.446   2.371  1.00  0.00     0.135 A 
ATOM     83  F   UNL     1      11.866   0.132  -1.198  1.00  0.00    -0.206 F 
ATOM     84  C   UNL     1      13.901   0.132  -0.029  1.00  0.00     0.059 A 
ATOM     85  C   UNL     1      13.906   0.384   2.388  1.00  0.00     0.059 A 
ATOM     86  F   UNL     1      11.873   0.598   3.539  1.00  0.00    -0.206 F 
ATOM     87  C   UNL     1      14.589   0.217   1.184  1.00  0.00     0.060 A 
BRANCH  87  88
ATOM     88  S   UNL     1      16.393   0.145   1.166  1.00  0.00     0.124 S 
ATOM     89  O   UNL     1      16.628  -1.281   0.970  1.00  0.00    -0.237 OA
ATOM     90  O   UNL     1      16.731   1.005   0.036  1.00  0.00    -0.237 OA
ATOM     91  O   UNL     1      16.765   0.670   2.477  1.00  0.00    -0.744 OA
ENDBRANCH  87  88
ENDBRANCH  55  80
ENDBRANCH  29  30
ENDBRANCH  22  24
ENDBRANCH  21  22
ENDBRANCH  20  21
ENDBRANCH   1  20
TORSDOF 20
