REMARK SMILES COCCCNC(=O)/C(C#N)=C/c1ccc(C(=O)OCCOC(=O)c2ccc(-c3c4nc(c(-c5c(F)cc(S(=O)(=O)[O-])cc5F)c5ccc([nH]5)c(-c5c(F)cc(S(=O)(=O)[O-])cc5F)c5nc(c(-c6c(F)cc(S(=O)(=O)[O-])cc6F)c6ccc3[nH]6)C=C5)C=C4)cc2)cc1
REMARK SMILES IDX 19 1 17 2 18 3 16 4 13 5 14 6 92 7 15 8 91 9 12 10 9 11 7 12
REMARK SMILES IDX 6 13 8 15 5 16 4 17 3 18 2 19 1 20 10 21 11 22 20 23 21 24
REMARK SMILES IDX 22 25 23 26 24 27 25 28 26 29 90 30 27 31 89 32 28 33 29 34
REMARK SMILES IDX 30 35 83 36 31 37 88 38 82 39 84 40 32 41 87 42 81 43 80 44
REMARK SMILES IDX 33 46 67 47 46 48 66 49 47 50 50 51 65 52 85 53 48 54 49 55
REMARK SMILES IDX 64 57 86 58 51 59 34 60 35 61 44 62 36 63 37 64 43 65 45 66
REMARK SMILES IDX 38 67 39 68 40 69 41 70 42 71 68 72 69 73 78 74 70 75 71 76
REMARK SMILES IDX 77 77 79 78 72 79 73 80 74 81 75 82 76 83 52 84 53 85 62 86
REMARK SMILES IDX 54 87 55 88 61 89 63 90 56 91 57 92 58 93 59 94 60 95
REMARK H PARENT 6 14 84 45 50 56
REMARK Flexibility Score: inf
ROOT
ATOM      1  O   UNL     1      -0.664   4.722  -9.872  1.00  0.00    -0.458 OA
ENDROOT
BRANCH   1   2
ATOM      2  C   UNL     1      -0.254   3.432  -9.865  1.00  0.00     0.338 C 
ATOM      3  O   UNL     1      -0.529   2.578 -10.695  1.00  0.00    -0.246 OA
BRANCH   2   4
ATOM      4  C   UNL     1       0.691   3.181  -8.753  1.00  0.00     0.060 A 
ATOM      5  C   UNL     1       2.406   2.459  -6.668  1.00  0.00    -0.024 A 
ATOM      6  C   UNL     1       2.578   1.893  -7.928  1.00  0.00     0.009 A 
ATOM      7  C   UNL     1       1.429   3.450  -6.470  1.00  0.00     0.009 A 
ATOM      8  C   UNL     1       1.694   2.221  -8.946  1.00  0.00     0.016 A 
ATOM      9  C   UNL     1       0.573   3.815  -7.515  1.00  0.00     0.016 A 
BRANCH   5  10
ATOM     10  C   UNL     1       3.095   1.786  -5.564  1.00  0.00     0.033 C 
ATOM     11  C   UNL     1       2.408   0.985  -4.728  1.00  0.00     0.117 C 
BRANCH  11  12
ATOM     12  C   UNL     1       3.118   0.224  -3.641  1.00  0.00     0.261 C 
ATOM     13  N   UNL     1       2.463  -0.590  -2.746  1.00  0.00    -0.351 N 
ATOM     14  H   UNL     1       3.060  -1.069  -2.127  1.00  0.00     0.163 HD
ATOM     15  O   UNL     1       4.340   0.325  -3.511  1.00  0.00    -0.268 OA
BRANCH  13  16
ATOM     16  C   UNL     1       1.044  -0.871  -2.548  1.00  0.00     0.118 C 
BRANCH  16  17
ATOM     17  C   UNL     1       0.699  -2.150  -1.793  1.00  0.00     0.050 C 
BRANCH  17  18
ATOM     18  C   UNL     1       1.232  -2.303  -0.376  1.00  0.00     0.161 C 
BRANCH  18  19
ATOM     19  O   UNL     1       0.519  -1.538   0.590  1.00  0.00    -0.385 OA
ATOM     20  C   UNL     1       0.955  -0.195   0.717  1.00  0.00     0.194 C 
ENDBRANCH  18  19
ENDBRANCH  17  18
ENDBRANCH  16  17
ENDBRANCH  13  16
ENDBRANCH  11  12
BRANCH  11  21
ATOM     21  C   UNL     1       0.888   0.985  -4.728  1.00  0.00     0.105 C 
ATOM     22  N   UNL     1      -0.373   0.985  -4.728  1.00  0.00    -0.192 NA
ENDBRANCH  11  21
ENDBRANCH   5  10
ENDBRANCH   2   4
ENDBRANCH   1   2
BRANCH   1  23
ATOM     23  C   UNL     1      -1.427   5.119 -11.030  1.00  0.00     0.275 C 
BRANCH  23  24
ATOM     24  C   UNL     1      -0.562   5.934 -11.992  1.00  0.00     0.275 C 
BRANCH  24  25
ATOM     25  O   UNL     1       0.474   5.112 -12.562  1.00  0.00    -0.458 OA
BRANCH  25  26
ATOM     26  C   UNL     1       1.728   5.364 -12.119  1.00  0.00     0.338 C 
ATOM     27  O   UNL     1       2.076   6.231 -11.336  1.00  0.00    -0.246 OA
BRANCH  26  28
ATOM     28  C   UNL     1       2.666   4.366 -12.659  1.00  0.00     0.060 A 
ATOM     29  C   UNL     1       2.588   3.069 -12.172  1.00  0.00     0.016 A 
ATOM     30  C   UNL     1       3.719   4.728 -13.495  1.00  0.00     0.016 A 
ATOM     31  C   UNL     1       3.623   2.167 -12.396  1.00  0.00     0.010 A 
ATOM     32  C   UNL     1       4.678   3.766 -13.850  1.00  0.00     0.010 A 
ATOM     33  C   UNL     1       4.663   2.479 -13.281  1.00  0.00    -0.014 A 
BRANCH  33  34
ATOM     34  C   UNL     1       5.692   1.447 -13.623  1.00  0.00     0.031 A 
ATOM     35  C   UNL     1       7.167   1.747 -13.492  1.00  0.00     0.074 A 
ATOM     36  C   UNL     1       5.303   0.227 -14.058  1.00  0.00     0.049 A 
ATOM     37  N   UNL     1       8.192   1.051 -13.915  1.00  0.00    -0.248 NA
ATOM     38  C   UNL     1       7.542   2.996 -12.807  1.00  0.00     0.031 C 
ATOM     39  C   UNL     1       3.913  -0.219 -14.207  1.00  0.00     0.029 A 
ATOM     40  N   UNL     1       6.033  -0.868 -14.456  1.00  0.00    -0.354 N 
ATOM     41  C   UNL     1       9.323   1.799 -13.605  1.00  0.00     0.074 A 
ATOM     42  C   UNL     1       8.861   3.006 -12.953  1.00  0.00     0.031 C 
ATOM     43  C   UNL     1       3.892  -1.495 -14.614  1.00  0.00     0.029 A 
ATOM     44  C   UNL     1       5.257  -1.924 -14.880  1.00  0.00     0.049 A 
ATOM     45  H   UNL     1       7.017  -0.895 -14.440  1.00  0.00     0.167 HD
ATOM     46  C   UNL     1      10.625   1.506 -13.846  1.00  0.00     0.037 A 
ATOM     47  C   UNL     1       5.585  -3.083 -15.482  1.00  0.00     0.037 A 
ATOM     48  C   UNL     1      11.077   0.275 -14.447  1.00  0.00     0.049 A 
ATOM     49  C   UNL     1       7.029  -3.360 -15.783  1.00  0.00     0.074 A 
ATOM     50  C   UNL     1      12.378  -0.131 -14.698  1.00  0.00     0.029 A 
ATOM     51  N   UNL     1      10.251  -0.749 -14.886  1.00  0.00    -0.354 N 
ATOM     52  N   UNL     1       8.082  -2.629 -15.503  1.00  0.00    -0.248 NA
ATOM     53  C   UNL     1       7.332  -4.606 -16.499  1.00  0.00     0.031 C 
ATOM     54  C   UNL     1      12.335  -1.373 -15.339  1.00  0.00     0.029 A 
ATOM     55  C   UNL     1      11.012  -1.770 -15.434  1.00  0.00     0.049 A 
ATOM     56  H   UNL     1       9.269  -0.750 -14.819  1.00  0.00     0.167 HD
ATOM     57  C   UNL     1       9.172  -3.332 -16.000  1.00  0.00     0.074 A 
ATOM     58  C   UNL     1       8.655  -4.559 -16.570  1.00  0.00     0.031 C 
ATOM     59  C   UNL     1      10.483  -2.988 -15.994  1.00  0.00     0.037 A 
BRANCH  46  60
ATOM     60  C   UNL     1      11.670   2.533 -13.496  1.00  0.00     0.058 A 
ATOM     61  C   UNL     1      12.043   2.802 -12.170  1.00  0.00     0.135 A 
ATOM     62  C   UNL     1      12.377   3.192 -14.518  1.00  0.00     0.135 A 
ATOM     63  F   UNL     1      11.395   2.214 -11.153  1.00  0.00    -0.206 F 
ATOM     64  C   UNL     1      13.073   3.691 -11.870  1.00  0.00     0.059 A 
ATOM     65  C   UNL     1      13.427   4.064 -14.242  1.00  0.00     0.059 A 
ATOM     66  F   UNL     1      12.063   2.974 -15.805  1.00  0.00    -0.206 F 
ATOM     67  C   UNL     1      13.765   4.311 -12.913  1.00  0.00     0.060 A 
BRANCH  67  68
ATOM     68  S   UNL     1      15.126   5.426 -12.506  1.00  0.00     0.124 S 
ATOM     69  O   UNL     1      14.411   6.564 -11.935  1.00  0.00    -0.237 OA
ATOM     70  O   UNL     1      15.908   4.632 -11.564  1.00  0.00    -0.237 OA
ATOM     71  O   UNL     1      15.764   5.672 -13.796  1.00  0.00    -0.744 OA
ENDBRANCH  67  68
ENDBRANCH  46  60
BRANCH  47  72
ATOM     72  C   UNL     1       4.519  -4.031 -15.916  1.00  0.00     0.058 A 
ATOM     73  C   UNL     1       4.403  -5.307 -15.347  1.00  0.00     0.135 A 
ATOM     74  C   UNL     1       3.598  -3.679 -16.918  1.00  0.00     0.135 A 
ATOM     75  F   UNL     1       5.263  -5.697 -14.393  1.00  0.00    -0.206 F 
ATOM     76  C   UNL     1       3.430  -6.208 -15.769  1.00  0.00     0.059 A 
ATOM     77  C   UNL     1       2.593  -4.547 -17.330  1.00  0.00     0.059 A 
ATOM     78  F   UNL     1       3.654  -2.465 -17.489  1.00  0.00    -0.206 F 
ATOM     79  C   UNL     1       2.529  -5.818 -16.762  1.00  0.00     0.060 A 
BRANCH  79  80
ATOM     80  S   UNL     1       1.257  -6.985 -17.290  1.00  0.00     0.124 S 
ATOM     81  O   UNL     1       2.039  -7.933 -18.074  1.00  0.00    -0.237 OA
ATOM     82  O   UNL     1       0.745  -7.478 -16.015  1.00  0.00    -0.237 OA
ATOM     83  O   UNL     1       0.330  -6.150 -18.049  1.00  0.00    -0.744 OA
ENDBRANCH  79  80
ENDBRANCH  47  72
BRANCH  59  84
ATOM     84  C   UNL     1      11.451  -3.968 -16.596  1.00  0.00     0.058 A 
ATOM     85  C   UNL     1      11.520  -4.178 -17.982  1.00  0.00     0.135 A 
ATOM     86  C   UNL     1      12.342  -4.681 -15.778  1.00  0.00     0.135 A 
ATOM     87  F   UNL     1      10.682  -3.530 -18.806  1.00  0.00    -0.206 F 
ATOM     88  C   UNL     1      12.422  -5.081 -18.535  1.00  0.00     0.059 A 
ATOM     89  C   UNL     1      13.273  -5.565 -16.312  1.00  0.00     0.059 A 
ATOM     90  F   UNL     1      12.322  -4.512 -14.446  1.00  0.00    -0.206 F 
ATOM     91  C   UNL     1      13.296  -5.768 -17.691  1.00  0.00     0.060 A 
BRANCH  91  92
ATOM     92  S   UNL     1      14.482  -6.914 -18.425  1.00  0.00     0.124 S 
ATOM     93  O   UNL     1      13.617  -8.021 -18.817  1.00  0.00    -0.237 OA
ATOM     94  O   UNL     1      15.040  -6.126 -19.520  1.00  0.00    -0.237 OA
ATOM     95  O   UNL     1      15.405  -7.196 -17.330  1.00  0.00    -0.744 OA
ENDBRANCH  91  92
ENDBRANCH  59  84
ENDBRANCH  33  34
ENDBRANCH  26  28
ENDBRANCH  25  26
ENDBRANCH  24  25
ENDBRANCH  23  24
ENDBRANCH   1  23
TORSDOF 21
