REMARK SMILES COc1ccc([C@@H](CC(=O)OCCOC(=O)c2ccc(-c3c4nc(c(-c5c(F)cc(S(=O)(=O)[O-])cc5F)c5ccc([nH]5)c(-c5c(F)cc(S(=O)(=O)[O-])cc5F)c5nc(c(-c6c(F)cc(S(=O)(=O)[O-])cc6F)c6ccc3[nH]6)C=C5)C=C4)cc2)NC(=O)c2ccc(Cl)c([N+](=O)[O-])c2)cc1
REMARK SMILES IDX 12 1 11 2 9 3 10 4 8 5 7 6 6 7 3 8 4 9 97 10 5 11 96 12 2 13
REMARK SMILES IDX 1 14 83 15 84 16 85 18 86 19 87 20 95 21 88 22 91 23 89 24
REMARK SMILES IDX 90 25 92 26 93 27 94 28 13 29 14 30 15 31 16 32 17 33 18 34
REMARK SMILES IDX 82 35 19 36 81 37 20 38 21 39 22 40 75 41 23 42 80 43 74 44
REMARK SMILES IDX 76 45 24 46 79 47 73 48 72 49 25 51 59 52 38 53 58 54 39 55
REMARK SMILES IDX 42 56 57 57 77 58 40 59 41 60 56 62 78 63 43 64 26 65 27 66
REMARK SMILES IDX 36 67 28 68 29 69 35 70 37 71 30 72 31 73 32 74 33 75 34 76
REMARK SMILES IDX 60 77 61 78 70 79 62 80 63 81 69 82 71 83 64 84 65 85 66 86
REMARK SMILES IDX 67 87 68 88 44 89 45 90 54 91 46 92 47 93 53 94 55 95 48 96
REMARK SMILES IDX 49 97 50 98 51 99 52 100
REMARK H PARENT 83 17 76 50 42 61
REMARK Flexibility Score: inf
ROOT
ATOM      1  C   UNL     1      -1.398   2.923   6.193  1.00  0.00     0.274 C 
ENDROOT
BRANCH   1   2
ATOM      2  O   UNL     1      -0.156   2.223   5.966  1.00  0.00    -0.462 OA
BRANCH   2   3
ATOM      3  C   UNL     1       0.836   2.428   6.861  1.00  0.00     0.308 C 
ATOM      4  O   UNL     1       0.741   3.171   7.832  1.00  0.00    -0.252 OA
BRANCH   3   5
ATOM      5  C   UNL     1       2.139   1.743   6.515  1.00  0.00     0.152 C 
BRANCH   5   6
ATOM      6  C   UNL     1       2.135   0.303   5.975  1.00  0.00     0.123 C 
BRANCH   6   7
ATOM      7  C   UNL     1       1.695   0.220   4.521  1.00  0.00    -0.025 A 
ATOM      8  C   UNL     1       0.930   0.378   1.821  1.00  0.00     0.118 A 
ATOM      9  C   UNL     1      -0.026   0.146   2.805  1.00  0.00     0.047 A 
ATOM     10  C   UNL     1       2.271   0.514   2.168  1.00  0.00     0.047 A 
ATOM     11  C   UNL     1       0.358   0.038   4.143  1.00  0.00     0.010 A 
ATOM     12  C   UNL     1       2.650   0.435   3.510  1.00  0.00     0.010 A 
BRANCH   8  13
ATOM     13  O   UNL     1       0.473   0.561   0.545  1.00  0.00    -0.497 OA
ATOM     14  C   UNL     1       1.100  -0.313  -0.388  1.00  0.00     0.278 C 
ENDBRANCH   8  13
ENDBRANCH   6   7
BRANCH   6  15
ATOM     15  N   UNL     1       1.468  -0.665   6.839  1.00  0.00    -0.345 N 
ATOM     16  C   UNL     1       1.950  -1.783   7.472  1.00  0.00     0.252 C 
ATOM     17  H   UNL     1       0.513  -0.485   6.994  1.00  0.00     0.164 HD
ATOM     18  O   UNL     1       1.187  -2.605   7.968  1.00  0.00    -0.269 OA
BRANCH  16  19
ATOM     19  C   UNL     1       3.401  -2.034   7.565  1.00  0.00     0.046 A 
ATOM     20  C   UNL     1       3.891  -3.290   7.190  1.00  0.00     0.016 A 
ATOM     21  C   UNL     1       4.272  -1.068   8.069  1.00  0.00     0.101 A 
ATOM     22  C   UNL     1       5.264  -3.553   7.243  1.00  0.00     0.028 A 
ATOM     23  C   UNL     1       5.650  -1.337   8.102  1.00  0.00     0.288 A 
ATOM     24  C   UNL     1       6.160  -2.567   7.676  1.00  0.00     0.118 A 
ATOM     25  Cl  UNL     1       7.841  -2.942   7.569  1.00  0.00    -0.077 Cl
BRANCH  23  26
ATOM     26  N   UNL     1       6.523  -0.255   8.526  1.00  0.00     0.064 N 
ATOM     27  O   UNL     1       7.437  -0.511   9.317  1.00  0.00    -0.258 OA
ATOM     28  O   UNL     1       6.262   0.870   8.073  1.00  0.00    -0.258 OA
ENDBRANCH  23  26
ENDBRANCH  16  19
ENDBRANCH   6  15
ENDBRANCH   5   6
ENDBRANCH   3   5
ENDBRANCH   2   3
ENDBRANCH   1   2
BRANCH   1  29
ATOM     29  C   UNL     1      -2.459   2.023   6.834  1.00  0.00     0.275 C 
BRANCH  29  30
ATOM     30  O   UNL     1      -2.120   1.688   8.191  1.00  0.00    -0.458 OA
BRANCH  30  31
ATOM     31  C   UNL     1      -1.434   0.530   8.332  1.00  0.00     0.338 C 
ATOM     32  O   UNL     1      -1.134  -0.246   7.440  1.00  0.00    -0.246 OA
BRANCH  31  33
ATOM     33  C   UNL     1      -0.941   0.407   9.711  1.00  0.00     0.060 A 
ATOM     34  C   UNL     1       0.421   0.611   9.950  1.00  0.00     0.016 A 
ATOM     35  C   UNL     1      -1.794   0.032  10.748  1.00  0.00     0.016 A 
ATOM     36  C   UNL     1       0.941   0.442  11.228  1.00  0.00     0.010 A 
ATOM     37  C   UNL     1      -1.272  -0.127  12.036  1.00  0.00     0.010 A 
ATOM     38  C   UNL     1       0.098   0.072  12.282  1.00  0.00    -0.014 A 
BRANCH  38  39
ATOM     39  C   UNL     1       0.662  -0.117  13.639  1.00  0.00     0.031 A 
ATOM     40  C   UNL     1       0.821  -1.501  14.199  1.00  0.00     0.074 A 
ATOM     41  C   UNL     1       1.040   0.957  14.356  1.00  0.00     0.049 A 
ATOM     42  N   UNL     1       1.215  -1.867  15.391  1.00  0.00    -0.248 NA
ATOM     43  C   UNL     1       0.492  -2.619  13.301  1.00  0.00     0.031 C 
ATOM     44  C   UNL     1       0.965   2.346  13.898  1.00  0.00     0.029 A 
ATOM     45  N   UNL     1       1.557   1.051  15.623  1.00  0.00    -0.354 N 
ATOM     46  C   UNL     1       1.161  -3.255  15.398  1.00  0.00     0.074 A 
ATOM     47  C   UNL     1       0.683  -3.665  14.094  1.00  0.00     0.031 C 
ATOM     48  C   UNL     1       1.419   3.153  14.871  1.00  0.00     0.029 A 
ATOM     49  C   UNL     1       1.774   2.344  16.033  1.00  0.00     0.049 A 
ATOM     50  H   UNL     1       1.754   0.266  16.184  1.00  0.00     0.167 HD
ATOM     51  C   UNL     1       1.483  -4.106  16.402  1.00  0.00     0.037 A 
ATOM     52  C   UNL     1       2.186   2.825  17.222  1.00  0.00     0.037 A 
ATOM     53  C   UNL     1       1.970  -3.688  17.692  1.00  0.00     0.049 A 
ATOM     54  C   UNL     1       2.502   1.861  18.332  1.00  0.00     0.074 A 
ATOM     55  C   UNL     1       2.334  -4.474  18.771  1.00  0.00     0.029 A 
ATOM     56  N   UNL     1       2.164  -2.369  18.076  1.00  0.00    -0.354 N 
ATOM     57  N   UNL     1       2.437   0.550  18.328  1.00  0.00    -0.248 NA
ATOM     58  C   UNL     1       2.942   2.439  19.609  1.00  0.00     0.031 C 
ATOM     59  C   UNL     1       2.716  -3.629  19.820  1.00  0.00     0.029 A 
ATOM     60  C   UNL     1       2.628  -2.317  19.381  1.00  0.00     0.049 A 
ATOM     61  H   UNL     1       1.997  -1.584  17.505  1.00  0.00     0.167 HD
ATOM     62  C   UNL     1       2.845   0.146  19.594  1.00  0.00     0.074 A 
ATOM     63  C   UNL     1       3.167   1.351  20.333  1.00  0.00     0.031 C 
ATOM     64  C   UNL     1       2.945  -1.108  20.099  1.00  0.00     0.037 A 
BRANCH  51  65
ATOM     65  C   UNL     1       1.290  -5.575  16.152  1.00  0.00     0.058 A 
ATOM     66  C   UNL     1       2.156  -6.303  15.321  1.00  0.00     0.135 A 
ATOM     67  C   UNL     1       0.240  -6.270  16.773  1.00  0.00     0.135 A 
ATOM     68  F   UNL     1       3.166  -5.685  14.689  1.00  0.00    -0.206 F 
ATOM     69  C   UNL     1       1.971  -7.664  15.094  1.00  0.00     0.059 A 
ATOM     70  C   UNL     1       0.050  -7.635  16.579  1.00  0.00     0.059 A 
ATOM     71  F   UNL     1      -0.617  -5.620  17.577  1.00  0.00    -0.206 F 
ATOM     72  C   UNL     1       0.913  -8.320  15.725  1.00  0.00     0.060 A 
BRANCH  72  73
ATOM     73  S   UNL     1       0.683 -10.086  15.422  1.00  0.00     0.124 S 
ATOM     74  O   UNL     1       0.109 -10.079  14.080  1.00  0.00    -0.237 OA
ATOM     75  O   UNL     1       2.044 -10.603  15.525  1.00  0.00    -0.237 OA
ATOM     76  O   UNL     1      -0.222 -10.499  16.490  1.00  0.00    -0.744 OA
ENDBRANCH  72  73
ENDBRANCH  51  65
BRANCH  52  77
ATOM     77  C   UNL     1       2.307   4.292  17.425  1.00  0.00     0.058 A 
ATOM     78  C   UNL     1       3.562   4.907  17.534  1.00  0.00     0.135 A 
ATOM     79  C   UNL     1       1.168   5.109  17.496  1.00  0.00     0.135 A 
ATOM     80  F   UNL     1       4.679   4.165  17.482  1.00  0.00    -0.206 F 
ATOM     81  C   UNL     1       3.686   6.280  17.716  1.00  0.00     0.059 A 
ATOM     82  C   UNL     1       1.267   6.488  17.654  1.00  0.00     0.059 A 
ATOM     83  F   UNL     1      -0.056   4.570  17.385  1.00  0.00    -0.206 F 
ATOM     84  C   UNL     1       2.531   7.063  17.772  1.00  0.00     0.060 A 
BRANCH  84  85
ATOM     85  S   UNL     1       2.701   8.852  17.953  1.00  0.00     0.124 S 
ATOM     86  O   UNL     1       3.026   8.974  19.370  1.00  0.00    -0.237 OA
ATOM     87  O   UNL     1       3.782   9.157  17.021  1.00  0.00    -0.237 OA
ATOM     88  O   UNL     1       1.387   9.354  17.561  1.00  0.00    -0.744 OA
ENDBRANCH  84  85
ENDBRANCH  52  77
BRANCH  64  89
ATOM     89  C   UNL     1       3.447  -1.241  21.509  1.00  0.00     0.058 A 
ATOM     90  C   UNL     1       2.638  -0.925  22.611  1.00  0.00     0.135 A 
ATOM     91  C   UNL     1       4.742  -1.721  21.761  1.00  0.00     0.135 A 
ATOM     92  F   UNL     1       1.394  -0.455  22.424  1.00  0.00    -0.206 F 
ATOM     93  C   UNL     1       3.103  -1.058  23.915  1.00  0.00     0.059 A 
ATOM     94  C   UNL     1       5.221  -1.883  23.057  1.00  0.00     0.059 A 
ATOM     95  F   UNL     1       5.552  -2.046  20.741  1.00  0.00    -0.206 F 
ATOM     96  C   UNL     1       4.398  -1.536  24.128  1.00  0.00     0.060 A 
BRANCH  96  97
ATOM     97  S   UNL     1       4.987  -1.726  25.824  1.00  0.00     0.124 S 
ATOM     98  O   UNL     1       5.296  -0.347  26.184  1.00  0.00    -0.237 OA
ATOM     99  O   UNL     1       3.831  -2.313  26.496  1.00  0.00    -0.237 OA
ATOM    100  O   UNL     1       6.138  -2.614  25.685  1.00  0.00    -0.744 OA
ENDBRANCH  96  97
ENDBRANCH  64  89
ENDBRANCH  38  39
ENDBRANCH  31  33
ENDBRANCH  30  31
ENDBRANCH  29  30
ENDBRANCH   1  29
TORSDOF 20
