REMARK SMILES CCn1ccc([C@@H](C)NC(=O)[C@H](C)n2ccc(C(=O)OCCOC(=O)c3ccc(-c4c5nc(c(-c6c(F)cc(S(=O)(=O)[O-])cc6F)c6ccc([nH]6)c(-c6c(F)cc(S(=O)(=O)[O-])cc6F)c6nc(c(-c7c(F)cc(S(=O)(=O)[O-])cc7F)c7ccc4[nH]7)C=C6)C=C5)cc3)n2)n1
REMARK SMILES IDX 21 1 20 2 18 3 19 4 17 5 14 6 15 7 92 8 16 9 12 10 13 11
REMARK SMILES IDX 10 12 9 13 11 15 7 16 8 17 6 18 3 19 4 20 93 21 5 22 2 23
REMARK SMILES IDX 1 24 22 25 23 26 24 27 25 28 26 29 27 30 91 31 28 32 90 33
REMARK SMILES IDX 29 34 30 35 31 36 84 37 32 38 89 39 83 40 85 41 33 42 88 43
REMARK SMILES IDX 82 44 81 45 34 47 68 48 47 49 67 50 48 51 51 52 66 53 86 54
REMARK SMILES IDX 49 55 50 56 65 58 87 59 52 60 35 61 36 62 45 63 37 64 38 65
REMARK SMILES IDX 44 66 46 67 39 68 40 69 41 70 42 71 43 72 69 73 70 74 79 75
REMARK SMILES IDX 71 76 72 77 78 78 80 79 73 80 74 81 75 82 76 83 77 84 53 85
REMARK SMILES IDX 54 86 63 87 55 88 56 89 62 90 64 91 57 92 58 93 59 94 60 95
REMARK SMILES IDX 61 96
REMARK H PARENT 9 14 85 46 51 57
REMARK Flexibility Score: inf
ROOT
ATOM      1  C   UNL     1      10.450   1.804   3.846  1.00  0.00     0.275 C 
ENDROOT
BRANCH   1   2
ATOM      2  O   UNL     1       9.097   2.178   4.144  1.00  0.00    -0.457 OA
BRANCH   2   3
ATOM      3  C   UNL     1       8.972   3.248   5.001  1.00  0.00     0.358 C 
ATOM      4  O   UNL     1       9.931   3.793   5.545  1.00  0.00    -0.244 OA
BRANCH   3   5
ATOM      5  C   UNL     1       7.602   3.779   5.123  1.00  0.00     0.170 A 
ATOM      6  N   UNL     1       5.495   3.963   5.437  1.00  0.00    -0.260 N 
ATOM      7  C   UNL     1       5.914   5.230   5.134  1.00  0.00     0.110 A 
ATOM      8  N   UNL     1       6.512   3.066   5.483  1.00  0.00    -0.165 NA
ATOM      9  C   UNL     1       7.264   5.147   4.935  1.00  0.00     0.057 A 
BRANCH   6  10
ATOM     10  C   UNL     1       4.146   3.583   5.851  1.00  0.00     0.193 C 
ATOM     11  C   UNL     1       3.063   4.640   5.602  1.00  0.00     0.044 C 
BRANCH  10  12
ATOM     12  C   UNL     1       3.664   2.244   5.314  1.00  0.00     0.245 C 
ATOM     13  N   UNL     1       3.498   1.989   3.988  1.00  0.00    -0.346 N 
ATOM     14  H   UNL     1       2.958   1.191   3.786  1.00  0.00     0.164 HD
ATOM     15  O   UNL     1       3.243   1.381   6.098  1.00  0.00    -0.273 OA
BRANCH  13  16
ATOM     16  C   UNL     1       3.991   2.707   2.814  1.00  0.00     0.130 C 
ATOM     17  C   UNL     1       2.836   3.154   1.923  1.00  0.00     0.038 C 
BRANCH  16  18
ATOM     18  C   UNL     1       4.928   1.802   2.064  1.00  0.00     0.084 A 
ATOM     19  N   UNL     1       6.697   1.208   1.072  1.00  0.00    -0.273 N 
ATOM     20  C   UNL     1       5.917   0.094   1.046  1.00  0.00     0.109 A 
ATOM     21  N   UNL     1       6.109   2.267   1.646  1.00  0.00    -0.176 NA
ATOM     22  C   UNL     1       4.751   0.445   1.682  1.00  0.00     0.047 A 
BRANCH  19  23
ATOM     23  C   UNL     1       8.087   1.300   0.701  1.00  0.00     0.141 C 
ATOM     24  C   UNL     1       8.319   1.889  -0.672  1.00  0.00     0.029 C 
ENDBRANCH  19  23
ENDBRANCH  16  18
ENDBRANCH  13  16
ENDBRANCH  10  12
ENDBRANCH   6  10
ENDBRANCH   3   5
ENDBRANCH   2   3
ENDBRANCH   1   2
BRANCH   1  25
ATOM     25  C   UNL     1      11.017   2.297   2.499  1.00  0.00     0.275 C 
BRANCH  25  26
ATOM     26  O   UNL     1      11.064   3.705   2.208  1.00  0.00    -0.458 OA
BRANCH  26  27
ATOM     27  C   UNL     1       9.893   4.303   1.917  1.00  0.00     0.338 C 
ATOM     28  O   UNL     1       8.923   4.364   2.663  1.00  0.00    -0.246 OA
BRANCH  27  29
ATOM     29  C   UNL     1       9.801   4.856   0.561  1.00  0.00     0.060 A 
ATOM     30  C   UNL     1       8.637   5.576   0.242  1.00  0.00     0.016 A 
ATOM     31  C   UNL     1      10.753   4.565  -0.420  1.00  0.00     0.016 A 
ATOM     32  C   UNL     1       8.411   5.979  -1.062  1.00  0.00     0.010 A 
ATOM     33  C   UNL     1      10.519   4.960  -1.731  1.00  0.00     0.010 A 
ATOM     34  C   UNL     1       9.348   5.657  -2.048  1.00  0.00    -0.014 A 
BRANCH  34  35
ATOM     35  C   UNL     1       9.201   6.306  -3.349  1.00  0.00     0.031 A 
ATOM     36  C   UNL     1       9.406   7.788  -3.287  1.00  0.00     0.074 A 
ATOM     37  C   UNL     1       9.105   5.640  -4.516  1.00  0.00     0.049 A 
ATOM     38  N   UNL     1       8.602   8.738  -3.639  1.00  0.00    -0.248 NA
ATOM     39  C   UNL     1      10.625   8.266  -2.604  1.00  0.00     0.031 C 
ATOM     40  C   UNL     1       9.208   4.197  -4.742  1.00  0.00     0.029 A 
ATOM     41  N   UNL     1       9.014   6.137  -5.780  1.00  0.00    -0.354 N 
ATOM     42  C   UNL     1       9.293   9.927  -3.402  1.00  0.00     0.074 A 
ATOM     43  C   UNL     1      10.442   9.585  -2.610  1.00  0.00     0.031 C 
ATOM     44  C   UNL     1       9.419   3.970  -6.060  1.00  0.00     0.029 A 
ATOM     45  C   UNL     1       9.351   5.232  -6.779  1.00  0.00     0.049 A 
ATOM     46  H   UNL     1       8.733   7.061  -5.971  1.00  0.00     0.167 HD
ATOM     47  C   UNL     1       9.000  11.086  -4.055  1.00  0.00     0.037 A 
ATOM     48  C   UNL     1       9.643   5.526  -8.075  1.00  0.00     0.037 A 
ATOM     49  C   UNL     1       7.678  11.058  -4.618  1.00  0.00     0.049 A 
ATOM     50  C   UNL     1       9.100   6.884  -8.352  1.00  0.00     0.074 A 
ATOM     51  C   UNL     1       6.411  10.905  -4.087  1.00  0.00     0.029 A 
ATOM     52  N   UNL     1       7.547  10.813  -5.963  1.00  0.00    -0.354 N 
ATOM     53  N   UNL     1       7.827   7.172  -8.368  1.00  0.00    -0.248 NA
ATOM     54  C   UNL     1       9.991   8.018  -8.148  1.00  0.00     0.031 C 
ATOM     55  C   UNL     1       5.718  10.085  -5.025  1.00  0.00     0.029 A 
ATOM     56  C   UNL     1       6.579   9.849  -6.098  1.00  0.00     0.049 A 
ATOM     57  H   UNL     1       8.051  11.245  -6.691  1.00  0.00     0.167 HD
ATOM     58  C   UNL     1       7.734   8.418  -7.764  1.00  0.00     0.074 A 
ATOM     59  C   UNL     1       9.107   8.919  -7.713  1.00  0.00     0.031 C 
ATOM     60  C   UNL     1       6.603   8.814  -7.108  1.00  0.00     0.037 A 
BRANCH  47  61
ATOM     61  C   UNL     1      10.044  12.104  -4.447  1.00  0.00     0.058 A 
ATOM     62  C   UNL     1       9.654  13.374  -4.914  1.00  0.00     0.135 A 
ATOM     63  C   UNL     1      11.411  11.785  -4.621  1.00  0.00     0.135 A 
ATOM     64  F   UNL     1       8.374  13.771  -4.827  1.00  0.00    -0.206 F 
ATOM     65  C   UNL     1      10.547  14.244  -5.544  1.00  0.00     0.059 A 
ATOM     66  C   UNL     1      12.328  12.658  -5.192  1.00  0.00     0.059 A 
ATOM     67  F   UNL     1      11.903  10.573  -4.337  1.00  0.00    -0.206 F 
ATOM     68  C   UNL     1      11.881  13.871  -5.686  1.00  0.00     0.060 A 
BRANCH  68  69
ATOM     69  S   UNL     1      13.019  14.946  -6.576  1.00  0.00     0.124 S 
ATOM     70  O   UNL     1      12.525  14.823  -7.943  1.00  0.00    -0.237 OA
ATOM     71  O   UNL     1      12.792  16.233  -5.926  1.00  0.00    -0.237 OA
ATOM     72  O   UNL     1      14.323  14.342  -6.318  1.00  0.00    -0.744 OA
ENDBRANCH  68  69
ENDBRANCH  47  61
BRANCH  48  73
ATOM     73  C   UNL     1      10.678   4.891  -8.942  1.00  0.00     0.058 A 
ATOM     74  C   UNL     1      10.732   5.136 -10.328  1.00  0.00     0.135 A 
ATOM     75  C   UNL     1      11.805   4.249  -8.389  1.00  0.00     0.135 A 
ATOM     76  F   UNL     1       9.719   5.768 -10.940  1.00  0.00    -0.206 F 
ATOM     77  C   UNL     1      11.848   4.801 -11.107  1.00  0.00     0.059 A 
ATOM     78  C   UNL     1      12.922   3.895  -9.146  1.00  0.00     0.059 A 
ATOM     79  F   UNL     1      11.900   4.026  -7.070  1.00  0.00    -0.206 F 
ATOM     80  C   UNL     1      12.949   4.195 -10.501  1.00  0.00     0.060 A 
BRANCH  80  81
ATOM     81  S   UNL     1      14.460   3.912 -11.456  1.00  0.00     0.124 S 
ATOM     82  O   UNL     1      14.048   2.845 -12.362  1.00  0.00    -0.237 OA
ATOM     83  O   UNL     1      14.689   5.216 -12.066  1.00  0.00    -0.237 OA
ATOM     84  O   UNL     1      15.434   3.523 -10.439  1.00  0.00    -0.744 OA
ENDBRANCH  80  81
ENDBRANCH  48  73
BRANCH  60  85
ATOM     85  C   UNL     1       5.352   7.983  -7.255  1.00  0.00     0.058 A 
ATOM     86  C   UNL     1       5.233   6.644  -6.839  1.00  0.00     0.135 A 
ATOM     87  C   UNL     1       4.178   8.623  -7.679  1.00  0.00     0.135 A 
ATOM     88  F   UNL     1       6.278   5.987  -6.318  1.00  0.00    -0.206 F 
ATOM     89  C   UNL     1       4.014   5.964  -6.880  1.00  0.00     0.059 A 
ATOM     90  C   UNL     1       2.945   7.975  -7.697  1.00  0.00     0.059 A 
ATOM     91  F   UNL     1       4.208   9.919  -8.031  1.00  0.00    -0.206 F 
ATOM     92  C   UNL     1       2.872   6.640  -7.308  1.00  0.00     0.060 A 
BRANCH  92  93
ATOM     93  S   UNL     1       1.282   5.785  -7.284  1.00  0.00     0.124 S 
ATOM     94  O   UNL     1       1.427   4.836  -8.382  1.00  0.00    -0.237 OA
ATOM     95  O   UNL     1       1.252   5.205  -5.944  1.00  0.00    -0.237 OA
ATOM     96  O   UNL     1       0.315   6.857  -7.510  1.00  0.00    -0.744 OA
ENDBRANCH  92  93
ENDBRANCH  60  85
ENDBRANCH  34  35
ENDBRANCH  27  29
ENDBRANCH  26  27
ENDBRANCH  25  26
ENDBRANCH   1  25
TORSDOF 19
