REMARK SMILES C=CC[N@@H+](CC(=O)OCCOC(=O)c1ccc(-c2c3nc(c(-c4c(F)cc(S(=O)(=O)[O-])cc4F)c4ccc([nH]4)c(-c4c(F)cc(S(=O)(=O)[O-])cc4F)c4nc(c(-c5c(F)cc(S(=O)(=O)[O-])cc5F)c5ccc2[nH]5)C=C4)C=C3)cc1)[C@@H]1CCC[C@H](C(C)(C)C)CC1
REMARK SMILES IDX 8 1 6 2 7 3 5 4 4 5 3 7 2 8 1 9 80 10 81 11 82 12 90 14
REMARK SMILES IDX 89 15 84 16 83 17 85 19 86 20 87 21 88 22 9 23 10 24 11 25
REMARK SMILES IDX 12 26 13 27 14 28 15 29 79 30 16 31 78 32 17 33 18 34 19 35
REMARK SMILES IDX 72 36 20 37 77 38 71 39 73 40 21 41 76 42 70 43 69 44 22 46
REMARK SMILES IDX 56 47 35 48 55 49 36 50 39 51 54 52 74 53 37 54 38 55 53 57
REMARK SMILES IDX 75 58 40 59 23 60 24 61 33 62 25 63 26 64 32 65 34 66 27 67
REMARK SMILES IDX 28 68 29 69 30 70 31 71 57 72 58 73 67 74 59 75 60 76 66 77
REMARK SMILES IDX 68 78 61 79 62 80 63 81 64 82 65 83 41 84 42 85 51 86 43 87
REMARK SMILES IDX 44 88 50 89 52 90 45 91 46 92 47 93 48 94 49 95
REMARK H PARENT 4 6 73 45 39 56
REMARK Flexibility Score: 90.00
ROOT
ATOM      1  O   UNL     1      -3.176  -0.491  -0.189  1.00  0.00    -0.458 OA
ENDROOT
BRANCH   1   2
ATOM      2  C   UNL     1      -3.655  -0.546   1.080  1.00  0.00     0.361 C 
ATOM      3  O   UNL     1      -4.848  -0.664   1.352  1.00  0.00    -0.245 OA
BRANCH   2   4
ATOM      4  C   UNL     1      -2.606  -0.334   2.175  1.00  0.00     0.387 C 
BRANCH   4   5
ATOM      5  N   UNL     1      -1.160  -0.445   1.837  1.00  0.00    -0.320 N 
ATOM      6  H   UNL     1      -0.660  -0.235   2.701  1.00  0.00     0.349 HD
BRANCH   5   7
ATOM      7  C   UNL     1      -0.797   0.564   0.822  1.00  0.00     0.291 C 
BRANCH   7   8
ATOM      8  C   UNL     1       0.578   1.137   0.979  1.00  0.00     0.025 C 
ATOM      9  C   UNL     1       1.475   1.194  -0.017  1.00  0.00     0.010 C 
ENDBRANCH   7   8
ENDBRANCH   5   7
BRANCH   5  10
ATOM     10  C   UNL     1      -0.646  -1.816   1.538  1.00  0.00     0.184 C 
BRANCH  10  11
ATOM     11  C   UNL     1      -1.421  -2.957   2.237  1.00  0.00     0.065 C 
BRANCH  11  12
ATOM     12  C   UNL     1      -0.748  -4.331   2.170  1.00  0.00     0.006 CG0
ATOM     13  G   UNL     1       0.123  -4.630   3.396  1.00  0.00     0.000 G0
ENDBRANCH  11  12
ENDBRANCH  10  11
BRANCH  10  14
ATOM     14  C   UNL     1       0.859  -1.963   1.860  1.00  0.00     0.065 C 
BRANCH  14  15
ATOM     15  C   UNL     1       1.187  -2.277   3.327  1.00  0.00     0.010 C 
BRANCH  15  16
ATOM     16  C   UNL     1       1.416  -3.791   3.574  1.00  0.00    -0.005 C 
BRANCH  16  17
ATOM     17  C   UNL     1       0.123  -4.630   3.396  1.00  0.00     0.004 CG0
ATOM     18  G   UNL     1      -0.748  -4.331   2.170  1.00  0.00     0.000 G0
ENDBRANCH  16  17
BRANCH  16  19
ATOM     19  C   UNL     1       2.147  -4.095   4.949  1.00  0.00    -0.035 C 
ATOM     20  C   UNL     1       2.532  -5.590   5.029  1.00  0.00     0.011 C 
ATOM     21  C   UNL     1       3.462  -3.289   5.069  1.00  0.00     0.011 C 
ATOM     22  C   UNL     1       1.274  -3.756   6.172  1.00  0.00     0.011 C 
ENDBRANCH  16  19
ENDBRANCH  15  16
ENDBRANCH  14  15
ENDBRANCH  10  14
ENDBRANCH   5  10
ENDBRANCH   4   5
ENDBRANCH   2   4
ENDBRANCH   1   2
BRANCH   1  23
ATOM     23  C   UNL     1      -4.146  -0.501  -1.257  1.00  0.00     0.274 C 
BRANCH  23  24
ATOM     24  C   UNL     1      -4.156  -1.853  -1.956  1.00  0.00     0.275 C 
BRANCH  24  25
ATOM     25  O   UNL     1      -4.591  -2.853  -1.023  1.00  0.00    -0.458 OA
BRANCH  25  26
ATOM     26  C   UNL     1      -3.789  -3.935  -0.914  1.00  0.00     0.338 C 
ATOM     27  O   UNL     1      -2.801  -4.188  -1.582  1.00  0.00    -0.246 OA
BRANCH  26  28
ATOM     28  C   UNL     1      -4.271  -4.810   0.171  1.00  0.00     0.060 A 
ATOM     29  C   UNL     1      -4.622  -4.279   1.415  1.00  0.00     0.016 A 
ATOM     30  C   UNL     1      -4.226  -6.192  -0.015  1.00  0.00     0.016 A 
ATOM     31  C   UNL     1      -4.798  -5.130   2.505  1.00  0.00     0.010 A 
ATOM     32  C   UNL     1      -4.509  -7.043   1.055  1.00  0.00     0.010 A 
ATOM     33  C   UNL     1      -4.744  -6.523   2.339  1.00  0.00    -0.014 A 
BRANCH  33  34
ATOM     34  C   UNL     1      -4.880  -7.438   3.505  1.00  0.00     0.031 A 
ATOM     35  C   UNL     1      -3.767  -8.397   3.850  1.00  0.00     0.074 A 
ATOM     36  C   UNL     1      -5.998  -7.418   4.256  1.00  0.00     0.049 A 
ATOM     37  N   UNL     1      -3.764  -9.389   4.704  1.00  0.00    -0.248 NA
ATOM     38  C   UNL     1      -2.496  -8.230   3.125  1.00  0.00     0.031 C 
ATOM     39  C   UNL     1      -7.142  -6.526   4.055  1.00  0.00     0.029 A 
ATOM     40  N   UNL     1      -6.356  -8.174   5.344  1.00  0.00    -0.354 N 
ATOM     41  C   UNL     1      -2.521  -9.998   4.578  1.00  0.00     0.074 A 
ATOM     42  C   UNL     1      -1.792  -9.263   3.566  1.00  0.00     0.031 C 
ATOM     43  C   UNL     1      -8.057  -6.762   5.007  1.00  0.00     0.029 A 
ATOM     44  C   UNL     1      -7.601  -7.869   5.839  1.00  0.00     0.049 A 
ATOM     45  H   UNL     1      -5.777  -8.868   5.733  1.00  0.00     0.167 HD
ATOM     46  C   UNL     1      -2.033 -11.075   5.241  1.00  0.00     0.037 A 
ATOM     47  C   UNL     1      -8.315  -8.437   6.829  1.00  0.00     0.037 A 
ATOM     48  C   UNL     1      -2.737 -11.770   6.287  1.00  0.00     0.049 A 
ATOM     49  C   UNL     1      -7.747  -9.616   7.563  1.00  0.00     0.074 A 
ATOM     50  C   UNL     1      -2.322 -12.864   7.029  1.00  0.00     0.029 A 
ATOM     51  N   UNL     1      -3.995 -11.424   6.758  1.00  0.00    -0.354 N 
ATOM     52  N   UNL     1      -6.597 -10.221   7.385  1.00  0.00    -0.248 NA
ATOM     53  C   UNL     1      -8.582 -10.202   8.620  1.00  0.00     0.031 C 
ATOM     54  C   UNL     1      -3.338 -13.190   7.936  1.00  0.00     0.029 A 
ATOM     55  C   UNL     1      -4.372 -12.282   7.778  1.00  0.00     0.049 A 
ATOM     56  H   UNL     1      -4.540 -10.679   6.416  1.00  0.00     0.167 HD
ATOM     57  C   UNL     1      -6.571 -11.261   8.305  1.00  0.00     0.074 A 
ATOM     58  C   UNL     1      -7.809 -11.187   9.055  1.00  0.00     0.031 C 
ATOM     59  C   UNL     1      -5.612 -12.198   8.505  1.00  0.00     0.037 A 
BRANCH  46  60
ATOM     60  C   UNL     1      -0.679 -11.586   4.834  1.00  0.00     0.058 A 
ATOM     61  C   UNL     1       0.504 -10.929   5.202  1.00  0.00     0.135 A 
ATOM     62  C   UNL     1      -0.567 -12.768   4.083  1.00  0.00     0.135 A 
ATOM     63  F   UNL     1       0.452  -9.785   5.902  1.00  0.00    -0.206 F 
ATOM     64  C   UNL     1       1.753 -11.414   4.822  1.00  0.00     0.059 A 
ATOM     65  C   UNL     1       0.671 -13.282   3.709  1.00  0.00     0.059 A 
ATOM     66  F   UNL     1      -1.669 -13.434   3.702  1.00  0.00    -0.206 F 
ATOM     67  C   UNL     1       1.825 -12.589   4.071  1.00  0.00     0.060 A 
BRANCH  67  68
ATOM     68  S   UNL     1       3.449 -13.213   3.584  1.00  0.00     0.124 S 
ATOM     69  O   UNL     1       3.766 -12.344   2.455  1.00  0.00    -0.237 OA
ATOM     70  O   UNL     1       4.245 -13.002   4.789  1.00  0.00    -0.237 OA
ATOM     71  O   UNL     1       3.187 -14.610   3.248  1.00  0.00    -0.744 OA
ENDBRANCH  67  68
ENDBRANCH  46  60
BRANCH  47  72
ATOM     72  C   UNL     1      -9.662  -7.907   7.159  1.00  0.00     0.058 A 
ATOM     73  C   UNL     1      -9.873  -7.158   8.324  1.00  0.00     0.135 A 
ATOM     74  C   UNL     1     -10.751  -8.104   6.296  1.00  0.00     0.135 A 
ATOM     75  F   UNL     1      -8.862  -6.952   9.182  1.00  0.00    -0.206 F 
ATOM     76  C   UNL     1     -11.120  -6.620   8.626  1.00  0.00     0.059 A 
ATOM     77  C   UNL     1     -12.001  -7.559   6.565  1.00  0.00     0.059 A 
ATOM     78  F   UNL     1     -10.591  -8.802   5.161  1.00  0.00    -0.206 F 
ATOM     79  C   UNL     1     -12.177  -6.823   7.737  1.00  0.00     0.060 A 
BRANCH  79  80
ATOM     80  S   UNL     1     -13.775  -6.057   8.087  1.00  0.00     0.124 S 
ATOM     81  O   UNL     1     -14.351  -7.004   9.035  1.00  0.00    -0.237 OA
ATOM     82  O   UNL     1     -13.388  -4.761   8.636  1.00  0.00    -0.237 OA
ATOM     83  O   UNL     1     -14.412  -6.006   6.775  1.00  0.00    -0.744 OA
ENDBRANCH  79  80
ENDBRANCH  47  72
BRANCH  59  84
ATOM     84  C   UNL     1      -5.872 -13.208   9.584  1.00  0.00     0.058 A 
ATOM     85  C   UNL     1      -6.760 -14.276   9.385  1.00  0.00     0.135 A 
ATOM     86  C   UNL     1      -5.229 -13.106  10.827  1.00  0.00     0.135 A 
ATOM     87  F   UNL     1      -7.404 -14.410   8.215  1.00  0.00    -0.206 F 
ATOM     88  C   UNL     1      -7.028 -15.193  10.396  1.00  0.00     0.059 A 
ATOM     89  C   UNL     1      -5.469 -14.022  11.846  1.00  0.00     0.059 A 
ATOM     90  F   UNL     1      -4.365 -12.105  11.062  1.00  0.00    -0.206 F 
ATOM     91  C   UNL     1      -6.385 -15.051  11.627  1.00  0.00     0.060 A 
BRANCH  91  92
ATOM     92  S   UNL     1      -6.739 -16.240  12.939  1.00  0.00     0.124 S 
ATOM     93  O   UNL     1      -7.989 -15.716  13.477  1.00  0.00    -0.237 OA
ATOM     94  O   UNL     1      -6.841 -17.500  12.210  1.00  0.00    -0.237 OA
ATOM     95  O   UNL     1      -5.578 -16.125  13.817  1.00  0.00    -0.744 OA
ENDBRANCH  91  92
ENDBRANCH  59  84
ENDBRANCH  33  34
ENDBRANCH  26  28
ENDBRANCH  25  26
ENDBRANCH  24  25
ENDBRANCH  23  24
ENDBRANCH   1  23
TORSDOF 19
