REMARK SMILES CS(=O)(=O)c1ccc(N2N=C(C(=O)OCCOC(=O)c3ccc(-c4c5nc(c(-c6c(F)cc(S(=O)(=O)[O-])cc6F)c6ccc([nH]6)c(-c6c(F)cc(S(=O)(=O)[O-])cc6F)c6nc(c(-c7c(F)cc(S(=O)(=O)[O-])cc7F)c7ccc4[nH]7)C=C6)C=C5)cc3)C[C@H]2c2cccs2)cc1
REMARK SMILES IDX 16 1 15 2 14 3 12 4 13 5 11 6 9 7 10 8 87 9 86 10 8 11 5 12
REMARK SMILES IDX 6 13 94 14 7 15 93 16 2 17 1 18 3 19 4 20 88 21 89 22 92 23
REMARK SMILES IDX 90 24 91 25 17 26 18 27 19 28 20 29 21 30 85 31 22 32 84 33
REMARK SMILES IDX 23 34 24 35 25 36 78 37 26 38 83 39 77 40 79 41 27 42 82 43
REMARK SMILES IDX 76 44 75 45 28 47 62 48 41 49 61 50 42 51 45 52 60 53 80 54
REMARK SMILES IDX 43 55 44 56 59 58 81 59 46 60 29 61 30 62 39 63 31 64 32 65
REMARK SMILES IDX 38 66 40 67 33 68 34 69 35 70 36 71 37 72 63 73 64 74 73 75
REMARK SMILES IDX 65 76 66 77 72 78 74 79 67 80 68 81 69 82 70 83 71 84 47 85
REMARK SMILES IDX 48 86 57 87 49 88 50 89 56 90 58 91 51 92 52 93 53 94 54 95
REMARK SMILES IDX 55 96
REMARK H PARENT 79 46 45 57
REMARK Flexibility Score: inf
ROOT
ATOM      1  C   UNL     1       1.499 -12.162  -1.454  1.00  0.00     0.275 C 
ENDROOT
BRANCH   1   2
ATOM      2  C   UNL     1       2.912 -11.617  -1.227  1.00  0.00     0.275 C 
BRANCH   2   3
ATOM      3  O   UNL     1       2.852 -10.562  -0.256  1.00  0.00    -0.458 OA
BRANCH   3   4
ATOM      4  C   UNL     1       3.904  -9.726  -0.246  1.00  0.00     0.354 C 
ATOM      5  O   UNL     1       4.970  -9.850  -0.815  1.00  0.00    -0.245 OA
BRANCH   4   6
ATOM      6  C   UNL     1       3.578  -8.565   0.647  1.00  0.00     0.148 C 
ATOM      7  N   UNL     1       3.017  -6.649   1.317  1.00  0.00    -0.256 N 
ATOM      8  N   UNL     1       3.121  -7.431   0.210  1.00  0.00    -0.169 NA
ATOM      9  C   UNL     1       3.573  -7.248   2.531  1.00  0.00     0.154 C 
ATOM     10  C   UNL     1       3.694  -8.722   2.128  1.00  0.00     0.099 C 
BRANCH   7  11
ATOM     11  C   UNL     1       2.451  -5.386   1.272  1.00  0.00     0.060 A 
ATOM     12  C   UNL     1       1.293  -2.829   1.311  1.00  0.00     0.067 A 
ATOM     13  C   UNL     1       0.474  -3.958   1.309  1.00  0.00     0.022 A 
ATOM     14  C   UNL     1       2.682  -2.960   1.293  1.00  0.00     0.022 A 
ATOM     15  C   UNL     1       1.058  -5.228   1.287  1.00  0.00     0.029 A 
ATOM     16  C   UNL     1       3.251  -4.236   1.267  1.00  0.00     0.029 A 
BRANCH  12  17
ATOM     17  S   UNL     1       0.572  -1.208   1.437  1.00  0.00     0.175 S 
ATOM     18  C   UNL     1       0.441  -0.670  -0.249  1.00  0.00     0.163 C 
ATOM     19  O   UNL     1       1.540  -0.366   2.118  1.00  0.00    -0.224 OA
ATOM     20  O   UNL     1      -0.761  -1.374   1.984  1.00  0.00    -0.224 OA
ENDBRANCH  12  17
ENDBRANCH   7  11
BRANCH   9  21
ATOM     21  C   UNL     1       4.875  -6.648   3.027  1.00  0.00     0.030 A 
ATOM     22  C   UNL     1       5.047  -5.818   4.121  1.00  0.00     0.017 A 
ATOM     23  S   UNL     1       6.362  -6.883   2.197  1.00  0.00    -0.147 S 
ATOM     24  C   UNL     1       6.396  -5.392   4.283  1.00  0.00     0.012 A 
ATOM     25  C   UNL     1       7.218  -5.909   3.308  1.00  0.00     0.065 A 
ENDBRANCH   9  21
ENDBRANCH   4   6
ENDBRANCH   3   4
ENDBRANCH   2   3
ENDBRANCH   1   2
BRANCH   1  26
ATOM     26  O   UNL     1       0.683 -11.148  -2.068  1.00  0.00    -0.458 OA
BRANCH  26  27
ATOM     27  C   UNL     1       0.083 -10.290  -1.204  1.00  0.00     0.338 C 
ATOM     28  O   UNL     1       0.018 -10.395   0.009  1.00  0.00    -0.246 OA
BRANCH  27  29
ATOM     29  C   UNL     1      -0.342  -9.089  -1.947  1.00  0.00     0.060 A 
ATOM     30  C   UNL     1      -0.036  -7.840  -1.398  1.00  0.00     0.016 A 
ATOM     31  C   UNL     1      -1.015  -9.178  -3.169  1.00  0.00     0.016 A 
ATOM     32  C   UNL     1      -0.393  -6.674  -2.072  1.00  0.00     0.010 A 
ATOM     33  C   UNL     1      -1.387  -8.009  -3.836  1.00  0.00     0.010 A 
ATOM     34  C   UNL     1      -1.081  -6.753  -3.289  1.00  0.00    -0.014 A 
BRANCH  34  35
ATOM     35  C   UNL     1      -1.493  -5.514  -3.984  1.00  0.00     0.031 A 
ATOM     36  C   UNL     1      -2.821  -4.890  -3.676  1.00  0.00     0.074 A 
ATOM     37  C   UNL     1      -0.667  -4.947  -4.880  1.00  0.00     0.049 A 
ATOM     38  N   UNL     1      -3.360  -3.813  -4.184  1.00  0.00    -0.248 NA
ATOM     39  C   UNL     1      -3.644  -5.559  -2.658  1.00  0.00     0.031 C 
ATOM     40  C   UNL     1       0.665  -5.440  -5.232  1.00  0.00     0.029 A 
ATOM     41  N   UNL     1      -0.831  -3.830  -5.658  1.00  0.00    -0.354 N 
ATOM     42  C   UNL     1      -4.582  -3.666  -3.545  1.00  0.00     0.074 A 
ATOM     43  C   UNL     1      -4.710  -4.771  -2.616  1.00  0.00     0.031 C 
ATOM     44  C   UNL     1       1.195  -4.632  -6.167  1.00  0.00     0.029 A 
ATOM     45  C   UNL     1       0.234  -3.579  -6.487  1.00  0.00     0.049 A 
ATOM     46  H   UNL     1      -1.635  -3.264  -5.626  1.00  0.00     0.167 HD
ATOM     47  C   UNL     1      -5.512  -2.696  -3.712  1.00  0.00     0.037 A 
ATOM     48  C   UNL     1       0.406  -2.617  -7.412  1.00  0.00     0.037 A 
ATOM     49  C   UNL     1      -5.395  -1.604  -4.639  1.00  0.00     0.049 A 
ATOM     50  C   UNL     1      -0.685  -1.617  -7.656  1.00  0.00     0.074 A 
ATOM     51  C   UNL     1      -6.264  -0.546  -4.845  1.00  0.00     0.029 A 
ATOM     52  N   UNL     1      -4.348  -1.442  -5.532  1.00  0.00    -0.354 N 
ATOM     53  N   UNL     1      -1.826  -1.477  -7.027  1.00  0.00    -0.248 NA
ATOM     54  C   UNL     1      -0.473  -0.657  -8.749  1.00  0.00     0.031 C 
ATOM     55  C   UNL     1      -5.752   0.243  -5.885  1.00  0.00     0.029 A 
ATOM     56  C   UNL     1      -4.561  -0.320  -6.315  1.00  0.00     0.049 A 
ATOM     57  H   UNL     1      -3.566  -2.037  -5.599  1.00  0.00     0.167 HD
ATOM     58  C   UNL     1      -2.474  -0.418  -7.651  1.00  0.00     0.074 A 
ATOM     59  C   UNL     1      -1.594   0.053  -8.702  1.00  0.00     0.031 C 
ATOM     60  C   UNL     1      -3.689   0.115  -7.374  1.00  0.00     0.037 A 
BRANCH  47  61
ATOM     61  C   UNL     1      -6.744  -2.795  -2.867  1.00  0.00     0.058 A 
ATOM     62  C   UNL     1      -6.771  -2.272  -1.565  1.00  0.00     0.135 A 
ATOM     63  C   UNL     1      -7.894  -3.436  -3.348  1.00  0.00     0.135 A 
ATOM     64  F   UNL     1      -5.686  -1.666  -1.059  1.00  0.00    -0.206 F 
ATOM     65  C   UNL     1      -7.895  -2.402  -0.757  1.00  0.00     0.059 A 
ATOM     66  C   UNL     1      -9.031  -3.574  -2.558  1.00  0.00     0.059 A 
ATOM     67  F   UNL     1      -7.907  -3.964  -4.582  1.00  0.00    -0.206 F 
ATOM     68  C   UNL     1      -9.015  -3.068  -1.258  1.00  0.00     0.060 A 
BRANCH  68  69
ATOM     69  S   UNL     1     -10.465  -3.273  -0.200  1.00  0.00     0.124 S 
ATOM     70  O   UNL     1     -10.124  -4.495   0.521  1.00  0.00    -0.237 OA
ATOM     71  O   UNL     1     -10.464  -2.049   0.593  1.00  0.00    -0.237 OA
ATOM     72  O   UNL     1     -11.560  -3.392  -1.158  1.00  0.00    -0.744 OA
ENDBRANCH  68  69
ENDBRANCH  47  61
BRANCH  48  73
ATOM     73  C   UNL     1       1.660  -2.580  -8.200  1.00  0.00     0.058 A 
ATOM     74  C   UNL     1       2.709  -1.725  -7.838  1.00  0.00     0.135 A 
ATOM     75  C   UNL     1       1.842  -3.425  -9.303  1.00  0.00     0.135 A 
ATOM     76  F   UNL     1       2.571  -0.900  -6.790  1.00  0.00    -0.206 F 
ATOM     77  C   UNL     1       3.908  -1.713  -8.543  1.00  0.00     0.059 A 
ATOM     78  C   UNL     1       3.034  -3.435 -10.019  1.00  0.00     0.059 A 
ATOM     79  F   UNL     1       0.863  -4.263  -9.677  1.00  0.00    -0.206 F 
ATOM     80  C   UNL     1       4.060  -2.572  -9.633  1.00  0.00     0.060 A 
BRANCH  80  81
ATOM     81  S   UNL     1       5.637  -2.624 -10.513  1.00  0.00     0.124 S 
ATOM     82  O   UNL     1       5.412  -1.646 -11.571  1.00  0.00    -0.237 OA
ATOM     83  O   UNL     1       6.596  -2.239  -9.482  1.00  0.00    -0.237 OA
ATOM     84  O   UNL     1       5.719  -4.018 -10.941  1.00  0.00    -0.744 OA
ENDBRANCH  80  81
ENDBRANCH  48  73
BRANCH  60  85
ATOM     85  C   UNL     1      -4.146   1.248  -8.241  1.00  0.00     0.058 A 
ATOM     86  C   UNL     1      -4.786   1.002  -9.464  1.00  0.00     0.135 A 
ATOM     87  C   UNL     1      -3.972   2.580  -7.839  1.00  0.00     0.135 A 
ATOM     88  F   UNL     1      -4.966  -0.257  -9.891  1.00  0.00    -0.206 F 
ATOM     89  C   UNL     1      -5.234   2.044 -10.269  1.00  0.00     0.059 A 
ATOM     90  C   UNL     1      -4.418   3.637  -8.625  1.00  0.00     0.059 A 
ATOM     91  F   UNL     1      -3.364   2.861  -6.676  1.00  0.00    -0.206 F 
ATOM     92  C   UNL     1      -5.040   3.360  -9.843  1.00  0.00     0.060 A 
BRANCH  92  93
ATOM     93  S   UNL     1      -5.645   4.718 -10.868  1.00  0.00     0.124 S 
ATOM     94  O   UNL     1      -4.506   4.950 -11.748  1.00  0.00    -0.237 OA
ATOM     95  O   UNL     1      -6.829   4.146 -11.502  1.00  0.00    -0.237 OA
ATOM     96  O   UNL     1      -5.915   5.771  -9.893  1.00  0.00    -0.744 OA
ENDBRANCH  92  93
ENDBRANCH  60  85
ENDBRANCH  34  35
ENDBRANCH  27  29
ENDBRANCH  26  27
ENDBRANCH   1  26
TORSDOF 17
