REMARK SMILES C[C@H](C(=O)OCCOC(=O)c1ccc(-c2c3nc(c(-c4c(F)cc(S(=O)(=O)[O-])cc4F)c4ccc([nH]4)c(-c4c(F)cc(S(=O)(=O)[O-])cc4F)c4nc(c(-c5c(F)cc(S(=O)(=O)[O-])cc5F)c5ccc2[nH]5)C=C4)C=C3)cc1)n1c(=O)ssc1=O
REMARK SMILES IDX 7 1 6 2 5 3 3 4 4 5 2 6 1 7 77 8 78 9 82 10 79 11 80 12
REMARK SMILES IDX 81 13 83 14 8 15 9 16 10 17 11 18 12 19 76 20 13 21 75 22
REMARK SMILES IDX 14 23 15 24 16 25 69 26 17 27 74 28 68 29 70 30 18 31 73 32
REMARK SMILES IDX 67 33 66 34 19 36 53 37 32 38 52 39 33 40 36 41 51 42 71 43
REMARK SMILES IDX 34 44 35 45 50 47 72 48 37 49 20 50 21 51 30 52 22 53 23 54
REMARK SMILES IDX 29 55 31 56 24 57 25 58 26 59 27 60 28 61 54 62 55 63 64 64
REMARK SMILES IDX 56 65 57 66 63 67 65 68 58 69 59 70 60 71 61 72 62 73 38 74
REMARK SMILES IDX 39 75 48 76 40 77 41 78 47 79 49 80 42 81 43 82 44 83 45 84
REMARK SMILES IDX 46 85
REMARK H PARENT 70 35 36 46
REMARK Flexibility Score: inf
ROOT
ATOM      1  C   UNL     1       2.421   1.950   1.341  1.00  0.00     0.275 C 
ENDROOT
BRANCH   1   2
ATOM      2  C   UNL     1       1.198   1.951   0.431  1.00  0.00     0.274 C 
BRANCH   2   3
ATOM      3  O   UNL     1       0.519   0.688   0.555  1.00  0.00    -0.461 OA
BRANCH   3   4
ATOM      4  C   UNL     1       0.326  -0.028  -0.587  1.00  0.00     0.329 C 
ATOM      5  O   UNL     1       0.672   0.318  -1.710  1.00  0.00    -0.250 OA
BRANCH   4   6
ATOM      6  C   UNL     1      -0.482  -1.302  -0.312  1.00  0.00     0.202 C 
ATOM      7  C   UNL     1      -0.215  -1.916   1.064  1.00  0.00     0.044 C 
BRANCH   6   8
ATOM      8  N   UNL     1      -1.916  -1.191  -0.600  1.00  0.00    -0.242 N 
ATOM      9  C   UNL     1      -2.607  -2.365  -0.849  1.00  0.00     0.321 A 
ATOM     10  C   UNL     1      -2.592  -0.001  -0.435  1.00  0.00     0.321 A 
ATOM     11  O   UNL     1      -2.108  -3.470  -0.945  1.00  0.00    -0.256 OA
ATOM     12  S   UNL     1      -4.340  -2.140  -0.969  1.00  0.00    -0.014 S 
ATOM     13  S   UNL     1      -4.335  -0.168  -0.508  1.00  0.00    -0.014 S 
ATOM     14  O   UNL     1      -2.094   1.104  -0.260  1.00  0.00    -0.256 OA
ENDBRANCH   6   8
ENDBRANCH   4   6
ENDBRANCH   3   4
ENDBRANCH   2   3
ENDBRANCH   1   2
BRANCH   1  15
ATOM     15  O   UNL     1       3.259   0.832   0.997  1.00  0.00    -0.458 OA
BRANCH  15  16
ATOM     16  C   UNL     1       3.178  -0.215   1.850  1.00  0.00     0.338 C 
ATOM     17  O   UNL     1       2.580  -0.266   2.911  1.00  0.00    -0.246 OA
BRANCH  16  18
ATOM     18  C   UNL     1       3.871  -1.380   1.284  1.00  0.00     0.060 A 
ATOM     19  C   UNL     1       3.334  -2.026   0.169  1.00  0.00     0.016 A 
ATOM     20  C   UNL     1       4.942  -1.935   1.979  1.00  0.00     0.016 A 
ATOM     21  C   UNL     1       3.801  -3.287  -0.187  1.00  0.00     0.010 A 
ATOM     22  C   UNL     1       5.482  -3.148   1.548  1.00  0.00     0.010 A 
ATOM     23  C   UNL     1       4.894  -3.857   0.485  1.00  0.00    -0.014 A 
BRANCH  23  24
ATOM     24  C   UNL     1       5.426  -5.189   0.089  1.00  0.00     0.031 A 
ATOM     25  C   UNL     1       5.497  -6.309   1.095  1.00  0.00     0.074 A 
ATOM     26  C   UNL     1       5.876  -5.383  -1.167  1.00  0.00     0.049 A 
ATOM     27  N   UNL     1       6.115  -7.459   1.010  1.00  0.00    -0.248 NA
ATOM     28  C   UNL     1       4.797  -6.101   2.373  1.00  0.00     0.031 C 
ATOM     29  C   UNL     1       5.831  -4.393  -2.247  1.00  0.00     0.029 A 
ATOM     30  N   UNL     1       6.468  -6.476  -1.749  1.00  0.00    -0.354 N 
ATOM     31  C   UNL     1       5.927  -8.087   2.238  1.00  0.00     0.074 A 
ATOM     32  C   UNL     1       5.139  -7.187   3.053  1.00  0.00     0.031 C 
ATOM     33  C   UNL     1       6.346  -4.930  -3.361  1.00  0.00     0.029 A 
ATOM     34  C   UNL     1       6.845  -6.264  -3.055  1.00  0.00     0.049 A 
ATOM     35  H   UNL     1       6.610  -7.328  -1.278  1.00  0.00     0.167 HD
ATOM     36  C   UNL     1       6.376  -9.300   2.644  1.00  0.00     0.037 A 
ATOM     37  C   UNL     1       7.560  -7.031  -3.899  1.00  0.00     0.037 A 
ATOM     38  C   UNL     1       7.120 -10.203   1.802  1.00  0.00     0.049 A 
ATOM     39  C   UNL     1       8.076  -8.356  -3.415  1.00  0.00     0.074 A 
ATOM     40  C   UNL     1       7.594 -11.468   2.103  1.00  0.00     0.029 A 
ATOM     41  N   UNL     1       7.490  -9.942   0.490  1.00  0.00    -0.354 N 
ATOM     42  N   UNL     1       7.921  -8.921  -2.242  1.00  0.00    -0.248 NA
ATOM     43  C   UNL     1       8.878  -9.140  -4.363  1.00  0.00     0.031 C 
ATOM     44  C   UNL     1       8.289 -11.953   0.990  1.00  0.00     0.029 A 
ATOM     45  C   UNL     1       8.203 -11.013  -0.024  1.00  0.00     0.049 A 
ATOM     46  H   UNL     1       7.277  -9.117  -0.003  1.00  0.00     0.167 HD
ATOM     47  C   UNL     1       8.590 -10.136  -2.315  1.00  0.00     0.074 A 
ATOM     48  C   UNL     1       9.138 -10.230  -3.654  1.00  0.00     0.031 C 
ATOM     49  C   UNL     1       8.738 -11.089  -1.362  1.00  0.00     0.037 A 
BRANCH  36  50
ATOM     50  C   UNL     1       6.110  -9.712   4.068  1.00  0.00     0.058 A 
ATOM     51  C   UNL     1       4.830 -10.067   4.520  1.00  0.00     0.135 A 
ATOM     52  C   UNL     1       7.171  -9.795   4.987  1.00  0.00     0.135 A 
ATOM     53  F   UNL     1       3.776  -9.994   3.691  1.00  0.00    -0.206 F 
ATOM     54  C   UNL     1       4.606 -10.465   5.835  1.00  0.00     0.059 A 
ATOM     55  C   UNL     1       6.975 -10.216   6.300  1.00  0.00     0.059 A 
ATOM     56  F   UNL     1       8.418  -9.469   4.611  1.00  0.00    -0.206 F 
ATOM     57  C   UNL     1       5.685 -10.535   6.719  1.00  0.00     0.060 A 
BRANCH  57  58
ATOM     58  S   UNL     1       5.379 -11.055   8.421  1.00  0.00     0.124 S 
ATOM     59  O   UNL     1       4.712  -9.878   8.969  1.00  0.00    -0.237 OA
ATOM     60  O   UNL     1       4.537 -12.233   8.242  1.00  0.00    -0.237 OA
ATOM     61  O   UNL     1       6.716 -11.317   8.943  1.00  0.00    -0.744 OA
ENDBRANCH  57  58
ENDBRANCH  36  50
BRANCH  37  62
ATOM     62  C   UNL     1       7.856  -6.542  -5.271  1.00  0.00     0.058 A 
ATOM     63  C   UNL     1       7.266  -7.141  -6.393  1.00  0.00     0.135 A 
ATOM     64  C   UNL     1       8.706  -5.445  -5.487  1.00  0.00     0.135 A 
ATOM     65  F   UNL     1       6.453  -8.197  -6.238  1.00  0.00    -0.206 F 
ATOM     66  C   UNL     1       7.512  -6.677  -7.680  1.00  0.00     0.059 A 
ATOM     67  C   UNL     1       8.944  -4.943  -6.762  1.00  0.00     0.059 A 
ATOM     68  F   UNL     1       9.284  -4.825  -4.446  1.00  0.00    -0.206 F 
ATOM     69  C   UNL     1       8.349  -5.573  -7.854  1.00  0.00     0.060 A 
BRANCH  69  70
ATOM     70  S   UNL     1       8.616  -4.941  -9.525  1.00  0.00     0.124 S 
ATOM     71  O   UNL     1       9.506  -5.953 -10.082  1.00  0.00    -0.237 OA
ATOM     72  O   UNL     1       7.260  -4.917 -10.064  1.00  0.00    -0.237 OA
ATOM     73  O   UNL     1       9.214  -3.629  -9.295  1.00  0.00    -0.744 OA
ENDBRANCH  69  70
ENDBRANCH  37  62
BRANCH  49  74
ATOM     74  C   UNL     1       9.490 -12.331  -1.746  1.00  0.00     0.058 A 
ATOM     75  C   UNL     1      10.884 -12.329  -1.909  1.00  0.00     0.135 A 
ATOM     76  C   UNL     1       8.809 -13.547  -1.919  1.00  0.00     0.135 A 
ATOM     77  F   UNL     1      11.580 -11.190  -1.765  1.00  0.00    -0.206 F 
ATOM     78  C   UNL     1      11.575 -13.486  -2.253  1.00  0.00     0.059 A 
ATOM     79  C   UNL     1       9.483 -14.721  -2.236  1.00  0.00     0.059 A 
ATOM     80  F   UNL     1       7.477 -13.603  -1.767  1.00  0.00    -0.206 F 
ATOM     81  C   UNL     1      10.865 -14.678  -2.414  1.00  0.00     0.060 A 
BRANCH  81  82
ATOM     82  S   UNL     1      11.777 -16.178  -2.833  1.00  0.00     0.124 S 
ATOM     83  O   UNL     1      12.091 -15.948  -4.239  1.00  0.00    -0.237 OA
ATOM     84  O   UNL     1      12.909 -16.123  -1.913  1.00  0.00    -0.237 OA
ATOM     85  O   UNL     1      10.815 -17.244  -2.570  1.00  0.00    -0.744 OA
ENDBRANCH  81  82
ENDBRANCH  49  74
ENDBRANCH  23  24
ENDBRANCH  16  18
ENDBRANCH  15  16
ENDBRANCH   1  15
TORSDOF 15
