REMARK SMILES Cc1oc(C)c(S(=O)(=O)Nn2c(C)ccc2C)c1C(=O)OCCOC(=O)c1ccc(-c2c3nc(c(-c4c(F)cc(S(=O)(=O)[O-])cc4F)c4ccc([nH]4)c(-c4c(F)cc(S(=O)(=O)[O-])cc4F)c4nc(c(-c5c(F)cc(S(=O)(=O)[O-])cc5F)c5ccc2[nH]5)C=C4)C=C3)cc1
REMARK SMILES IDX 22 1 21 2 19 3 20 4 18 5 1 6 2 7 3 8 4 9 6 10 5 11 7 12 8 13
REMARK SMILES IDX 9 14 10 15 11 17 12 18 16 19 13 20 14 21 15 22 17 23 23 24
REMARK SMILES IDX 24 25 25 26 26 27 27 28 28 29 92 30 29 31 91 32 30 33 31 34
REMARK SMILES IDX 32 35 85 36 33 37 90 38 84 39 86 40 34 41 89 42 83 43 82 44
REMARK SMILES IDX 35 46 69 47 48 48 68 49 49 50 52 51 67 52 87 53 50 54 51 55
REMARK SMILES IDX 66 57 88 58 53 59 36 60 37 61 46 62 38 63 39 64 45 65 47 66
REMARK SMILES IDX 40 67 41 68 42 69 43 70 44 71 70 72 71 73 80 74 72 75 73 76
REMARK SMILES IDX 79 77 81 78 74 79 75 80 76 81 77 82 78 83 54 84 55 85 64 86
REMARK SMILES IDX 56 87 57 88 63 89 65 90 58 91 59 92 60 93 61 94 62 95
REMARK H PARENT 10 16 86 45 52 56
REMARK Flexibility Score: inf
ROOT
ATOM      1  C   UNL     1       3.192   4.072  -1.183  1.00  0.00     0.275 C 
ENDROOT
BRANCH   1   2
ATOM      2  O   UNL     1       2.292   2.853  -0.980  1.00  0.00    -0.458 OA
BRANCH   2   3
ATOM      3  C   UNL     1       1.850   2.430   0.299  1.00  0.00     0.343 C 
ATOM      4  O   UNL     1       2.244   2.939   1.344  1.00  0.00    -0.246 OA
BRANCH   3   5
ATOM      5  C   UNL     1       0.898   1.267   0.314  1.00  0.00     0.122 A 
ATOM      6  C   UNL     1       2.618  -0.749  -0.044  1.00  0.00     0.088 C 
ATOM      7  C   UNL     1       1.322  -0.051   0.102  1.00  0.00     0.117 A 
ATOM      8  O   UNL     1       0.275  -0.913   0.052  1.00  0.00    -0.464 OA
ATOM      9  C   UNL     1      -0.850  -0.224   0.327  1.00  0.00     0.122 A 
ATOM     10  C   UNL     1      -0.533   1.088   0.662  1.00  0.00     0.145 A 
ATOM     11  C   UNL     1      -2.107  -1.015   0.225  1.00  0.00     0.089 C 
BRANCH  10  12
ATOM     12  S   UNL     1      -1.809   2.057   1.338  1.00  0.00     0.279 S 
ATOM     13  O   UNL     1      -2.957   1.856   0.444  1.00  0.00    -0.200 OA
ATOM     14  O   UNL     1      -1.897   1.606   2.687  1.00  0.00    -0.200 OA
BRANCH  12  15
ATOM     15  N   UNL     1      -1.668   3.697   1.380  1.00  0.00    -0.216 N 
ATOM     16  H   UNL     1      -2.165   4.224   2.046  1.00  0.00     0.202 HD
BRANCH  15  17
ATOM     17  N   UNL     1      -0.854   4.311   0.478  1.00  0.00    -0.256 N 
ATOM     18  C   UNL     1      -0.616   3.987  -0.825  1.00  0.00     0.038 A 
ATOM     19  C   UNL     1      -0.062   5.349   0.907  1.00  0.00     0.038 A 
ATOM     20  C   UNL     1      -1.125   2.979  -1.804  1.00  0.00     0.067 C 
ATOM     21  C   UNL     1       0.430   4.790  -1.157  1.00  0.00     0.025 A 
ATOM     22  C   UNL     1       0.832   5.604  -0.094  1.00  0.00     0.025 A 
ATOM     23  C   UNL     1      -0.114   5.978   2.248  1.00  0.00     0.067 C 
ENDBRANCH  15  17
ENDBRANCH  12  15
ENDBRANCH  10  12
ENDBRANCH   3   5
ENDBRANCH   2   3
ENDBRANCH   1   2
BRANCH   1  24
ATOM     24  C   UNL     1       2.974   5.140  -2.545  1.00  0.00     0.275 C 
BRANCH  24  25
ATOM     25  O   UNL     1       1.961   6.422  -2.679  1.00  0.00    -0.458 OA
BRANCH  25  26
ATOM     26  C   UNL     1       0.881   6.487  -3.631  1.00  0.00     0.338 C 
ATOM     27  O   UNL     1       0.644   5.468  -4.281  1.00  0.00    -0.246 OA
BRANCH  26  28
ATOM     28  C   UNL     1      -0.187   7.757  -3.836  1.00  0.00     0.060 A 
ATOM     29  C   UNL     1      -1.562   7.556  -3.671  1.00  0.00     0.016 A 
ATOM     30  C   UNL     1      -0.015   9.001  -4.513  1.00  0.00     0.016 A 
ATOM     31  C   UNL     1      -2.634   8.540  -4.087  1.00  0.00     0.010 A 
ATOM     32  C   UNL     1      -1.147  10.003  -4.978  1.00  0.00     0.010 A 
ATOM     33  C   UNL     1      -2.537   9.821  -4.797  1.00  0.00    -0.014 A 
BRANCH  33  34
ATOM     34  C   UNL     1      -3.997  10.721  -5.294  1.00  0.00     0.031 A 
ATOM     35  C   UNL     1      -5.071   9.778  -4.885  1.00  0.00     0.074 A 
ATOM     36  C   UNL     1      -4.638  11.837  -5.987  1.00  0.00     0.049 A 
ATOM     37  N   UNL     1      -5.112   8.616  -5.460  1.00  0.00    -0.248 NA
ATOM     38  C   UNL     1      -5.872   9.877  -3.667  1.00  0.00     0.031 C 
ATOM     39  C   UNL     1      -4.025  12.951  -6.757  1.00  0.00     0.029 A 
ATOM     40  N   UNL     1      -6.072  12.241  -6.237  1.00  0.00    -0.354 N 
ATOM     41  C   UNL     1      -6.085   7.883  -4.846  1.00  0.00     0.074 A 
ATOM     42  C   UNL     1      -6.446   8.664  -3.667  1.00  0.00     0.031 C 
ATOM     43  C   UNL     1      -4.925  13.893  -7.211  1.00  0.00     0.029 A 
ATOM     44  C   UNL     1      -6.331  13.557  -6.917  1.00  0.00     0.049 A 
ATOM     45  H   UNL     1      -6.817  11.659  -5.962  1.00  0.00     0.167 HD
ATOM     46  C   UNL     1      -6.835   7.124  -5.688  1.00  0.00     0.037 A 
ATOM     47  C   UNL     1      -7.518  14.258  -7.341  1.00  0.00     0.037 A 
ATOM     48  C   UNL     1      -8.057   7.798  -6.026  1.00  0.00     0.049 A 
ATOM     49  C   UNL     1      -8.501  13.216  -7.673  1.00  0.00     0.074 A 
ATOM     50  C   UNL     1      -8.947   8.543  -5.278  1.00  0.00     0.029 A 
ATOM     51  N   UNL     1      -8.206   8.189  -7.342  1.00  0.00    -0.354 N 
ATOM     52  N   UNL     1      -8.405  12.516  -8.761  1.00  0.00    -0.248 NA
ATOM     53  C   UNL     1      -9.741  13.028  -6.921  1.00  0.00     0.031 C 
ATOM     54  C   UNL     1      -9.164   9.696  -6.057  1.00  0.00     0.029 A 
ATOM     55  C   UNL     1      -8.750   9.449  -7.362  1.00  0.00     0.049 A 
ATOM     56  H   UNL     1      -7.964   7.655  -8.133  1.00  0.00     0.167 HD
ATOM     57  C   UNL     1      -9.223  11.461  -8.515  1.00  0.00     0.074 A 
ATOM     58  C   UNL     1     -10.202  11.947  -7.556  1.00  0.00     0.031 C 
ATOM     59  C   UNL     1      -8.612  10.252  -8.550  1.00  0.00     0.037 A 
BRANCH  46  60
ATOM     60  C   UNL     1      -6.014   6.356  -6.700  1.00  0.00     0.058 A 
ATOM     61  C   UNL     1      -5.973   4.963  -6.614  1.00  0.00     0.135 A 
ATOM     62  C   UNL     1      -5.207   6.968  -7.691  1.00  0.00     0.135 A 
ATOM     63  F   UNL     1      -6.747   4.318  -5.725  1.00  0.00    -0.206 F 
ATOM     64  C   UNL     1      -5.141   4.212  -7.440  1.00  0.00     0.059 A 
ATOM     65  C   UNL     1      -4.320   6.246  -8.477  1.00  0.00     0.059 A 
ATOM     66  F   UNL     1      -5.292   8.287  -7.926  1.00  0.00    -0.206 F 
ATOM     67  C   UNL     1      -4.303   4.863  -8.351  1.00  0.00     0.060 A 
BRANCH  67  68
ATOM     68  S   UNL     1      -3.198   3.867  -9.370  1.00  0.00     0.124 S 
ATOM     69  O   UNL     1      -2.672   2.904  -8.405  1.00  0.00    -0.237 OA
ATOM     70  O   UNL     1      -4.128   3.319 -10.352  1.00  0.00    -0.237 OA
ATOM     71  O   UNL     1      -2.223   4.830  -9.869  1.00  0.00    -0.744 OA
ENDBRANCH  67  68
ENDBRANCH  46  60
BRANCH  47  72
ATOM     72  C   UNL     1      -8.244  15.657  -7.883  1.00  0.00     0.058 A 
ATOM     73  C   UNL     1      -9.366  15.654  -8.819  1.00  0.00     0.135 A 
ATOM     74  C   UNL     1      -8.198  16.882  -7.185  1.00  0.00     0.135 A 
ATOM     75  F   UNL     1      -9.594  14.605  -9.622  1.00  0.00    -0.206 F 
ATOM     76  C   UNL     1     -10.360  16.673  -8.953  1.00  0.00     0.059 A 
ATOM     77  C   UNL     1      -9.176  17.939  -7.328  1.00  0.00     0.059 A 
ATOM     78  F   UNL     1      -7.244  17.078  -6.265  1.00  0.00    -0.206 F 
ATOM     79  C   UNL     1     -10.280  17.812  -8.178  1.00  0.00     0.060 A 
BRANCH  79  80
ATOM     80  S   UNL     1     -11.667  19.023  -8.195  1.00  0.00     0.124 S 
ATOM     81  O   UNL     1     -11.615  19.567  -9.548  1.00  0.00    -0.237 OA
ATOM     82  O   UNL     1     -12.828  18.185  -7.902  1.00  0.00    -0.237 OA
ATOM     83  O   UNL     1     -11.311  19.963  -7.135  1.00  0.00    -0.744 OA
ENDBRANCH  79  80
ENDBRANCH  47  72
BRANCH  59  84
ATOM     84  C   UNL     1      -7.647  10.002  -9.701  1.00  0.00     0.058 A 
ATOM     85  C   UNL     1      -6.543  10.811 -10.061  1.00  0.00     0.135 A 
ATOM     86  C   UNL     1      -7.913   8.922 -10.556  1.00  0.00     0.135 A 
ATOM     87  F   UNL     1      -6.114  11.813  -9.281  1.00  0.00    -0.206 F 
ATOM     88  C   UNL     1      -5.820  10.618 -11.240  1.00  0.00     0.059 A 
ATOM     89  C   UNL     1      -7.171   8.678 -11.715  1.00  0.00     0.059 A 
ATOM     90  F   UNL     1      -8.917   8.079 -10.264  1.00  0.00    -0.206 F 
ATOM     91  C   UNL     1      -6.151   9.556 -12.071  1.00  0.00     0.060 A 
BRANCH  91  92
ATOM     92  S   UNL     1      -5.222   9.334 -13.605  1.00  0.00     0.124 S 
ATOM     93  O   UNL     1      -5.762  10.402 -14.442  1.00  0.00    -0.237 OA
ATOM     94  O   UNL     1      -3.839   9.518 -13.175  1.00  0.00    -0.237 OA
ATOM     95  O   UNL     1      -5.579   7.982 -14.024  1.00  0.00    -0.744 OA
ENDBRANCH  91  92
ENDBRANCH  59  84
ENDBRANCH  33  34
ENDBRANCH  26  28
ENDBRANCH  25  26
ENDBRANCH  24  25
ENDBRANCH   1  24
TORSDOF 17
