REMARK SMILES [NH2+]=C1S[C@@H](C(=O)Nc2ccc(C(=O)OCCOC(=O)c3ccc(-c4c5nc(c(-c6c(F)cc(S(=O)(=O)[O-])cc6F)c6ccc([nH]6)c(-c6c(F)cc(S(=O)(=O)[O-])cc6F)c6nc(c(-c7c(F)cc(S(=O)(=O)[O-])cc7F)c7ccc4[nH]7)C=C6)C=C5)cc3)cc2)CC(=O)N1/N=C/c1ccc(Cl)cc1
REMARK SMILES IDX 15 1 14 2 12 3 13 4 11 5 8 6 9 7 87 8 10 9 86 10 7 11 5 12
REMARK SMILES IDX 6 13 4 15 1 16 2 17 3 20 91 21 89 22 88 23 90 24 92 25 93 26
REMARK SMILES IDX 94 27 95 28 100 29 96 30 99 31 97 32 98 33 16 34 17 35 18 36
REMARK SMILES IDX 19 37 20 38 21 39 85 40 22 41 84 42 23 43 24 44 25 45 78 46
REMARK SMILES IDX 26 47 83 48 77 49 79 50 27 51 82 52 76 53 75 54 28 56 62 57
REMARK SMILES IDX 41 58 61 59 42 60 45 61 60 62 80 63 43 64 44 65 59 67 81 68
REMARK SMILES IDX 46 69 29 70 30 71 39 72 31 73 32 74 38 75 40 76 33 77 34 78
REMARK SMILES IDX 35 79 36 80 37 81 63 82 64 83 73 84 65 85 66 86 72 87 74 88
REMARK SMILES IDX 67 89 68 90 69 91 70 92 71 93 47 94 48 95 57 96 49 97 50 98
REMARK SMILES IDX 56 99 58 100 51 101 52 102 53 103 54 104 55 105
REMARK H PARENT 7 14 1 18 1 19 79 55 45 66
REMARK Flexibility Score: inf
ROOT
ATOM      1  C   UNL     1      -5.864   0.021  -0.861  1.00  0.00     0.275 C 
ENDROOT
BRANCH   1   2
ATOM      2  O   UNL     1      -5.174  -0.511   0.289  1.00  0.00    -0.458 OA
BRANCH   2   3
ATOM      3  C   UNL     1      -3.917  -0.037   0.403  1.00  0.00     0.338 C 
ATOM      4  O   UNL     1      -3.431   0.843  -0.300  1.00  0.00    -0.246 OA
BRANCH   3   5
ATOM      5  C   UNL     1      -3.064  -0.693   1.401  1.00  0.00     0.060 A 
ATOM      6  C   UNL     1      -0.884  -1.976   2.502  1.00  0.00     0.041 A 
ATOM      7  C   UNL     1      -0.893  -0.591   2.480  1.00  0.00     0.027 A 
ATOM      8  C   UNL     1      -2.027  -2.709   2.175  1.00  0.00     0.027 A 
ATOM      9  C   UNL     1      -1.978   0.048   1.900  1.00  0.00     0.018 A 
ATOM     10  C   UNL     1      -3.131  -2.067   1.613  1.00  0.00     0.018 A 
BRANCH   6  11
ATOM     11  N   UNL     1       0.296  -2.615   2.845  1.00  0.00    -0.325 N 
ATOM     12  C   UNL     1       1.133  -3.333   2.043  1.00  0.00     0.238 C 
ATOM     13  O   UNL     1       2.110  -3.854   2.600  1.00  0.00    -0.273 OA
ATOM     14  H   UNL     1       0.565  -2.542   3.789  1.00  0.00     0.169 HD
BRANCH  12  15
ATOM     15  C   UNL     1       1.022  -3.409   0.506  1.00  0.00     0.160 C 
ATOM     16  N   UNL     1       0.856   0.256  -0.615  1.00  0.00    -0.279 N 
ATOM     17  C   UNL     1       0.582  -0.998  -0.724  1.00  0.00     0.338 C 
ATOM     18  H   UNL     1       1.722   0.539  -0.243  1.00  0.00     0.302 HD
ATOM     19  H   UNL     1       0.199   0.930  -0.903  1.00  0.00     0.302 HD
ATOM     20  S   UNL     1       1.883  -2.046  -0.274  1.00  0.00    -0.022 SA
ATOM     21  N   UNL     1      -0.603  -1.532  -1.232  1.00  0.00    -0.057 N 
ATOM     22  C   UNL     1      -1.072  -2.831  -0.983  1.00  0.00     0.337 C 
ATOM     23  C   UNL     1      -0.233  -3.828  -0.205  1.00  0.00     0.155 C 
ATOM     24  O   UNL     1      -2.168  -3.250  -1.389  1.00  0.00    -0.244 OA
BRANCH  21  25
ATOM     25  N   UNL     1      -1.470  -0.812  -2.098  1.00  0.00    -0.082 NA
ATOM     26  C   UNL     1      -1.313   0.437  -2.393  1.00  0.00     0.167 C 
BRANCH  26  27
ATOM     27  C   UNL     1      -2.244   1.131  -3.316  1.00  0.00    -0.003 A 
ATOM     28  C   UNL     1      -2.342   0.753  -4.655  1.00  0.00     0.011 A 
ATOM     29  C   UNL     1      -2.981   2.221  -2.841  1.00  0.00     0.011 A 
ATOM     30  C   UNL     1      -3.199   1.460  -5.509  1.00  0.00     0.021 A 
ATOM     31  C   UNL     1      -3.876   2.889  -3.678  1.00  0.00     0.021 A 
ATOM     32  C   UNL     1      -3.975   2.510  -5.013  1.00  0.00     0.041 A 
ATOM     33  Cl  UNL     1      -5.058   3.348  -6.057  1.00  0.00    -0.084 Cl
ENDBRANCH  26  27
ENDBRANCH  21  25
ENDBRANCH  12  15
ENDBRANCH   6  11
ENDBRANCH   3   5
ENDBRANCH   2   3
ENDBRANCH   1   2
BRANCH   1  34
ATOM     34  C   UNL     1      -6.553   1.370  -0.610  1.00  0.00     0.275 C 
BRANCH  34  35
ATOM     35  O   UNL     1      -5.631   2.443  -0.318  1.00  0.00    -0.458 OA
BRANCH  35  36
ATOM     36  C   UNL     1      -5.553   2.774   0.995  1.00  0.00     0.338 C 
ATOM     37  O   UNL     1      -6.192   2.280   1.904  1.00  0.00    -0.246 OA
BRANCH  36  38
ATOM     38  C   UNL     1      -4.563   3.842   1.255  1.00  0.00     0.060 A 
ATOM     39  C   UNL     1      -3.199   3.578   1.147  1.00  0.00     0.016 A 
ATOM     40  C   UNL     1      -4.987   5.002   1.903  1.00  0.00     0.016 A 
ATOM     41  C   UNL     1      -2.272   4.359   1.835  1.00  0.00     0.010 A 
ATOM     42  C   UNL     1      -4.046   5.846   2.504  1.00  0.00     0.010 A 
ATOM     43  C   UNL     1      -2.687   5.485   2.554  1.00  0.00    -0.014 A 
BRANCH  43  44
ATOM     44  C   UNL     1      -1.746   6.189   3.473  1.00  0.00     0.031 A 
ATOM     45  C   UNL     1      -2.072   6.266   4.947  1.00  0.00     0.074 A 
ATOM     46  C   UNL     1      -0.590   6.717   3.025  1.00  0.00     0.049 A 
ATOM     47  N   UNL     1      -1.515   6.987   5.887  1.00  0.00    -0.248 NA
ATOM     48  C   UNL     1      -3.188   5.431   5.423  1.00  0.00     0.031 C 
ATOM     49  C   UNL     1      -0.102   6.651   1.647  1.00  0.00     0.029 A 
ATOM     50  N   UNL     1       0.389   7.415   3.689  1.00  0.00    -0.354 N 
ATOM     51  C   UNL     1      -2.255   6.749   7.041  1.00  0.00     0.074 A 
ATOM     52  C   UNL     1      -3.303   5.818   6.684  1.00  0.00     0.031 C 
ATOM     53  C   UNL     1       1.092   7.259   1.573  1.00  0.00     0.029 A 
ATOM     54  C   UNL     1       1.415   7.833   2.874  1.00  0.00     0.049 A 
ATOM     55  H   UNL     1       0.360   7.598   4.656  1.00  0.00     0.167 HD
ATOM     56  C   UNL     1      -2.079   7.260   8.284  1.00  0.00     0.037 A 
ATOM     57  C   UNL     1       2.474   8.627   3.132  1.00  0.00     0.037 A 
ATOM     58  C   UNL     1      -0.990   8.131   8.648  1.00  0.00     0.049 A 
ATOM     59  C   UNL     1       2.647   9.195   4.514  1.00  0.00     0.074 A 
ATOM     60  C   UNL     1      -0.718   8.705   9.878  1.00  0.00     0.029 A 
ATOM     61  N   UNL     1       0.021   8.534   7.788  1.00  0.00    -0.354 N 
ATOM     62  N   UNL     1       1.891   9.031   5.574  1.00  0.00    -0.248 NA
ATOM     63  C   UNL     1       3.810  10.065   4.732  1.00  0.00     0.031 C 
ATOM     64  C   UNL     1       0.443   9.478   9.753  1.00  0.00     0.029 A 
ATOM     65  C   UNL     1       0.919   9.347   8.459  1.00  0.00     0.049 A 
ATOM     66  H   UNL     1       0.090   8.279   6.839  1.00  0.00     0.167 HD
ATOM     67  C   UNL     1       2.501   9.756   6.591  1.00  0.00     0.074 A 
ATOM     68  C   UNL     1       3.694  10.350   6.022  1.00  0.00     0.031 C 
ATOM     69  C   UNL     1       2.110   9.917   7.880  1.00  0.00     0.037 A 
BRANCH  56  70
ATOM     70  C   UNL     1      -3.107   6.924   9.332  1.00  0.00     0.058 A 
ATOM     71  C   UNL     1      -3.215   5.644   9.897  1.00  0.00     0.135 A 
ATOM     72  C   UNL     1      -3.996   7.913   9.787  1.00  0.00     0.135 A 
ATOM     73  F   UNL     1      -2.404   4.654   9.488  1.00  0.00    -0.206 F 
ATOM     74  C   UNL     1      -4.188   5.346  10.848  1.00  0.00     0.059 A 
ATOM     75  C   UNL     1      -4.957   7.647  10.758  1.00  0.00     0.059 A 
ATOM     76  F   UNL     1      -3.939   9.156   9.284  1.00  0.00    -0.206 F 
ATOM     77  C   UNL     1      -5.057   6.354  11.269  1.00  0.00     0.060 A 
BRANCH  77  78
ATOM     78  S   UNL     1      -6.321   5.954  12.495  1.00  0.00     0.124 S 
ATOM     79  O   UNL     1      -7.276   5.196  11.692  1.00  0.00    -0.237 OA
ATOM     80  O   UNL     1      -5.570   5.183  13.481  1.00  0.00    -0.237 OA
ATOM     81  O   UNL     1      -6.782   7.263  12.948  1.00  0.00    -0.744 OA
ENDBRANCH  77  78
ENDBRANCH  56  70
BRANCH  57  82
ATOM     82  C   UNL     1       3.433   8.956   2.043  1.00  0.00     0.058 A 
ATOM     83  C   UNL     1       4.744   8.457   2.057  1.00  0.00     0.135 A 
ATOM     84  C   UNL     1       3.052   9.760   0.957  1.00  0.00     0.135 A 
ATOM     85  F   UNL     1       5.160   7.694   3.079  1.00  0.00    -0.206 F 
ATOM     86  C   UNL     1       5.644   8.747   1.037  1.00  0.00     0.059 A 
ATOM     87  C   UNL     1       3.924  10.040  -0.089  1.00  0.00     0.059 A 
ATOM     88  F   UNL     1       1.805  10.253   0.890  1.00  0.00    -0.206 F 
ATOM     89  C   UNL     1       5.223   9.536  -0.035  1.00  0.00     0.060 A 
BRANCH  89  90
ATOM     90  S   UNL     1       6.377   9.853  -1.387  1.00  0.00     0.124 S 
ATOM     91  O   UNL     1       7.272  10.834  -0.784  1.00  0.00    -0.237 OA
ATOM     92  O   UNL     1       6.945   8.529  -1.624  1.00  0.00    -0.237 OA
ATOM     93  O   UNL     1       5.515  10.355  -2.453  1.00  0.00    -0.744 OA
ENDBRANCH  89  90
ENDBRANCH  57  82
BRANCH  69  94
ATOM     94  C   UNL     1       3.013  10.718   8.777  1.00  0.00     0.058 A 
ATOM     95  C   UNL     1       3.117  12.113   8.672  1.00  0.00     0.135 A 
ATOM     96  C   UNL     1       3.767  10.076   9.773  1.00  0.00     0.135 A 
ATOM     97  F   UNL     1       2.421  12.774   7.734  1.00  0.00    -0.206 F 
ATOM     98  C   UNL     1       3.966  12.841   9.500  1.00  0.00     0.059 A 
ATOM     99  C   UNL     1       4.601  10.787  10.629  1.00  0.00     0.059 A 
ATOM    100  F   UNL     1       3.694   8.744   9.923  1.00  0.00    -0.206 F 
ATOM    101  C   UNL     1       4.707  12.168  10.473  1.00  0.00     0.060 A 
BRANCH 101 102
ATOM    102  S   UNL     1       5.802  13.121  11.546  1.00  0.00     0.124 S 
ATOM    103  O   UNL     1       6.921  13.397  10.651  1.00  0.00    -0.237 OA
ATOM    104  O   UNL     1       4.974  14.270  11.899  1.00  0.00    -0.237 OA
ATOM    105  O   UNL     1       6.087  12.201  12.643  1.00  0.00    -0.744 OA
ENDBRANCH 101 102
ENDBRANCH  69  94
ENDBRANCH  43  44
ENDBRANCH  36  38
ENDBRANCH  35  36
ENDBRANCH  34  35
ENDBRANCH   1  34
TORSDOF 18
