REMARK SMILES O=C(CSCC(=O)N1CCN(c2ccc(F)cc2)CC1)OCCOC(=O)c1ccc(-c2c3nc(c(-c4c(F)cc(S(=O)(=O)[O-])cc4F)c4ccc([nH]4)c(-c4c(F)cc(S(=O)(=O)[O-])cc4F)c4nc(c(-c5c(F)cc(S(=O)(=O)[O-])cc5F)c5ccc2[nH]5)C=C4)C=C3)cc1
REMARK SMILES IDX 22 1 21 2 2 3 1 4 3 5 4 6 5 7 6 8 7 9 8 10 9 11 20 12 10 13
REMARK SMILES IDX 19 14 11 15 12 16 13 17 18 18 14 19 17 20 15 21 16 22 23 23
REMARK SMILES IDX 24 24 25 25 26 26 27 27 28 28 92 29 29 30 91 31 30 32 31 33
REMARK SMILES IDX 32 34 85 35 33 36 90 37 84 38 86 39 34 40 89 41 83 42 82 43
REMARK SMILES IDX 35 45 69 46 48 47 68 48 49 49 52 50 67 51 87 52 50 53 51 54
REMARK SMILES IDX 66 56 88 57 53 58 36 59 37 60 46 61 38 62 39 63 45 64 47 65
REMARK SMILES IDX 40 66 41 67 42 68 43 69 44 70 70 71 71 72 80 73 72 74 73 75
REMARK SMILES IDX 79 76 81 77 74 78 75 79 76 80 77 81 78 82 54 83 55 84 64 85
REMARK SMILES IDX 56 86 57 87 63 88 65 89 58 90 59 91 60 92 61 93 62 94
REMARK H PARENT 86 44 52 55
REMARK Flexibility Score: inf
ROOT
ATOM      1  C   UNL     1       4.544   1.137  -0.209  1.00  0.00     0.274 C 
ENDROOT
BRANCH   1   2
ATOM      2  O   UNL     1       3.208   0.996  -0.736  1.00  0.00    -0.461 OA
BRANCH   2   3
ATOM      3  C   UNL     1       2.574  -0.184  -0.938  1.00  0.00     0.316 C 
ATOM      4  O   UNL     1       1.490  -0.213  -1.518  1.00  0.00    -0.251 OA
BRANCH   3   5
ATOM      5  C   UNL     1       3.231  -1.453  -0.456  1.00  0.00     0.192 C 
BRANCH   5   6
ATOM      6  S   UNL     1       4.154  -2.277  -1.781  1.00  0.00    -0.140 SA
BRANCH   6   7
ATOM      7  C   UNL     1       2.826  -3.271  -2.498  1.00  0.00     0.170 C 
BRANCH   7   8
ATOM      8  C   UNL     1       1.969  -4.110  -1.557  1.00  0.00     0.232 C 
ATOM      9  O   UNL     1       0.740  -4.020  -1.617  1.00  0.00    -0.274 OA
ATOM     10  N   UNL     1       2.571  -5.138  -0.864  1.00  0.00    -0.338 N 
ATOM     11  C   UNL     1       1.913  -6.449  -0.848  1.00  0.00     0.141 C 
ATOM     12  C   UNL     1       3.627  -4.999   0.148  1.00  0.00     0.141 C 
ATOM     13  C   UNL     1       2.954  -7.567  -1.050  1.00  0.00     0.138 C 
ATOM     14  C   UNL     1       4.688  -6.100   0.026  1.00  0.00     0.138 C 
ATOM     15  N   UNL     1       4.043  -7.410  -0.073  1.00  0.00    -0.368 N 
BRANCH  15  16
ATOM     16  C   UNL     1       4.501  -8.497   0.634  1.00  0.00     0.037 A 
ATOM     17  C   UNL     1       4.624  -8.442   2.030  1.00  0.00     0.029 A 
ATOM     18  C   UNL     1       4.809  -9.703  -0.010  1.00  0.00     0.029 A 
ATOM     19  C   UNL     1       5.027  -9.561   2.761  1.00  0.00     0.041 A 
ATOM     20  C   UNL     1       5.229 -10.821   0.714  1.00  0.00     0.041 A 
ATOM     21  C   UNL     1       5.330 -10.739   2.095  1.00  0.00     0.123 A 
ATOM     22  F   UNL     1       5.728 -11.811   2.793  1.00  0.00    -0.207 F 
ENDBRANCH  15  16
ENDBRANCH   7   8
ENDBRANCH   6   7
ENDBRANCH   5   6
ENDBRANCH   3   5
ENDBRANCH   2   3
ENDBRANCH   1   2
BRANCH   1  23
ATOM     23  C   UNL     1       4.537   1.462   1.287  1.00  0.00     0.275 C 
BRANCH  23  24
ATOM     24  O   UNL     1       4.070   0.344   2.067  1.00  0.00    -0.458 OA
BRANCH  24  25
ATOM     25  C   UNL     1       2.747   0.363   2.376  1.00  0.00     0.338 C 
ATOM     26  O   UNL     1       1.962   1.256   2.108  1.00  0.00    -0.246 OA
BRANCH  25  27
ATOM     27  C   UNL     1       2.334  -0.941   2.949  1.00  0.00     0.060 A 
ATOM     28  C   UNL     1       1.042  -1.399   2.660  1.00  0.00     0.016 A 
ATOM     29  C   UNL     1       3.171  -1.694   3.779  1.00  0.00     0.016 A 
ATOM     30  C   UNL     1       0.560  -2.567   3.256  1.00  0.00     0.010 A 
ATOM     31  C   UNL     1       2.688  -2.869   4.371  1.00  0.00     0.010 A 
ATOM     32  C   UNL     1       1.363  -3.286   4.152  1.00  0.00    -0.014 A 
BRANCH  32  33
ATOM     33  C   UNL     1       0.754  -4.358   4.984  1.00  0.00     0.031 A 
ATOM     34  C   UNL     1       0.365  -4.044   6.405  1.00  0.00     0.074 A 
ATOM     35  C   UNL     1       0.499  -5.580   4.482  1.00  0.00     0.049 A 
ATOM     36  N   UNL     1      -0.230  -4.804   7.287  1.00  0.00    -0.248 NA
ATOM     37  C   UNL     1       0.689  -2.694   6.894  1.00  0.00     0.031 C 
ATOM     38  C   UNL     1       0.794  -6.006   3.118  1.00  0.00     0.029 A 
ATOM     39  N   UNL     1      -0.072  -6.686   5.063  1.00  0.00    -0.354 N 
ATOM     40  C   UNL     1      -0.374  -4.020   8.425  1.00  0.00     0.074 A 
ATOM     41  C   UNL     1       0.254  -2.747   8.144  1.00  0.00     0.031 C 
ATOM     42  C   UNL     1       0.413  -7.286   2.967  1.00  0.00     0.029 A 
ATOM     43  C   UNL     1      -0.160  -7.769   4.222  1.00  0.00     0.049 A 
ATOM     44  H   UNL     1      -0.390  -6.700   5.995  1.00  0.00     0.167 HD
ATOM     45  C   UNL     1      -0.997  -4.318   9.590  1.00  0.00     0.037 A 
ATOM     46  C   UNL     1      -0.658  -9.005   4.429  1.00  0.00     0.037 A 
ATOM     47  C   UNL     1      -1.616  -5.585   9.879  1.00  0.00     0.049 A 
ATOM     48  C   UNL     1      -1.300  -9.338   5.750  1.00  0.00     0.074 A 
ATOM     49  C   UNL     1      -2.265  -5.980  11.036  1.00  0.00     0.029 A 
ATOM     50  N   UNL     1      -1.663  -6.663   9.007  1.00  0.00    -0.354 N 
ATOM     51  N   UNL     1      -1.450  -8.576   6.807  1.00  0.00    -0.248 NA
ATOM     52  C   UNL     1      -1.860 -10.689   5.900  1.00  0.00     0.031 C 
ATOM     53  C   UNL     1      -2.670  -7.310  10.879  1.00  0.00     0.029 A 
ATOM     54  C   UNL     1      -2.318  -7.727   9.605  1.00  0.00     0.049 A 
ATOM     55  H   UNL     1      -1.287  -6.670   8.098  1.00  0.00     0.167 HD
ATOM     56  C   UNL     1      -2.155  -9.341   7.732  1.00  0.00     0.074 A 
ATOM     57  C   UNL     1      -2.400 -10.626   7.110  1.00  0.00     0.031 C 
ATOM     58  C   UNL     1      -2.570  -9.001   8.978  1.00  0.00     0.037 A 
BRANCH  45  59
ATOM     59  C   UNL     1      -1.038  -3.247  10.643  1.00  0.00     0.058 A 
ATOM     60  C   UNL     1      -0.280  -3.368  11.818  1.00  0.00     0.135 A 
ATOM     61  C   UNL     1      -1.848  -2.108  10.499  1.00  0.00     0.135 A 
ATOM     62  F   UNL     1       0.517  -4.432  12.003  1.00  0.00    -0.206 F 
ATOM     63  C   UNL     1      -0.327  -2.400  12.815  1.00  0.00     0.059 A 
ATOM     64  C   UNL     1      -1.889  -1.114  11.472  1.00  0.00     0.059 A 
ATOM     65  F   UNL     1      -2.572  -1.932   9.382  1.00  0.00    -0.206 F 
ATOM     66  C   UNL     1      -1.132  -1.274  12.631  1.00  0.00     0.060 A 
BRANCH  66  67
ATOM     67  S   UNL     1      -1.131   0.004  13.906  1.00  0.00     0.124 S 
ATOM     68  O   UNL     1      -1.873  -0.644  14.981  1.00  0.00    -0.237 OA
ATOM     69  O   UNL     1       0.297   0.197  14.144  1.00  0.00    -0.237 OA
ATOM     70  O   UNL     1      -1.805   1.126  13.260  1.00  0.00    -0.744 OA
ENDBRANCH  66  67
ENDBRANCH  45  59
BRANCH  46  71
ATOM     71  C   UNL     1      -0.612 -10.005   3.329  1.00  0.00     0.058 A 
ATOM     72  C   UNL     1       0.604 -10.576   2.921  1.00  0.00     0.135 A 
ATOM     73  C   UNL     1      -1.775 -10.377   2.638  1.00  0.00     0.135 A 
ATOM     74  F   UNL     1       1.743 -10.252   3.552  1.00  0.00    -0.206 F 
ATOM     75  C   UNL     1       0.670 -11.455   1.846  1.00  0.00     0.059 A 
ATOM     76  C   UNL     1      -1.738 -11.274   1.574  1.00  0.00     0.059 A 
ATOM     77  F   UNL     1      -2.962  -9.869   3.003  1.00  0.00    -0.206 F 
ATOM     78  C   UNL     1      -0.506 -11.791   1.173  1.00  0.00     0.060 A 
BRANCH  78  79
ATOM     79  S   UNL     1      -0.394 -12.900  -0.248  1.00  0.00     0.124 S 
ATOM     80  O   UNL     1       0.311 -12.062  -1.214  1.00  0.00    -0.237 OA
ATOM     81  O   UNL     1       0.367 -14.020   0.295  1.00  0.00    -0.237 OA
ATOM     82  O   UNL     1      -1.789 -13.186  -0.566  1.00  0.00    -0.744 OA
ENDBRANCH  78  79
ENDBRANCH  46  71
BRANCH  58  83
ATOM     83  C   UNL     1      -3.371 -10.011   9.755  1.00  0.00     0.058 A 
ATOM     84  C   UNL     1      -4.735  -9.789  10.007  1.00  0.00     0.135 A 
ATOM     85  C   UNL     1      -2.781 -11.156  10.313  1.00  0.00     0.135 A 
ATOM     86  F   UNL     1      -5.349  -8.706   9.503  1.00  0.00    -0.206 F 
ATOM     87  C   UNL     1      -5.482 -10.658  10.795  1.00  0.00     0.059 A 
ATOM     88  C   UNL     1      -3.517 -12.053  11.084  1.00  0.00     0.059 A 
ATOM     89  F   UNL     1      -1.483 -11.419  10.097  1.00  0.00    -0.206 F 
ATOM     90  C   UNL     1      -4.863 -11.787  11.332  1.00  0.00     0.060 A 
BRANCH  90  91
ATOM     91  S   UNL     1      -5.853 -12.916  12.336  1.00  0.00     0.124 S 
ATOM     92  O   UNL     1      -6.029 -12.148  13.563  1.00  0.00    -0.237 OA
ATOM     93  O   UNL     1      -7.049 -13.091  11.518  1.00  0.00    -0.237 OA
ATOM     94  O   UNL     1      -5.004 -14.098  12.451  1.00  0.00    -0.744 OA
ENDBRANCH  90  91
ENDBRANCH  58  83
ENDBRANCH  32  33
ENDBRANCH  25  27
ENDBRANCH  24  25
ENDBRANCH  23  24
ENDBRANCH   1  23
TORSDOF 18
