REMARK SMILES NS(=O)(=O)c1ccc(-n2nc(NC(=O)NCCCCCCCCCCC(=O)OCCOC(=O)c3ccc(-c4c5nc(c(-c6c(F)cc(S(=O)(=O)[O-])cc6F)c6ccc([nH]6)c(-c6c(F)cc(S(=O)(=O)[O-])cc6F)c6nc(c(-c7c(F)cc(S(=O)(=O)[O-])cc7F)c7ccc4[nH]7)C=C6)C=C5)cc3)cc2-c2ccccc2)cc1
REMARK SMILES IDX 23 1 22 2 21 3 20 4 19 5 18 6 17 7 16 8 15 9 12 10 13 11
REMARK SMILES IDX 14 13 11 15 9 16 10 17 101 18 100 19 8 20 5 21 6 22 109 23
REMARK SMILES IDX 7 24 108 25 2 26 3 27 4 28 1 29 102 32 103 33 107 34 104 35
REMARK SMILES IDX 106 36 105 37 24 38 25 39 26 40 27 41 28 42 29 43 30 44
REMARK SMILES IDX 31 45 32 46 33 47 34 48 35 49 99 50 36 51 98 52 37 53 38 54
REMARK SMILES IDX 39 55 92 56 40 57 97 58 91 59 93 60 41 61 96 62 90 63 89 64
REMARK SMILES IDX 42 66 76 67 55 68 75 69 56 70 59 71 74 72 94 73 57 74 58 75
REMARK SMILES IDX 73 77 95 78 60 79 43 80 44 81 53 82 45 83 46 84 52 85 54 86
REMARK SMILES IDX 47 87 48 88 49 89 50 90 51 91 77 92 78 93 87 94 79 95 80 96
REMARK SMILES IDX 86 97 88 98 81 99 82 100 83 101 84 102 85 103 61 104 62 105
REMARK SMILES IDX 71 106 63 107 64 108 70 109 72 110 65 111 66 112 67 113
REMARK SMILES IDX 68 114 69 115
REMARK H PARENT 12 12 15 14 1 30 1 31 93 65 59 76
REMARK Flexibility Score: inf
ROOT
ATOM      1  C   UNL     1       5.012   2.318   0.343  1.00  0.00     0.001 C 
ENDROOT
BRANCH   1   2
ATOM      2  C   UNL     1       5.952   1.776  -0.728  1.00  0.00     0.000 C 
BRANCH   2   3
ATOM      3  C   UNL     1       5.192   1.115  -1.873  1.00  0.00     0.000 C 
BRANCH   3   4
ATOM      4  C   UNL     1       4.318   2.097  -2.654  1.00  0.00     0.000 C 
BRANCH   4   5
ATOM      5  C   UNL     1       5.073   3.323  -3.184  1.00  0.00     0.000 C 
BRANCH   5   6
ATOM      6  C   UNL     1       6.284   2.988  -4.066  1.00  0.00     0.002 C 
BRANCH   6   7
ATOM      7  C   UNL     1       5.993   2.023  -5.213  1.00  0.00     0.021 C 
BRANCH   7   8
ATOM      8  C   UNL     1       4.814   2.418  -6.084  1.00  0.00     0.117 C 
BRANCH   8   9
ATOM      9  N   UNL     1       5.053   3.551  -6.950  1.00  0.00    -0.338 N 
ATOM     10  N   UNL     1       3.649   3.010  -8.791  1.00  0.00    -0.291 N 
ATOM     11  C   UNL     1       4.565   3.802  -8.186  1.00  0.00     0.320 C 
ATOM     12  H   UNL     1       3.647   3.063  -9.774  1.00  0.00     0.173 HD
ATOM     13  O   UNL     1       5.075   4.721  -8.835  1.00  0.00    -0.248 OA
ATOM     14  H   UNL     1       5.658   4.239  -6.588  1.00  0.00     0.165 HD
BRANCH  10  15
ATOM     15  C   UNL     1       2.719   2.144  -8.263  1.00  0.00     0.157 A 
ATOM     16  N   UNL     1       1.677   0.992  -6.824  1.00  0.00    -0.231 N 
ATOM     17  N   UNL     1       2.207   2.215  -7.034  1.00  0.00    -0.149 NA
ATOM     18  C   UNL     1       1.437   0.338  -8.028  1.00  0.00     0.076 A 
ATOM     19  C   UNL     1       2.149   1.061  -8.969  1.00  0.00     0.078 A 
BRANCH  16  20
ATOM     20  C   UNL     1       1.523   0.493  -5.500  1.00  0.00     0.065 A 
ATOM     21  C   UNL     1       1.018  -0.542  -2.965  1.00  0.00     0.082 A 
ATOM     22  C   UNL     1       1.536  -1.376  -3.957  1.00  0.00     0.024 A 
ATOM     23  C   UNL     1       0.819   0.822  -3.208  1.00  0.00     0.024 A 
ATOM     24  C   UNL     1       1.780  -0.860  -5.228  1.00  0.00     0.030 A 
ATOM     25  C   UNL     1       1.099   1.349  -4.475  1.00  0.00     0.030 A 
BRANCH  21  26
ATOM     26  S   UNL     1       0.550  -1.252  -1.413  1.00  0.00     0.238 S 
ATOM     27  O   UNL     1       1.325  -2.465  -1.214  1.00  0.00    -0.207 OA
ATOM     28  O   UNL     1      -0.881  -1.226  -1.319  1.00  0.00    -0.207 OA
BRANCH  26  29
ATOM     29  N   UNL     1       1.143  -0.170  -0.281  1.00  0.00    -0.225 NA
ATOM     30  H   UNL     1       0.917  -0.501   0.657  1.00  0.00     0.137 HD
ATOM     31  H   UNL     1       0.717   0.745  -0.430  1.00  0.00     0.137 HD
ENDBRANCH  26  29
ENDBRANCH  21  26
ENDBRANCH  16  20
BRANCH  18  32
ATOM     32  C   UNL     1       0.587  -0.845  -8.161  1.00  0.00     0.000 A 
ATOM     33  C   UNL     1      -0.648  -0.889  -7.495  1.00  0.00     0.010 A 
ATOM     34  C   UNL     1       1.002  -1.959  -8.897  1.00  0.00     0.010 A 
ATOM     35  C   UNL     1      -1.432  -2.041  -7.520  1.00  0.00     0.001 A 
ATOM     36  C   UNL     1       0.208  -3.109  -8.933  1.00  0.00     0.001 A 
ATOM     37  C   UNL     1      -1.001  -3.152  -8.238  1.00  0.00     0.000 A 
ENDBRANCH  18  32
ENDBRANCH  10  15
ENDBRANCH   8   9
ENDBRANCH   7   8
ENDBRANCH   6   7
ENDBRANCH   5   6
ENDBRANCH   4   5
ENDBRANCH   3   4
ENDBRANCH   2   3
ENDBRANCH   1   2
BRANCH   1  38
ATOM     38  C   UNL     1       4.354   1.200   1.151  1.00  0.00     0.012 C 
BRANCH  38  39
ATOM     39  C   UNL     1       5.290   0.167   1.789  1.00  0.00     0.123 C 
BRANCH  39  40
ATOM     40  C   UNL     1       6.425   0.650   2.675  1.00  0.00     0.305 C 
ATOM     41  O   UNL     1       6.772   0.050   3.686  1.00  0.00    -0.252 OA
BRANCH  40  42
ATOM     42  O   UNL     1       7.030   1.770   2.204  1.00  0.00    -0.462 OA
BRANCH  42  43
ATOM     43  C   UNL     1       7.930   2.477   3.081  1.00  0.00     0.274 C 
BRANCH  43  44
ATOM     44  C   UNL     1       7.179   3.492   3.937  1.00  0.00     0.275 C 
BRANCH  44  45
ATOM     45  O   UNL     1       6.266   2.788   4.772  1.00  0.00    -0.458 OA
BRANCH  45  46
ATOM     46  C   UNL     1       5.008   2.720   4.284  1.00  0.00     0.338 C 
ATOM     47  O   UNL     1       4.593   3.257   3.272  1.00  0.00    -0.246 OA
BRANCH  46  48
ATOM     48  C   UNL     1       4.143   1.993   5.220  1.00  0.00     0.060 A 
ATOM     49  C   UNL     1       2.820   1.804   4.800  1.00  0.00     0.016 A 
ATOM     50  C   UNL     1       4.494   2.104   6.564  1.00  0.00     0.016 A 
ATOM     51  C   UNL     1       1.821   2.140   5.680  1.00  0.00     0.010 A 
ATOM     52  C   UNL     1       3.504   2.476   7.426  1.00  0.00     0.010 A 
ATOM     53  C   UNL     1       2.206   2.613   6.931  1.00  0.00    -0.014 A 
BRANCH  53  54
ATOM     54  C   UNL     1       1.228   3.254   7.777  1.00  0.00     0.031 A 
ATOM     55  C   UNL     1       0.486   2.265   8.582  1.00  0.00     0.074 A 
ATOM     56  C   UNL     1       1.203   4.594   7.917  1.00  0.00     0.049 A 
ATOM     57  N   UNL     1      -0.725   1.849   8.415  1.00  0.00    -0.248 NA
ATOM     58  C   UNL     1       1.280   1.440   9.513  1.00  0.00     0.031 C 
ATOM     59  C   UNL     1       2.113   5.593   7.342  1.00  0.00     0.029 A 
ATOM     60  N   UNL     1       0.396   5.346   8.710  1.00  0.00    -0.354 N 
ATOM     61  C   UNL     1      -0.900   0.899   9.413  1.00  0.00     0.074 A 
ATOM     62  C   UNL     1       0.414   0.472   9.805  1.00  0.00     0.031 C 
ATOM     63  C   UNL     1       1.944   6.776   7.982  1.00  0.00     0.029 A 
ATOM     64  C   UNL     1       0.838   6.652   8.913  1.00  0.00     0.049 A 
ATOM     65  H   UNL     1      -0.433   4.996   9.108  1.00  0.00     0.167 HD
ATOM     66  C   UNL     1      -2.062   0.815  10.115  1.00  0.00     0.037 A 
ATOM     67  C   UNL     1       0.354   7.505   9.855  1.00  0.00     0.037 A 
ATOM     68  C   UNL     1      -3.127   1.516   9.446  1.00  0.00     0.049 A 
ATOM     69  C   UNL     1      -0.979   6.974  10.256  1.00  0.00     0.074 A 
ATOM     70  C   UNL     1      -3.768   1.388   8.230  1.00  0.00     0.029 A 
ATOM     71  N   UNL     1      -3.402   2.785   9.894  1.00  0.00    -0.354 N 
ATOM     72  N   UNL     1      -2.001   6.903   9.444  1.00  0.00    -0.248 NA
ATOM     73  C   UNL     1      -1.036   6.080  11.403  1.00  0.00     0.031 C 
ATOM     74  C   UNL     1      -4.049   2.722   7.811  1.00  0.00     0.029 A 
ATOM     75  C   UNL     1      -3.620   3.597   8.810  1.00  0.00     0.049 A 
ATOM     76  H   UNL     1      -3.438   3.066  10.837  1.00  0.00     0.167 HD
ATOM     77  C   UNL     1      -2.617   5.693   9.742  1.00  0.00     0.074 A 
ATOM     78  C   UNL     1      -2.028   5.274  11.012  1.00  0.00     0.031 C 
ATOM     79  C   UNL     1      -3.324   5.016   8.788  1.00  0.00     0.037 A 
BRANCH  66  80
ATOM     80  C   UNL     1      -2.109   0.475  11.586  1.00  0.00     0.058 A 
ATOM     81  C   UNL     1      -3.343   0.146  12.173  1.00  0.00     0.135 A 
ATOM     82  C   UNL     1      -1.045   0.701  12.494  1.00  0.00     0.135 A 
ATOM     83  F   UNL     1      -4.425  -0.064  11.407  1.00  0.00    -0.206 F 
ATOM     84  C   UNL     1      -3.517   0.093  13.557  1.00  0.00     0.059 A 
ATOM     85  C   UNL     1      -1.179   0.586  13.869  1.00  0.00     0.059 A 
ATOM     86  F   UNL     1       0.157   1.146  12.109  1.00  0.00    -0.206 F 
ATOM     87  C   UNL     1      -2.429   0.324  14.395  1.00  0.00     0.060 A 
BRANCH  87  88
ATOM     88  S   UNL     1      -2.664   0.357  16.178  1.00  0.00     0.124 S 
ATOM     89  O   UNL     1      -3.462   1.567  16.341  1.00  0.00    -0.237 OA
ATOM     90  O   UNL     1      -3.354  -0.906  16.414  1.00  0.00    -0.237 OA
ATOM     91  O   UNL     1      -1.300   0.426  16.696  1.00  0.00    -0.744 OA
ENDBRANCH  87  88
ENDBRANCH  66  80
BRANCH  67  92
ATOM     92  C   UNL     1       1.121   8.460  10.703  1.00  0.00     0.058 A 
ATOM     93  C   UNL     1       0.482   9.473  11.443  1.00  0.00     0.135 A 
ATOM     94  C   UNL     1       2.471   8.218  11.030  1.00  0.00     0.135 A 
ATOM     95  F   UNL     1      -0.812   9.751  11.223  1.00  0.00    -0.206 F 
ATOM     96  C   UNL     1       1.131  10.179  12.467  1.00  0.00     0.059 A 
ATOM     97  C   UNL     1       3.140   8.910  12.041  1.00  0.00     0.059 A 
ATOM     98  F   UNL     1       3.157   7.231  10.435  1.00  0.00    -0.206 F 
ATOM     99  C   UNL     1       2.459   9.877  12.770  1.00  0.00     0.060 A 
BRANCH  99 100
ATOM    100  S   UNL     1       3.259  10.672  14.187  1.00  0.00     0.124 S 
ATOM    101  O   UNL     1       3.387  12.051  13.728  1.00  0.00    -0.237 OA
ATOM    102  O   UNL     1       2.294  10.444  15.257  1.00  0.00    -0.237 OA
ATOM    103  O   UNL     1       4.517   9.941  14.320  1.00  0.00    -0.744 OA
ENDBRANCH  99 100
ENDBRANCH  67  92
BRANCH  79 104
ATOM    104  C   UNL     1      -3.649   5.752   7.510  1.00  0.00     0.058 A 
ATOM    105  C   UNL     1      -2.699   6.105   6.533  1.00  0.00     0.135 A 
ATOM    106  C   UNL     1      -4.996   5.972   7.195  1.00  0.00     0.135 A 
ATOM    107  F   UNL     1      -1.399   5.840   6.715  1.00  0.00    -0.206 F 
ATOM    108  C   UNL     1      -3.069   6.677   5.313  1.00  0.00     0.059 A 
ATOM    109  C   UNL     1      -5.392   6.514   5.975  1.00  0.00     0.059 A 
ATOM    110  F   UNL     1      -5.955   5.600   8.059  1.00  0.00    -0.206 F 
ATOM    111  C   UNL     1      -4.422   6.874   5.041  1.00  0.00     0.060 A 
BRANCH 111 112
ATOM    112  S   UNL     1      -4.912   7.529   3.429  1.00  0.00     0.124 S 
ATOM    113  O   UNL     1      -4.491   8.923   3.523  1.00  0.00    -0.237 OA
ATOM    114  O   UNL     1      -4.147   6.697   2.503  1.00  0.00    -0.237 OA
ATOM    115  O   UNL     1      -6.356   7.313   3.398  1.00  0.00    -0.744 OA
ENDBRANCH 111 112
ENDBRANCH  79 104
ENDBRANCH  53  54
ENDBRANCH  46  48
ENDBRANCH  45  46
ENDBRANCH  44  45
ENDBRANCH  43  44
ENDBRANCH  42  43
ENDBRANCH  40  42
ENDBRANCH  39  40
ENDBRANCH  38  39
ENDBRANCH   1  38
TORSDOF 29
