REMARK SMILES [NH3+][C@H]1COC[C@@H]1C(=O)NC1(CC(=O)OCCOC(=O)c2ccc(-c3c4nc(c(-c5c(F)cc(S(=O)(=O)[O-])cc5F)c5ccc([nH]5)c(-c5c(F)cc(S(=O)(=O)[O-])cc5F)c5nc(c(-c6c(F)cc(S(=O)(=O)[O-])cc6F)c6ccc3[nH]6)C=C5)C=C4)cc2)CCC1
REMARK SMILES IDX 15 1 14 2 12 3 13 4 11 5 10 6 86 7 88 8 87 9 9 10 7 11 8 12
REMARK SMILES IDX 6 14 2 15 3 16 4 17 5 18 1 19 16 23 17 24 18 25 19 26 20 27
REMARK SMILES IDX 21 28 85 29 22 30 84 31 23 32 24 33 25 34 78 35 26 36 83 37
REMARK SMILES IDX 77 38 79 39 27 40 82 41 76 42 75 43 28 45 62 46 41 47 61 48
REMARK SMILES IDX 42 49 45 50 60 51 80 52 43 53 44 54 59 56 81 57 46 58 29 59
REMARK SMILES IDX 30 60 39 61 31 62 32 63 38 64 40 65 33 66 34 67 35 68 36 69
REMARK SMILES IDX 37 70 63 71 64 72 73 73 65 74 66 75 72 76 74 77 67 78 68 79
REMARK SMILES IDX 69 80 70 81 71 82 47 83 48 84 57 85 49 86 50 87 56 88 58 89
REMARK SMILES IDX 51 90 52 91 53 92 54 93 55 94
REMARK H PARENT 9 13 1 20 1 21 1 22 79 44 45 55
REMARK Flexibility Score: inf
ROOT
ATOM      1  C   UNL     1       6.859  -0.668  -1.057  1.00  0.00     0.274 C 
ENDROOT
BRANCH   1   2
ATOM      2  O   UNL     1       5.895  -1.736  -1.170  1.00  0.00    -0.462 OA
BRANCH   2   3
ATOM      3  C   UNL     1       6.384  -2.988  -1.000  1.00  0.00     0.308 C 
ATOM      4  O   UNL     1       7.557  -3.249  -0.755  1.00  0.00    -0.252 OA
BRANCH   3   5
ATOM      5  C   UNL     1       5.365  -4.082  -1.171  1.00  0.00     0.151 C 
BRANCH   5   6
ATOM      6  C   UNL     1       3.865  -3.735  -1.239  1.00  0.00     0.050 C 
ATOM      7  C   UNL     1       3.078  -4.991  -1.715  1.00  0.00     0.029 C 
ATOM      8  C   UNL     1       3.429  -3.014  -2.536  1.00  0.00     0.029 C 
ATOM      9  C   UNL     1       3.008  -4.376  -3.123  1.00  0.00     0.005 C 
BRANCH   6  10
ATOM     10  N   UNL     1       3.388  -3.172   0.046  1.00  0.00    -0.350 N 
ATOM     11  C   UNL     1       2.155  -2.904   0.573  1.00  0.00     0.232 C 
ATOM     12  O   UNL     1       2.105  -2.618   1.772  1.00  0.00    -0.274 OA
ATOM     13  H   UNL     1       4.123  -2.938   0.657  1.00  0.00     0.164 HD
BRANCH  11  14
ATOM     14  C   UNL     1       0.898  -2.920  -0.273  1.00  0.00     0.164 C 
ATOM     15  C   UNL     1       0.284  -1.522  -0.291  1.00  0.00     0.221 C 
ATOM     16  C   UNL     1      -0.697  -1.593   0.880  1.00  0.00     0.225 C 
ATOM     17  O   UNL     1      -1.232  -2.925   0.832  1.00  0.00    -0.374 OA
ATOM     18  C   UNL     1      -0.176  -3.787   0.375  1.00  0.00     0.180 C 
BRANCH  15  19
ATOM     19  N   UNL     1      -0.456  -1.274  -1.549  1.00  0.00    -0.352 N 
ATOM     20  H   UNL     1      -0.854  -0.335  -1.531  1.00  0.00     0.344 HD
ATOM     21  H   UNL     1      -1.207  -1.959  -1.642  1.00  0.00     0.344 HD
ATOM     22  H   UNL     1       0.181  -1.358  -2.341  1.00  0.00     0.344 HD
ENDBRANCH  15  19
ENDBRANCH  11  14
ENDBRANCH   6  10
ENDBRANCH   5   6
ENDBRANCH   3   5
ENDBRANCH   2   3
ENDBRANCH   1   2
BRANCH   1  23
ATOM     23  C   UNL     1       6.727   0.085   0.267  1.00  0.00     0.275 C 
BRANCH  23  24
ATOM     24  O   UNL     1       6.930  -0.787   1.393  1.00  0.00    -0.458 OA
BRANCH  24  25
ATOM     25  C   UNL     1       5.789  -1.231   1.968  1.00  0.00     0.338 C 
ATOM     26  O   UNL     1       4.649  -0.970   1.629  1.00  0.00    -0.246 OA
BRANCH  25  27
ATOM     27  C   UNL     1       6.102  -2.212   3.013  1.00  0.00     0.060 A 
ATOM     28  C   UNL     1       6.236  -3.554   2.652  1.00  0.00     0.016 A 
ATOM     29  C   UNL     1       6.163  -1.824   4.351  1.00  0.00     0.016 A 
ATOM     30  C   UNL     1       6.428  -4.521   3.632  1.00  0.00     0.010 A 
ATOM     31  C   UNL     1       6.402  -2.792   5.330  1.00  0.00     0.010 A 
ATOM     32  C   UNL     1       6.536  -4.146   4.978  1.00  0.00    -0.014 A 
BRANCH  32  33
ATOM     33  C   UNL     1       6.842  -5.166   6.009  1.00  0.00     0.031 A 
ATOM     34  C   UNL     1       5.817  -5.549   7.036  1.00  0.00     0.074 A 
ATOM     35  C   UNL     1       8.063  -5.735   6.023  1.00  0.00     0.049 A 
ATOM     36  N   UNL     1       5.954  -6.311   8.089  1.00  0.00    -0.248 NA
ATOM     37  C   UNL     1       4.464  -5.002   6.857  1.00  0.00     0.031 C 
ATOM     38  C   UNL     1       9.129  -5.468   5.054  1.00  0.00     0.029 A 
ATOM     39  N   UNL     1       8.618  -6.645   6.886  1.00  0.00    -0.354 N 
ATOM     40  C   UNL     1       4.715  -6.318   8.716  1.00  0.00     0.074 A 
ATOM     41  C   UNL     1       3.838  -5.479   7.925  1.00  0.00     0.031 C 
ATOM     42  C   UNL     1      10.206  -6.201   5.373  1.00  0.00     0.029 A 
ATOM     43  C   UNL     1       9.930  -6.939   6.601  1.00  0.00     0.049 A 
ATOM     44  H   UNL     1       8.124  -7.049   7.635  1.00  0.00     0.167 HD
ATOM     45  C   UNL     1       4.348  -6.965   9.848  1.00  0.00     0.037 A 
ATOM     46  C   UNL     1      10.826  -7.682   7.277  1.00  0.00     0.037 A 
ATOM     47  C   UNL     1       5.223  -7.812  10.618  1.00  0.00     0.049 A 
ATOM     48  C   UNL     1      10.417  -8.329   8.567  1.00  0.00     0.074 A 
ATOM     49  C   UNL     1       4.935  -8.541  11.759  1.00  0.00     0.029 A 
ATOM     50  N   UNL     1       6.560  -8.040  10.327  1.00  0.00    -0.354 N 
ATOM     51  N   UNL     1       9.246  -8.315   9.158  1.00  0.00    -0.248 NA
ATOM     52  C   UNL     1      11.454  -9.072   9.295  1.00  0.00     0.031 C 
ATOM     53  C   UNL     1       6.107  -9.182  12.178  1.00  0.00     0.029 A 
ATOM     54  C   UNL     1       7.119  -8.875  11.282  1.00  0.00     0.049 A 
ATOM     55  H   UNL     1       7.042  -7.664   9.556  1.00  0.00     0.167 HD
ATOM     56  C   UNL     1       9.405  -9.041  10.331  1.00  0.00     0.074 A 
ATOM     57  C   UNL     1      10.781  -9.499  10.356  1.00  0.00     0.031 C 
ATOM     58  C   UNL     1       8.496  -9.300  11.302  1.00  0.00     0.037 A 
BRANCH  45  59
ATOM     59  C   UNL     1       2.945  -6.756  10.340  1.00  0.00     0.058 A 
ATOM     60  C   UNL     1       1.849  -7.389   9.736  1.00  0.00     0.135 A 
ATOM     61  C   UNL     1       2.698  -5.930  11.448  1.00  0.00     0.135 A 
ATOM     62  F   UNL     1       2.030  -8.178   8.665  1.00  0.00    -0.206 F 
ATOM     63  C   UNL     1       0.551  -7.193  10.199  1.00  0.00     0.059 A 
ATOM     64  C   UNL     1       1.411  -5.733  11.940  1.00  0.00     0.059 A 
ATOM     65  F   UNL     1       3.713  -5.301  12.061  1.00  0.00    -0.206 F 
ATOM     66  C   UNL     1       0.342  -6.358  11.299  1.00  0.00     0.060 A 
BRANCH  66  67
ATOM     67  S   UNL     1      -1.345  -6.107  11.893  1.00  0.00     0.124 S 
ATOM     68  O   UNL     1      -1.858  -5.152  10.917  1.00  0.00    -0.237 OA
ATOM     69  O   UNL     1      -1.910  -7.451  11.820  1.00  0.00    -0.237 OA
ATOM     70  O   UNL     1      -1.154  -5.586  13.243  1.00  0.00    -0.744 OA
ENDBRANCH  66  67
ENDBRANCH  45  59
BRANCH  46  71
ATOM     71  C   UNL     1      12.212  -7.803   6.760  1.00  0.00     0.058 A 
ATOM     72  C   UNL     1      12.657  -8.990   6.163  1.00  0.00     0.135 A 
ATOM     73  C   UNL     1      13.100  -6.717   6.809  1.00  0.00     0.135 A 
ATOM     74  F   UNL     1      11.844 -10.056   6.103  1.00  0.00    -0.206 F 
ATOM     75  C   UNL     1      13.934  -9.096   5.624  1.00  0.00     0.059 A 
ATOM     76  C   UNL     1      14.375  -6.793   6.259  1.00  0.00     0.059 A 
ATOM     77  F   UNL     1      12.714  -5.557   7.361  1.00  0.00    -0.206 F 
ATOM     78  C   UNL     1      14.784  -7.989   5.671  1.00  0.00     0.060 A 
BRANCH  78  79
ATOM     79  S   UNL     1      16.410  -8.102   4.892  1.00  0.00     0.124 S 
ATOM     80  O   UNL     1      17.170  -8.825   5.905  1.00  0.00    -0.237 OA
ATOM     81  O   UNL     1      16.118  -8.839   3.666  1.00  0.00    -0.237 OA
ATOM     82  O   UNL     1      16.783  -6.704   4.697  1.00  0.00    -0.744 OA
ENDBRANCH  78  79
ENDBRANCH  46  71
BRANCH  58  83
ATOM     83  C   UNL     1       8.967 -10.105  12.477  1.00  0.00     0.058 A 
ATOM     84  C   UNL     1       9.735  -9.520  13.495  1.00  0.00     0.135 A 
ATOM     85  C   UNL     1       8.623 -11.459  12.604  1.00  0.00     0.135 A 
ATOM     86  F   UNL     1      10.098  -8.231  13.412  1.00  0.00    -0.206 F 
ATOM     87  C   UNL     1      10.159 -10.256  14.597  1.00  0.00     0.059 A 
ATOM     88  C   UNL     1       9.021 -12.210  13.705  1.00  0.00     0.059 A 
ATOM     89  F   UNL     1       7.886 -12.061  11.657  1.00  0.00    -0.206 F 
ATOM     90  C   UNL     1       9.798 -11.602  14.692  1.00  0.00     0.060 A 
BRANCH  90  91
ATOM     91  S   UNL     1      10.326 -12.543  16.139  1.00  0.00     0.124 S 
ATOM     92  O   UNL     1      11.718 -12.832  15.809  1.00  0.00    -0.237 OA
ATOM     93  O   UNL     1      10.117 -11.595  17.228  1.00  0.00    -0.237 OA
ATOM     94  O   UNL     1       9.428 -13.694  16.139  1.00  0.00    -0.744 OA
ENDBRANCH  90  91
ENDBRANCH  58  83
ENDBRANCH  32  33
ENDBRANCH  25  27
ENDBRANCH  24  25
ENDBRANCH  23  24
ENDBRANCH   1  23
TORSDOF 18
