REMARK SMILES CCc1ncc(C[N@H+]2CCC[C@@H](c3cccc(C(=O)OCCOC(=O)c4ccc(-c5c6nc(c(-c7c(F)cc(S(=O)(=O)[O-])cc7F)c7ccc([nH]7)c(-c7c(F)cc(S(=O)(=O)[O-])cc7F)c7nc(c(-c8c(F)cc(S(=O)(=O)[O-])cc8F)c8ccc5[nH]8)C=C7)C=C6)cc4)c3)C2)cn1
REMARK SMILES IDX 21 1 20 2 18 3 19 4 17 5 13 6 14 7 92 8 15 9 16 10 12 11
REMARK SMILES IDX 8 12 9 13 93 14 10 16 11 17 7 18 6 19 3 20 4 21 95 22 5 23
REMARK SMILES IDX 94 24 2 25 1 26 22 27 23 28 24 29 25 30 26 31 27 32 91 33
REMARK SMILES IDX 28 34 90 35 29 36 30 37 31 38 84 39 32 40 89 41 83 42 85 43
REMARK SMILES IDX 33 44 88 45 82 46 81 47 34 49 68 50 47 51 67 52 48 53 51 54
REMARK SMILES IDX 66 55 86 56 49 57 50 58 65 60 87 61 52 62 35 63 36 64 45 65
REMARK SMILES IDX 37 66 38 67 44 68 46 69 39 70 40 71 41 72 42 73 43 74 69 75
REMARK SMILES IDX 70 76 79 77 71 78 72 79 78 80 80 81 73 82 74 83 75 84 76 85
REMARK SMILES IDX 77 86 53 87 54 88 63 89 55 90 56 91 62 92 64 93 57 94 58 95
REMARK SMILES IDX 59 96 60 97 61 98
REMARK H PARENT 8 15 85 48 51 59
REMARK Flexibility Score: inf
ROOT
ATOM      1  C   UNL     1       0.182 -12.500   1.186  1.00  0.00     0.275 C 
ENDROOT
BRANCH   1   2
ATOM      2  O   UNL     1       0.624 -11.159   0.899  1.00  0.00    -0.458 OA
BRANCH   2   3
ATOM      3  C   UNL     1      -0.258 -10.168   1.193  1.00  0.00     0.338 C 
ATOM      4  O   UNL     1      -1.395 -10.305   1.598  1.00  0.00    -0.246 OA
BRANCH   3   5
ATOM      5  C   UNL     1       0.405  -8.845   1.065  1.00  0.00     0.060 A 
ATOM      6  C   UNL     1       2.021  -7.347   0.050  1.00  0.00    -0.038 A 
ATOM      7  C   UNL     1       1.645  -6.351   0.970  1.00  0.00     0.004 A 
ATOM      8  C   UNL     1       1.426  -8.615   0.138  1.00  0.00     0.020 A 
ATOM      9  C   UNL     1       0.614  -6.571   1.876  1.00  0.00     0.001 A 
ATOM     10  C   UNL     1      -0.037  -7.799   1.886  1.00  0.00     0.016 A 
BRANCH   6  11
ATOM     11  C   UNL     1       2.907  -7.010  -1.140  1.00  0.00     0.074 C 
ATOM     12  N   UNL     1       2.876  -5.534  -3.195  1.00  0.00    -0.331 N 
ATOM     13  C   UNL     1       4.151  -4.936  -2.785  1.00  0.00     0.262 C 
ATOM     14  C   UNL     1       2.121  -6.026  -2.036  1.00  0.00     0.270 C 
ATOM     15  H   UNL     1       3.113  -6.335  -3.781  1.00  0.00     0.348 HD
ATOM     16  C   UNL     1       5.005  -5.936  -1.999  1.00  0.00     0.062 C 
ATOM     17  C   UNL     1       4.273  -6.433  -0.753  1.00  0.00     0.020 C 
BRANCH  12  18
ATOM     18  C   UNL     1       2.057  -4.648  -4.048  1.00  0.00     0.302 C 
BRANCH  18  19
ATOM     19  C   UNL     1       1.595  -3.354  -3.439  1.00  0.00     0.043 A 
ATOM     20  C   UNL     1       0.851  -1.039  -2.216  1.00  0.00     0.127 A 
ATOM     21  N   UNL     1       1.957  -1.015  -2.984  1.00  0.00    -0.241 NA
ATOM     22  N   UNL     1       0.068  -2.120  -2.042  1.00  0.00    -0.241 NA
ATOM     23  C   UNL     1       2.298  -2.176  -3.579  1.00  0.00     0.124 A 
ATOM     24  C   UNL     1       0.458  -3.250  -2.663  1.00  0.00     0.124 A 
BRANCH  20  25
ATOM     25  C   UNL     1       0.504   0.203  -1.444  1.00  0.00     0.074 C 
ATOM     26  C   UNL     1       1.069   0.145  -0.033  1.00  0.00     0.012 C 
ENDBRANCH  20  25
ENDBRANCH  18  19
ENDBRANCH  12  18
ENDBRANCH   6  11
ENDBRANCH   3   5
ENDBRANCH   2   3
ENDBRANCH   1   2
BRANCH   1  27
ATOM     27  C   UNL     1       0.854 -13.022   2.455  1.00  0.00     0.275 C 
BRANCH  27  28
ATOM     28  O   UNL     1       0.383 -12.284   3.597  1.00  0.00    -0.458 OA
BRANCH  28  29
ATOM     29  C   UNL     1       1.307 -11.532   4.237  1.00  0.00     0.338 C 
ATOM     30  O   UNL     1       2.499 -11.452   3.997  1.00  0.00    -0.246 OA
BRANCH  29  31
ATOM     31  C   UNL     1       0.644 -10.749   5.292  1.00  0.00     0.060 A 
ATOM     32  C   UNL     1      -0.157  -9.674   4.921  1.00  0.00     0.016 A 
ATOM     33  C   UNL     1       0.899 -10.999   6.636  1.00  0.00     0.016 A 
ATOM     34  C   UNL     1      -0.643  -8.789   5.880  1.00  0.00     0.010 A 
ATOM     35  C   UNL     1       0.330 -10.166   7.607  1.00  0.00     0.010 A 
ATOM     36  C   UNL     1      -0.423  -9.032   7.241  1.00  0.00    -0.014 A 
BRANCH  36  37
ATOM     37  C   UNL     1      -0.944  -8.097   8.279  1.00  0.00     0.031 A 
ATOM     38  C   UNL     1       0.011  -7.444   9.246  1.00  0.00     0.074 A 
ATOM     39  C   UNL     1      -2.263  -7.831   8.370  1.00  0.00     0.049 A 
ATOM     40  N   UNL     1      -0.245  -6.796  10.353  1.00  0.00    -0.248 NA
ATOM     41  C   UNL     1       1.445  -7.547   8.931  1.00  0.00     0.031 C 
ATOM     42  C   UNL     1      -3.298  -8.341   7.468  1.00  0.00     0.029 A 
ATOM     43  N   UNL     1      -2.965  -7.068   9.274  1.00  0.00    -0.354 N 
ATOM     44  C   UNL     1       0.992  -6.472  10.899  1.00  0.00     0.074 A 
ATOM     45  C   UNL     1       1.999  -6.990   9.999  1.00  0.00     0.031 C 
ATOM     46  C   UNL     1      -4.492  -7.861   7.847  1.00  0.00     0.029 A 
ATOM     47  C   UNL     1      -4.326  -7.089   9.073  1.00  0.00     0.049 A 
ATOM     48  H   UNL     1      -2.534  -6.556   9.995  1.00  0.00     0.167 HD
ATOM     49  C   UNL     1       1.260  -5.807  12.049  1.00  0.00     0.037 A 
ATOM     50  C   UNL     1      -5.335  -6.594   9.817  1.00  0.00     0.037 A 
ATOM     51  C   UNL     1       0.251  -5.243  12.909  1.00  0.00     0.049 A 
ATOM     52  C   UNL     1      -5.019  -5.893  11.109  1.00  0.00     0.074 A 
ATOM     53  C   UNL     1       0.420  -4.539  14.088  1.00  0.00     0.029 A 
ATOM     54  N   UNL     1      -1.115  -5.304  12.672  1.00  0.00    -0.354 N 
ATOM     55  N   UNL     1      -3.848  -5.650  11.646  1.00  0.00    -0.248 NA
ATOM     56  C   UNL     1      -6.158  -5.420  11.907  1.00  0.00     0.031 C 
ATOM     57  C   UNL     1      -0.845  -4.204  14.583  1.00  0.00     0.029 A 
ATOM     58  C   UNL     1      -1.800  -4.661  13.690  1.00  0.00     0.049 A 
ATOM     59  H   UNL     1      -1.535  -5.740  11.896  1.00  0.00     0.167 HD
ATOM     60  C   UNL     1      -4.108  -4.982  12.838  1.00  0.00     0.074 A 
ATOM     61  C   UNL     1      -5.547  -4.850  12.938  1.00  0.00     0.031 C 
ATOM     62  C   UNL     1      -3.233  -4.524  13.766  1.00  0.00     0.037 A 
BRANCH  49  63
ATOM     63  C   UNL     1       2.699  -5.684  12.470  1.00  0.00     0.058 A 
ATOM     64  C   UNL     1       3.596  -4.820  11.822  1.00  0.00     0.135 A 
ATOM     65  C   UNL     1       3.178  -6.420  13.567  1.00  0.00     0.135 A 
ATOM     66  F   UNL     1       3.197  -4.105  10.759  1.00  0.00    -0.206 F 
ATOM     67  C   UNL     1       4.922  -4.710  12.230  1.00  0.00     0.059 A 
ATOM     68  C   UNL     1       4.493  -6.306  14.009  1.00  0.00     0.059 A 
ATOM     69  F   UNL     1       2.362  -7.260  14.224  1.00  0.00    -0.206 F 
ATOM     70  C   UNL     1       5.362  -5.460  13.323  1.00  0.00     0.060 A 
BRANCH  70  71
ATOM     71  S   UNL     1       7.085  -5.309  13.842  1.00  0.00     0.124 S 
ATOM     72  O   UNL     1       7.770  -6.066  12.798  1.00  0.00    -0.237 OA
ATOM     73  O   UNL     1       7.295  -3.865  13.817  1.00  0.00    -0.237 OA
ATOM     74  O   UNL     1       7.096  -5.918  15.168  1.00  0.00    -0.744 OA
ENDBRANCH  70  71
ENDBRANCH  49  63
BRANCH  50  75
ATOM     75  C   UNL     1      -6.744  -6.795   9.381  1.00  0.00     0.058 A 
ATOM     76  C   UNL     1      -7.524  -5.720   8.934  1.00  0.00     0.135 A 
ATOM     77  C   UNL     1      -7.328  -8.072   9.377  1.00  0.00     0.135 A 
ATOM     78  F   UNL     1      -7.015  -4.478   8.932  1.00  0.00    -0.206 F 
ATOM     79  C   UNL     1      -8.834  -5.900   8.501  1.00  0.00     0.059 A 
ATOM     80  C   UNL     1      -8.626  -8.282   8.922  1.00  0.00     0.059 A 
ATOM     81  F   UNL     1      -6.621  -9.137   9.786  1.00  0.00    -0.206 F 
ATOM     82  C   UNL     1      -9.374  -7.188   8.494  1.00  0.00     0.060 A 
BRANCH  82  83
ATOM     83  S   UNL     1     -11.053  -7.424   7.870  1.00  0.00     0.124 S 
ATOM     84  O   UNL     1     -11.852  -6.922   8.982  1.00  0.00    -0.237 OA
ATOM     85  O   UNL     1     -11.052  -6.604   6.663  1.00  0.00    -0.237 OA
ATOM     86  O   UNL     1     -11.125  -8.864   7.639  1.00  0.00    -0.744 OA
ENDBRANCH  82  83
ENDBRANCH  50  75
BRANCH  62  87
ATOM     87  C   UNL     1      -3.797  -3.799  14.954  1.00  0.00     0.058 A 
ATOM     88  C   UNL     1      -4.408  -4.487  16.013  1.00  0.00     0.135 A 
ATOM     89  C   UNL     1      -3.653  -2.407  15.068  1.00  0.00     0.135 A 
ATOM     90  F   UNL     1      -4.578  -5.817  15.946  1.00  0.00    -0.206 F 
ATOM     91  C   UNL     1      -4.862  -3.817  17.144  1.00  0.00     0.059 A 
ATOM     92  C   UNL     1      -4.080  -1.720  16.199  1.00  0.00     0.059 A 
ATOM     93  F   UNL     1      -3.069  -1.706  14.083  1.00  0.00    -0.206 F 
ATOM     94  C   UNL     1      -4.688  -2.434  17.231  1.00  0.00     0.060 A 
BRANCH  94  95
ATOM     95  S   UNL     1      -5.224  -1.586  18.732  1.00  0.00     0.124 S 
ATOM     96  O   UNL     1      -6.673  -1.573  18.562  1.00  0.00    -0.237 OA
ATOM     97  O   UNL     1      -4.717  -2.461  19.785  1.00  0.00    -0.237 OA
ATOM     98  O   UNL     1      -4.569  -0.284  18.638  1.00  0.00    -0.744 OA
ENDBRANCH  94  95
ENDBRANCH  62  87
ENDBRANCH  36  37
ENDBRANCH  29  31
ENDBRANCH  28  29
ENDBRANCH  27  28
ENDBRANCH   1  27
TORSDOF 18
