REMARK SMILES O=C(OCCOC(=O)c1ccccc1Sc1ccc(S(=O)(=O)N2CCCC2)cc1[N+](=O)[O-])c1ccc(-c2c3nc(c(-c4c(F)cc(S(=O)(=O)[O-])cc4F)c4ccc([nH]4)c(-c4c(F)cc(S(=O)(=O)[O-])cc4F)c4nc(c(-c5c(F)cc(S(=O)(=O)[O-])cc5F)c5ccc2[nH]5)C=C4)C=C3)cc1
REMARK SMILES IDX 5 1 4 2 3 3 2 4 1 5 33 6 34 7 98 8 35 9 97 10 36 11 37 12
REMARK SMILES IDX 38 13 91 14 39 15 96 16 90 17 92 18 40 19 95 20 89 21 88 22
REMARK SMILES IDX 41 24 75 25 54 26 74 27 55 28 58 29 73 30 93 31 56 32 57 33
REMARK SMILES IDX 72 35 94 36 59 37 42 38 43 39 52 40 44 41 45 42 51 43 53 44
REMARK SMILES IDX 46 45 47 46 48 47 49 48 50 49 76 50 77 51 86 52 78 53 79 54
REMARK SMILES IDX 85 55 87 56 80 57 81 58 82 59 83 60 84 61 60 62 61 63 70 64
REMARK SMILES IDX 62 65 63 66 69 67 71 68 64 69 65 70 66 71 67 72 68 73 6 74
REMARK SMILES IDX 7 75 8 76 9 77 10 78 14 79 11 80 13 81 12 82 15 83 16 84
REMARK SMILES IDX 17 85 29 86 18 87 28 88 19 89 30 90 31 91 32 92 20 93 21 94
REMARK SMILES IDX 22 95 23 96 24 97 27 98 25 99 26 100
REMARK H PARENT 92 23 58 34
REMARK Flexibility Score: inf
ROOT
ATOM      1  C   UNL     1       3.478   0.990  -0.179  1.00  0.00     0.275 C 
ENDROOT
BRANCH   1   2
ATOM      2  C   UNL     1       3.622   0.465  -1.604  1.00  0.00     0.275 C 
BRANCH   2   3
ATOM      3  O   UNL     1       2.529  -0.370  -1.995  1.00  0.00    -0.458 OA
BRANCH   3   4
ATOM      4  C   UNL     1       2.200  -1.599  -1.538  1.00  0.00     0.338 C 
ATOM      5  O   UNL     1       1.061  -2.003  -1.776  1.00  0.00    -0.246 OA
BRANCH   4   6
ATOM      6  C   UNL     1       3.117  -2.499  -0.754  1.00  0.00     0.060 A 
ATOM      7  C   UNL     1       4.439  -2.231  -0.379  1.00  0.00     0.016 A 
ATOM      8  C   UNL     1       2.558  -3.719  -0.328  1.00  0.00     0.016 A 
ATOM      9  C   UNL     1       5.156  -3.099   0.436  1.00  0.00     0.010 A 
ATOM     10  C   UNL     1       3.280  -4.616   0.461  1.00  0.00     0.010 A 
ATOM     11  C   UNL     1       4.586  -4.302   0.837  1.00  0.00    -0.014 A 
BRANCH  11  12
ATOM     12  C   UNL     1       5.464  -5.294   1.476  1.00  0.00     0.031 A 
ATOM     13  C   UNL     1       6.184  -6.240   0.578  1.00  0.00     0.074 A 
ATOM     14  C   UNL     1       5.703  -5.244   2.796  1.00  0.00     0.049 A 
ATOM     15  N   UNL     1       7.029  -7.177   0.892  1.00  0.00    -0.248 NA
ATOM     16  C   UNL     1       5.956  -6.080  -0.870  1.00  0.00     0.031 C 
ATOM     17  C   UNL     1       5.145  -4.236   3.684  1.00  0.00     0.029 A 
ATOM     18  N   UNL     1       6.470  -6.014   3.623  1.00  0.00    -0.354 N 
ATOM     19  C   UNL     1       7.451  -7.707  -0.316  1.00  0.00     0.074 A 
ATOM     20  C   UNL     1       6.759  -7.004  -1.371  1.00  0.00     0.031 C 
ATOM     21  C   UNL     1       5.549  -4.460   4.943  1.00  0.00     0.029 A 
ATOM     22  C   UNL     1       6.385  -5.651   4.949  1.00  0.00     0.049 A 
ATOM     23  H   UNL     1       7.030  -6.758   3.302  1.00  0.00     0.167 HD
ATOM     24  C   UNL     1       8.345  -8.699  -0.510  1.00  0.00     0.037 A 
ATOM     25  C   UNL     1       6.910  -6.240   6.039  1.00  0.00     0.037 A 
ATOM     26  C   UNL     1       8.961  -9.411   0.574  1.00  0.00     0.049 A 
ATOM     27  C   UNL     1       7.780  -7.444   5.801  1.00  0.00     0.074 A 
ATOM     28  C   UNL     1       9.789 -10.514   0.525  1.00  0.00     0.029 A 
ATOM     29  N   UNL     1       8.796  -9.086   1.917  1.00  0.00    -0.354 N 
ATOM     30  N   UNL     1       8.131  -7.983   4.654  1.00  0.00    -0.248 NA
ATOM     31  C   UNL     1       8.328  -8.120   6.980  1.00  0.00     0.031 C 
ATOM     32  C   UNL     1      10.090 -10.882   1.841  1.00  0.00     0.029 A 
ATOM     33  C   UNL     1       9.491  -9.979   2.709  1.00  0.00     0.049 A 
ATOM     34  H   UNL     1       8.261  -8.331   2.253  1.00  0.00     0.167 HD
ATOM     35  C   UNL     1       8.956  -9.051   4.971  1.00  0.00     0.074 A 
ATOM     36  C   UNL     1       9.069  -9.066   6.418  1.00  0.00     0.031 C 
ATOM     37  C   UNL     1       9.563  -9.944   4.150  1.00  0.00     0.037 A 
BRANCH  24  38
ATOM     38  C   UNL     1       8.617  -9.090  -1.929  1.00  0.00     0.058 A 
ATOM     39  C   UNL     1       9.385  -8.280  -2.781  1.00  0.00     0.135 A 
ATOM     40  C   UNL     1       8.053 -10.258  -2.462  1.00  0.00     0.135 A 
ATOM     41  F   UNL     1       9.902  -7.124  -2.333  1.00  0.00    -0.206 F 
ATOM     42  C   UNL     1       9.576  -8.612  -4.118  1.00  0.00     0.059 A 
ATOM     43  C   UNL     1       8.248 -10.620  -3.791  1.00  0.00     0.059 A 
ATOM     44  F   UNL     1       7.282 -11.046  -1.696  1.00  0.00    -0.206 F 
ATOM     45  C   UNL     1       9.003  -9.784  -4.613  1.00  0.00     0.060 A 
BRANCH  45  46
ATOM     46  S   UNL     1       9.260 -10.203  -6.350  1.00  0.00     0.124 S 
ATOM     47  O   UNL     1       8.422  -9.211  -7.016  1.00  0.00    -0.237 OA
ATOM     48  O   UNL     1      10.700 -10.022  -6.502  1.00  0.00    -0.237 OA
ATOM     49  O   UNL     1       8.791 -11.582  -6.439  1.00  0.00    -0.744 OA
ENDBRANCH  45  46
ENDBRANCH  24  38
BRANCH  25  50
ATOM     50  C   UNL     1       6.600  -5.749   7.412  1.00  0.00     0.058 A 
ATOM     51  C   UNL     1       7.598  -5.248   8.261  1.00  0.00     0.135 A 
ATOM     52  C   UNL     1       5.290  -5.804   7.921  1.00  0.00     0.135 A 
ATOM     53  F   UNL     1       8.866  -5.167   7.829  1.00  0.00    -0.206 F 
ATOM     54  C   UNL     1       7.322  -4.862   9.571  1.00  0.00     0.059 A 
ATOM     55  C   UNL     1       4.984  -5.398   9.217  1.00  0.00     0.059 A 
ATOM     56  F   UNL     1       4.287  -6.255   7.152  1.00  0.00    -0.206 F 
ATOM     57  C   UNL     1       6.011  -4.949  10.043  1.00  0.00     0.060 A 
BRANCH  57  58
ATOM     58  S   UNL     1       5.665  -4.466  11.750  1.00  0.00     0.124 S 
ATOM     59  O   UNL     1       6.259  -5.571  12.493  1.00  0.00    -0.237 OA
ATOM     60  O   UNL     1       6.354  -3.183  11.853  1.00  0.00    -0.237 OA
ATOM     61  O   UNL     1       4.207  -4.392  11.788  1.00  0.00    -0.744 OA
ENDBRANCH  57  58
ENDBRANCH  25  50
BRANCH  37  62
ATOM     62  C   UNL     1      10.409 -10.986   4.815  1.00  0.00     0.058 A 
ATOM     63  C   UNL     1       9.835 -12.055   5.519  1.00  0.00     0.135 A 
ATOM     64  C   UNL     1      11.807 -10.929   4.713  1.00  0.00     0.135 A 
ATOM     65  F   UNL     1       8.501 -12.142   5.647  1.00  0.00    -0.206 F 
ATOM     66  C   UNL     1      10.623 -13.020   6.128  1.00  0.00     0.059 A 
ATOM     67  C   UNL     1      12.614 -11.901   5.289  1.00  0.00     0.059 A 
ATOM     68  F   UNL     1      12.397  -9.929   4.039  1.00  0.00    -0.206 F 
ATOM     69  C   UNL     1      12.012 -12.934   6.007  1.00  0.00     0.060 A 
BRANCH  69  70
ATOM     70  S   UNL     1      13.026 -14.208   6.782  1.00  0.00     0.124 S 
ATOM     71  O   UNL     1      12.963 -13.816   8.186  1.00  0.00    -0.237 OA
ATOM     72  O   UNL     1      12.312 -15.432   6.431  1.00  0.00    -0.237 OA
ATOM     73  O   UNL     1      14.326 -14.041   6.139  1.00  0.00    -0.744 OA
ENDBRANCH  69  70
ENDBRANCH  37  62
ENDBRANCH  11  12
ENDBRANCH   4   6
ENDBRANCH   3   4
ENDBRANCH   2   3
ENDBRANCH   1   2
BRANCH   1  74
ATOM     74  O   UNL     1       3.252  -0.028   0.800  1.00  0.00    -0.458 OA
BRANCH  74  75
ATOM     75  C   UNL     1       2.316   0.255   1.739  1.00  0.00     0.339 C 
ATOM     76  O   UNL     1       1.720   1.298   1.884  1.00  0.00    -0.246 OA
BRANCH  75  77
ATOM     77  C   UNL     1       2.029  -0.963   2.506  1.00  0.00     0.074 A 
ATOM     78  C   UNL     1       0.922  -1.695   2.027  1.00  0.00     0.017 A 
ATOM     79  C   UNL     1       2.732  -1.376   3.646  1.00  0.00     0.027 A 
ATOM     80  C   UNL     1       0.520  -2.872   2.653  1.00  0.00     0.001 A 
ATOM     81  C   UNL     1       2.258  -2.543   4.288  1.00  0.00     0.016 A 
ATOM     82  C   UNL     1       1.190  -3.296   3.789  1.00  0.00     0.001 A 
BRANCH  79  83
ATOM     83  S   UNL     1       4.197  -0.707   4.435  1.00  0.00    -0.082 SA
BRANCH  83  84
ATOM     84  C   UNL     1       4.778   0.701   3.534  1.00  0.00     0.090 A 
ATOM     85  C   UNL     1       5.868   0.507   2.660  1.00  0.00     0.024 A 
ATOM     86  C   UNL     1       4.276   2.003   3.660  1.00  0.00     0.284 A 
ATOM     87  C   UNL     1       6.336   1.544   1.835  1.00  0.00     0.023 A 
ATOM     88  C   UNL     1       4.750   3.045   2.843  1.00  0.00     0.108 A 
ATOM     89  C   UNL     1       5.723   2.801   1.880  1.00  0.00     0.089 A 
BRANCH  86  90
ATOM     90  N   UNL     1       3.216   2.350   4.611  1.00  0.00     0.063 N 
ATOM     91  O   UNL     1       2.402   3.216   4.252  1.00  0.00    -0.258 OA
ATOM     92  O   UNL     1       3.237   1.835   5.733  1.00  0.00    -0.258 OA
ENDBRANCH  86  90
BRANCH  89  93
ATOM     93  S   UNL     1       6.138   4.041   0.653  1.00  0.00     0.243 S 
ATOM     94  O   UNL     1       6.967   5.011   1.330  1.00  0.00    -0.207 OA
ATOM     95  O   UNL     1       6.607   3.310  -0.509  1.00  0.00    -0.207 OA
BRANCH  93  96
ATOM     96  N   UNL     1       4.717   4.798   0.192  1.00  0.00    -0.198 NA
ATOM     97  C   UNL     1       3.962   5.730   1.027  1.00  0.00     0.102 C 
ATOM     98  C   UNL     1       3.853   4.335  -0.899  1.00  0.00     0.102 C 
ATOM     99  C   UNL     1       2.554   5.154   0.984  1.00  0.00     0.018 C 
ATOM    100  C   UNL     1       2.421   4.612  -0.432  1.00  0.00     0.018 C 
ENDBRANCH  93  96
ENDBRANCH  89  93
ENDBRANCH  83  84
ENDBRANCH  79  83
ENDBRANCH  75  77
ENDBRANCH  74  75
ENDBRANCH   1  74
TORSDOF 19
