REMARK SMILES O=C(OCCOC(=O)[C@H]1CC(=O)N(Cc2ccc(OCc3ccccc3)cc2)C1)c1ccc(-c2c3nc(c(-c4c(F)cc(S(=O)(=O)[O-])cc4F)c4ccc([nH]4)c(-c4c(F)cc(S(=O)(=O)[O-])cc4F)c4nc(c(-c5c(F)cc(S(=O)(=O)[O-])cc5F)c5ccc2[nH]5)C=C4)C=C3)cc1
REMARK SMILES IDX 5 1 4 2 3 3 2 4 1 5 30 6 31 7 95 8 32 9 94 10 33 11 34 12
REMARK SMILES IDX 35 13 88 14 36 15 93 16 87 17 89 18 37 19 92 20 86 21 85 22
REMARK SMILES IDX 38 24 72 25 51 26 71 27 52 28 55 29 70 30 90 31 53 32 54 33
REMARK SMILES IDX 69 35 91 36 56 37 39 38 40 39 49 40 41 41 42 42 48 43 50 44
REMARK SMILES IDX 43 45 44 46 45 47 46 48 47 49 73 50 74 51 83 52 75 53 76 54
REMARK SMILES IDX 82 55 84 56 77 57 78 58 79 59 80 60 81 61 57 62 58 63 67 64
REMARK SMILES IDX 59 65 60 66 66 67 68 68 61 69 62 70 63 71 64 72 65 73 6 74
REMARK SMILES IDX 7 75 8 76 9 77 10 78 29 79 11 80 13 81 12 82 14 83 15 84
REMARK SMILES IDX 16 85 28 86 17 87 27 88 18 89 19 90 20 91 21 92 22 93 26 94
REMARK SMILES IDX 23 95 25 96 24 97
REMARK H PARENT 89 23 55 34
REMARK Flexibility Score: inf
ROOT
ATOM      1  C   UNL     1       2.554  -2.558  -3.887  1.00  0.00     0.274 C 
ENDROOT
BRANCH   1   2
ATOM      2  C   UNL     1       2.175  -1.116  -4.246  1.00  0.00     0.275 C 
BRANCH   2   3
ATOM      3  O   UNL     1       2.599  -0.124  -3.299  1.00  0.00    -0.458 OA
BRANCH   3   4
ATOM      4  C   UNL     1       2.057   0.233  -2.110  1.00  0.00     0.338 C 
ATOM      5  O   UNL     1       2.591   1.154  -1.492  1.00  0.00    -0.246 OA
BRANCH   4   6
ATOM      6  C   UNL     1       0.943  -0.514  -1.431  1.00  0.00     0.060 A 
ATOM      7  C   UNL     1       0.061  -1.424  -2.025  1.00  0.00     0.016 A 
ATOM      8  C   UNL     1       0.854  -0.341  -0.038  1.00  0.00     0.016 A 
ATOM      9  C   UNL     1      -0.747  -2.266  -1.250  1.00  0.00     0.010 A 
ATOM     10  C   UNL     1       0.054  -1.183   0.742  1.00  0.00     0.010 A 
ATOM     11  C   UNL     1      -0.718  -2.187   0.140  1.00  0.00    -0.014 A 
BRANCH  11  12
ATOM     12  C   UNL     1      -1.584  -3.054   0.970  1.00  0.00     0.031 A 
ATOM     13  C   UNL     1      -2.775  -2.409   1.613  1.00  0.00     0.074 A 
ATOM     14  C   UNL     1      -1.315  -4.363   1.163  1.00  0.00     0.049 A 
ATOM     15  N   UNL     1      -3.664  -2.930   2.411  1.00  0.00    -0.248 NA
ATOM     16  C   UNL     1      -3.002  -0.985   1.301  1.00  0.00     0.031 C 
ATOM     17  C   UNL     1      -0.223  -5.120   0.548  1.00  0.00     0.029 A 
ATOM     18  N   UNL     1      -1.934  -5.293   1.966  1.00  0.00    -0.354 N 
ATOM     19  C   UNL     1      -4.565  -1.909   2.674  1.00  0.00     0.074 A 
ATOM     20  C   UNL     1      -4.078  -0.718   2.020  1.00  0.00     0.031 C 
ATOM     21  C   UNL     1      -0.198  -6.364   1.061  1.00  0.00     0.029 A 
ATOM     22  C   UNL     1      -1.273  -6.502   2.032  1.00  0.00     0.049 A 
ATOM     23  H   UNL     1      -2.772  -5.112   2.450  1.00  0.00     0.167 HD
ATOM     24  C   UNL     1      -5.725  -1.975   3.360  1.00  0.00     0.037 A 
ATOM     25  C   UNL     1      -1.513  -7.582   2.803  1.00  0.00     0.037 A 
ATOM     26  C   UNL     1      -6.199  -3.164   4.006  1.00  0.00     0.049 A 
ATOM     27  C   UNL     1      -2.749  -7.587   3.659  1.00  0.00     0.074 A 
ATOM     28  C   UNL     1      -7.385  -3.358   4.686  1.00  0.00     0.029 A 
ATOM     29  N   UNL     1      -5.494  -4.357   4.066  1.00  0.00    -0.354 N 
ATOM     30  N   UNL     1      -3.646  -6.644   3.816  1.00  0.00    -0.248 NA
ATOM     31  C   UNL     1      -3.033  -8.825   4.400  1.00  0.00     0.031 C 
ATOM     32  C   UNL     1      -7.372  -4.654   5.211  1.00  0.00     0.029 A 
ATOM     33  C   UNL     1      -6.203  -5.282   4.810  1.00  0.00     0.049 A 
ATOM     34  H   UNL     1      -4.621  -4.521   3.643  1.00  0.00     0.167 HD
ATOM     35  C   UNL     1      -4.620  -7.187   4.642  1.00  0.00     0.074 A 
ATOM     36  C   UNL     1      -4.206  -8.541   4.947  1.00  0.00     0.031 C 
ATOM     37  C   UNL     1      -5.763  -6.622   5.097  1.00  0.00     0.037 A 
BRANCH  24  38
ATOM     38  C   UNL     1      -6.550  -0.729   3.430  1.00  0.00     0.058 A 
ATOM     39  C   UNL     1      -7.239  -0.245   2.306  1.00  0.00     0.135 A 
ATOM     40  C   UNL     1      -6.663  -0.017   4.633  1.00  0.00     0.135 A 
ATOM     41  F   UNL     1      -7.131  -0.871   1.123  1.00  0.00    -0.206 F 
ATOM     42  C   UNL     1      -8.009   0.909   2.371  1.00  0.00     0.059 A 
ATOM     43  C   UNL     1      -7.448   1.127   4.727  1.00  0.00     0.059 A 
ATOM     44  F   UNL     1      -6.004  -0.429   5.727  1.00  0.00    -0.206 F 
ATOM     45  C   UNL     1      -8.113   1.583   3.589  1.00  0.00     0.060 A 
BRANCH  45  46
ATOM     46  S   UNL     1      -9.155   3.053   3.665  1.00  0.00     0.124 S 
ATOM     47  O   UNL     1      -8.368   4.010   2.894  1.00  0.00    -0.237 OA
ATOM     48  O   UNL     1     -10.387   2.591   3.033  1.00  0.00    -0.237 OA
ATOM     49  O   UNL     1      -9.252   3.328   5.095  1.00  0.00    -0.744 OA
ENDBRANCH  45  46
ENDBRANCH  24  38
BRANCH  25  50
ATOM     50  C   UNL     1      -0.606  -8.763   2.838  1.00  0.00     0.058 A 
ATOM     51  C   UNL     1      -0.916  -9.947   2.155  1.00  0.00     0.135 A 
ATOM     52  C   UNL     1       0.527  -8.768   3.666  1.00  0.00     0.135 A 
ATOM     53  F   UNL     1      -2.016 -10.010   1.389  1.00  0.00    -0.206 F 
ATOM     54  C   UNL     1      -0.137 -11.095   2.289  1.00  0.00     0.059 A 
ATOM     55  C   UNL     1       1.331  -9.899   3.806  1.00  0.00     0.059 A 
ATOM     56  F   UNL     1       0.872  -7.660   4.338  1.00  0.00    -0.206 F 
ATOM     57  C   UNL     1       0.987 -11.062   3.117  1.00  0.00     0.060 A 
BRANCH  57  58
ATOM     58  S   UNL     1       2.042 -12.527   3.232  1.00  0.00     0.124 S 
ATOM     59  O   UNL     1       1.340 -13.316   4.237  1.00  0.00    -0.237 OA
ATOM     60  O   UNL     1       2.000 -13.050   1.870  1.00  0.00    -0.237 OA
ATOM     61  O   UNL     1       3.329 -11.975   3.645  1.00  0.00    -0.744 OA
ENDBRANCH  57  58
ENDBRANCH  25  50
BRANCH  37  62
ATOM     62  C   UNL     1      -6.655  -7.473   5.948  1.00  0.00     0.058 A 
ATOM     63  C   UNL     1      -6.314  -7.798   7.269  1.00  0.00     0.135 A 
ATOM     64  C   UNL     1      -7.894  -7.910   5.455  1.00  0.00     0.135 A 
ATOM     65  F   UNL     1      -5.133  -7.414   7.777  1.00  0.00    -0.206 F 
ATOM     66  C   UNL     1      -7.169  -8.542   8.071  1.00  0.00     0.059 A 
ATOM     67  C   UNL     1      -8.779  -8.626   6.250  1.00  0.00     0.059 A 
ATOM     68  F   UNL     1      -8.264  -7.619   4.198  1.00  0.00    -0.206 F 
ATOM     69  C   UNL     1      -8.403  -8.943   7.555  1.00  0.00     0.060 A 
BRANCH  69  70
ATOM     70  S   UNL     1      -9.531  -9.852   8.630  1.00  0.00     0.124 S 
ATOM     71  O   UNL     1      -8.887 -11.159   8.692  1.00  0.00    -0.237 OA
ATOM     72  O   UNL     1      -9.491  -9.065   9.858  1.00  0.00    -0.237 OA
ATOM     73  O   UNL     1     -10.798  -9.809   7.906  1.00  0.00    -0.744 OA
ENDBRANCH  69  70
ENDBRANCH  37  62
ENDBRANCH  11  12
ENDBRANCH   4   6
ENDBRANCH   3   4
ENDBRANCH   2   3
ENDBRANCH   1   2
BRANCH   1  74
ATOM     74  O   UNL     1       2.677  -2.790  -2.472  1.00  0.00    -0.462 OA
BRANCH  74  75
ATOM     75  C   UNL     1       3.942  -2.812  -1.980  1.00  0.00     0.311 C 
ATOM     76  O   UNL     1       4.949  -2.692  -2.672  1.00  0.00    -0.252 OA
BRANCH  75  77
ATOM     77  C   UNL     1       4.029  -3.087  -0.498  1.00  0.00     0.128 C 
ATOM     78  C   UNL     1       2.809  -2.858   0.367  1.00  0.00     0.117 C 
ATOM     79  C   UNL     1       4.319  -4.557  -0.290  1.00  0.00     0.135 C 
ATOM     80  C   UNL     1       2.940  -3.870   1.473  1.00  0.00     0.223 C 
ATOM     81  N   UNL     1       3.790  -4.859   1.018  1.00  0.00    -0.337 N 
ATOM     82  O   UNL     1       2.376  -3.808   2.548  1.00  0.00    -0.275 OA
BRANCH  81  83
ATOM     83  C   UNL     1       4.121  -6.063   1.777  1.00  0.00     0.155 C 
BRANCH  83  84
ATOM     84  C   UNL     1       4.099  -7.307   0.923  1.00  0.00    -0.028 A 
ATOM     85  C   UNL     1       3.056  -8.227   1.036  1.00  0.00     0.009 A 
ATOM     86  C   UNL     1       5.078  -7.540  -0.048  1.00  0.00     0.009 A 
ATOM     87  C   UNL     1       2.918  -9.273   0.120  1.00  0.00     0.047 A 
ATOM     88  C   UNL     1       4.929  -8.568  -0.980  1.00  0.00     0.047 A 
ATOM     89  C   UNL     1       3.809  -9.393  -0.942  1.00  0.00     0.119 A 
BRANCH  89  90
ATOM     90  O   UNL     1       3.490 -10.337  -1.877  1.00  0.00    -0.489 OA
BRANCH  90  91
ATOM     91  C   UNL     1       3.960 -10.133  -3.211  1.00  0.00     0.265 C 
BRANCH  91  92
ATOM     92  C   UNL     1       3.248  -9.008  -3.938  1.00  0.00    -0.011 A 
ATOM     93  C   UNL     1       3.839  -7.743  -4.075  1.00  0.00     0.007 A 
ATOM     94  C   UNL     1       1.963  -9.207  -4.462  1.00  0.00     0.007 A 
ATOM     95  C   UNL     1       3.160  -6.699  -4.705  1.00  0.00     0.000 A 
ATOM     96  C   UNL     1       1.291  -8.168  -5.109  1.00  0.00     0.000 A 
ATOM     97  C   UNL     1       1.886  -6.913  -5.225  1.00  0.00     0.000 A 
ENDBRANCH  91  92
ENDBRANCH  90  91
ENDBRANCH  89  90
ENDBRANCH  83  84
ENDBRANCH  81  83
ENDBRANCH  75  77
ENDBRANCH  74  75
ENDBRANCH   1  74
TORSDOF 19
