REMARK SMILES CCOC(=O)c1cccc(Nc2c(-c3ccc(C(=O)OCCOC(=O)c4ccc(-c5c6nc(c(-c7c(F)cc(S(=O)(=O)[O-])cc7F)c7ccc([nH]7)c(-c7c(F)cc(S(=O)(=O)[O-])cc7F)c7nc(c(-c8c(F)cc(S(=O)(=O)[O-])cc8F)c8ccc5[nH]8)C=C7)C=C6)cc4)cc3)nc3cnccn23)c1
REMARK SMILES IDX 20 1 18 2 19 3 17 4 14 5 15 6 93 7 16 8 92 9 13 10 12 11
REMARK SMILES IDX 100 12 94 13 95 14 99 15 96 16 98 17 97 18 11 19 10 21 6 22
REMARK SMILES IDX 7 23 101 24 8 25 9 26 4 27 5 28 3 29 2 30 1 31 21 32 22 33
REMARK SMILES IDX 23 34 24 35 25 36 26 37 27 38 91 39 28 40 90 41 29 42 30 43
REMARK SMILES IDX 31 44 84 45 32 46 89 47 83 48 85 49 33 50 88 51 82 52 81 53
REMARK SMILES IDX 34 55 68 56 47 57 67 58 48 59 51 60 66 61 86 62 49 63 50 64
REMARK SMILES IDX 65 66 87 67 52 68 35 69 36 70 45 71 37 72 38 73 44 74 46 75
REMARK SMILES IDX 39 76 40 77 41 78 42 79 43 80 69 81 70 82 79 83 71 84 72 85
REMARK SMILES IDX 78 86 80 87 73 88 74 89 75 90 76 91 77 92 53 93 54 94 63 95
REMARK SMILES IDX 55 96 56 97 62 98 64 99 57 100 58 101 59 102 60 103 61 104
REMARK H PARENT 11 20 85 54 51 65
REMARK Flexibility Score: inf
ROOT
ATOM      1  O   UNL     1       2.305  11.722   2.223  1.00  0.00    -0.458 OA
ENDROOT
BRANCH   1   2
ATOM      2  C   UNL     1       3.429  11.417   1.528  1.00  0.00     0.338 C 
ATOM      3  O   UNL     1       4.573  11.454   1.951  1.00  0.00    -0.246 OA
BRANCH   2   4
ATOM      4  C   UNL     1       3.099  10.913   0.172  1.00  0.00     0.060 A 
ATOM      5  C   UNL     1       2.588   9.866  -2.380  1.00  0.00     0.004 A 
ATOM      6  C   UNL     1       3.652   9.375  -1.618  1.00  0.00     0.011 A 
ATOM      7  C   UNL     1       1.796  10.904  -1.873  1.00  0.00     0.011 A 
ATOM      8  C   UNL     1       3.925   9.922  -0.369  1.00  0.00     0.016 A 
ATOM      9  C   UNL     1       2.035  11.413  -0.586  1.00  0.00     0.016 A 
BRANCH   5  10
ATOM     10  C   UNL     1       2.366   9.315  -3.700  1.00  0.00     0.114 A 
ATOM     11  C   UNL     1       2.133   7.969  -3.967  1.00  0.00     0.143 A 
ATOM     12  N   UNL     1       2.117   7.896  -5.345  1.00  0.00    -0.283 N 
ATOM     13  N   UNL     1       2.502  10.055  -4.851  1.00  0.00    -0.225 NA
ATOM     14  C   UNL     1       2.379   9.164  -5.808  1.00  0.00     0.157 A 
ATOM     15  C   UNL     1       1.882   6.875  -6.253  1.00  0.00     0.115 A 
ATOM     16  C   UNL     1       2.468   9.371  -7.226  1.00  0.00     0.158 A 
ATOM     17  C   UNL     1       1.967   7.152  -7.566  1.00  0.00     0.129 A 
ATOM     18  N   UNL     1       2.270   8.403  -8.082  1.00  0.00    -0.259 NA
BRANCH  11  19
ATOM     19  N   UNL     1       1.878   6.934  -3.123  1.00  0.00    -0.339 N 
ATOM     20  H   UNL     1       1.142   7.074  -2.483  1.00  0.00     0.168 HD
BRANCH  19  21
ATOM     21  C   UNL     1       2.531   5.682  -3.042  1.00  0.00     0.040 A 
ATOM     22  C   UNL     1       2.635   3.489  -1.982  1.00  0.00     0.062 A 
ATOM     23  C   UNL     1       3.768   3.165  -2.731  1.00  0.00     0.016 A 
ATOM     24  C   UNL     1       2.013   4.731  -2.148  1.00  0.00     0.041 A 
ATOM     25  C   UNL     1       4.264   4.080  -3.657  1.00  0.00     0.003 A 
ATOM     26  C   UNL     1       3.650   5.330  -3.808  1.00  0.00     0.026 A 
BRANCH  22  27
ATOM     27  C   UNL     1       2.178   2.544  -0.945  1.00  0.00     0.338 C 
ATOM     28  O   UNL     1       2.947   1.867  -0.290  1.00  0.00    -0.246 OA
BRANCH  27  29
ATOM     29  O   UNL     1       0.825   2.558  -0.840  1.00  0.00    -0.462 OA
BRANCH  29  30
ATOM     30  C   UNL     1       0.300   1.696   0.185  1.00  0.00     0.230 C 
ATOM     31  C   UNL     1       0.298   0.243  -0.254  1.00  0.00     0.049 C 
ENDBRANCH  29  30
ENDBRANCH  27  29
ENDBRANCH  22  27
ENDBRANCH  19  21
ENDBRANCH  11  19
ENDBRANCH   5  10
ENDBRANCH   2   4
ENDBRANCH   1   2
BRANCH   1  32
ATOM     32  C   UNL     1       2.519  12.111   3.596  1.00  0.00     0.275 C 
BRANCH  32  33
ATOM     33  C   UNL     1       2.233  10.959   4.561  1.00  0.00     0.275 C 
BRANCH  33  34
ATOM     34  O   UNL     1       3.177   9.889   4.370  1.00  0.00    -0.458 OA
BRANCH  34  35
ATOM     35  C   UNL     1       2.653   8.708   3.969  1.00  0.00     0.338 C 
ATOM     36  O   UNL     1       1.477   8.445   3.782  1.00  0.00    -0.246 OA
BRANCH  35  37
ATOM     37  C   UNL     1       3.729   7.731   3.735  1.00  0.00     0.060 A 
ATOM     38  C   UNL     1       4.566   7.912   2.640  1.00  0.00     0.016 A 
ATOM     39  C   UNL     1       3.816   6.563   4.489  1.00  0.00     0.016 A 
ATOM     40  C   UNL     1       5.421   6.890   2.230  1.00  0.00     0.010 A 
ATOM     41  C   UNL     1       4.758   5.583   4.141  1.00  0.00     0.010 A 
ATOM     42  C   UNL     1       5.549   5.712   2.984  1.00  0.00    -0.014 A 
BRANCH  42  43
ATOM     43  C   UNL     1       6.487   4.627   2.551  1.00  0.00     0.031 A 
ATOM     44  C   UNL     1       5.996   3.211   2.349  1.00  0.00     0.074 A 
ATOM     45  C   UNL     1       7.790   4.899   2.321  1.00  0.00     0.049 A 
ATOM     46  N   UNL     1       6.688   2.120   2.123  1.00  0.00    -0.248 NA
ATOM     47  C   UNL     1       4.544   2.989   2.423  1.00  0.00     0.031 C 
ATOM     48  C   UNL     1       8.422   6.214   2.458  1.00  0.00     0.029 A 
ATOM     49  N   UNL     1       8.823   4.083   1.920  1.00  0.00    -0.354 N 
ATOM     50  C   UNL     1       5.760   1.084   2.064  1.00  0.00     0.074 A 
ATOM     51  C   UNL     1       4.461   1.670   2.303  1.00  0.00     0.031 C 
ATOM     52  C   UNL     1       9.714   6.124   2.109  1.00  0.00     0.029 A 
ATOM     53  C   UNL     1      10.032   4.733   1.810  1.00  0.00     0.049 A 
ATOM     54  H   UNL     1       8.708   3.124   1.728  1.00  0.00     0.167 HD
ATOM     55  C   UNL     1       5.961  -0.233   1.816  1.00  0.00     0.037 A 
ATOM     56  C   UNL     1      11.269   4.267   1.547  1.00  0.00     0.037 A 
ATOM     57  C   UNL     1       7.236  -0.823   1.515  1.00  0.00     0.049 A 
ATOM     58  C   UNL     1      11.475   2.796   1.317  1.00  0.00     0.074 A 
ATOM     59  C   UNL     1       7.525  -2.150   1.246  1.00  0.00     0.029 A 
ATOM     60  N   UNL     1       8.427  -0.125   1.427  1.00  0.00    -0.354 N 
ATOM     61  N   UNL     1      10.585   1.834   1.298  1.00  0.00    -0.248 NA
ATOM     62  C   UNL     1      12.855   2.344   1.092  1.00  0.00     0.031 C 
ATOM     63  C   UNL     1       8.900  -2.257   1.014  1.00  0.00     0.029 A 
ATOM     64  C   UNL     1       9.459  -0.993   1.116  1.00  0.00     0.049 A 
ATOM     65  H   UNL     1       8.526   0.845   1.564  1.00  0.00     0.167 HD
ATOM     66  C   UNL     1      11.295   0.666   1.048  1.00  0.00     0.074 A 
ATOM     67  C   UNL     1      12.686   1.042   0.903  1.00  0.00     0.031 C 
ATOM     68  C   UNL     1      10.836  -0.606   0.955  1.00  0.00     0.037 A 
BRANCH  55  69
ATOM     69  C   UNL     1       4.771  -1.145   1.866  1.00  0.00     0.058 A 
ATOM     70  C   UNL     1       3.971  -1.368   0.737  1.00  0.00     0.135 A 
ATOM     71  C   UNL     1       4.467  -1.853   3.039  1.00  0.00     0.135 A 
ATOM     72  F   UNL     1       4.243  -0.745  -0.421  1.00  0.00    -0.206 F 
ATOM     73  C   UNL     1       2.883  -2.235   0.780  1.00  0.00     0.059 A 
ATOM     74  C   UNL     1       3.389  -2.732   3.101  1.00  0.00     0.059 A 
ATOM     75  F   UNL     1       5.221  -1.695   4.138  1.00  0.00    -0.206 F 
ATOM     76  C   UNL     1       2.588  -2.898   1.972  1.00  0.00     0.060 A 
BRANCH  76  77
ATOM     77  S   UNL     1       1.153  -3.992   2.041  1.00  0.00     0.124 S 
ATOM     78  O   UNL     1       0.089  -3.051   2.381  1.00  0.00    -0.237 OA
ATOM     79  O   UNL     1       1.096  -4.545   0.691  1.00  0.00    -0.237 OA
ATOM     80  O   UNL     1       1.509  -4.944   3.088  1.00  0.00    -0.744 OA
ENDBRANCH  76  77
ENDBRANCH  55  69
BRANCH  56  81
ATOM     81  C   UNL     1      12.425   5.205   1.536  1.00  0.00     0.058 A 
ATOM     82  C   UNL     1      13.097   5.516   0.345  1.00  0.00     0.135 A 
ATOM     83  C   UNL     1      12.869   5.821   2.717  1.00  0.00     0.135 A 
ATOM     84  F   UNL     1      12.720   4.942  -0.808  1.00  0.00    -0.206 F 
ATOM     85  C   UNL     1      14.174   6.398   0.326  1.00  0.00     0.059 A 
ATOM     86  C   UNL     1      13.922   6.729   2.719  1.00  0.00     0.059 A 
ATOM     87  F   UNL     1      12.252   5.566   3.882  1.00  0.00    -0.206 F 
ATOM     88  C   UNL     1      14.576   7.003   1.518  1.00  0.00     0.060 A 
BRANCH  88  89
ATOM     89  S   UNL     1      15.936   8.190   1.478  1.00  0.00     0.124 S 
ATOM     90  O   UNL     1      17.091   7.307   1.359  1.00  0.00    -0.237 OA
ATOM     91  O   UNL     1      15.617   8.986   0.297  1.00  0.00    -0.237 OA
ATOM     92  O   UNL     1      15.805   8.892   2.751  1.00  0.00    -0.744 OA
ENDBRANCH  88  89
ENDBRANCH  56  81
BRANCH  68  93
ATOM     93  C   UNL     1      11.834  -1.684   0.653  1.00  0.00     0.058 A 
ATOM     94  C   UNL     1      12.720  -2.156   1.633  1.00  0.00     0.135 A 
ATOM     95  C   UNL     1      11.863  -2.293  -0.611  1.00  0.00     0.135 A 
ATOM     96  F   UNL     1      12.733  -1.602   2.856  1.00  0.00    -0.206 F 
ATOM     97  C   UNL     1      13.615  -3.186   1.364  1.00  0.00     0.059 A 
ATOM     98  C   UNL     1      12.735  -3.339  -0.895  1.00  0.00     0.059 A 
ATOM     99  F   UNL     1      11.028  -1.883  -1.579  1.00  0.00    -0.206 F 
ATOM    100  C   UNL     1      13.614  -3.772   0.097  1.00  0.00     0.060 A 
BRANCH 100 101
ATOM    101  S   UNL     1      14.754  -5.133  -0.229  1.00  0.00     0.124 S 
ATOM    102  O   UNL     1      16.022  -4.425  -0.376  1.00  0.00    -0.237 OA
ATOM    103  O   UNL     1      14.620  -5.951   0.973  1.00  0.00    -0.237 OA
ATOM    104  O   UNL     1      14.225  -5.734  -1.450  1.00  0.00    -0.744 OA
ENDBRANCH 100 101
ENDBRANCH  68  93
ENDBRANCH  42  43
ENDBRANCH  35  37
ENDBRANCH  34  35
ENDBRANCH  33  34
ENDBRANCH  32  33
ENDBRANCH   1  32
TORSDOF 20
