REMARK SMILES Cc1cnn(C2(C(=O)OCCOC(=O)c3ccc(-c4c5nc(c(-c6c(F)cc(S(=O)(=O)[O-])cc6F)c6ccc([nH]6)c(-c6c(F)cc(S(=O)(=O)[O-])cc6F)c6nc(c(-c7c(F)cc(S(=O)(=O)[O-])cc7F)c7ccc4[nH]7)C=C6)C=C5)cc3)CCN(C(=O)c3cc4ccccc4[nH]3)CC2)c1
REMARK SMILES IDX 11 1 10 2 9 3 7 4 8 5 6 6 81 7 96 8 82 9 95 10 83 11 84 12
REMARK SMILES IDX 85 13 5 14 1 15 2 16 3 17 97 18 4 19 86 20 87 21 94 22 88 23
REMARK SMILES IDX 93 24 89 26 92 27 90 28 91 29 12 30 13 31 14 32 15 33 16 34
REMARK SMILES IDX 80 35 17 36 79 37 18 38 19 39 20 40 73 41 21 42 78 43 72 44
REMARK SMILES IDX 74 45 22 46 77 47 71 48 70 49 23 51 57 52 36 53 56 54 37 55
REMARK SMILES IDX 40 56 55 57 75 58 38 59 39 60 54 62 76 63 41 64 24 65 25 66
REMARK SMILES IDX 34 67 26 68 27 69 33 70 35 71 28 72 29 73 30 74 31 75 32 76
REMARK SMILES IDX 58 77 59 78 68 79 60 80 61 81 67 82 69 83 62 84 63 85 64 86
REMARK SMILES IDX 65 87 66 88 42 89 43 90 52 91 44 92 45 93 51 94 53 95 46 96
REMARK SMILES IDX 47 97 48 98 49 99 50 100
REMARK H PARENT 94 25 74 50 40 61
REMARK Flexibility Score: inf
ROOT
ATOM      1  C   UNL     1      -1.257   0.974  -8.538  1.00  0.00     0.275 C 
ENDROOT
BRANCH   1   2
ATOM      2  C   UNL     1      -2.250   1.709  -7.640  1.00  0.00     0.274 C 
BRANCH   2   3
ATOM      3  O   UNL     1      -1.620   2.224  -6.448  1.00  0.00    -0.460 OA
BRANCH   3   4
ATOM      4  C   UNL     1      -1.652   1.418  -5.332  1.00  0.00     0.334 C 
ATOM      5  O   UNL     1      -2.372   0.429  -5.293  1.00  0.00    -0.249 OA
BRANCH   4   6
ATOM      6  C   UNL     1      -0.865   2.054  -4.139  1.00  0.00     0.163 C 
ATOM      7  C   UNL     1       0.367   2.874  -4.630  1.00  0.00     0.064 C 
ATOM      8  C   UNL     1      -1.941   2.965  -3.523  1.00  0.00     0.064 C 
ATOM      9  C   UNL     1       0.781   4.067  -3.774  1.00  0.00     0.123 C 
ATOM     10  C   UNL     1      -1.394   4.026  -2.596  1.00  0.00     0.123 C 
ATOM     11  N   UNL     1      -0.350   4.813  -3.246  1.00  0.00    -0.337 N 
ATOM     12  C   UNL     1      -0.351   6.203  -3.356  1.00  0.00     0.270 C 
ATOM     13  O   UNL     1       0.435   6.805  -4.100  1.00  0.00    -0.267 OA
BRANCH   6  14
ATOM     14  N   UNL     1      -0.435   1.045  -3.129  1.00  0.00    -0.255 N 
ATOM     15  C   UNL     1       1.010  -0.171   0.020  1.00  0.00     0.048 C 
ATOM     16  C   UNL     1       0.350   0.083  -1.280  1.00  0.00    -0.013 A 
ATOM     17  C   UNL     1      -0.406  -0.802  -2.066  1.00  0.00     0.138 A 
ATOM     18  C   UNL     1       0.336   1.253  -2.007  1.00  0.00     0.113 A 
ATOM     19  N   UNL     1      -0.873  -0.228  -3.173  1.00  0.00    -0.180 NA
ENDBRANCH   6  14
BRANCH  12  20
ATOM     20  C   UNL     1      -1.349   6.936  -2.619  1.00  0.00     0.105 A 
ATOM     21  C   UNL     1      -1.816   6.792  -1.322  1.00  0.00     0.042 A 
ATOM     22  N   UNL     1      -2.025   8.006  -3.157  1.00  0.00    -0.351 N 
ATOM     23  C   UNL     1      -2.976   7.595  -1.189  1.00  0.00     0.000 A 
ATOM     24  C   UNL     1      -3.085   8.352  -2.354  1.00  0.00     0.046 A 
ATOM     25  H   UNL     1      -1.784   8.459  -3.997  1.00  0.00     0.167 HD
ATOM     26  C   UNL     1      -3.961   7.723  -0.194  1.00  0.00     0.010 A 
ATOM     27  C   UNL     1      -4.127   9.258  -2.568  1.00  0.00     0.026 A 
ATOM     28  C   UNL     1      -5.028   8.602  -0.405  1.00  0.00     0.001 A 
ATOM     29  C   UNL     1      -5.104   9.361  -1.572  1.00  0.00     0.002 A 
ENDBRANCH  12  20
ENDBRANCH   4   6
ENDBRANCH   3   4
ENDBRANCH   2   3
ENDBRANCH   1   2
BRANCH   1  30
ATOM     30  O   UNL     1      -0.720  -0.176  -7.881  1.00  0.00    -0.458 OA
BRANCH  30  31
ATOM     31  C   UNL     1       0.364   0.092  -7.132  1.00  0.00     0.338 C 
ATOM     32  O   UNL     1       0.848   1.212  -6.928  1.00  0.00    -0.246 OA
BRANCH  31  33
ATOM     33  C   UNL     1       1.030  -1.115  -6.668  1.00  0.00     0.060 A 
ATOM     34  C   UNL     1       2.039  -0.943  -5.710  1.00  0.00     0.016 A 
ATOM     35  C   UNL     1       0.922  -2.276  -7.440  1.00  0.00     0.016 A 
ATOM     36  C   UNL     1       3.092  -1.825  -5.701  1.00  0.00     0.010 A 
ATOM     37  C   UNL     1       1.976  -3.158  -7.428  1.00  0.00     0.010 A 
ATOM     38  C   UNL     1       3.091  -2.857  -6.638  1.00  0.00    -0.014 A 
BRANCH  38  39
ATOM     39  C   UNL     1       4.336  -3.565  -6.854  1.00  0.00     0.031 A 
ATOM     40  C   UNL     1       4.673  -4.596  -5.848  1.00  0.00     0.074 A 
ATOM     41  C   UNL     1       5.026  -3.369  -7.995  1.00  0.00     0.049 A 
ATOM     42  N   UNL     1       5.777  -4.756  -5.195  1.00  0.00    -0.248 NA
ATOM     43  C   UNL     1       3.600  -5.523  -5.457  1.00  0.00     0.031 C 
ATOM     44  C   UNL     1       4.620  -2.578  -9.163  1.00  0.00     0.029 A 
ATOM     45  N   UNL     1       6.168  -3.971  -8.414  1.00  0.00    -0.354 N 
ATOM     46  C   UNL     1       5.600  -5.907  -4.434  1.00  0.00     0.074 A 
ATOM     47  C   UNL     1       4.207  -6.260  -4.530  1.00  0.00     0.031 C 
ATOM     48  C   UNL     1       5.358  -2.961 -10.226  1.00  0.00     0.029 A 
ATOM     49  C   UNL     1       6.335  -3.944  -9.790  1.00  0.00     0.049 A 
ATOM     50  H   UNL     1       6.816  -4.388  -7.800  1.00  0.00     0.167 HD
ATOM     51  C   UNL     1       6.642  -6.612  -3.918  1.00  0.00     0.037 A 
ATOM     52  C   UNL     1       7.112  -4.787 -10.514  1.00  0.00     0.037 A 
ATOM     53  C   UNL     1       7.853  -5.840  -3.876  1.00  0.00     0.049 A 
ATOM     54  C   UNL     1       8.113  -5.374  -9.578  1.00  0.00     0.074 A 
ATOM     55  C   UNL     1       8.222  -4.671  -3.239  1.00  0.00     0.029 A 
ATOM     56  N   UNL     1       8.809  -6.059  -4.838  1.00  0.00    -0.354 N 
ATOM     57  N   UNL     1       9.057  -4.692  -8.985  1.00  0.00    -0.248 NA
ATOM     58  C   UNL     1       7.802  -6.657  -8.961  1.00  0.00     0.031 C 
ATOM     59  C   UNL     1       9.100  -4.011  -4.145  1.00  0.00     0.029 A 
ATOM     60  C   UNL     1       9.232  -4.826  -5.270  1.00  0.00     0.049 A 
ATOM     61  H   UNL     1       9.129  -6.934  -5.157  1.00  0.00     0.167 HD
ATOM     62  C   UNL     1       9.167  -5.251  -7.717  1.00  0.00     0.074 A 
ATOM     63  C   UNL     1       8.449  -6.519  -7.801  1.00  0.00     0.031 C 
ATOM     64  C   UNL     1       9.581  -4.515  -6.641  1.00  0.00     0.037 A 
BRANCH  51  65
ATOM     65  C   UNL     1       6.605  -8.100  -3.708  1.00  0.00     0.058 A 
ATOM     66  C   UNL     1       7.557  -8.722  -2.881  1.00  0.00     0.135 A 
ATOM     67  C   UNL     1       5.809  -8.965  -4.494  1.00  0.00     0.135 A 
ATOM     68  F   UNL     1       8.377  -7.989  -2.112  1.00  0.00    -0.206 F 
ATOM     69  C   UNL     1       7.739 -10.106  -2.871  1.00  0.00     0.059 A 
ATOM     70  C   UNL     1       5.932 -10.347  -4.455  1.00  0.00     0.059 A 
ATOM     71  F   UNL     1       4.944  -8.499  -5.405  1.00  0.00    -0.206 F 
ATOM     72  C   UNL     1       6.931 -10.907  -3.676  1.00  0.00     0.060 A 
BRANCH  72  73
ATOM     73  S   UNL     1       7.245 -12.678  -3.769  1.00  0.00     0.124 S 
ATOM     74  O   UNL     1       8.454 -12.712  -4.584  1.00  0.00    -0.237 OA
ATOM     75  O   UNL     1       7.410 -13.036  -2.364  1.00  0.00    -0.237 OA
ATOM     76  O   UNL     1       6.038 -13.198  -4.404  1.00  0.00    -0.744 OA
ENDBRANCH  72  73
ENDBRANCH  51  65
BRANCH  52  77
ATOM     77  C   UNL     1       6.771  -5.379 -11.839  1.00  0.00     0.058 A 
ATOM     78  C   UNL     1       7.722  -6.104 -12.578  1.00  0.00     0.135 A 
ATOM     79  C   UNL     1       5.441  -5.456 -12.312  1.00  0.00     0.135 A 
ATOM     80  F   UNL     1       9.005  -6.126 -12.186  1.00  0.00    -0.206 F 
ATOM     81  C   UNL     1       7.373  -6.876 -13.694  1.00  0.00     0.059 A 
ATOM     82  C   UNL     1       5.075  -6.192 -13.435  1.00  0.00     0.059 A 
ATOM     83  F   UNL     1       4.423  -4.893 -11.645  1.00  0.00    -0.206 F 
ATOM     84  C   UNL     1       6.042  -6.922 -14.108  1.00  0.00     0.060 A 
BRANCH  84  85
ATOM     85  S   UNL     1       5.552  -8.035 -15.444  1.00  0.00     0.124 S 
ATOM     86  O   UNL     1       6.144  -7.387 -16.609  1.00  0.00    -0.237 OA
ATOM     87  O   UNL     1       6.162  -9.295 -15.034  1.00  0.00    -0.237 OA
ATOM     88  O   UNL     1       4.092  -8.008 -15.390  1.00  0.00    -0.744 OA
ENDBRANCH  84  85
ENDBRANCH  52  77
BRANCH  64  89
ATOM     89  C   UNL     1      10.170  -3.148  -6.892  1.00  0.00     0.058 A 
ATOM     90  C   UNL     1       9.443  -2.082  -7.449  1.00  0.00     0.135 A 
ATOM     91  C   UNL     1      11.445  -2.850  -6.387  1.00  0.00     0.135 A 
ATOM     92  F   UNL     1       8.174  -2.246  -7.843  1.00  0.00    -0.206 F 
ATOM     93  C   UNL     1       9.969  -0.794  -7.544  1.00  0.00     0.059 A 
ATOM     94  C   UNL     1      11.980  -1.562  -6.440  1.00  0.00     0.059 A 
ATOM     95  F   UNL     1      12.166  -3.804  -5.774  1.00  0.00    -0.206 F 
ATOM     96  C   UNL     1      11.239  -0.541  -7.033  1.00  0.00     0.060 A 
BRANCH  96  97
ATOM     97  S   UNL     1      11.869   1.152  -7.059  1.00  0.00     0.124 S 
ATOM     98  O   UNL     1      12.259   1.311  -8.456  1.00  0.00    -0.237 OA
ATOM     99  O   UNL     1      10.711   1.933  -6.632  1.00  0.00    -0.237 OA
ATOM    100  O   UNL     1      12.972   1.119  -6.101  1.00  0.00    -0.744 OA
ENDBRANCH  96  97
ENDBRANCH  64  89
ENDBRANCH  38  39
ENDBRANCH  31  33
ENDBRANCH  30  31
ENDBRANCH   1  30
TORSDOF 16
