REMARK SMILES CCOc1cccc(-c2ccc([C@@H](C)C(=O)OCCOC(=O)c3ccc(-c4c5nc(c(-c6c(F)cc(S(=O)(=O)[O-])cc6F)c6ccc([nH]6)c(-c6c(F)cc(S(=O)(=O)[O-])cc6F)c6nc(c(-c7c(F)cc(S(=O)(=O)[O-])cc7F)c7ccc4[nH]7)C=C6)C=C5)cc3)cc2F)c1
REMARK SMILES IDX 18 1 17 2 15 3 16 4 13 5 14 6 12 7 9 8 10 9 90 10 11 11
REMARK SMILES IDX 89 12 91 13 8 14 4 15 5 16 92 17 6 18 7 19 3 20 2 21 1 22
REMARK SMILES IDX 19 23 20 24 21 25 22 26 23 27 24 28 88 29 25 30 87 31 26 32
REMARK SMILES IDX 27 33 28 34 81 35 29 36 86 37 80 38 82 39 30 40 85 41 79 42
REMARK SMILES IDX 78 43 31 45 65 46 44 47 64 48 45 49 48 50 63 51 83 52 46 53
REMARK SMILES IDX 47 54 62 56 84 57 49 58 32 59 33 60 42 61 34 62 35 63 41 64
REMARK SMILES IDX 43 65 36 66 37 67 38 68 39 69 40 70 66 71 67 72 76 73 68 74
REMARK SMILES IDX 69 75 75 76 77 77 70 78 71 79 72 80 73 81 74 82 50 83 51 84
REMARK SMILES IDX 60 85 52 86 53 87 59 88 61 89 54 90 55 91 56 92 57 93 58 94
REMARK H PARENT 82 44 48 55
REMARK Flexibility Score: inf
ROOT
ATOM      1  C   UNL     1       8.478   1.725   3.988  1.00  0.00     0.274 C 
ENDROOT
BRANCH   1   2
ATOM      2  O   UNL     1       8.383   0.552   3.156  1.00  0.00    -0.462 OA
BRANCH   2   3
ATOM      3  C   UNL     1       8.579  -0.646   3.768  1.00  0.00     0.313 C 
ATOM      4  O   UNL     1       8.899  -0.769   4.947  1.00  0.00    -0.252 OA
BRANCH   3   5
ATOM      5  C   UNL     1       8.437  -1.847   2.840  1.00  0.00     0.126 C 
ATOM      6  C   UNL     1       9.816  -2.290   2.354  1.00  0.00     0.025 C 
BRANCH   5   7
ATOM      7  C   UNL     1       7.441  -1.706   1.699  1.00  0.00    -0.031 A 
ATOM      8  C   UNL     1       5.533  -1.495  -0.413  1.00  0.00     0.018 A 
ATOM      9  C   UNL     1       6.726  -0.753  -0.429  1.00  0.00     0.012 A 
ATOM     10  C   UNL     1       5.326  -2.344   0.682  1.00  0.00     0.131 A 
ATOM     11  C   UNL     1       7.665  -0.859   0.606  1.00  0.00     0.005 A 
ATOM     12  C   UNL     1       6.256  -2.455   1.716  1.00  0.00     0.044 A 
ATOM     13  F   UNL     1       4.219  -3.100   0.757  1.00  0.00    -0.206 F 
BRANCH   8  14
ATOM     14  C   UNL     1       4.544  -1.373  -1.501  1.00  0.00    -0.012 A 
ATOM     15  C   UNL     1       2.243  -1.077  -2.247  1.00  0.00     0.119 A 
ATOM     16  C   UNL     1       2.641  -1.170  -3.576  1.00  0.00     0.046 A 
ATOM     17  C   UNL     1       3.179  -1.200  -1.220  1.00  0.00     0.055 A 
ATOM     18  C   UNL     1       3.989  -1.346  -3.880  1.00  0.00     0.004 A 
ATOM     19  C   UNL     1       4.931  -1.441  -2.851  1.00  0.00     0.009 A 
BRANCH  15  20
ATOM     20  O   UNL     1       0.906  -0.982  -1.978  1.00  0.00    -0.494 OA
BRANCH  20  21
ATOM     21  C   UNL     1       0.529   0.299  -1.459  1.00  0.00     0.226 C 
ATOM     22  C   UNL     1       0.421   0.279   0.056  1.00  0.00     0.049 C 
ENDBRANCH  20  21
ENDBRANCH  15  20
ENDBRANCH   8  14
ENDBRANCH   5   7
ENDBRANCH   3   5
ENDBRANCH   2   3
ENDBRANCH   1   2
BRANCH   1  23
ATOM     23  C   UNL     1       7.097   2.254   4.388  1.00  0.00     0.275 C 
BRANCH  23  24
ATOM     24  O   UNL     1       6.433   1.368   5.306  1.00  0.00    -0.458 OA
BRANCH  24  25
ATOM     25  C   UNL     1       5.622   0.457   4.718  1.00  0.00     0.338 C 
ATOM     26  O   UNL     1       5.379   0.352   3.529  1.00  0.00    -0.246 OA
BRANCH  25  27
ATOM     27  C   UNL     1       5.136  -0.511   5.713  1.00  0.00     0.060 A 
ATOM     28  C   UNL     1       5.435  -1.859   5.504  1.00  0.00     0.016 A 
ATOM     29  C   UNL     1       4.295  -0.125   6.758  1.00  0.00     0.016 A 
ATOM     30  C   UNL     1       4.857  -2.837   6.306  1.00  0.00     0.010 A 
ATOM     31  C   UNL     1       3.720  -1.108   7.571  1.00  0.00     0.010 A 
ATOM     32  C   UNL     1       3.971  -2.470   7.326  1.00  0.00    -0.014 A 
BRANCH  32  33
ATOM     33  C   UNL     1       3.229  -3.530   8.051  1.00  0.00     0.031 A 
ATOM     34  C   UNL     1       1.788  -3.790   7.705  1.00  0.00     0.074 A 
ATOM     35  C   UNL     1       3.857  -4.294   8.964  1.00  0.00     0.049 A 
ATOM     36  N   UNL     1       0.953  -4.648   8.230  1.00  0.00    -0.248 NA
ATOM     37  C   UNL     1       1.213  -2.974   6.623  1.00  0.00     0.031 C 
ATOM     38  C   UNL     1       5.262  -4.166   9.349  1.00  0.00     0.029 A 
ATOM     39  N   UNL     1       3.393  -5.335   9.727  1.00  0.00    -0.354 N 
ATOM     40  C   UNL     1      -0.250  -4.465   7.558  1.00  0.00     0.074 A 
ATOM     41  C   UNL     1      -0.041  -3.402   6.598  1.00  0.00     0.031 C 
ATOM     42  C   UNL     1       5.548  -5.099  10.273  1.00  0.00     0.029 A 
ATOM     43  C   UNL     1       4.341  -5.868  10.566  1.00  0.00     0.049 A 
ATOM     44  H   UNL     1       2.468  -5.669   9.677  1.00  0.00     0.167 HD
ATOM     45  C   UNL     1      -1.421  -5.127   7.723  1.00  0.00     0.037 A 
ATOM     46  C   UNL     1       4.242  -6.857  11.475  1.00  0.00     0.037 A 
ATOM     47  C   UNL     1      -1.619  -6.197   8.664  1.00  0.00     0.049 A 
ATOM     48  C   UNL     1       2.927  -7.567  11.650  1.00  0.00     0.074 A 
ATOM     49  C   UNL     1      -2.771  -6.921   8.919  1.00  0.00     0.029 A 
ATOM     50  N   UNL     1      -0.634  -6.707   9.498  1.00  0.00    -0.354 N 
ATOM     51  N   UNL     1       1.791  -7.365  11.026  1.00  0.00    -0.248 NA
ATOM     52  C   UNL     1       2.880  -8.643  12.651  1.00  0.00     0.031 C 
ATOM     53  C   UNL     1      -2.488  -7.855   9.923  1.00  0.00     0.029 A 
ATOM     54  C   UNL     1      -1.151  -7.735  10.268  1.00  0.00     0.049 A 
ATOM     55  H   UNL     1       0.295  -6.385   9.536  1.00  0.00     0.167 HD
ATOM     56  C   UNL     1       0.903  -8.303  11.539  1.00  0.00     0.074 A 
ATOM     57  C   UNL     1       1.634  -9.078  12.520  1.00  0.00     0.031 C 
ATOM     58  C   UNL     1      -0.401  -8.505  11.227  1.00  0.00     0.037 A 
BRANCH  45  59
ATOM     59  C   UNL     1      -2.585  -4.689   6.880  1.00  0.00     0.058 A 
ATOM     60  C   UNL     1      -2.670  -5.006   5.516  1.00  0.00     0.135 A 
ATOM     61  C   UNL     1      -3.636  -3.953   7.450  1.00  0.00     0.135 A 
ATOM     62  F   UNL     1      -1.682  -5.692   4.919  1.00  0.00    -0.206 F 
ATOM     63  C   UNL     1      -3.745  -4.587   4.738  1.00  0.00     0.059 A 
ATOM     64  C   UNL     1      -4.731  -3.541   6.696  1.00  0.00     0.059 A 
ATOM     65  F   UNL     1      -3.602  -3.620   8.750  1.00  0.00    -0.206 F 
ATOM     66  C   UNL     1      -4.769  -3.850   5.337  1.00  0.00     0.060 A 
BRANCH  66  67
ATOM     67  S   UNL     1      -6.157  -3.304   4.320  1.00  0.00     0.124 S 
ATOM     68  O   UNL     1      -5.570  -2.171   3.611  1.00  0.00    -0.237 OA
ATOM     69  O   UNL     1      -6.439  -4.482   3.507  1.00  0.00    -0.237 OA
ATOM     70  O   UNL     1      -7.184  -2.966   5.302  1.00  0.00    -0.744 OA
ENDBRANCH  66  67
ENDBRANCH  45  59
BRANCH  46  71
ATOM     71  C   UNL     1       5.425  -7.234  12.291  1.00  0.00     0.058 A 
ATOM     72  C   UNL     1       6.097  -8.446  12.077  1.00  0.00     0.135 A 
ATOM     73  C   UNL     1       5.908  -6.387  13.300  1.00  0.00     0.135 A 
ATOM     74  F   UNL     1       5.666  -9.293  11.129  1.00  0.00    -0.206 F 
ATOM     75  C   UNL     1       7.198  -8.813  12.843  1.00  0.00     0.059 A 
ATOM     76  C   UNL     1       7.021  -6.721  14.065  1.00  0.00     0.059 A 
ATOM     77  F   UNL     1       5.306  -5.210  13.535  1.00  0.00    -0.206 F 
ATOM     78  C   UNL     1       7.653  -7.943  13.836  1.00  0.00     0.060 A 
BRANCH  78  79
ATOM     79  S   UNL     1       9.112  -8.402  14.797  1.00  0.00     0.124 S 
ATOM     80  O   UNL     1       8.550  -9.358  15.744  1.00  0.00    -0.237 OA
ATOM     81  O   UNL     1       9.995  -8.957  13.777  1.00  0.00    -0.237 OA
ATOM     82  O   UNL     1       9.548  -7.130  15.366  1.00  0.00    -0.744 OA
ENDBRANCH  78  79
ENDBRANCH  46  71
BRANCH  58  83
ATOM     83  C   UNL     1      -1.106  -9.636  11.919  1.00  0.00     0.058 A 
ATOM     84  C   UNL     1      -1.528  -9.535  13.254  1.00  0.00     0.135 A 
ATOM     85  C   UNL     1      -1.396 -10.822  11.225  1.00  0.00     0.135 A 
ATOM     86  F   UNL     1      -1.270  -8.424  13.961  1.00  0.00    -0.206 F 
ATOM     87  C   UNL     1      -2.192 -10.581  13.885  1.00  0.00     0.059 A 
ATOM     88  C   UNL     1      -2.076 -11.873  11.830  1.00  0.00     0.059 A 
ATOM     89  F   UNL     1      -1.022 -10.963   9.943  1.00  0.00    -0.206 F 
ATOM     90  C   UNL     1      -2.459 -11.748  13.166  1.00  0.00     0.060 A 
BRANCH  90  91
ATOM     91  S   UNL     1      -3.341 -13.095  13.984  1.00  0.00     0.124 S 
ATOM     92  O   UNL     1      -2.275 -13.710  14.767  1.00  0.00    -0.237 OA
ATOM     93  O   UNL     1      -4.361 -12.386  14.751  1.00  0.00    -0.237 OA
ATOM     94  O   UNL     1      -3.846 -13.893  12.871  1.00  0.00    -0.744 OA
ENDBRANCH  90  91
ENDBRANCH  58  83
ENDBRANCH  32  33
ENDBRANCH  25  27
ENDBRANCH  24  25
ENDBRANCH  23  24
ENDBRANCH   1  23
TORSDOF 18
