REMARK SMILES C[C@]12C(=O)N(c3ccc(C(=O)OCCOC(=O)c4ccc(-c5c6nc(c(-c7c(F)cc(S(=O)(=O)[O-])cc7F)c7ccc([nH]7)c(-c7c(F)cc(S(=O)(=O)[O-])cc7F)c7nc(c(-c8c(F)cc(S(=O)(=O)[O-])cc8F)c8ccc5[nH]8)C=C7)C=C6)cc4)cc3)C(=O)[C@H]1[C@H]1c3ccccc3[C@@H]2c2ccccc21
REMARK SMILES IDX 14 1 13 2 12 3 10 4 11 5 9 6 6 7 7 8 85 9 8 10 84 11 5 12
REMARK SMILES IDX 1 13 2 14 3 15 88 16 96 17 4 18 86 19 89 20 95 21 97 22
REMARK SMILES IDX 87 23 90 24 102 25 94 26 98 27 91 28 101 29 93 30 99 31
REMARK SMILES IDX 92 32 100 33 15 34 16 35 17 36 18 37 19 38 83 39 20 40 82 41
REMARK SMILES IDX 21 42 22 43 23 44 76 45 24 46 81 47 75 48 77 49 25 50 80 51
REMARK SMILES IDX 74 52 73 53 26 55 60 56 39 57 59 58 40 59 43 60 58 61 78 62
REMARK SMILES IDX 41 63 42 64 57 66 79 67 44 68 27 69 28 70 37 71 29 72 30 73
REMARK SMILES IDX 36 74 38 75 31 76 32 77 33 78 34 79 35 80 61 81 62 82 71 83
REMARK SMILES IDX 63 84 64 85 70 86 72 87 65 88 66 89 67 90 68 91 69 92 45 93
REMARK SMILES IDX 46 94 55 95 47 96 48 97 54 98 56 99 49 100 50 101 51 102
REMARK SMILES IDX 52 103 53 104
REMARK H PARENT 77 54 43 65
REMARK Flexibility Score: inf
ROOT
ATOM      1  C   UNL     1      -6.471  -7.686  -4.239  1.00  0.00     0.275 C 
ENDROOT
BRANCH   1   2
ATOM      2  C   UNL     1      -6.324  -7.918  -2.732  1.00  0.00     0.275 C 
BRANCH   2   3
ATOM      3  O   UNL     1      -5.726  -6.776  -2.081  1.00  0.00    -0.458 OA
BRANCH   3   4
ATOM      4  C   UNL     1      -4.433  -6.929  -1.717  1.00  0.00     0.338 C 
ATOM      5  O   UNL     1      -3.760  -7.944  -1.822  1.00  0.00    -0.246 OA
BRANCH   4   6
ATOM      6  C   UNL     1      -3.842  -5.635  -1.316  1.00  0.00     0.060 A 
ATOM      7  C   UNL     1      -2.442  -3.278  -0.587  1.00  0.00     0.052 A 
ATOM      8  C   UNL     1      -1.988  -4.125  -1.610  1.00  0.00     0.028 A 
ATOM      9  C   UNL     1      -3.636  -3.630   0.057  1.00  0.00     0.028 A 
ATOM     10  C   UNL     1      -2.648  -5.297  -1.931  1.00  0.00     0.018 A 
ATOM     11  C   UNL     1      -4.354  -4.790  -0.328  1.00  0.00     0.018 A 
BRANCH   7  12
ATOM     12  N   UNL     1      -1.556  -2.256  -0.147  1.00  0.00    -0.250 N 
ATOM     13  C   UNL     1       0.972  -0.074  -0.098  1.00  0.00     0.024 C 
ATOM     14  C   UNL     1       0.637  -1.566   0.129  1.00  0.00     0.071 C 
ATOM     15  C   UNL     1      -0.435  -1.919  -0.850  1.00  0.00     0.241 C 
ATOM     16  C   UNL     1      -0.004  -1.780   1.559  1.00  0.00     0.107 C 
ATOM     17  C   UNL     1       1.834  -2.550  -0.129  1.00  0.00     0.066 C 
ATOM     18  O   UNL     1      -0.288  -1.850  -2.063  1.00  0.00    -0.273 OA
ATOM     19  C   UNL     1      -1.488  -1.694   1.116  1.00  0.00     0.238 C 
ATOM     20  C   UNL     1       1.095  -2.572   2.401  1.00  0.00     0.063 C 
ATOM     21  C   UNL     1       1.421  -3.947   0.364  1.00  0.00    -0.036 A 
ATOM     22  C   UNL     1       2.931  -2.089   0.815  1.00  0.00    -0.036 A 
ATOM     23  O   UNL     1      -2.403  -1.285   1.817  1.00  0.00    -0.274 OA
ATOM     24  C   UNL     1       1.092  -3.987   1.748  1.00  0.00    -0.036 A 
ATOM     25  C   UNL     1       2.515  -2.036   2.170  1.00  0.00    -0.036 A 
ATOM     26  C   UNL     1       1.271  -5.081  -0.419  1.00  0.00     0.005 A 
ATOM     27  C   UNL     1       4.237  -1.808   0.436  1.00  0.00     0.005 A 
ATOM     28  C   UNL     1       0.579  -5.137   2.335  1.00  0.00     0.004 A 
ATOM     29  C   UNL     1       3.436  -1.697   3.152  1.00  0.00     0.004 A 
ATOM     30  C   UNL     1       0.754  -6.238   0.172  1.00  0.00     0.000 A 
ATOM     31  C   UNL     1       5.151  -1.465   1.427  1.00  0.00     0.000 A 
ATOM     32  C   UNL     1       0.407  -6.265   1.533  1.00  0.00     0.000 A 
ATOM     33  C   UNL     1       4.754  -1.408   2.772  1.00  0.00     0.000 A 
ENDBRANCH   7  12
ENDBRANCH   4   6
ENDBRANCH   3   4
ENDBRANCH   2   3
ENDBRANCH   1   2
BRANCH   1  34
ATOM     34  O   UNL     1      -5.211  -7.861  -4.915  1.00  0.00    -0.458 OA
BRANCH  34  35
ATOM     35  C   UNL     1      -4.564  -6.720  -5.240  1.00  0.00     0.338 C 
ATOM     36  O   UNL     1      -4.929  -5.576  -5.034  1.00  0.00    -0.246 OA
BRANCH  35  37
ATOM     37  C   UNL     1      -3.265  -7.050  -5.846  1.00  0.00     0.060 A 
ATOM     38  C   UNL     1      -3.085  -7.036  -7.226  1.00  0.00     0.016 A 
ATOM     39  C   UNL     1      -2.178  -7.242  -5.001  1.00  0.00     0.016 A 
ATOM     40  C   UNL     1      -1.797  -7.221  -7.746  1.00  0.00     0.010 A 
ATOM     41  C   UNL     1      -0.885  -7.277  -5.514  1.00  0.00     0.010 A 
ATOM     42  C   UNL     1      -0.675  -7.305  -6.897  1.00  0.00    -0.014 A 
BRANCH  42  43
ATOM     43  C   UNL     1       0.707  -7.450  -7.441  1.00  0.00     0.031 A 
ATOM     44  C   UNL     1       1.567  -8.632  -7.052  1.00  0.00     0.074 A 
ATOM     45  C   UNL     1       1.206  -6.507  -8.268  1.00  0.00     0.049 A 
ATOM     46  N   UNL     1       2.786  -8.926  -7.431  1.00  0.00    -0.248 NA
ATOM     47  C   UNL     1       1.002  -9.592  -6.089  1.00  0.00     0.031 C 
ATOM     48  C   UNL     1       0.516  -5.277  -8.663  1.00  0.00     0.029 A 
ATOM     49  N   UNL     1       2.403  -6.441  -8.940  1.00  0.00    -0.354 N 
ATOM     50  C   UNL     1       3.128 -10.090  -6.750  1.00  0.00     0.074 A 
ATOM     51  C   UNL     1       2.024 -10.407  -5.875  1.00  0.00     0.031 C 
ATOM     52  C   UNL     1       1.267  -4.616  -9.558  1.00  0.00     0.029 A 
ATOM     53  C   UNL     1       2.510  -5.350  -9.772  1.00  0.00     0.049 A 
ATOM     54  H   UNL     1       3.117  -7.111  -8.836  1.00  0.00     0.167 HD
ATOM     55  C   UNL     1       4.240 -10.855  -6.871  1.00  0.00     0.037 A 
ATOM     56  C   UNL     1       3.490  -4.987 -10.624  1.00  0.00     0.037 A 
ATOM     57  C   UNL     1       5.320 -10.567  -7.776  1.00  0.00     0.049 A 
ATOM     58  C   UNL     1       4.709  -5.860 -10.755  1.00  0.00     0.074 A 
ATOM     59  C   UNL     1       6.464 -11.309  -8.013  1.00  0.00     0.029 A 
ATOM     60  N   UNL     1       5.386  -9.454  -8.601  1.00  0.00    -0.354 N 
ATOM     61  N   UNL     1       4.984  -6.987 -10.143  1.00  0.00    -0.248 NA
ATOM     62  C   UNL     1       5.750  -5.414 -11.692  1.00  0.00     0.031 C 
ATOM     63  C   UNL     1       7.238 -10.627  -8.958  1.00  0.00     0.029 A 
ATOM     64  C   UNL     1       6.556  -9.483  -9.340  1.00  0.00     0.049 A 
ATOM     65  H   UNL     1       4.702  -8.748  -8.653  1.00  0.00     0.167 HD
ATOM     66  C   UNL     1       6.219  -7.394 -10.635  1.00  0.00     0.074 A 
ATOM     67  C   UNL     1       6.630  -6.402 -11.607  1.00  0.00     0.031 C 
ATOM     68  C   UNL     1       6.948  -8.490 -10.308  1.00  0.00     0.037 A 
BRANCH  55  69
ATOM     69  C   UNL     1       4.327 -12.105  -6.036  1.00  0.00     0.058 A 
ATOM     70  C   UNL     1       3.508 -13.217  -6.298  1.00  0.00     0.135 A 
ATOM     71  C   UNL     1       5.271 -12.220  -5.002  1.00  0.00     0.135 A 
ATOM     72  F   UNL     1       2.578 -13.158  -7.264  1.00  0.00    -0.206 F 
ATOM     73  C   UNL     1       3.606 -14.386  -5.552  1.00  0.00     0.059 A 
ATOM     74  C   UNL     1       5.406 -13.392  -4.261  1.00  0.00     0.059 A 
ATOM     75  F   UNL     1       6.080 -11.190  -4.708  1.00  0.00    -0.206 F 
ATOM     76  C   UNL     1       4.561 -14.466  -4.538  1.00  0.00     0.060 A 
BRANCH  76  77
ATOM     77  S   UNL     1       4.687 -16.003  -3.599  1.00  0.00     0.124 S 
ATOM     78  O   UNL     1       3.454 -15.970  -2.818  1.00  0.00    -0.237 OA
ATOM     79  O   UNL     1       4.740 -17.009  -4.655  1.00  0.00    -0.237 OA
ATOM     80  O   UNL     1       5.918 -15.835  -2.833  1.00  0.00    -0.744 OA
ENDBRANCH  76  77
ENDBRANCH  55  69
BRANCH  56  81
ATOM     81  C   UNL     1       3.332  -3.767 -11.461  1.00  0.00     0.058 A 
ATOM     82  C   UNL     1       3.108  -3.872 -12.843  1.00  0.00     0.135 A 
ATOM     83  C   UNL     1       3.371  -2.481 -10.902  1.00  0.00     0.135 A 
ATOM     84  F   UNL     1       3.070  -5.079 -13.426  1.00  0.00    -0.206 F 
ATOM     85  C   UNL     1       2.938  -2.746 -13.642  1.00  0.00     0.059 A 
ATOM     86  C   UNL     1       3.179  -1.340 -11.677  1.00  0.00     0.059 A 
ATOM     87  F   UNL     1       3.568  -2.327  -9.584  1.00  0.00    -0.206 F 
ATOM     88  C   UNL     1       2.970  -1.483 -13.048  1.00  0.00     0.060 A 
BRANCH  88  89
ATOM     89  S   UNL     1       2.692  -0.033 -14.089  1.00  0.00     0.124 S 
ATOM     90  O   UNL     1       3.925   0.012 -14.866  1.00  0.00    -0.237 OA
ATOM     91  O   UNL     1       1.488  -0.411 -14.823  1.00  0.00    -0.237 OA
ATOM     92  O   UNL     1       2.515   1.046 -13.122  1.00  0.00    -0.744 OA
ENDBRANCH  88  89
ENDBRANCH  56  81
BRANCH  68  93
ATOM     93  C   UNL     1       8.260  -8.690 -11.013  1.00  0.00     0.058 A 
ATOM     94  C   UNL     1       9.385  -7.915 -10.697  1.00  0.00     0.135 A 
ATOM     95  C   UNL     1       8.413  -9.721 -11.954  1.00  0.00     0.135 A 
ATOM     96  F   UNL     1       9.289  -6.914  -9.808  1.00  0.00    -0.206 F 
ATOM     97  C   UNL     1      10.617  -8.146 -11.300  1.00  0.00     0.059 A 
ATOM     98  C   UNL     1       9.642  -9.987 -12.550  1.00  0.00     0.059 A 
ATOM     99  F   UNL     1       7.369 -10.498 -12.282  1.00  0.00    -0.206 F 
ATOM    100  C   UNL     1      10.737  -9.189 -12.221  1.00  0.00     0.060 A 
BRANCH 100 101
ATOM    101  S   UNL     1      12.354  -9.509 -12.955  1.00  0.00     0.124 S 
ATOM    102  O   UNL     1      12.502  -8.366 -13.851  1.00  0.00    -0.237 OA
ATOM    103  O   UNL     1      13.230  -9.516 -11.787  1.00  0.00    -0.237 OA
ATOM    104  O   UNL     1      12.182 -10.802 -13.611  1.00  0.00    -0.744 OA
ENDBRANCH 100 101
ENDBRANCH  68  93
ENDBRANCH  42  43
ENDBRANCH  35  37
ENDBRANCH  34  35
ENDBRANCH   1  34
TORSDOF 15
