REMARK SMILES Cc1ccccc1C(=O)Nc1cc(C(=O)OCCOC(=O)c2ccc(-c3c4nc(c(-c5c(F)cc(S(=O)(=O)[O-])cc5F)c5ccc([nH]5)c(-c5c(F)cc(S(=O)(=O)[O-])cc5F)c5nc(c(-c6c(F)cc(S(=O)(=O)[O-])cc6F)c6ccc3[nH]6)C=C5)C=C4)cc2)ccc1N1CC[NH+](CC(=O)Nc2ccc(F)cc2)CC1
REMARK SMILES IDX 17 1 16 2 14 3 15 4 13 5 11 6 12 7 90 8 89 9 88 10 10 11
REMARK SMILES IDX 8 12 9 13 7 15 1 16 2 17 3 18 4 19 6 20 5 21 91 22 92 23
REMARK SMILES IDX 107 24 93 25 106 26 94 27 95 29 96 30 97 31 98 32 99 34
REMARK SMILES IDX 100 35 105 36 101 37 104 38 102 39 103 40 18 41 19 42 20 43
REMARK SMILES IDX 21 44 22 45 23 46 87 47 24 48 86 49 25 50 26 51 27 52 80 53
REMARK SMILES IDX 28 54 85 55 79 56 81 57 29 58 84 59 78 60 77 61 30 63 64 64
REMARK SMILES IDX 43 65 63 66 44 67 47 68 62 69 82 70 45 71 46 72 61 74 83 75
REMARK SMILES IDX 48 76 31 77 32 78 41 79 33 80 34 81 40 82 42 83 35 84 36 85
REMARK SMILES IDX 37 86 38 87 39 88 65 89 66 90 75 91 67 92 68 93 74 94 76 95
REMARK SMILES IDX 69 96 70 97 71 98 72 99 73 100 49 101 50 102 59 103 51 104
REMARK SMILES IDX 52 105 58 106 60 107 53 108 54 109 55 110 56 111 57 112
REMARK H PARENT 10 14 94 28 98 33 81 62 47 73
REMARK Flexibility Score: inf
ROOT
ATOM      1  C   UNL     1       1.612  -2.376  -5.013  1.00  0.00     0.275 C 
ENDROOT
BRANCH   1   2
ATOM      2  O   UNL     1       1.810  -1.593  -3.847  1.00  0.00    -0.458 OA
BRANCH   2   3
ATOM      3  C   UNL     1       1.833  -2.319  -2.699  1.00  0.00     0.338 C 
ATOM      4  O   UNL     1       1.175  -3.320  -2.488  1.00  0.00    -0.246 OA
BRANCH   3   5
ATOM      5  C   UNL     1       2.863  -1.575  -1.827  1.00  0.00     0.062 A 
ATOM      6  C   UNL     1       2.959   1.325  -0.843  1.00  0.00     0.065 A 
ATOM      7  C   UNL     1       2.164   0.085  -1.761  1.00  0.00     0.044 A 
ATOM      8  C   UNL     1       4.508   1.072   0.030  1.00  0.00     0.061 A 
ATOM      9  C   UNL     1       5.326  -0.482   0.088  1.00  0.00     0.029 A 
ATOM     10  C   UNL     1       4.594  -1.879  -0.795  1.00  0.00     0.018 A 
BRANCH   6  11
ATOM     11  N   UNL     1       2.374   2.627  -0.793  1.00  0.00    -0.320 N 
ATOM     12  C   UNL     1       1.047   3.072  -0.805  1.00  0.00     0.255 C 
ATOM     13  O   UNL     1       0.822   4.284  -0.787  1.00  0.00    -0.269 OA
ATOM     14  H   UNL     1       3.034   3.355  -0.739  1.00  0.00     0.170 HD
BRANCH  12  15
ATOM     15  C   UNL     1      -0.116   2.140  -0.758  1.00  0.00     0.043 A 
ATOM     16  C   UNL     1       0.673   0.897   1.257  1.00  0.00     0.045 C 
ATOM     17  C   UNL     1      -0.033   0.960  -0.053  1.00  0.00    -0.038 A 
ATOM     18  C   UNL     1      -0.792  -0.109  -0.512  1.00  0.00     0.004 A 
ATOM     19  C   UNL     1      -1.949   0.092  -1.237  1.00  0.00     0.000 A 
ATOM     20  C   UNL     1      -1.328   2.406  -1.407  1.00  0.00     0.014 A 
ATOM     21  C   UNL     1      -2.284   1.390  -1.571  1.00  0.00     0.001 A 
ENDBRANCH  12  15
ENDBRANCH   6  11
BRANCH   8  22
ATOM     22  N   UNL     1       5.073   2.197   0.672  1.00  0.00    -0.359 N 
ATOM     23  C   UNL     1       6.494   2.339   1.089  1.00  0.00     0.178 C 
ATOM     24  C   UNL     1       4.169   2.834   1.611  1.00  0.00     0.178 C 
ATOM     25  C   UNL     1       6.806   3.807   1.624  1.00  0.00     0.284 C 
ATOM     26  C   UNL     1       4.498   4.336   1.629  1.00  0.00     0.284 C 
ATOM     27  N   UNL     1       5.749   4.574   2.321  1.00  0.00    -0.324 N 
ATOM     28  H   UNL     1       6.096   5.531   2.257  1.00  0.00     0.348 HD
BRANCH  27  29
ATOM     29  C   UNL     1       5.596   4.551   3.793  1.00  0.00     0.364 C 
BRANCH  29  30
ATOM     30  C   UNL     1       5.189   3.263   4.515  1.00  0.00     0.279 C 
ATOM     31  O   UNL     1       6.100   2.494   4.872  1.00  0.00    -0.268 OA
ATOM     32  N   UNL     1       3.938   2.889   4.936  1.00  0.00    -0.321 N 
ATOM     33  H   UNL     1       4.037   2.192   5.624  1.00  0.00     0.170 HD
BRANCH  32  34
ATOM     34  C   UNL     1       2.550   3.137   4.743  1.00  0.00     0.041 A 
ATOM     35  C   UNL     1       1.685   2.483   5.641  1.00  0.00     0.029 A 
ATOM     36  C   UNL     1       1.924   3.842   3.720  1.00  0.00     0.029 A 
ATOM     37  C   UNL     1       0.285   2.550   5.521  1.00  0.00     0.041 A 
ATOM     38  C   UNL     1       0.526   3.882   3.556  1.00  0.00     0.041 A 
ATOM     39  C   UNL     1      -0.285   3.249   4.472  1.00  0.00     0.123 A 
ATOM     40  F   UNL     1      -1.615   3.308   4.338  1.00  0.00    -0.207 F 
ENDBRANCH  32  34
ENDBRANCH  29  30
ENDBRANCH  27  29
ENDBRANCH   8  22
ENDBRANCH   3   5
ENDBRANCH   2   3
ENDBRANCH   1   2
BRANCH   1  41
ATOM     41  C   UNL     1       2.936  -2.449  -5.794  1.00  0.00     0.275 C 
BRANCH  41  42
ATOM     42  O   UNL     1       4.108  -2.477  -4.950  1.00  0.00    -0.458 OA
BRANCH  42  43
ATOM     43  C   UNL     1       4.600  -1.314  -4.411  1.00  0.00     0.338 C 
ATOM     44  O   UNL     1       4.626  -0.226  -4.953  1.00  0.00    -0.246 OA
BRANCH  43  45
ATOM     45  C   UNL     1       4.744  -1.567  -2.939  1.00  0.00     0.060 A 
ATOM     46  C   UNL     1       4.257  -0.301  -1.754  1.00  0.00     0.016 A 
ATOM     47  C   UNL     1       4.363  -3.201  -2.575  1.00  0.00     0.016 A 
ATOM     48  C   UNL     1       3.186  -0.859  -0.108  1.00  0.00     0.010 A 
ATOM     49  C   UNL     1       3.423  -3.678  -1.203  1.00  0.00     0.010 A 
ATOM     50  C   UNL     1       2.731  -2.627   0.056  1.00  0.00    -0.014 A 
BRANCH  50  51
ATOM     51  C   UNL     1       1.469  -3.354   0.693  1.00  0.00     0.031 A 
ATOM     52  C   UNL     1       0.211  -2.740   1.298  1.00  0.00     0.074 A 
ATOM     53  C   UNL     1       1.338  -4.709   0.524  1.00  0.00     0.049 A 
ATOM     54  N   UNL     1      -1.016  -2.933   0.867  1.00  0.00    -0.248 NA
ATOM     55  C   UNL     1       0.238  -1.871   2.480  1.00  0.00     0.031 C 
ATOM     56  C   UNL     1       0.210  -5.612   0.770  1.00  0.00     0.029 A 
ATOM     57  N   UNL     1       2.312  -5.655   0.165  1.00  0.00    -0.354 N 
ATOM     58  C   UNL     1      -1.924  -2.207   1.656  1.00  0.00     0.074 A 
ATOM     59  C   UNL     1      -1.048  -1.496   2.595  1.00  0.00     0.031 C 
ATOM     60  C   UNL     1       0.681  -6.861   0.994  1.00  0.00     0.029 A 
ATOM     61  C   UNL     1       2.133  -6.789   0.942  1.00  0.00     0.049 A 
ATOM     62  H   UNL     1       3.006  -5.533  -0.523  1.00  0.00     0.167 HD
ATOM     63  C   UNL     1      -3.041  -2.800   2.188  1.00  0.00     0.037 A 
ATOM     64  C   UNL     1       3.070  -7.036   1.899  1.00  0.00     0.037 A 
ATOM     65  C   UNL     1      -2.738  -4.120   2.674  1.00  0.00     0.049 A 
ATOM     66  C   UNL     1       2.393  -6.840   3.222  1.00  0.00     0.074 A 
ATOM     67  C   UNL     1      -2.958  -5.402   2.219  1.00  0.00     0.029 A 
ATOM     68  N   UNL     1      -1.875  -4.214   3.750  1.00  0.00    -0.354 N 
ATOM     69  N   UNL     1       1.379  -6.029   3.386  1.00  0.00    -0.248 NA
ATOM     70  C   UNL     1       2.654  -7.664   4.395  1.00  0.00     0.031 C 
ATOM     71  C   UNL     1      -2.091  -6.257   2.962  1.00  0.00     0.029 A 
ATOM     72  C   UNL     1      -1.382  -5.489   3.877  1.00  0.00     0.049 A 
ATOM     73  H   UNL     1      -1.644  -3.465   4.346  1.00  0.00     0.167 HD
ATOM     74  C   UNL     1       0.767  -6.322   4.565  1.00  0.00     0.074 A 
ATOM     75  C   UNL     1       1.631  -7.308   5.191  1.00  0.00     0.031 C 
ATOM     76  C   UNL     1      -0.434  -5.798   4.936  1.00  0.00     0.037 A 
BRANCH  63  77
ATOM     77  C   UNL     1      -4.425  -2.161   2.162  1.00  0.00     0.058 A 
ATOM     78  C   UNL     1      -5.581  -2.906   2.495  1.00  0.00     0.135 A 
ATOM     79  C   UNL     1      -4.680  -0.828   1.770  1.00  0.00     0.135 A 
ATOM     80  F   UNL     1      -5.487  -4.178   2.910  1.00  0.00    -0.206 F 
ATOM     81  C   UNL     1      -6.883  -2.393   2.401  1.00  0.00     0.059 A 
ATOM     82  C   UNL     1      -5.980  -0.290   1.668  1.00  0.00     0.059 A 
ATOM     83  F   UNL     1      -3.666   0.000   1.478  1.00  0.00    -0.206 F 
ATOM     84  C   UNL     1      -7.080  -1.089   1.968  1.00  0.00     0.060 A 
BRANCH  84  85
ATOM     85  S   UNL     1      -8.780  -0.487   1.777  1.00  0.00     0.124 S 
ATOM     86  O   UNL     1      -9.323  -1.410   0.784  1.00  0.00    -0.237 OA
ATOM     87  O   UNL     1      -9.317  -0.628   3.127  1.00  0.00    -0.237 OA
ATOM     88  O   UNL     1      -8.611   0.888   1.316  1.00  0.00    -0.744 OA
ENDBRANCH  84  85
ENDBRANCH  63  77
BRANCH  64  89
ATOM     89  C   UNL     1       4.457  -6.651   1.432  1.00  0.00     0.058 A 
ATOM     90  C   UNL     1       4.935  -7.295   0.260  1.00  0.00     0.135 A 
ATOM     91  C   UNL     1       5.121  -5.468   1.792  1.00  0.00     0.135 A 
ATOM     92  F   UNL     1       4.351  -8.431  -0.159  1.00  0.00    -0.206 F 
ATOM     93  C   UNL     1       5.906  -6.736  -0.576  1.00  0.00     0.059 A 
ATOM     94  C   UNL     1       6.130  -4.904   0.981  1.00  0.00     0.059 A 
ATOM     95  F   UNL     1       4.739  -4.786   2.882  1.00  0.00    -0.206 F 
ATOM     96  C   UNL     1       6.486  -5.523  -0.222  1.00  0.00     0.060 A 
BRANCH  96  97
ATOM     97  S   UNL     1       7.582  -4.712  -1.431  1.00  0.00     0.124 S 
ATOM     98  O   UNL     1       8.827  -5.448  -1.252  1.00  0.00    -0.237 OA
ATOM     99  O   UNL     1       6.893  -4.950  -2.697  1.00  0.00    -0.237 OA
ATOM    100  O   UNL     1       7.606  -3.320  -0.992  1.00  0.00    -0.744 OA
ENDBRANCH  96  97
ENDBRANCH  64  89
BRANCH  76 101
ATOM    101  C   UNL     1      -0.818  -5.625   6.377  1.00  0.00     0.058 A 
ATOM    102  C   UNL     1       0.139  -5.582   7.405  1.00  0.00     0.135 A 
ATOM    103  C   UNL     1      -2.147  -5.337   6.760  1.00  0.00     0.135 A 
ATOM    104  F   UNL     1       1.454  -5.638   7.150  1.00  0.00    -0.206 F 
ATOM    105  C   UNL     1      -0.210  -5.433   8.736  1.00  0.00     0.059 A 
ATOM    106  C   UNL     1      -2.508  -5.099   8.080  1.00  0.00     0.059 A 
ATOM    107  F   UNL     1      -3.140  -5.245   5.863  1.00  0.00    -0.206 F 
ATOM    108  C   UNL     1      -1.539  -5.208   9.066  1.00  0.00     0.060 A 
BRANCH 108 109
ATOM    109  S   UNL     1      -1.971  -5.035  10.798  1.00  0.00     0.124 S 
ATOM    110  O   UNL     1      -2.011  -6.432  11.218  1.00  0.00    -0.237 OA
ATOM    111  O   UNL     1      -0.858  -4.247  11.319  1.00  0.00    -0.237 OA
ATOM    112  O   UNL     1      -3.255  -4.345  10.757  1.00  0.00    -0.744 OA
ENDBRANCH 108 109
ENDBRANCH  76 101
ENDBRANCH  50  51
ENDBRANCH  43  45
ENDBRANCH  42  43
ENDBRANCH  41  42
ENDBRANCH   1  41
TORSDOF 20
