REMARK SMILES Cc1ccc(N2CCC[C@@H](Cn3cc(C(=O)OCCOC(=O)c4ccc(-c5c6nc(c(-c7c(F)cc(S(=O)(=O)[O-])cc7F)c7ccc([nH]7)c(-c7c(F)cc(S(=O)(=O)[O-])cc7F)c7nc(c(-c8c(F)cc(S(=O)(=O)[O-])cc8F)c8ccc5[nH]8)C=C7)C=C6)cc4)nn3)C2)nn1
REMARK SMILES IDX 18 1 17 2 15 3 16 4 14 5 12 6 13 7 90 8 89 9 11 10 10 11
REMARK SMILES IDX 6 12 7 13 91 14 8 15 9 16 5 17 1 18 2 19 3 20 93 21 4 22
REMARK SMILES IDX 92 23 19 24 20 25 21 26 22 27 23 28 24 29 88 30 25 31 87 32
REMARK SMILES IDX 26 33 27 34 28 35 81 36 29 37 86 38 80 39 82 40 30 41 85 42
REMARK SMILES IDX 79 43 78 44 31 46 65 47 44 48 64 49 45 50 48 51 63 52 83 53
REMARK SMILES IDX 46 54 47 55 62 57 84 58 49 59 32 60 33 61 42 62 34 63 35 64
REMARK SMILES IDX 41 65 43 66 36 67 37 68 38 69 39 70 40 71 66 72 67 73 76 74
REMARK SMILES IDX 68 75 69 76 75 77 77 78 70 79 71 80 72 81 73 82 74 83 50 84
REMARK SMILES IDX 51 85 60 86 52 87 53 88 59 89 61 90 54 91 55 92 56 93 57 94
REMARK SMILES IDX 58 95
REMARK H PARENT 82 45 48 56
REMARK Flexibility Score: inf
ROOT
ATOM      1  C   UNL     1      -3.822   4.461  -8.246  1.00  0.00     0.275 C 
ENDROOT
BRANCH   1   2
ATOM      2  O   UNL     1      -2.914   3.349  -8.260  1.00  0.00    -0.457 OA
BRANCH   2   3
ATOM      3  C   UNL     1      -3.264   2.325  -9.108  1.00  0.00     0.360 C 
ATOM      4  O   UNL     1      -4.379   2.182  -9.577  1.00  0.00    -0.244 OA
BRANCH   3   5
ATOM      5  C   UNL     1      -2.142   1.446  -9.407  1.00  0.00     0.190 A 
ATOM      6  N   UNL     1      -0.322   0.304  -9.310  1.00  0.00    -0.251 N 
ATOM      7  C   UNL     1      -0.860   1.486  -8.898  1.00  0.00     0.146 A 
ATOM      8  N   UNL     1      -1.082  -0.268 -10.259  1.00  0.00    -0.067 NA
ATOM      9  N   UNL     1      -2.230   0.397 -10.292  1.00  0.00    -0.123 NA
BRANCH   6  10
ATOM     10  C   UNL     1       0.624  -0.505  -8.568  1.00  0.00     0.151 C 
BRANCH  10  11
ATOM     11  C   UNL     1      -0.006  -1.181  -7.327  1.00  0.00     0.030 C 
ATOM     12  N   UNL     1      -0.937  -0.891  -5.118  1.00  0.00    -0.355 N 
ATOM     13  C   UNL     1      -2.209  -1.532  -5.396  1.00  0.00     0.118 C 
ATOM     14  C   UNL     1      -0.314  -0.164  -6.205  1.00  0.00     0.123 C 
ATOM     15  C   UNL     1      -1.953  -2.615  -6.437  1.00  0.00     0.022 C 
ATOM     16  C   UNL     1      -1.255  -2.035  -7.670  1.00  0.00     0.009 C 
BRANCH  12  17
ATOM     17  C   UNL     1      -0.526  -0.663  -3.827  1.00  0.00     0.151 A 
ATOM     18  C   UNL     1       1.062   0.040   0.031  1.00  0.00     0.069 C 
ATOM     19  C   UNL     1       0.466  -0.246  -1.308  1.00  0.00     0.060 A 
ATOM     20  C   UNL     1       0.260  -1.545  -1.735  1.00  0.00     0.029 A 
ATOM     21  N   UNL     1       0.201   0.803  -2.113  1.00  0.00    -0.154 NA
ATOM     22  C   UNL     1      -0.266  -1.748  -3.003  1.00  0.00     0.051 A 
ATOM     23  N   UNL     1      -0.279   0.587  -3.384  1.00  0.00    -0.133 NA
ENDBRANCH  12  17
ENDBRANCH  10  11
ENDBRANCH   6  10
ENDBRANCH   3   5
ENDBRANCH   2   3
ENDBRANCH   1   2
BRANCH   1  24
ATOM     24  C   UNL     1      -3.474   5.480  -9.329  1.00  0.00     0.275 C 
BRANCH  24  25
ATOM     25  O   UNL     1      -3.568   4.933 -10.647  1.00  0.00    -0.458 OA
BRANCH  25  26
ATOM     26  C   UNL     1      -2.403   4.411 -11.096  1.00  0.00     0.338 C 
ATOM     27  O   UNL     1      -1.415   4.141 -10.431  1.00  0.00    -0.246 OA
BRANCH  26  28
ATOM     28  C   UNL     1      -2.365   4.414 -12.552  1.00  0.00     0.060 A 
ATOM     29  C   UNL     1      -1.519   3.502 -13.190  1.00  0.00     0.016 A 
ATOM     30  C   UNL     1      -2.851   5.562 -13.184  1.00  0.00     0.016 A 
ATOM     31  C   UNL     1      -1.029   3.831 -14.438  1.00  0.00     0.010 A 
ATOM     32  C   UNL     1      -2.325   5.907 -14.405  1.00  0.00     0.010 A 
ATOM     33  C   UNL     1      -1.377   5.069 -14.992  1.00  0.00    -0.014 A 
BRANCH  33  34
ATOM     34  C   UNL     1      -0.876   5.413 -16.308  1.00  0.00     0.031 A 
ATOM     35  C   UNL     1      -1.634   4.719 -17.377  1.00  0.00     0.074 A 
ATOM     36  C   UNL     1       0.057   6.364 -16.511  1.00  0.00     0.049 A 
ATOM     37  N   UNL     1      -1.214   3.771 -18.146  1.00  0.00    -0.248 NA
ATOM     38  C   UNL     1      -3.091   4.942 -17.452  1.00  0.00     0.031 C 
ATOM     39  C   UNL     1       0.650   7.274 -15.527  1.00  0.00     0.029 A 
ATOM     40  N   UNL     1       0.612   6.786 -17.680  1.00  0.00    -0.354 N 
ATOM     41  C   UNL     1      -2.290   3.465 -18.973  1.00  0.00     0.074 A 
ATOM     42  C   UNL     1      -3.454   4.019 -18.342  1.00  0.00     0.031 C 
ATOM     43  C   UNL     1       1.300   8.271 -16.172  1.00  0.00     0.029 A 
ATOM     44  C   UNL     1       1.275   8.011 -17.602  1.00  0.00     0.049 A 
ATOM     45  H   UNL     1       0.550   6.268 -18.515  1.00  0.00     0.167 HD
ATOM     46  C   UNL     1      -2.087   3.048 -20.252  1.00  0.00     0.037 A 
ATOM     47  C   UNL     1       1.699   8.767 -18.652  1.00  0.00     0.037 A 
ATOM     48  C   UNL     1      -0.733   2.580 -20.422  1.00  0.00     0.049 A 
ATOM     49  C   UNL     1       1.789   7.853 -19.825  1.00  0.00     0.074 A 
ATOM     50  C   UNL     1       0.025   1.582 -19.842  1.00  0.00     0.029 A 
ATOM     51  N   UNL     1       0.159   3.438 -21.021  1.00  0.00    -0.354 N 
ATOM     52  N   UNL     1       2.642   6.867 -19.909  1.00  0.00    -0.248 NA
ATOM     53  C   UNL     1       0.607   7.728 -20.666  1.00  0.00     0.031 C 
ATOM     54  C   UNL     1       1.332   2.133 -19.721  1.00  0.00     0.029 A 
ATOM     55  C   UNL     1       1.327   3.401 -20.306  1.00  0.00     0.049 A 
ATOM     56  H   UNL     1      -0.013   3.983 -21.822  1.00  0.00     0.167 HD
ATOM     57  C   UNL     1       1.917   5.817 -20.459  1.00  0.00     0.074 A 
ATOM     58  C   UNL     1       0.687   6.428 -20.962  1.00  0.00     0.031 C 
ATOM     59  C   UNL     1       2.242   4.518 -20.193  1.00  0.00     0.037 A 
BRANCH  46  60
ATOM     60  C   UNL     1      -2.960   3.446 -21.422  1.00  0.00     0.058 A 
ATOM     61  C   UNL     1      -2.680   2.900 -22.692  1.00  0.00     0.135 A 
ATOM     62  C   UNL     1      -3.865   4.533 -21.420  1.00  0.00     0.135 A 
ATOM     63  F   UNL     1      -1.834   1.866 -22.821  1.00  0.00    -0.206 F 
ATOM     64  C   UNL     1      -3.189   3.445 -23.870  1.00  0.00     0.059 A 
ATOM     65  C   UNL     1      -4.427   5.055 -22.578  1.00  0.00     0.059 A 
ATOM     66  F   UNL     1      -4.186   5.212 -20.313  1.00  0.00    -0.206 F 
ATOM     67  C   UNL     1      -4.053   4.532 -23.801  1.00  0.00     0.060 A 
BRANCH  67  68
ATOM     68  S   UNL     1      -4.645   5.290 -25.321  1.00  0.00     0.124 S 
ATOM     69  O   UNL     1      -3.412   5.840 -25.873  1.00  0.00    -0.237 OA
ATOM     70  O   UNL     1      -5.209   4.144 -26.026  1.00  0.00    -0.237 OA
ATOM     71  O   UNL     1      -5.619   6.271 -24.851  1.00  0.00    -0.744 OA
ENDBRANCH  67  68
ENDBRANCH  46  60
BRANCH  47  72
ATOM     72  C   UNL     1       1.657  10.254 -18.798  1.00  0.00     0.058 A 
ATOM     73  C   UNL     1       2.273  10.910 -19.883  1.00  0.00     0.135 A 
ATOM     74  C   UNL     1       0.776  11.044 -18.031  1.00  0.00     0.135 A 
ATOM     75  F   UNL     1       3.110  10.239 -20.690  1.00  0.00    -0.206 F 
ATOM     76  C   UNL     1       1.999  12.248 -20.211  1.00  0.00     0.059 A 
ATOM     77  C   UNL     1       0.494  12.377 -18.333  1.00  0.00     0.059 A 
ATOM     78  F   UNL     1       0.085  10.518 -17.010  1.00  0.00    -0.206 F 
ATOM     79  C   UNL     1       1.089  12.968 -19.439  1.00  0.00     0.060 A 
BRANCH  79  80
ATOM     80  S   UNL     1       0.607  14.640 -19.940  1.00  0.00     0.124 S 
ATOM     81  O   UNL     1       1.850  15.382 -19.764  1.00  0.00    -0.237 OA
ATOM     82  O   UNL     1       0.175  14.438 -21.318  1.00  0.00    -0.237 OA
ATOM     83  O   UNL     1      -0.459  14.982 -19.001  1.00  0.00    -0.744 OA
ENDBRANCH  79  80
ENDBRANCH  47  72
BRANCH  59  84
ATOM     84  C   UNL     1       3.568   4.216 -19.539  1.00  0.00     0.058 A 
ATOM     85  C   UNL     1       3.915   4.582 -18.226  1.00  0.00     0.135 A 
ATOM     86  C   UNL     1       4.430   3.333 -20.208  1.00  0.00     0.135 A 
ATOM     87  F   UNL     1       3.103   5.349 -17.486  1.00  0.00    -0.206 F 
ATOM     88  C   UNL     1       5.075   4.098 -17.612  1.00  0.00     0.059 A 
ATOM     89  C   UNL     1       5.571   2.814 -19.605  1.00  0.00     0.059 A 
ATOM     90  F   UNL     1       4.125   2.904 -21.444  1.00  0.00    -0.206 F 
ATOM     91  C   UNL     1       5.891   3.204 -18.307  1.00  0.00     0.060 A 
BRANCH  91  92
ATOM     92  S   UNL     1       7.332   2.494 -17.480  1.00  0.00     0.124 S 
ATOM     93  O   UNL     1       8.208   3.652 -17.339  1.00  0.00    -0.237 OA
ATOM     94  O   UNL     1       6.763   1.974 -16.240  1.00  0.00    -0.237 OA
ATOM     95  O   UNL     1       7.797   1.474 -18.417  1.00  0.00    -0.744 OA
ENDBRANCH  91  92
ENDBRANCH  59  84
ENDBRANCH  33  34
ENDBRANCH  26  28
ENDBRANCH  25  26
ENDBRANCH  24  25
ENDBRANCH   1  24
TORSDOF 17
