REMARK SMILES C[N@@H+](CC(=O)OCCOC(=O)c1ccc(-c2c3nc(c(-c4c(F)cc(S(=O)(=O)[O-])cc4F)c4ccc([nH]4)c(-c4c(F)cc(S(=O)(=O)[O-])cc4F)c4nc(c(-c5c(F)cc(S(=O)(=O)[O-])cc5F)c5ccc2[nH]5)C=C4)C=C3)cc1)Cc1nc(-c2ccsc2)no1
REMARK SMILES IDX 7 1 6 2 4 3 5 4 3 5 2 6 1 7 78 9 79 10 80 11 88 12 81 13
REMARK SMILES IDX 87 14 82 15 83 16 86 17 84 18 85 19 8 20 9 21 10 22 11 23
REMARK SMILES IDX 12 24 13 25 77 26 14 27 76 28 15 29 16 30 17 31 70 32 18 33
REMARK SMILES IDX 75 34 69 35 71 36 19 37 74 38 68 39 67 40 20 42 54 43 33 44
REMARK SMILES IDX 53 45 34 46 37 47 52 48 72 49 35 50 36 51 51 53 73 54 38 55
REMARK SMILES IDX 21 56 22 57 31 58 23 59 24 60 30 61 32 62 25 63 26 64 27 65
REMARK SMILES IDX 28 66 29 67 55 68 56 69 65 70 57 71 58 72 64 73 66 74 59 75
REMARK SMILES IDX 60 76 61 77 62 78 63 79 39 80 40 81 49 82 41 83 42 84 48 85
REMARK SMILES IDX 50 86 43 87 44 88 45 89 46 90 47 91
REMARK H PARENT 2 8 71 41 37 52
REMARK Flexibility Score: inf
ROOT
ATOM      1  C   UNL     1      -2.378   0.056   2.195  1.00  0.00     0.274 C 
ENDROOT
BRANCH   1   2
ATOM      2  O   UNL     1      -1.153   0.236   1.454  1.00  0.00    -0.458 OA
BRANCH   2   3
ATOM      3  C   UNL     1      -1.294   0.443   0.124  1.00  0.00     0.361 C 
ATOM      4  O   UNL     1      -2.378   0.408  -0.459  1.00  0.00    -0.245 OA
BRANCH   3   5
ATOM      5  C   UNL     1      -0.020   0.755  -0.647  1.00  0.00     0.386 C 
BRANCH   5   6
ATOM      6  N   UNL     1       1.287   0.708   0.014  1.00  0.00    -0.320 N 
ATOM      7  C   UNL     1       1.646  -0.506   0.707  1.00  0.00     0.333 C 
ATOM      8  H   UNL     1       1.865   0.599  -0.819  1.00  0.00     0.348 HD
BRANCH   6   9
ATOM      9  C   UNL     1       1.858   1.966   0.508  1.00  0.00     0.364 C 
BRANCH   9  10
ATOM     10  C   UNL     1       1.708   2.316   1.952  1.00  0.00     0.282 A 
ATOM     11  N   UNL     1       1.415   1.584   3.007  1.00  0.00    -0.186 NA
ATOM     12  O   UNL     1       1.868   3.646   2.250  1.00  0.00    -0.333 OA
ATOM     13  C   UNL     1       1.192   2.551   3.955  1.00  0.00     0.203 A 
ATOM     14  N   UNL     1       1.524   3.797   3.598  1.00  0.00    -0.057 NA
BRANCH  13  15
ATOM     15  C   UNL     1       0.485   2.201   5.185  1.00  0.00     0.033 A 
ATOM     16  C   UNL     1      -0.536   3.026   5.749  1.00  0.00     0.024 A 
ATOM     17  C   UNL     1       0.638   1.020   5.877  1.00  0.00     0.077 A 
ATOM     18  C   UNL     1      -1.137   2.430   6.837  1.00  0.00     0.065 A 
ATOM     19  S   UNL     1      -0.440   0.909   7.202  1.00  0.00    -0.152 S 
ENDBRANCH  13  15
ENDBRANCH   9  10
ENDBRANCH   6   9
ENDBRANCH   5   6
ENDBRANCH   3   5
ENDBRANCH   2   3
ENDBRANCH   1   2
BRANCH   1  20
ATOM     20  C   UNL     1      -2.815   1.352   2.879  1.00  0.00     0.275 C 
BRANCH  20  21
ATOM     21  O   UNL     1      -3.141   2.381   1.925  1.00  0.00    -0.458 OA
BRANCH  21  22
ATOM     22  C   UNL     1      -2.101   3.176   1.607  1.00  0.00     0.338 C 
ATOM     23  O   UNL     1      -0.959   3.099   2.026  1.00  0.00    -0.246 OA
BRANCH  22  24
ATOM     24  C   UNL     1      -2.448   4.223   0.664  1.00  0.00     0.060 A 
ATOM     25  C   UNL     1      -2.562   3.927  -0.694  1.00  0.00     0.016 A 
ATOM     26  C   UNL     1      -2.504   5.536   1.138  1.00  0.00     0.016 A 
ATOM     27  C   UNL     1      -2.796   4.963  -1.591  1.00  0.00     0.010 A 
ATOM     28  C   UNL     1      -2.787   6.564   0.248  1.00  0.00     0.010 A 
ATOM     29  C   UNL     1      -2.972   6.273  -1.112  1.00  0.00    -0.014 A 
BRANCH  29  30
ATOM     30  C   UNL     1      -3.621   7.279  -1.974  1.00  0.00     0.031 A 
ATOM     31  C   UNL     1      -2.878   8.449  -2.529  1.00  0.00     0.074 A 
ATOM     32  C   UNL     1      -4.945   7.125  -2.167  1.00  0.00     0.049 A 
ATOM     33  N   UNL     1      -3.344   9.451  -3.225  1.00  0.00    -0.248 NA
ATOM     34  C   UNL     1      -1.433   8.512  -2.267  1.00  0.00     0.031 C 
ATOM     35  C   UNL     1      -5.747   6.019  -1.627  1.00  0.00     0.029 A 
ATOM     36  N   UNL     1      -5.853   7.890  -2.844  1.00  0.00    -0.354 N 
ATOM     37  C   UNL     1      -2.255  10.270  -3.489  1.00  0.00     0.074 A 
ATOM     38  C   UNL     1      -1.103   9.655  -2.861  1.00  0.00     0.031 C 
ATOM     39  C   UNL     1      -7.023   6.175  -2.000  1.00  0.00     0.029 A 
ATOM     40  C   UNL     1      -7.138   7.413  -2.756  1.00  0.00     0.049 A 
ATOM     41  H   UNL     1      -5.610   8.702  -3.345  1.00  0.00     0.167 HD
ATOM     42  C   UNL     1      -2.236  11.428  -4.192  1.00  0.00     0.037 A 
ATOM     43  C   UNL     1      -8.292   7.935  -3.204  1.00  0.00     0.037 A 
ATOM     44  C   UNL     1      -3.406  12.019  -4.793  1.00  0.00     0.049 A 
ATOM     45  C   UNL     1      -8.244   9.236  -3.940  1.00  0.00     0.074 A 
ATOM     46  C   UNL     1      -3.494  13.162  -5.569  1.00  0.00     0.029 A 
ATOM     47  N   UNL     1      -4.698  11.522  -4.669  1.00  0.00    -0.354 N 
ATOM     48  N   UNL     1      -7.199   9.976  -4.224  1.00  0.00    -0.248 NA
ATOM     49  C   UNL     1      -9.522   9.780  -4.407  1.00  0.00     0.031 C 
ATOM     50  C   UNL     1      -4.843  13.377  -5.878  1.00  0.00     0.029 A 
ATOM     51  C   UNL     1      -5.593  12.351  -5.325  1.00  0.00     0.049 A 
ATOM     52  H   UNL     1      -4.941  10.700  -4.185  1.00  0.00     0.167 HD
ATOM     53  C   UNL     1      -7.692  11.081  -4.900  1.00  0.00     0.074 A 
ATOM     54  C   UNL     1      -9.128  10.897  -5.004  1.00  0.00     0.031 C 
ATOM     55  C   UNL     1      -7.021  12.153  -5.386  1.00  0.00     0.037 A 
BRANCH  42  56
ATOM     56  C   UNL     1      -0.919  12.138  -4.339  1.00  0.00     0.058 A 
ATOM     57  C   UNL     1       0.077  11.668  -5.210  1.00  0.00     0.135 A 
ATOM     58  C   UNL     1      -0.669  13.331  -3.642  1.00  0.00     0.135 A 
ATOM     59  F   UNL     1      -0.106  10.527  -5.892  1.00  0.00    -0.206 F 
ATOM     60  C   UNL     1       1.282  12.347  -5.371  1.00  0.00     0.059 A 
ATOM     61  C   UNL     1       0.522  14.035  -3.800  1.00  0.00     0.059 A 
ATOM     62  F   UNL     1      -1.587  13.823  -2.796  1.00  0.00    -0.206 F 
ATOM     63  C   UNL     1       1.496  13.529  -4.659  1.00  0.00     0.060 A 
BRANCH  63  64
ATOM     64  S   UNL     1       3.061  14.402  -4.883  1.00  0.00     0.124 S 
ATOM     65  O   UNL     1       3.977  13.557  -4.123  1.00  0.00    -0.237 OA
ATOM     66  O   UNL     1       3.232  14.377  -6.332  1.00  0.00    -0.237 OA
ATOM     67  O   UNL     1       2.801  15.719  -4.310  1.00  0.00    -0.744 OA
ENDBRANCH  63  64
ENDBRANCH  42  56
BRANCH  43  68
ATOM     68  C   UNL     1      -9.564   7.221  -2.936  1.00  0.00     0.058 A 
ATOM     69  C   UNL     1     -10.226   6.526  -3.955  1.00  0.00     0.135 A 
ATOM     70  C   UNL     1     -10.094   7.150  -1.638  1.00  0.00     0.135 A 
ATOM     71  F   UNL     1      -9.752   6.562  -5.210  1.00  0.00    -0.206 F 
ATOM     72  C   UNL     1     -11.373   5.781  -3.699  1.00  0.00     0.059 A 
ATOM     73  C   UNL     1     -11.225   6.395  -1.352  1.00  0.00     0.059 A 
ATOM     74  F   UNL     1      -9.477   7.778  -0.624  1.00  0.00    -0.206 F 
ATOM     75  C   UNL     1     -11.861   5.718  -2.392  1.00  0.00     0.060 A 
BRANCH  75  76
ATOM     76  S   UNL     1     -13.304   4.686  -2.050  1.00  0.00     0.124 S 
ATOM     77  O   UNL     1     -14.389   5.534  -2.530  1.00  0.00    -0.237 OA
ATOM     78  O   UNL     1     -13.027   3.493  -2.843  1.00  0.00    -0.237 OA
ATOM     79  O   UNL     1     -13.241   4.495  -0.604  1.00  0.00    -0.744 OA
ENDBRANCH  75  76
ENDBRANCH  43  68
BRANCH  55  80
ATOM     80  C   UNL     1      -7.848  13.210  -6.054  1.00  0.00     0.058 A 
ATOM     81  C   UNL     1      -8.614  14.113  -5.302  1.00  0.00     0.135 A 
ATOM     82  C   UNL     1      -7.862  13.331  -7.452  1.00  0.00     0.135 A 
ATOM     83  F   UNL     1      -8.643  14.024  -3.963  1.00  0.00    -0.206 F 
ATOM     84  C   UNL     1      -9.383  15.094  -5.916  1.00  0.00     0.059 A 
ATOM     85  C   UNL     1      -8.608  14.318  -8.086  1.00  0.00     0.059 A 
ATOM     86  F   UNL     1      -7.143  12.490  -8.211  1.00  0.00    -0.206 F 
ATOM     87  C   UNL     1      -9.375  15.187  -7.309  1.00  0.00     0.060 A 
BRANCH  87  88
ATOM     88  S   UNL     1     -10.356  16.481  -8.096  1.00  0.00     0.124 S 
ATOM     89  O   UNL     1     -11.701  15.922  -8.009  1.00  0.00    -0.237 OA
ATOM     90  O   UNL     1     -10.094  17.638  -7.245  1.00  0.00    -0.237 OA
ATOM     91  O   UNL     1      -9.794  16.561  -9.441  1.00  0.00    -0.744 OA
ENDBRANCH  87  88
ENDBRANCH  55  80
ENDBRANCH  29  30
ENDBRANCH  22  24
ENDBRANCH  21  22
ENDBRANCH  20  21
ENDBRANCH   1  20
TORSDOF 18
