REMARK SMILES CSC[C@H](C(=O)OCCOC(=O)c1ccc(-c2c3nc(c(-c4c(F)cc(S(=O)(=O)[O-])cc4F)c4ccc([nH]4)c(-c4c(F)cc(S(=O)(=O)[O-])cc4F)c4nc(c(-c5c(F)cc(S(=O)(=O)[O-])cc5F)c5ccc2[nH]5)C=C4)C=C3)cc1)c1ccccc1
REMARK SMILES IDX 9 1 8 2 7 3 5 4 6 5 4 6 3 7 2 8 1 9 79 10 80 11 84 12 81 13
REMARK SMILES IDX 83 14 82 15 10 16 11 17 12 18 13 19 14 20 78 21 15 22 77 23
REMARK SMILES IDX 16 24 17 25 18 26 71 27 19 28 76 29 70 30 72 31 20 32 75 33
REMARK SMILES IDX 69 34 68 35 21 37 55 38 34 39 54 40 35 41 38 42 53 43 73 44
REMARK SMILES IDX 36 45 37 46 52 48 74 49 39 50 22 51 23 52 32 53 24 54 25 55
REMARK SMILES IDX 31 56 33 57 26 58 27 59 28 60 29 61 30 62 56 63 57 64 66 65
REMARK SMILES IDX 58 66 59 67 65 68 67 69 60 70 61 71 62 72 63 73 64 74 40 75
REMARK SMILES IDX 41 76 50 77 42 78 43 79 49 80 51 81 44 82 45 83 46 84 47 85
REMARK SMILES IDX 48 86
REMARK H PARENT 72 36 38 47
REMARK Flexibility Score: inf
ROOT
ATOM      1  C   UNL     1       0.631   3.926  -2.606  1.00  0.00     0.275 C 
ENDROOT
BRANCH   1   2
ATOM      2  C   UNL     1       0.379   2.542  -2.004  1.00  0.00     0.274 C 
BRANCH   2   3
ATOM      3  O   UNL     1      -0.071   2.586  -0.634  1.00  0.00    -0.462 OA
BRANCH   3   4
ATOM      4  C   UNL     1       0.943   2.581   0.284  1.00  0.00     0.314 C 
ATOM      5  O   UNL     1       2.118   2.656  -0.026  1.00  0.00    -0.252 OA
BRANCH   4   6
ATOM      6  C   UNL     1       0.431   2.394   1.707  1.00  0.00     0.139 C 
BRANCH   6   7
ATOM      7  C   UNL     1       1.073   1.098   2.271  1.00  0.00     0.089 C 
BRANCH   7   8
ATOM      8  S   UNL     1       2.860   1.034   2.739  1.00  0.00    -0.164 SA
ATOM      9  C   UNL     1       3.655   0.568   1.177  1.00  0.00     0.085 C 
ENDBRANCH   7   8
ENDBRANCH   6   7
BRANCH   6  10
ATOM     10  C   UNL     1       0.456   3.671   2.548  1.00  0.00    -0.033 A 
ATOM     11  C   UNL     1       1.076   3.761   3.804  1.00  0.00     0.004 A 
ATOM     12  C   UNL     1      -0.199   4.825   2.071  1.00  0.00     0.004 A 
ATOM     13  C   UNL     1       1.114   4.967   4.516  1.00  0.00     0.000 A 
ATOM     14  C   UNL     1      -0.163   6.031   2.784  1.00  0.00     0.000 A 
ATOM     15  C   UNL     1       0.505   6.105   4.001  1.00  0.00     0.000 A 
ENDBRANCH   6  10
ENDBRANCH   4   6
ENDBRANCH   3   4
ENDBRANCH   2   3
ENDBRANCH   1   2
BRANCH   1  16
ATOM     16  O   UNL     1       1.662   4.634  -1.894  1.00  0.00    -0.458 OA
BRANCH  16  17
ATOM     17  C   UNL     1       1.276   5.788  -1.311  1.00  0.00     0.338 C 
ATOM     18  O   UNL     1       0.169   6.312  -1.392  1.00  0.00    -0.246 OA
BRANCH  17  19
ATOM     19  C   UNL     1       2.353   6.382  -0.500  1.00  0.00     0.060 A 
ATOM     20  C   UNL     1       2.728   5.771   0.694  1.00  0.00     0.016 A 
ATOM     21  C   UNL     1       2.793   7.673  -0.786  1.00  0.00     0.016 A 
ATOM     22  C   UNL     1       3.406   6.496   1.671  1.00  0.00     0.010 A 
ATOM     23  C   UNL     1       3.556   8.369   0.160  1.00  0.00     0.010 A 
ATOM     24  C   UNL     1       3.802   7.815   1.430  1.00  0.00    -0.014 A 
BRANCH  24  25
ATOM     25  C   UNL     1       4.324   8.657   2.544  1.00  0.00     0.031 A 
ATOM     26  C   UNL     1       3.569   9.901   2.945  1.00  0.00     0.074 A 
ATOM     27  C   UNL     1       5.419   8.299   3.243  1.00  0.00     0.049 A 
ATOM     28  N   UNL     1       3.938  10.882   3.729  1.00  0.00    -0.248 NA
ATOM     29  C   UNL     1       2.220  10.068   2.378  1.00  0.00     0.031 C 
ATOM     30  C   UNL     1       6.197   7.076   3.039  1.00  0.00     0.029 A 
ATOM     31  N   UNL     1       6.061   8.930   4.281  1.00  0.00    -0.354 N 
ATOM     32  C   UNL     1       2.906  11.813   3.686  1.00  0.00     0.074 A 
ATOM     33  C   UNL     1       1.889  11.276   2.809  1.00  0.00     0.031 C 
ATOM     34  C   UNL     1       7.189   7.030   3.942  1.00  0.00     0.029 A 
ATOM     35  C   UNL     1       7.173   8.258   4.730  1.00  0.00     0.049 A 
ATOM     36  H   UNL     1       5.754   9.783   4.666  1.00  0.00     0.167 HD
ATOM     37  C   UNL     1       2.820  13.010   4.315  1.00  0.00     0.037 A 
ATOM     38  C   UNL     1       8.101   8.609   5.642  1.00  0.00     0.037 A 
ATOM     39  C   UNL     1       3.800  13.502   5.249  1.00  0.00     0.049 A 
ATOM     40  C   UNL     1       7.993   9.944   6.326  1.00  0.00     0.074 A 
ATOM     41  C   UNL     1       3.817  14.708   5.928  1.00  0.00     0.029 A 
ATOM     42  N   UNL     1       4.921  12.797   5.660  1.00  0.00    -0.354 N 
ATOM     43  N   UNL     1       7.074  10.870   6.187  1.00  0.00    -0.248 NA
ATOM     44  C   UNL     1       9.059  10.292   7.275  1.00  0.00     0.031 C 
ATOM     45  C   UNL     1       4.959  14.739   6.737  1.00  0.00     0.029 A 
ATOM     46  C   UNL     1       5.633  13.538   6.588  1.00  0.00     0.049 A 
ATOM     47  H   UNL     1       5.174  11.901   5.340  1.00  0.00     0.167 HD
ATOM     48  C   UNL     1       7.445  11.904   7.038  1.00  0.00     0.074 A 
ATOM     49  C   UNL     1       8.662  11.484   7.701  1.00  0.00     0.031 C 
ATOM     50  C   UNL     1       6.837  13.098   7.247  1.00  0.00     0.037 A 
BRANCH  37  51
ATOM     51  C   UNL     1       1.649  13.891   3.979  1.00  0.00     0.058 A 
ATOM     52  C   UNL     1       0.354  13.630   4.452  1.00  0.00     0.135 A 
ATOM     53  C   UNL     1       1.837  15.032   3.181  1.00  0.00     0.135 A 
ATOM     54  F   UNL     1       0.115  12.543   5.201  1.00  0.00    -0.206 F 
ATOM     55  C   UNL     1      -0.719  14.455   4.124  1.00  0.00     0.059 A 
ATOM     56  C   UNL     1       0.784  15.883   2.860  1.00  0.00     0.059 A 
ATOM     57  F   UNL     1       3.056  15.328   2.702  1.00  0.00    -0.206 F 
ATOM     58  C   UNL     1      -0.494  15.577   3.323  1.00  0.00     0.060 A 
BRANCH  58  59
ATOM     59  S   UNL     1      -1.892  16.639   2.900  1.00  0.00     0.124 S 
ATOM     60  O   UNL     1      -2.555  15.848   1.867  1.00  0.00    -0.237 OA
ATOM     61  O   UNL     1      -2.603  16.745   4.170  1.00  0.00    -0.237 OA
ATOM     62  O   UNL     1      -1.256  17.869   2.438  1.00  0.00    -0.744 OA
ENDBRANCH  58  59
ENDBRANCH  37  51
BRANCH  38  63
ATOM     63  C   UNL     1       9.242   7.698   5.924  1.00  0.00     0.058 A 
ATOM     64  C   UNL     1       9.350   7.029   7.151  1.00  0.00     0.135 A 
ATOM     65  C   UNL     1      10.239   7.466   4.963  1.00  0.00     0.135 A 
ATOM     66  F   UNL     1       8.430   7.229   8.107  1.00  0.00    -0.206 F 
ATOM     67  C   UNL     1      10.408   6.166   7.420  1.00  0.00     0.059 A 
ATOM     68  C   UNL     1      11.292   6.588   5.198  1.00  0.00     0.059 A 
ATOM     69  F   UNL     1      10.178   8.076   3.769  1.00  0.00    -0.206 F 
ATOM     70  C   UNL     1      11.373   5.949   6.434  1.00  0.00     0.060 A 
BRANCH  70  71
ATOM     71  S   UNL     1      12.711   4.782   6.762  1.00  0.00     0.124 S 
ATOM     72  O   UNL     1      13.600   5.582   7.596  1.00  0.00    -0.237 OA
ATOM     73  O   UNL     1      12.015   3.690   7.436  1.00  0.00    -0.237 OA
ATOM     74  O   UNL     1      13.211   4.465   5.427  1.00  0.00    -0.744 OA
ENDBRANCH  70  71
ENDBRANCH  38  63
BRANCH  50  75
ATOM     75  C   UNL     1       7.456  14.017   8.260  1.00  0.00     0.058 A 
ATOM     76  C   UNL     1       8.619  14.749   7.976  1.00  0.00     0.135 A 
ATOM     77  C   UNL     1       6.858  14.193   9.518  1.00  0.00     0.135 A 
ATOM     78  F   UNL     1       9.231  14.611   6.789  1.00  0.00    -0.206 F 
ATOM     79  C   UNL     1       9.182  15.608   8.914  1.00  0.00     0.059 A 
ATOM     80  C   UNL     1       7.392  15.062  10.463  1.00  0.00     0.059 A 
ATOM     81  F   UNL     1       5.739  13.521   9.834  1.00  0.00    -0.206 F 
ATOM     82  C   UNL     1       8.562  15.755  10.157  1.00  0.00     0.060 A 
BRANCH  82  83
ATOM     83  S   UNL     1       9.287  16.888  11.362  1.00  0.00     0.124 S 
ATOM     84  O   UNL     1      10.402  16.097  11.873  1.00  0.00    -0.237 OA
ATOM     85  O   UNL     1       9.651  18.037  10.537  1.00  0.00    -0.237 OA
ATOM     86  O   UNL     1       8.197  17.122  12.304  1.00  0.00    -0.744 OA
ENDBRANCH  82  83
ENDBRANCH  50  75
ENDBRANCH  24  25
ENDBRANCH  17  19
ENDBRANCH  16  17
ENDBRANCH   1  16
TORSDOF 17
