REMARK SMILES O=C(OCCOC(=O)[C@H]1Cc2[nH]cnc2CN1C(=O)N1CCC[C@H](O)C1)c1ccc(-c2c3nc(c(-c4c(F)cc(S(=O)(=O)[O-])cc4F)c4ccc([nH]4)c(-c4c(F)cc(S(=O)(=O)[O-])cc4F)c4nc(c(-c5c(F)cc(S(=O)(=O)[O-])cc5F)c5ccc2[nH]5)C=C4)C=C3)cc1
REMARK SMILES IDX 4 1 3 2 2 3 1 4 27 5 28 6 92 7 29 8 91 9 30 10 31 11 32 12
REMARK SMILES IDX 85 13 33 14 90 15 84 16 86 17 34 18 89 19 83 20 82 21 35 23
REMARK SMILES IDX 69 24 48 25 68 26 49 27 52 28 67 29 87 30 50 31 51 32 66 34
REMARK SMILES IDX 88 35 53 36 36 37 37 38 46 39 38 40 39 41 45 42 47 43 40 44
REMARK SMILES IDX 41 45 42 46 43 47 44 48 70 49 71 50 80 51 72 52 73 53 79 54
REMARK SMILES IDX 81 55 74 56 75 57 76 58 77 59 78 60 54 61 55 62 64 63 56 64
REMARK SMILES IDX 57 65 63 66 65 67 58 68 59 69 60 70 61 71 62 72 5 73 6 74
REMARK SMILES IDX 7 75 8 76 9 77 10 78 17 79 11 80 16 81 12 82 15 83 13 84
REMARK SMILES IDX 14 86 18 87 19 88 20 89 21 90 26 91 22 92 24 93 23 94 25 95
REMARK H PARENT 86 22 52 33 12 85 25 96
REMARK Flexibility Score: inf
ROOT
ATOM      1  C   UNL     1       4.027  -0.618   1.543  1.00  0.00     0.275 C 
ENDROOT
BRANCH   1   2
ATOM      2  O   UNL     1       2.630  -0.885   1.576  1.00  0.00    -0.458 OA
BRANCH   2   3
ATOM      3  C   UNL     1       1.637  -0.000   1.361  1.00  0.00     0.338 C 
ATOM      4  O   UNL     1       0.510  -0.429   1.115  1.00  0.00    -0.246 OA
BRANCH   3   5
ATOM      5  C   UNL     1       1.820   1.482   1.453  1.00  0.00     0.060 A 
ATOM      6  C   UNL     1       3.017   2.185   1.675  1.00  0.00     0.016 A 
ATOM      7  C   UNL     1       0.630   2.215   1.323  1.00  0.00     0.016 A 
ATOM      8  C   UNL     1       3.021   3.549   1.879  1.00  0.00     0.010 A 
ATOM      9  C   UNL     1       0.622   3.578   1.520  1.00  0.00     0.010 A 
ATOM     10  C   UNL     1       1.811   4.214   1.861  1.00  0.00    -0.014 A 
BRANCH  10  11
ATOM     11  C   UNL     1       1.797   5.610   2.227  1.00  0.00     0.031 A 
ATOM     12  C   UNL     1       2.309   6.538   1.184  1.00  0.00     0.074 A 
ATOM     13  C   UNL     1       1.174   5.954   3.368  1.00  0.00     0.049 A 
ATOM     14  N   UNL     1       3.299   7.367   1.244  1.00  0.00    -0.248 NA
ATOM     15  C   UNL     1       1.731   6.413  -0.168  1.00  0.00     0.031 C 
ATOM     16  C   UNL     1       0.416   5.087   4.280  1.00  0.00     0.029 A 
ATOM     17  N   UNL     1       0.944   7.192   3.864  1.00  0.00    -0.354 N 
ATOM     18  C   UNL     1       3.296   8.050   0.028  1.00  0.00     0.074 A 
ATOM     19  C   UNL     1       2.460   7.289  -0.858  1.00  0.00     0.031 C 
ATOM     20  C   UNL     1      -0.393   5.848   5.047  1.00  0.00     0.029 A 
ATOM     21  C   UNL     1      -0.101   7.242   4.783  1.00  0.00     0.049 A 
ATOM     22  H   UNL     1       1.468   7.983   3.601  1.00  0.00     0.167 HD
ATOM     23  C   UNL     1       3.766   9.324  -0.086  1.00  0.00     0.037 A 
ATOM     24  C   UNL     1      -0.726   8.381   5.171  1.00  0.00     0.037 A 
ATOM     25  C   UNL     1       4.625   9.660   1.018  1.00  0.00     0.049 A 
ATOM     26  C   UNL     1       0.197   9.505   4.826  1.00  0.00     0.074 A 
ATOM     27  C   UNL     1       5.795   9.123   1.520  1.00  0.00     0.029 A 
ATOM     28  N   UNL     1       4.101  10.426   2.034  1.00  0.00    -0.354 N 
ATOM     29  N   UNL     1       1.373   9.661   5.380  1.00  0.00    -0.248 NA
ATOM     30  C   UNL     1       0.041  10.129   3.518  1.00  0.00     0.031 C 
ATOM     31  C   UNL     1       5.623   9.148   2.935  1.00  0.00     0.029 A 
ATOM     32  C   UNL     1       4.412   9.787   3.208  1.00  0.00     0.049 A 
ATOM     33  H   UNL     1       3.601  11.268   1.937  1.00  0.00     0.167 HD
ATOM     34  C   UNL     1       2.216  10.048   4.344  1.00  0.00     0.074 A 
ATOM     35  C   UNL     1       1.324  10.372   3.231  1.00  0.00     0.031 C 
ATOM     36  C   UNL     1       3.559   9.793   4.376  1.00  0.00     0.037 A 
BRANCH  23  37
ATOM     37  C   UNL     1       3.154  10.377  -0.986  1.00  0.00     0.058 A 
ATOM     38  C   UNL     1       3.791  11.628  -1.117  1.00  0.00     0.135 A 
ATOM     39  C   UNL     1       1.833  10.316  -1.488  1.00  0.00     0.135 A 
ATOM     40  F   UNL     1       5.048  11.805  -0.679  1.00  0.00    -0.206 F 
ATOM     41  C   UNL     1       3.135  12.752  -1.622  1.00  0.00     0.059 A 
ATOM     42  C   UNL     1       1.181  11.408  -2.045  1.00  0.00     0.059 A 
ATOM     43  F   UNL     1       1.070   9.222  -1.380  1.00  0.00    -0.206 F 
ATOM     44  C   UNL     1       1.821  12.634  -2.064  1.00  0.00     0.060 A 
BRANCH  44  45
ATOM     45  S   UNL     1       0.926  14.102  -2.597  1.00  0.00     0.124 S 
ATOM     46  O   UNL     1       0.767  14.816  -1.335  1.00  0.00    -0.237 OA
ATOM     47  O   UNL     1       1.855  14.690  -3.555  1.00  0.00    -0.237 OA
ATOM     48  O   UNL     1      -0.298  13.554  -3.174  1.00  0.00    -0.744 OA
ENDBRANCH  44  45
ENDBRANCH  23  37
BRANCH  24  49
ATOM     49  C   UNL     1      -2.180   8.553   5.426  1.00  0.00     0.058 A 
ATOM     50  C   UNL     1      -2.674   9.697   6.075  1.00  0.00     0.135 A 
ATOM     51  C   UNL     1      -3.145   7.720   4.818  1.00  0.00     0.135 A 
ATOM     52  F   UNL     1      -1.826  10.556   6.660  1.00  0.00    -0.206 F 
ATOM     53  C   UNL     1      -4.037  10.017   6.088  1.00  0.00     0.059 A 
ATOM     54  C   UNL     1      -4.507   8.011   4.829  1.00  0.00     0.059 A 
ATOM     55  F   UNL     1      -2.783   6.637   4.114  1.00  0.00    -0.206 F 
ATOM     56  C   UNL     1      -4.945   9.175   5.444  1.00  0.00     0.060 A 
BRANCH  56  57
ATOM     57  S   UNL     1      -6.679   9.671   5.306  1.00  0.00     0.124 S 
ATOM     58  O   UNL     1      -7.136   9.554   6.686  1.00  0.00    -0.237 OA
ATOM     59  O   UNL     1      -6.569  11.029   4.783  1.00  0.00    -0.237 OA
ATOM     60  O   UNL     1      -7.239   8.693   4.377  1.00  0.00    -0.744 OA
ENDBRANCH  56  57
ENDBRANCH  24  49
BRANCH  36  61
ATOM     61  C   UNL     1       4.171   9.255   5.647  1.00  0.00     0.058 A 
ATOM     62  C   UNL     1       3.855   8.007   6.213  1.00  0.00     0.135 A 
ATOM     63  C   UNL     1       5.263   9.942   6.197  1.00  0.00     0.135 A 
ATOM     64  F   UNL     1       2.909   7.227   5.675  1.00  0.00    -0.206 F 
ATOM     65  C   UNL     1       4.560   7.486   7.300  1.00  0.00     0.059 A 
ATOM     66  C   UNL     1       6.003   9.428   7.259  1.00  0.00     0.059 A 
ATOM     67  F   UNL     1       5.666  11.104   5.657  1.00  0.00    -0.206 F 
ATOM     68  C   UNL     1       5.636   8.205   7.815  1.00  0.00     0.060 A 
BRANCH  68  69
ATOM     69  S   UNL     1       6.596   7.500   9.172  1.00  0.00     0.124 S 
ATOM     70  O   UNL     1       5.669   7.615  10.293  1.00  0.00    -0.237 OA
ATOM     71  O   UNL     1       6.858   6.142   8.703  1.00  0.00    -0.237 OA
ATOM     72  O   UNL     1       7.772   8.363   9.242  1.00  0.00    -0.744 OA
ENDBRANCH  68  69
ENDBRANCH  36  61
ENDBRANCH  10  11
ENDBRANCH   3   5
ENDBRANCH   2   3
ENDBRANCH   1   2
BRANCH   1  73
ATOM     73  C   UNL     1       4.579  -0.222   0.173  1.00  0.00     0.274 C 
BRANCH  73  74
ATOM     74  O   UNL     1       3.833   0.634  -0.710  1.00  0.00    -0.461 OA
BRANCH  74  75
ATOM     75  C   UNL     1       2.874   0.067  -1.494  1.00  0.00     0.329 C 
ATOM     76  O   UNL     1       2.376  -1.040  -1.281  1.00  0.00    -0.250 OA
BRANCH  75  77
ATOM     77  C   UNL     1       2.511   0.911  -2.715  1.00  0.00     0.203 C 
ATOM     78  C   UNL     1       2.458   2.414  -2.278  1.00  0.00     0.093 C 
ATOM     79  N   UNL     1       3.189   0.661  -4.049  1.00  0.00    -0.304 N 
ATOM     80  C   UNL     1       2.392   3.296  -3.457  1.00  0.00     0.042 A 
ATOM     81  C   UNL     1       2.690   1.484  -5.186  1.00  0.00     0.180 C 
ATOM     82  N   UNL     1       2.291   4.654  -3.486  1.00  0.00    -0.348 N 
ATOM     83  C   UNL     1       2.521   2.898  -4.761  1.00  0.00     0.081 A 
ATOM     84  C   UNL     1       2.378   5.027  -4.801  1.00  0.00     0.197 A 
ATOM     85  H   UNL     1       2.179   5.252  -2.712  1.00  0.00     0.167 HD
ATOM     86  N   UNL     1       2.500   3.985  -5.597  1.00  0.00    -0.240 NA
BRANCH  79  87
ATOM     87  C   UNL     1       4.143  -0.273  -4.402  1.00  0.00     0.321 C 
ATOM     88  O   UNL     1       4.601  -0.339  -5.548  1.00  0.00    -0.248 OA
BRANCH  87  89
ATOM     89  N   UNL     1       4.657  -1.126  -3.441  1.00  0.00    -0.322 N 
ATOM     90  C   UNL     1       3.942  -2.382  -3.215  1.00  0.00     0.121 C 
ATOM     91  C   UNL     1       6.093  -1.364  -3.578  1.00  0.00     0.153 C 
ATOM     92  C   UNL     1       4.413  -3.125  -1.962  1.00  0.00     0.024 C 
ATOM     93  C   UNL     1       6.716  -1.919  -2.301  1.00  0.00     0.134 C 
ATOM     94  C   UNL     1       5.927  -3.086  -1.687  1.00  0.00     0.035 C 
BRANCH  93  95
ATOM     95  O   UNL     1       6.909  -0.879  -1.339  1.00  0.00    -0.391 OA
ATOM     96  H   UNL     1       6.048  -0.514  -1.080  1.00  0.00     0.211 HD
ENDBRANCH  93  95
ENDBRANCH  87  89
ENDBRANCH  79  87
ENDBRANCH  75  77
ENDBRANCH  74  75
ENDBRANCH  73  74
ENDBRANCH   1  73
TORSDOF 17
