REMARK SMILES O=C(OCCOC(=O)c1ccc(-c2c3nc(c(-c4c(F)cc(S(=O)(=O)[O-])cc4F)c4ccc([nH]4)c(-c4c(F)cc(S(=O)(=O)[O-])cc4F)c4nc(c(-c5c(F)cc(S(=O)(=O)[O-])cc5F)c5ccc2[nH]5)C=C4)C=C3)cc1)C1=Cc2c(ccc(Cl)c2-c2ccccc2)O[C@H]1C(F)(F)F
REMARK SMILES IDX 5 1 4 2 3 3 2 4 1 5 75 6 76 7 91 8 77 9 90 10 78 11 83 12
REMARK SMILES IDX 79 13 81 14 80 15 82 16 92 17 93 18 94 19 95 20 84 21 85 22
REMARK SMILES IDX 89 23 86 24 88 25 87 26 6 27 7 28 8 29 9 30 10 31 74 32
REMARK SMILES IDX 11 33 73 34 12 35 13 36 14 37 67 38 15 39 72 40 66 41 68 42
REMARK SMILES IDX 16 43 71 44 65 45 64 46 17 48 51 49 30 50 50 51 31 52 34 53
REMARK SMILES IDX 49 54 69 55 32 56 33 57 48 59 70 60 35 61 18 62 19 63 28 64
REMARK SMILES IDX 20 65 21 66 27 67 29 68 22 69 23 70 24 71 25 72 26 73 52 74
REMARK SMILES IDX 53 75 62 76 54 77 55 78 61 79 63 80 56 81 57 82 58 83 59 84
REMARK SMILES IDX 60 85 36 86 37 87 46 88 38 89 39 90 45 91 47 92 40 93 41 94
REMARK SMILES IDX 42 95 43 96 44 97
REMARK H PARENT 68 47 34 58
REMARK Flexibility Score: inf
ROOT
ATOM      1  C   UNL     1       2.024  -1.584   1.243  1.00  0.00     0.275 C 
ENDROOT
BRANCH   1   2
ATOM      2  C   UNL     1       1.662  -0.225   0.661  1.00  0.00     0.275 C 
BRANCH   2   3
ATOM      3  O   UNL     1       1.627  -0.304  -0.779  1.00  0.00    -0.459 OA
BRANCH   3   4
ATOM      4  C   UNL     1       2.704  -0.189  -1.591  1.00  0.00     0.338 C 
ATOM      5  O   UNL     1       2.539   0.099  -2.773  1.00  0.00    -0.246 OA
BRANCH   4   6
ATOM      6  C   UNL     1       4.091  -0.415  -1.103  1.00  0.00     0.087 C 
ATOM      7  C   UNL     1       4.463  -0.649   0.166  1.00  0.00     0.028 C 
ATOM      8  C   UNL     1       5.164  -0.231  -2.154  1.00  0.00     0.316 C 
ATOM      9  C   UNL     1       5.499   0.286   0.643  1.00  0.00     0.027 A 
ATOM     10  O   UNL     1       6.444   0.224  -1.607  1.00  0.00    -0.475 OA
ATOM     11  C   UNL     1       6.445   0.688  -0.314  1.00  0.00     0.128 A 
ATOM     12  C   UNL     1       5.519   0.783   1.979  1.00  0.00     0.011 A 
ATOM     13  C   UNL     1       7.449   1.575   0.042  1.00  0.00     0.049 A 
ATOM     14  C   UNL     1       6.544   1.691   2.300  1.00  0.00     0.049 A 
ATOM     15  C   UNL     1       7.493   2.080   1.343  1.00  0.00     0.025 A 
ATOM     16  Cl  UNL     1       6.684   2.388   3.880  1.00  0.00    -0.084 Cl
BRANCH   8  17
ATOM     17  C   UNL     1       5.349  -1.548  -2.938  1.00  0.00     0.430 C 
ATOM     18  F   UNL     1       4.175  -2.179  -3.175  1.00  0.00    -0.167 F 
ATOM     19  F   UNL     1       5.946  -1.338  -4.131  1.00  0.00    -0.167 F 
ATOM     20  F   UNL     1       6.120  -2.421  -2.240  1.00  0.00    -0.167 F 
ENDBRANCH   8  17
BRANCH  12  21
ATOM     21  C   UNL     1       4.465   0.434   2.967  1.00  0.00    -0.016 A 
ATOM     22  C   UNL     1       3.372   1.300   3.168  1.00  0.00     0.009 A 
ATOM     23  C   UNL     1       4.475  -0.780   3.676  1.00  0.00     0.009 A 
ATOM     24  C   UNL     1       2.277   0.921   3.954  1.00  0.00     0.001 A 
ATOM     25  C   UNL     1       3.383  -1.154   4.477  1.00  0.00     0.001 A 
ATOM     26  C   UNL     1       2.272  -0.317   4.589  1.00  0.00     0.000 A 
ENDBRANCH  12  21
ENDBRANCH   4   6
ENDBRANCH   3   4
ENDBRANCH   2   3
ENDBRANCH   1   2
BRANCH   1  27
ATOM     27  O   UNL     1       0.910  -2.218   1.872  1.00  0.00    -0.458 OA
BRANCH  27  28
ATOM     28  C   UNL     1      -0.042  -2.713   1.051  1.00  0.00     0.338 C 
ATOM     29  O   UNL     1      -1.231  -2.516   1.235  1.00  0.00    -0.246 OA
BRANCH  28  30
ATOM     30  C   UNL     1       0.473  -3.533  -0.069  1.00  0.00     0.060 A 
ATOM     31  C   UNL     1      -0.216  -3.471  -1.277  1.00  0.00     0.016 A 
ATOM     32  C   UNL     1       1.599  -4.364   0.082  1.00  0.00     0.016 A 
ATOM     33  C   UNL     1       0.143  -4.335  -2.300  1.00  0.00     0.010 A 
ATOM     34  C   UNL     1       2.023  -5.150  -0.980  1.00  0.00     0.010 A 
ATOM     35  C   UNL     1       1.216  -5.221  -2.121  1.00  0.00    -0.014 A 
BRANCH  35  36
ATOM     36  C   UNL     1       1.271  -6.429  -2.967  1.00  0.00     0.031 A 
ATOM     37  C   UNL     1       0.820  -7.730  -2.352  1.00  0.00     0.074 A 
ATOM     38  C   UNL     1       1.624  -6.335  -4.258  1.00  0.00     0.049 A 
ATOM     39  N   UNL     1       0.712  -8.913  -2.893  1.00  0.00    -0.248 NA
ATOM     40  C   UNL     1       0.460  -7.700  -0.921  1.00  0.00     0.031 C 
ATOM     41  C   UNL     1       2.069  -5.110  -4.923  1.00  0.00     0.029 A 
ATOM     42  N   UNL     1       1.644  -7.284  -5.242  1.00  0.00    -0.354 N 
ATOM     43  C   UNL     1       0.293  -9.756  -1.868  1.00  0.00     0.074 A 
ATOM     44  C   UNL     1       0.239  -8.975  -0.659  1.00  0.00     0.031 C 
ATOM     45  C   UNL     1       2.305  -5.381  -6.218  1.00  0.00     0.029 A 
ATOM     46  C   UNL     1       2.045  -6.798  -6.461  1.00  0.00     0.049 A 
ATOM     47  H   UNL     1       1.396  -8.224  -5.090  1.00  0.00     0.167 HD
ATOM     48  C   UNL     1      -0.052 -11.062  -1.938  1.00  0.00     0.037 A 
ATOM     49  C   UNL     1       2.182  -7.439  -7.637  1.00  0.00     0.037 A 
ATOM     50  C   UNL     1      -0.024 -11.803  -3.166  1.00  0.00     0.049 A 
ATOM     51  C   UNL     1       1.789  -8.889  -7.704  1.00  0.00     0.074 A 
ATOM     52  C   UNL     1      -0.370 -13.120  -3.391  1.00  0.00     0.029 A 
ATOM     53  N   UNL     1       0.379 -11.272  -4.386  1.00  0.00    -0.354 N 
ATOM     54  N   UNL     1       1.356  -9.669  -6.738  1.00  0.00    -0.248 NA
ATOM     55  C   UNL     1       1.881  -9.546  -9.012  1.00  0.00     0.031 C 
ATOM     56  C   UNL     1      -0.135 -13.398  -4.742  1.00  0.00     0.029 A 
ATOM     57  C   UNL     1       0.308 -12.240  -5.368  1.00  0.00     0.049 A 
ATOM     58  H   UNL     1       0.672 -10.343  -4.528  1.00  0.00     0.167 HD
ATOM     59  C   UNL     1       1.097 -10.901  -7.326  1.00  0.00     0.074 A 
ATOM     60  C   UNL     1       1.423 -10.760  -8.733  1.00  0.00     0.031 C 
ATOM     61  C   UNL     1       0.630 -12.044  -6.762  1.00  0.00     0.037 A 
BRANCH  48  62
ATOM     62  C   UNL     1      -0.448 -11.740  -0.652  1.00  0.00     0.058 A 
ATOM     63  C   UNL     1      -1.622 -11.398   0.043  1.00  0.00     0.135 A 
ATOM     64  C   UNL     1       0.396 -12.698  -0.069  1.00  0.00     0.135 A 
ATOM     65  F   UNL     1      -2.457 -10.471  -0.453  1.00  0.00    -0.206 F 
ATOM     66  C   UNL     1      -1.910 -11.931   1.297  1.00  0.00     0.059 A 
ATOM     67  C   UNL     1       0.110 -13.270   1.169  1.00  0.00     0.059 A 
ATOM     68  F   UNL     1       1.531 -13.063  -0.684  1.00  0.00    -0.206 F 
ATOM     69  C   UNL     1      -1.029 -12.857   1.857  1.00  0.00     0.060 A 
BRANCH  69  70
ATOM     70  S   UNL     1      -1.377 -13.494   3.511  1.00  0.00     0.124 S 
ATOM     71  O   UNL     1      -1.010 -12.353   4.345  1.00  0.00    -0.237 OA
ATOM     72  O   UNL     1      -2.803 -13.793   3.440  1.00  0.00    -0.237 OA
ATOM     73  O   UNL     1      -0.500 -14.656   3.618  1.00  0.00    -0.744 OA
ENDBRANCH  69  70
ENDBRANCH  48  62
BRANCH  49  74
ATOM     74  C   UNL     1       2.685  -6.689  -8.817  1.00  0.00     0.058 A 
ATOM     75  C   UNL     1       1.835  -6.322  -9.870  1.00  0.00     0.135 A 
ATOM     76  C   UNL     1       4.016  -6.244  -8.868  1.00  0.00     0.135 A 
ATOM     77  F   UNL     1       0.555  -6.722  -9.869  1.00  0.00    -0.206 F 
ATOM     78  C   UNL     1       2.285  -5.537 -10.929  1.00  0.00     0.059 A 
ATOM     79  C   UNL     1       4.483  -5.442  -9.904  1.00  0.00     0.059 A 
ATOM     80  F   UNL     1       4.866  -6.553  -7.875  1.00  0.00    -0.206 F 
ATOM     81  C   UNL     1       3.609  -5.093 -10.932  1.00  0.00     0.060 A 
BRANCH  81  82
ATOM     82  S   UNL     1       4.158  -4.007 -12.267  1.00  0.00     0.124 S 
ATOM     83  O   UNL     1       4.199  -4.927 -13.398  1.00  0.00    -0.237 OA
ATOM     84  O   UNL     1       3.099  -3.003 -12.300  1.00  0.00    -0.237 OA
ATOM     85  O   UNL     1       5.454  -3.525 -11.799  1.00  0.00    -0.744 OA
ENDBRANCH  81  82
ENDBRANCH  49  74
BRANCH  61  86
ATOM     86  C   UNL     1       0.406 -13.219  -7.667  1.00  0.00     0.058 A 
ATOM     87  C   UNL     1       1.473 -13.994  -8.141  1.00  0.00     0.135 A 
ATOM     88  C   UNL     1      -0.902 -13.636  -7.964  1.00  0.00     0.135 A 
ATOM     89  F   UNL     1       2.740 -13.630  -7.884  1.00  0.00    -0.206 F 
ATOM     90  C   UNL     1       1.252 -15.146  -8.884  1.00  0.00     0.059 A 
ATOM     91  C   UNL     1      -1.146 -14.799  -8.684  1.00  0.00     0.059 A 
ATOM     92  F   UNL     1      -1.954 -12.932  -7.519  1.00  0.00    -0.206 F 
ATOM     93  C   UNL     1      -0.061 -15.546  -9.142  1.00  0.00     0.060 A 
BRANCH  93  94
ATOM     94  S   UNL     1      -0.334 -17.086 -10.041  1.00  0.00     0.124 S 
ATOM     95  O   UNL     1       0.023 -16.699 -11.401  1.00  0.00    -0.237 OA
ATOM     96  O   UNL     1       0.590 -18.002  -9.378  1.00  0.00    -0.237 OA
ATOM     97  O   UNL     1      -1.750 -17.364  -9.817  1.00  0.00    -0.744 OA
ENDBRANCH  93  94
ENDBRANCH  61  86
ENDBRANCH  35  36
ENDBRANCH  28  30
ENDBRANCH  27  28
ENDBRANCH   1  27
TORSDOF 16
