REMARK SMILES C#CCN(CC(=O)OCCOC(=O)c1ccc(-c2c3nc(c(-c4c(F)cc(S(=O)(=O)[O-])cc4F)c4ccc([nH]4)c(-c4c(F)cc(S(=O)(=O)[O-])cc4F)c4nc(c(-c5c(F)cc(S(=O)(=O)[O-])cc5F)c5ccc2[nH]5)C=C4)C=C3)cc1)S(=O)(=O)c1c(C)cc(C)cc1C
REMARK SMILES IDX 9 1 8 2 6 3 7 4 5 5 4 6 3 7 2 8 1 9 80 10 81 11 82 12 83 13
REMARK SMILES IDX 84 14 90 15 85 16 86 17 89 18 91 19 87 20 88 21 10 22 11 23
REMARK SMILES IDX 12 24 13 25 14 26 15 27 79 28 16 29 78 30 17 31 18 32 19 33
REMARK SMILES IDX 72 34 20 35 77 36 71 37 73 38 21 39 76 40 70 41 69 42 22 44
REMARK SMILES IDX 56 45 35 46 55 47 36 48 39 49 54 50 74 51 37 52 38 53 53 55
REMARK SMILES IDX 75 56 40 57 23 58 24 59 33 60 25 61 26 62 32 63 34 64 27 65
REMARK SMILES IDX 28 66 29 67 30 68 31 69 57 70 58 71 67 72 59 73 60 74 66 75
REMARK SMILES IDX 68 76 61 77 62 78 63 79 64 80 65 81 41 82 42 83 51 84 43 85
REMARK SMILES IDX 44 86 50 87 52 88 45 89 46 90 47 91 48 92 49 93
REMARK H PARENT 73 43 39 54
REMARK Flexibility Score: inf
ROOT
ATOM      1  C   UNL     1      -5.016  -0.379  -2.847  1.00  0.00     0.274 C 
ENDROOT
BRANCH   1   2
ATOM      2  O   UNL     1      -4.190  -0.543  -1.673  1.00  0.00    -0.461 OA
BRANCH   2   3
ATOM      3  C   UNL     1      -4.806  -0.965  -0.545  1.00  0.00     0.321 C 
ATOM      4  O   UNL     1      -6.026  -1.083  -0.446  1.00  0.00    -0.251 OA
BRANCH   3   5
ATOM      5  C   UNL     1      -3.899  -1.284   0.618  1.00  0.00     0.226 C 
BRANCH   5   6
ATOM      6  N   UNL     1      -2.439  -1.194   0.682  1.00  0.00    -0.175 NA
BRANCH   6   7
ATOM      7  C   UNL     1      -1.894   0.036   0.061  1.00  0.00     0.192 C 
BRANCH   7   8
ATOM      8  C   UNL     1      -0.374   0.036   0.061  1.00  0.00    -0.090 C 
ATOM      9  C   UNL     1       0.930   0.036   0.061  1.00  0.00     0.005 C 
ENDBRANCH   7   8
ENDBRANCH   6   7
BRANCH   6  10
ATOM     10  S   UNL     1      -1.416  -2.558   0.617  1.00  0.00     0.245 S 
ATOM     11  O   UNL     1      -1.119  -2.752  -0.787  1.00  0.00    -0.207 OA
ATOM     12  O   UNL     1      -0.326  -2.308   1.543  1.00  0.00    -0.207 OA
BRANCH  10  13
ATOM     13  C   UNL     1      -2.176  -4.035   1.298  1.00  0.00     0.088 A 
ATOM     14  C   UNL     1      -2.691  -4.015   2.622  1.00  0.00    -0.031 A 
ATOM     15  C   UNL     1      -1.930  -5.280   0.659  1.00  0.00    -0.031 A 
ATOM     16  C   UNL     1      -2.965  -2.774   3.428  1.00  0.00     0.046 C 
ATOM     17  C   UNL     1      -2.962  -5.238   3.269  1.00  0.00     0.008 A 
ATOM     18  C   UNL     1      -2.130  -6.466   1.387  1.00  0.00     0.008 A 
ATOM     19  C   UNL     1      -1.349  -5.453  -0.721  1.00  0.00     0.046 C 
ATOM     20  C   UNL     1      -2.635  -6.459   2.684  1.00  0.00    -0.051 A 
ATOM     21  C   UNL     1      -2.801  -7.742   3.446  1.00  0.00     0.044 C 
ENDBRANCH  10  13
ENDBRANCH   6  10
ENDBRANCH   5   6
ENDBRANCH   3   5
ENDBRANCH   2   3
ENDBRANCH   1   2
BRANCH   1  22
ATOM     22  C   UNL     1      -4.876  -1.565  -3.810  1.00  0.00     0.275 C 
BRANCH  22  23
ATOM     23  O   UNL     1      -5.468  -2.773  -3.285  1.00  0.00    -0.458 OA
BRANCH  23  24
ATOM     24  C   UNL     1      -4.629  -3.467  -2.490  1.00  0.00     0.338 C 
ATOM     25  O   UNL     1      -3.482  -3.144  -2.208  1.00  0.00    -0.246 OA
BRANCH  24  26
ATOM     26  C   UNL     1      -5.245  -4.618  -1.831  1.00  0.00     0.060 A 
ATOM     27  C   UNL     1      -5.438  -4.521  -0.456  1.00  0.00     0.016 A 
ATOM     28  C   UNL     1      -5.346  -5.851  -2.470  1.00  0.00     0.016 A 
ATOM     29  C   UNL     1      -5.610  -5.663   0.307  1.00  0.00     0.010 A 
ATOM     30  C   UNL     1      -5.622  -6.995  -1.707  1.00  0.00     0.010 A 
ATOM     31  C   UNL     1      -5.707  -6.919  -0.306  1.00  0.00    -0.014 A 
BRANCH  31  32
ATOM     32  C   UNL     1      -5.882  -8.111   0.564  1.00  0.00     0.031 A 
ATOM     33  C   UNL     1      -4.821  -9.177   0.652  1.00  0.00     0.074 A 
ATOM     34  C   UNL     1      -6.959  -8.170   1.374  1.00  0.00     0.049 A 
ATOM     35  N   UNL     1      -4.756 -10.206   1.460  1.00  0.00    -0.248 NA
ATOM     36  C   UNL     1      -3.671  -9.064  -0.258  1.00  0.00     0.031 C 
ATOM     37  C   UNL     1      -8.042  -7.182   1.410  1.00  0.00     0.029 A 
ATOM     38  N   UNL     1      -7.314  -9.083   2.333  1.00  0.00    -0.354 N 
ATOM     39  C   UNL     1      -3.540 -10.825   1.195  1.00  0.00     0.074 A 
ATOM     40  C   UNL     1      -2.920 -10.092   0.114  1.00  0.00     0.031 C 
ATOM     41  C   UNL     1      -8.924  -7.529   2.358  1.00  0.00     0.029 A 
ATOM     42  C   UNL     1      -8.509  -8.795   2.948  1.00  0.00     0.049 A 
ATOM     43  H   UNL     1      -6.767  -9.870   2.559  1.00  0.00     0.167 HD
ATOM     44  C   UNL     1      -2.977 -11.888   1.818  1.00  0.00     0.037 A 
ATOM     45  C   UNL     1      -9.217  -9.490   3.857  1.00  0.00     0.037 A 
ATOM     46  C   UNL     1      -3.622 -12.662   2.845  1.00  0.00     0.049 A 
ATOM     47  C   UNL     1      -8.670 -10.789   4.369  1.00  0.00     0.074 A 
ATOM     48  C   UNL     1      -3.146 -13.776   3.515  1.00  0.00     0.029 A 
ATOM     49  N   UNL     1      -4.900 -12.423   3.327  1.00  0.00    -0.354 N 
ATOM     50  N   UNL     1      -7.506 -11.342   4.125  1.00  0.00    -0.248 NA
ATOM     51  C   UNL     1      -9.537 -11.566   5.262  1.00  0.00     0.031 C 
ATOM     52  C   UNL     1      -4.160 -14.244   4.360  1.00  0.00     0.029 A 
ATOM     53  C   UNL     1      -5.251 -13.398   4.247  1.00  0.00     0.049 A 
ATOM     54  H   UNL     1      -5.474 -11.671   3.055  1.00  0.00     0.167 HD
ATOM     55  C   UNL     1      -7.498 -12.533   4.839  1.00  0.00     0.074 A 
ATOM     56  C   UNL     1      -8.766 -12.609   5.538  1.00  0.00     0.031 C 
ATOM     57  C   UNL     1      -6.527 -13.477   4.910  1.00  0.00     0.037 A 
BRANCH  44  58
ATOM     58  C   UNL     1      -1.595 -12.287   1.387  1.00  0.00     0.058 A 
ATOM     59  C   UNL     1      -0.464 -11.589   1.840  1.00  0.00     0.135 A 
ATOM     60  C   UNL     1      -1.394 -13.391   0.546  1.00  0.00     0.135 A 
ATOM     61  F   UNL     1      -0.605 -10.517   2.636  1.00  0.00    -0.206 F 
ATOM     62  C   UNL     1       0.821 -11.966   1.464  1.00  0.00     0.059 A 
ATOM     63  C   UNL     1      -0.117 -13.794   0.167  1.00  0.00     0.059 A 
ATOM     64  F   UNL     1      -2.444 -14.085   0.081  1.00  0.00    -0.206 F 
ATOM     65  C   UNL     1       0.985 -13.069   0.624  1.00  0.00     0.060 A 
BRANCH  65  66
ATOM     66  S   UNL     1       2.658 -13.547   0.141  1.00  0.00     0.124 S 
ATOM     67  O   UNL     1       3.013 -12.474  -0.782  1.00  0.00    -0.237 OA
ATOM     68  O   UNL     1       3.364 -13.545   1.418  1.00  0.00    -0.237 OA
ATOM     69  O   UNL     1       2.474 -14.861  -0.468  1.00  0.00    -0.744 OA
ENDBRANCH  65  66
ENDBRANCH  44  58
BRANCH  45  70
ATOM     70  C   UNL     1     -10.555  -8.998   4.275  1.00  0.00     0.058 A 
ATOM     71  C   UNL     1     -10.788  -8.518   5.570  1.00  0.00     0.135 A 
ATOM     72  C   UNL     1     -11.624  -8.975   3.364  1.00  0.00     0.135 A 
ATOM     73  F   UNL     1      -9.801  -8.529   6.479  1.00  0.00    -0.206 F 
ATOM     74  C   UNL     1     -12.036  -8.030   5.949  1.00  0.00     0.059 A 
ATOM     75  C   UNL     1     -12.870  -8.470   3.710  1.00  0.00     0.059 A 
ATOM     76  F   UNL     1     -11.447  -9.417   2.108  1.00  0.00    -0.206 F 
ATOM     77  C   UNL     1     -13.069  -8.007   5.009  1.00  0.00     0.060 A 
BRANCH  77  78
ATOM     78  S   UNL     1     -14.668  -7.311   5.479  1.00  0.00     0.124 S 
ATOM     79  O   UNL     1     -15.265  -8.421   6.211  1.00  0.00    -0.237 OA
ATOM     80  O   UNL     1     -14.281  -6.153   6.278  1.00  0.00    -0.237 OA
ATOM     81  O   UNL     1     -15.283  -6.996   4.193  1.00  0.00    -0.744 OA
ENDBRANCH  77  78
ENDBRANCH  45  70
BRANCH  57  82
ATOM     82  C   UNL     1      -6.812 -14.673   5.771  1.00  0.00     0.058 A 
ATOM     83  C   UNL     1      -7.703 -15.674   5.355  1.00  0.00     0.135 A 
ATOM     84  C   UNL     1      -6.196 -14.817   7.024  1.00  0.00     0.135 A 
ATOM     85  F   UNL     1      -8.325 -15.575   4.170  1.00  0.00    -0.206 F 
ATOM     86  C   UNL     1      -8.001 -16.762   6.168  1.00  0.00     0.059 A 
ATOM     87  C   UNL     1      -6.462 -15.909   7.843  1.00  0.00     0.059 A 
ATOM     88  F   UNL     1      -5.330 -13.890   7.462  1.00  0.00    -0.206 F 
ATOM     89  C   UNL     1      -7.381 -16.866   7.414  1.00  0.00     0.060 A 
BRANCH  89  90
ATOM     90  S   UNL     1      -7.774 -18.278   8.469  1.00  0.00     0.124 S 
ATOM     91  O   UNL     1      -9.041 -17.858   9.058  1.00  0.00    -0.237 OA
ATOM     92  O   UNL     1      -7.853 -19.378   7.512  1.00  0.00    -0.237 OA
ATOM     93  O   UNL     1      -6.640 -18.337   9.387  1.00  0.00    -0.744 OA
ENDBRANCH  89  90
ENDBRANCH  57  82
ENDBRANCH  31  32
ENDBRANCH  24  26
ENDBRANCH  23  24
ENDBRANCH  22  23
ENDBRANCH   1  22
TORSDOF 19
