REMARK SMILES Cc1cc(NC(=O)N2CCO[C@@H](CC(=O)OCCOC(=O)c3ccc(-c4c5nc(c(-c6c(F)cc(S(=O)(=O)[O-])cc6F)c6ccc([nH]6)c(-c6c(F)cc(S(=O)(=O)[O-])cc6F)c6nc(c(-c7c(F)cc(S(=O)(=O)[O-])cc7F)c7ccc4[nH]7)C=C6)C=C5)cc3)C2)ccc1F
REMARK SMILES IDX 17 1 16 2 14 3 15 4 13 5 12 6 8 7 9 8 88 9 10 10 11 11 6 12
REMARK SMILES IDX 5 13 7 15 4 16 1 17 2 18 3 19 91 20 90 21 92 22 89 23 18 24
REMARK SMILES IDX 19 25 20 26 21 27 22 28 23 29 87 30 24 31 86 32 25 33 26 34
REMARK SMILES IDX 27 35 80 36 28 37 85 38 79 39 81 40 29 41 84 42 78 43 77 44
REMARK SMILES IDX 30 46 64 47 43 48 63 49 44 50 47 51 62 52 82 53 45 54 46 55
REMARK SMILES IDX 61 57 83 58 48 59 31 60 32 61 41 62 33 63 34 64 40 65 42 66
REMARK SMILES IDX 35 67 36 68 37 69 38 70 39 71 65 72 66 73 75 74 67 75 68 76
REMARK SMILES IDX 74 77 76 78 69 79 70 80 71 81 72 82 73 83 49 84 50 85 59 86
REMARK SMILES IDX 51 87 52 88 58 89 60 90 53 91 54 92 55 93 56 94 57 95
REMARK H PARENT 5 14 81 45 47 56
REMARK Flexibility Score: inf
ROOT
ATOM      1  C   UNL     1      -8.784  -3.629  -2.427  1.00  0.00     0.274 C 
ENDROOT
BRANCH   1   2
ATOM      2  O   UNL     1      -7.519  -3.774  -1.771  1.00  0.00    -0.462 OA
BRANCH   2   3
ATOM      3  C   UNL     1      -7.543  -4.349  -0.552  1.00  0.00     0.308 C 
ATOM      4  O   UNL     1      -8.568  -4.601   0.077  1.00  0.00    -0.252 OA
BRANCH   3   5
ATOM      5  C   UNL     1      -6.175  -4.761  -0.075  1.00  0.00     0.156 C 
BRANCH   5   6
ATOM      6  C   UNL     1      -5.093  -3.704   0.159  1.00  0.00     0.149 C 
ATOM      7  N   UNL     1      -4.373  -1.393   0.718  1.00  0.00    -0.320 N 
ATOM      8  C   UNL     1      -3.566  -1.923   1.815  1.00  0.00     0.150 C 
ATOM      9  C   UNL     1      -5.544  -2.246   0.397  1.00  0.00     0.154 C 
ATOM     10  C   UNL     1      -3.175  -3.376   1.547  1.00  0.00     0.182 C 
ATOM     11  O   UNL     1      -4.341  -4.176   1.324  1.00  0.00    -0.374 OA
BRANCH   7  12
ATOM     12  C   UNL     1      -4.376  -0.072   0.351  1.00  0.00     0.322 C 
ATOM     13  N   UNL     1      -3.218   0.648   0.264  1.00  0.00    -0.308 N 
ATOM     14  H   UNL     1      -3.372   1.619   0.320  1.00  0.00     0.171 HD
ATOM     15  O   UNL     1      -5.428   0.550   0.174  1.00  0.00    -0.248 OA
BRANCH  13  16
ATOM     16  C   UNL     1      -1.855   0.325   0.112  1.00  0.00     0.043 A 
ATOM     17  C   UNL     1       1.489   2.189   0.205  1.00  0.00     0.047 C 
ATOM     18  C   UNL     1       0.466   1.100   0.101  1.00  0.00    -0.013 A 
ATOM     19  C   UNL     1      -0.912   1.361   0.215  1.00  0.00     0.032 A 
ATOM     20  C   UNL     1       0.887  -0.213  -0.106  1.00  0.00     0.126 A 
ATOM     21  C   UNL     1      -0.030  -1.239  -0.257  1.00  0.00     0.041 A 
ATOM     22  F   UNL     1       2.196  -0.495  -0.179  1.00  0.00    -0.207 F 
ATOM     23  C   UNL     1      -1.394  -0.954  -0.181  1.00  0.00     0.029 A 
ENDBRANCH  13  16
ENDBRANCH   7  12
ENDBRANCH   5   6
ENDBRANCH   3   5
ENDBRANCH   2   3
ENDBRANCH   1   2
BRANCH   1  24
ATOM     24  C   UNL     1      -8.568  -3.363  -3.916  1.00  0.00     0.275 C 
BRANCH  24  25
ATOM     25  O   UNL     1      -8.227  -4.487  -4.757  1.00  0.00    -0.458 OA
BRANCH  25  26
ATOM     26  C   UNL     1      -7.526  -5.530  -4.233  1.00  0.00     0.338 C 
ATOM     27  O   UNL     1      -7.883  -6.245  -3.330  1.00  0.00    -0.246 OA
BRANCH  26  28
ATOM     28  C   UNL     1      -6.255  -5.679  -4.992  1.00  0.00     0.060 A 
ATOM     29  C   UNL     1      -5.145  -6.255  -4.353  1.00  0.00     0.016 A 
ATOM     30  C   UNL     1      -6.128  -5.119  -6.264  1.00  0.00     0.016 A 
ATOM     31  C   UNL     1      -3.876  -6.148  -4.931  1.00  0.00     0.010 A 
ATOM     32  C   UNL     1      -4.874  -5.016  -6.834  1.00  0.00     0.010 A 
ATOM     33  C   UNL     1      -3.744  -5.484  -6.151  1.00  0.00    -0.014 A 
BRANCH  33  34
ATOM     34  C   UNL     1      -2.487  -5.309  -6.864  1.00  0.00     0.031 A 
ATOM     35  C   UNL     1      -1.931  -6.430  -7.653  1.00  0.00     0.074 A 
ATOM     36  C   UNL     1      -1.910  -4.093  -6.956  1.00  0.00     0.049 A 
ATOM     37  N   UNL     1      -0.716  -6.484  -8.089  1.00  0.00    -0.248 NA
ATOM     38  C   UNL     1      -2.717  -7.614  -7.990  1.00  0.00     0.031 C 
ATOM     39  C   UNL     1      -0.978  -3.644  -7.985  1.00  0.00     0.029 A 
ATOM     40  N   UNL     1      -1.959  -3.025  -6.076  1.00  0.00    -0.354 N 
ATOM     41  C   UNL     1      -0.653  -7.512  -9.000  1.00  0.00     0.074 A 
ATOM     42  C   UNL     1      -1.888  -8.245  -8.830  1.00  0.00     0.031 C 
ATOM     43  C   UNL     1      -0.391  -2.507  -7.584  1.00  0.00     0.029 A 
ATOM     44  C   UNL     1      -0.778  -2.274  -6.205  1.00  0.00     0.049 A 
ATOM     45  H   UNL     1      -2.701  -2.824  -5.461  1.00  0.00     0.167 HD
ATOM     46  C   UNL     1       0.364  -7.549  -9.908  1.00  0.00     0.037 A 
ATOM     47  C   UNL     1       0.127  -2.176  -5.175  1.00  0.00     0.037 A 
ATOM     48  C   UNL     1       1.289  -6.432  -9.733  1.00  0.00     0.049 A 
ATOM     49  C   UNL     1       1.443  -2.881  -5.400  1.00  0.00     0.074 A 
ATOM     50  C   UNL     1       1.399  -5.181 -10.319  1.00  0.00     0.029 A 
ATOM     51  N   UNL     1       2.105  -6.402  -8.620  1.00  0.00    -0.354 N 
ATOM     52  N   UNL     1       1.779  -3.479  -6.506  1.00  0.00    -0.248 NA
ATOM     53  C   UNL     1       2.451  -3.043  -4.350  1.00  0.00     0.031 C 
ATOM     54  C   UNL     1       2.281  -4.393  -9.528  1.00  0.00     0.029 A 
ATOM     55  C   UNL     1       2.714  -5.169  -8.469  1.00  0.00     0.049 A 
ATOM     56  H   UNL     1       2.238  -7.163  -8.010  1.00  0.00     0.167 HD
ATOM     57  C   UNL     1       2.960  -4.141  -6.323  1.00  0.00     0.074 A 
ATOM     58  C   UNL     1       3.352  -3.828  -4.961  1.00  0.00     0.031 C 
ATOM     59  C   UNL     1       3.518  -4.929  -7.285  1.00  0.00     0.037 A 
BRANCH  46  60
ATOM     60  C   UNL     1       0.372  -8.454 -11.117  1.00  0.00     0.058 A 
ATOM     61  C   UNL     1       0.921  -8.012 -12.339  1.00  0.00     0.135 A 
ATOM     62  C   UNL     1      -0.162  -9.758 -11.139  1.00  0.00     0.135 A 
ATOM     63  F   UNL     1       1.521  -6.820 -12.451  1.00  0.00    -0.206 F 
ATOM     64  C   UNL     1       0.869  -8.765 -13.510  1.00  0.00     0.059 A 
ATOM     65  C   UNL     1      -0.273 -10.512 -12.313  1.00  0.00     0.059 A 
ATOM     66  F   UNL     1      -0.563 -10.361 -10.010  1.00  0.00    -0.206 F 
ATOM     67  C   UNL     1       0.243 -10.003 -13.498  1.00  0.00     0.060 A 
BRANCH  67  68
ATOM     68  S   UNL     1       0.126 -10.919 -15.046  1.00  0.00     0.124 S 
ATOM     69  O   UNL     1      -0.496  -9.942 -15.936  1.00  0.00    -0.237 OA
ATOM     70  O   UNL     1       1.525 -11.227 -15.321  1.00  0.00    -0.237 OA
ATOM     71  O   UNL     1      -0.713 -12.063 -14.701  1.00  0.00    -0.744 OA
ENDBRANCH  67  68
ENDBRANCH  46  60
BRANCH  47  72
ATOM     72  C   UNL     1      -0.514  -2.032  -3.837  1.00  0.00     0.058 A 
ATOM     73  C   UNL     1      -1.238  -0.837  -3.678  1.00  0.00     0.135 A 
ATOM     74  C   UNL     1      -0.996  -3.203  -3.234  1.00  0.00     0.135 A 
ATOM     75  F   UNL     1      -0.744   0.320  -4.145  1.00  0.00    -0.206 F 
ATOM     76  C   UNL     1      -2.568  -0.883  -3.312  1.00  0.00     0.059 A 
ATOM     77  C   UNL     1      -2.326  -3.275  -2.861  1.00  0.00     0.059 A 
ATOM     78  F   UNL     1      -0.273  -4.332  -3.263  1.00  0.00    -0.206 F 
ATOM     79  C   UNL     1      -3.117  -2.136  -3.050  1.00  0.00     0.060 A 
BRANCH  79  80
ATOM     80  S   UNL     1      -4.848  -2.351  -3.477  1.00  0.00     0.124 S 
ATOM     81  O   UNL     1      -5.500  -1.240  -2.801  1.00  0.00    -0.237 OA
ATOM     82  O   UNL     1      -4.778  -2.257  -4.933  1.00  0.00    -0.237 OA
ATOM     83  O   UNL     1      -5.134  -3.670  -2.936  1.00  0.00    -0.744 OA
ENDBRANCH  79  80
ENDBRANCH  47  72
BRANCH  59  84
ATOM     84  C   UNL     1       4.877  -5.544  -7.133  1.00  0.00     0.058 A 
ATOM     85  C   UNL     1       5.959  -4.816  -6.608  1.00  0.00     0.135 A 
ATOM     86  C   UNL     1       5.168  -6.842  -7.597  1.00  0.00     0.135 A 
ATOM     87  F   UNL     1       5.812  -3.533  -6.238  1.00  0.00    -0.206 F 
ATOM     88  C   UNL     1       7.223  -5.376  -6.450  1.00  0.00     0.059 A 
ATOM     89  C   UNL     1       6.436  -7.404  -7.499  1.00  0.00     0.059 A 
ATOM     90  F   UNL     1       4.222  -7.626  -8.134  1.00  0.00    -0.206 F 
ATOM     91  C   UNL     1       7.447  -6.678  -6.884  1.00  0.00     0.060 A 
BRANCH  91  92
ATOM     92  S   UNL     1       9.069  -7.420  -6.640  1.00  0.00     0.124 S 
ATOM     93  O   UNL     1       9.973  -6.298  -6.873  1.00  0.00    -0.237 OA
ATOM     94  O   UNL     1       8.971  -7.874  -5.257  1.00  0.00    -0.237 OA
ATOM     95  O   UNL     1       9.114  -8.473  -7.649  1.00  0.00    -0.744 OA
ENDBRANCH  91  92
ENDBRANCH  59  84
ENDBRANCH  33  34
ENDBRANCH  26  28
ENDBRANCH  25  26
ENDBRANCH  24  25
ENDBRANCH   1  24
TORSDOF 17
