REMARK SMILES COc1ccc(NCc2ccc(C(=O)OCCOC(=O)c3ccc(-c4c5nc(c(-c6c(F)cc(S(=O)(=O)[O-])cc6F)c6ccc([nH]6)c(-c6c(F)cc(S(=O)(=O)[O-])cc6F)c6nc(c(-c7c(F)cc(S(=O)(=O)[O-])cc7F)c7ccc4[nH]7)C=C6)C=C5)cc3)cn2)cc1Br
REMARK SMILES IDX 16 1 15 2 13 3 14 4 12 5 9 6 10 7 88 8 11 9 87 10 8 11 7 12
REMARK SMILES IDX 6 14 3 15 4 16 90 17 5 18 89 19 91 20 2 21 1 22 17 23 18 24
REMARK SMILES IDX 19 25 20 26 21 27 22 28 86 29 23 30 85 31 24 32 25 33 26 34
REMARK SMILES IDX 79 35 27 36 84 37 78 38 80 39 28 40 83 41 77 42 76 43 29 45
REMARK SMILES IDX 63 46 42 47 62 48 43 49 46 50 61 51 81 52 44 53 45 54 60 56
REMARK SMILES IDX 82 57 47 58 30 59 31 60 40 61 32 62 33 63 39 64 41 65 34 66
REMARK SMILES IDX 35 67 36 68 37 69 38 70 64 71 65 72 74 73 66 74 67 75 73 76
REMARK SMILES IDX 75 77 68 78 69 79 70 80 71 81 72 82 48 83 49 84 58 85 50 86
REMARK SMILES IDX 51 87 57 88 59 89 52 90 53 91 54 92 55 93 56 94
REMARK H PARENT 7 13 80 44 46 55
REMARK Flexibility Score: inf
ROOT
ATOM      1  C   UNL     1       0.008  10.250  -9.112  1.00  0.00     0.275 C 
ENDROOT
BRANCH   1   2
ATOM      2  O   UNL     1      -0.022   8.813  -8.988  1.00  0.00    -0.458 OA
BRANCH   2   3
ATOM      3  C   UNL     1       1.132   8.247  -8.556  1.00  0.00     0.339 C 
ATOM      4  O   UNL     1       2.181   8.830  -8.321  1.00  0.00    -0.246 OA
BRANCH   3   5
ATOM      5  C   UNL     1       0.957   6.805  -8.308  1.00  0.00     0.078 A 
ATOM      6  C   UNL     1       0.736   4.148  -7.597  1.00  0.00     0.059 A 
ATOM      7  C   UNL     1      -0.155   4.679  -8.531  1.00  0.00     0.026 A 
ATOM      8  N   UNL     1       1.752   4.886  -7.071  1.00  0.00    -0.259 NA
ATOM      9  C   UNL     1      -0.047   6.027  -8.884  1.00  0.00     0.019 A 
ATOM     10  C   UNL     1       1.839   6.185  -7.435  1.00  0.00     0.127 A 
BRANCH   6  11
ATOM     11  C   UNL     1       0.576   2.712  -7.109  1.00  0.00     0.169 C 
BRANCH  11  12
ATOM     12  N   UNL     1       1.502   2.449  -6.020  1.00  0.00    -0.379 N 
ATOM     13  H   UNL     1       2.407   2.821  -6.125  1.00  0.00     0.160 HD
BRANCH  12  14
ATOM     14  C   UNL     1       1.271   1.744  -4.860  1.00  0.00     0.036 A 
ATOM     15  C   UNL     1       0.973   0.264  -2.463  1.00  0.00     0.133 A 
ATOM     16  C   UNL     1      -0.094   0.406  -3.349  1.00  0.00     0.050 A 
ATOM     17  C   UNL     1       2.209   0.816  -2.793  1.00  0.00     0.062 A 
ATOM     18  C   UNL     1       0.060   1.128  -4.540  1.00  0.00     0.029 A 
ATOM     19  C   UNL     1       2.344   1.558  -3.974  1.00  0.00     0.045 A 
ATOM     20  Br  UNL     1       3.767   0.543  -1.745  1.00  0.00    -0.047 Br
BRANCH  15  21
ATOM     21  O   UNL     1       0.746  -0.511  -1.357  1.00  0.00    -0.496 OA
ATOM     22  C   UNL     1       0.745   0.258  -0.150  1.00  0.00     0.278 C 
ENDBRANCH  15  21
ENDBRANCH  12  14
ENDBRANCH  11  12
ENDBRANCH   6  11
ENDBRANCH   3   5
ENDBRANCH   2   3
ENDBRANCH   1   2
BRANCH   1  23
ATOM     23  C   UNL     1      -0.622  10.912  -7.888  1.00  0.00     0.275 C 
BRANCH  23  24
ATOM     24  O   UNL     1       0.126  10.564  -6.710  1.00  0.00    -0.458 OA
BRANCH  24  25
ATOM     25  C   UNL     1      -0.609  10.209  -5.632  1.00  0.00     0.338 C 
ATOM     26  O   UNL     1      -1.829  10.205  -5.540  1.00  0.00    -0.246 OA
BRANCH  25  27
ATOM     27  C   UNL     1       0.283   9.819  -4.525  1.00  0.00     0.060 A 
ATOM     28  C   UNL     1       1.216   8.798  -4.705  1.00  0.00     0.016 A 
ATOM     29  C   UNL     1       0.113  10.397  -3.267  1.00  0.00     0.016 A 
ATOM     30  C   UNL     1       1.931   8.305  -3.612  1.00  0.00     0.010 A 
ATOM     31  C   UNL     1       0.887   9.953  -2.188  1.00  0.00     0.010 A 
ATOM     32  C   UNL     1       1.778   8.874  -2.337  1.00  0.00    -0.014 A 
BRANCH  32  33
ATOM     33  C   UNL     1       2.492   8.301  -1.157  1.00  0.00     0.031 A 
ATOM     34  C   UNL     1       1.709   7.761   0.015  1.00  0.00     0.074 A 
ATOM     35  C   UNL     1       3.839   8.238  -1.130  1.00  0.00     0.049 A 
ATOM     36  N   UNL     1       2.138   7.361   1.186  1.00  0.00    -0.248 NA
ATOM     37  C   UNL     1       0.248   7.676  -0.144  1.00  0.00     0.031 C 
ATOM     38  C   UNL     1       4.733   8.695  -2.195  1.00  0.00     0.029 A 
ATOM     39  N   UNL     1       4.694   7.748  -0.171  1.00  0.00    -0.354 N 
ATOM     40  C   UNL     1       1.002   7.039   1.921  1.00  0.00     0.074 A 
ATOM     41  C   UNL     1      -0.137   7.289   1.064  1.00  0.00     0.031 C 
ATOM     42  C   UNL     1       6.002   8.420  -1.854  1.00  0.00     0.029 A 
ATOM     43  C   UNL     1       6.022   7.835  -0.517  1.00  0.00     0.049 A 
ATOM     44  H   UNL     1       4.384   7.370   0.684  1.00  0.00     0.167 HD
ATOM     45  C   UNL     1       0.913   6.578   3.193  1.00  0.00     0.037 A 
ATOM     46  C   UNL     1       7.135   7.507   0.169  1.00  0.00     0.037 A 
ATOM     47  C   UNL     1       2.045   6.257   4.024  1.00  0.00     0.049 A 
ATOM     48  C   UNL     1       7.013   6.965   1.565  1.00  0.00     0.074 A 
ATOM     49  C   UNL     1       2.053   5.773   5.322  1.00  0.00     0.029 A 
ATOM     50  N   UNL     1       3.371   6.362   3.632  1.00  0.00    -0.354 N 
ATOM     51  N   UNL     1       5.930   6.736   2.268  1.00  0.00    -0.248 NA
ATOM     52  C   UNL     1       8.265   6.655   2.269  1.00  0.00     0.031 C 
ATOM     53  C   UNL     1       3.384   5.600   5.720  1.00  0.00     0.029 A 
ATOM     54  C   UNL     1       4.204   5.950   4.660  1.00  0.00     0.049 A 
ATOM     55  H   UNL     1       3.676   6.681   2.752  1.00  0.00     0.167 HD
ATOM     56  C   UNL     1       6.370   6.259   3.498  1.00  0.00     0.074 A 
ATOM     57  C   UNL     1       7.816   6.205   3.433  1.00  0.00     0.031 C 
ATOM     58  C   UNL     1       5.642   5.907   4.586  1.00  0.00     0.037 A 
BRANCH  45  59
ATOM     59  C   UNL     1      -0.462   6.418   3.779  1.00  0.00     0.058 A 
ATOM     60  C   UNL     1      -1.310   5.361   3.416  1.00  0.00     0.135 A 
ATOM     61  C   UNL     1      -0.927   7.329   4.743  1.00  0.00     0.135 A 
ATOM     62  F   UNL     1      -0.921   4.472   2.488  1.00  0.00    -0.206 F 
ATOM     63  C   UNL     1      -2.581   5.228   3.966  1.00  0.00     0.059 A 
ATOM     64  C   UNL     1      -2.185   7.202   5.324  1.00  0.00     0.059 A 
ATOM     65  F   UNL     1      -0.155   8.358   5.128  1.00  0.00    -0.206 F 
ATOM     66  C   UNL     1      -3.012   6.156   4.916  1.00  0.00     0.060 A 
BRANCH  66  67
ATOM     67  S   UNL     1      -4.664   5.977   5.623  1.00  0.00     0.124 S 
ATOM     68  O   UNL     1      -5.498   6.506   4.548  1.00  0.00    -0.237 OA
ATOM     69  O   UNL     1      -4.758   4.537   5.846  1.00  0.00    -0.237 OA
ATOM     70  O   UNL     1      -4.605   6.792   6.832  1.00  0.00    -0.744 OA
ENDBRANCH  66  67
ENDBRANCH  45  59
BRANCH  46  71
ATOM     71  C   UNL     1       8.470   7.710  -0.452  1.00  0.00     0.058 A 
ATOM     72  C   UNL     1       9.244   6.618  -0.873  1.00  0.00     0.135 A 
ATOM     73  C   UNL     1       8.986   8.998  -0.661  1.00  0.00     0.135 A 
ATOM     74  F   UNL     1       8.799   5.367  -0.680  1.00  0.00    -0.206 F 
ATOM     75  C   UNL     1      10.484   6.795  -1.478  1.00  0.00     0.059 A 
ATOM     76  C   UNL     1      10.212   9.201  -1.286  1.00  0.00     0.059 A 
ATOM     77  F   UNL     1       8.279  10.074  -0.284  1.00  0.00    -0.206 F 
ATOM     78  C   UNL     1      10.957   8.092  -1.685  1.00  0.00     0.060 A 
BRANCH  78  79
ATOM     79  S   UNL     1      12.530   8.324  -2.542  1.00  0.00     0.124 S 
ATOM     80  O   UNL     1      13.487   8.083  -1.468  1.00  0.00    -0.237 OA
ATOM     81  O   UNL     1      12.472   7.306  -3.586  1.00  0.00    -0.237 OA
ATOM     82  O   UNL     1      12.448   9.702  -3.019  1.00  0.00    -0.744 OA
ENDBRANCH  78  79
ENDBRANCH  46  71
BRANCH  58  83
ATOM     83  C   UNL     1       6.401   5.425   5.788  1.00  0.00     0.058 A 
ATOM     84  C   UNL     1       7.089   6.317   6.625  1.00  0.00     0.135 A 
ATOM     85  C   UNL     1       6.428   4.061   6.117  1.00  0.00     0.135 A 
ATOM     86  F   UNL     1       7.096   7.631   6.350  1.00  0.00    -0.206 F 
ATOM     87  C   UNL     1       7.804   5.870   7.731  1.00  0.00     0.059 A 
ATOM     88  C   UNL     1       7.122   3.593   7.229  1.00  0.00     0.059 A 
ATOM     89  F   UNL     1       5.778   3.168   5.354  1.00  0.00    -0.206 F 
ATOM     90  C   UNL     1       7.821   4.505   8.021  1.00  0.00     0.060 A 
BRANCH  90  91
ATOM     91  S   UNL     1       8.746   3.931   9.462  1.00  0.00     0.124 S 
ATOM     92  O   UNL     1      10.114   3.936   8.952  1.00  0.00    -0.237 OA
ATOM     93  O   UNL     1       8.440   4.949  10.462  1.00  0.00    -0.237 OA
ATOM     94  O   UNL     1       8.177   2.613   9.725  1.00  0.00    -0.744 OA
ENDBRANCH  90  91
ENDBRANCH  58  83
ENDBRANCH  32  33
ENDBRANCH  25  27
ENDBRANCH  24  25
ENDBRANCH  23  24
ENDBRANCH   1  23
TORSDOF 18
