REMARK SMILES C[C@@H](Nc1ccc(C(=O)OCCOC(=O)c2ccc(-c3c4nc(c(-c5c(F)cc(S(=O)(=O)[O-])cc5F)c5ccc([nH]5)c(-c5c(F)cc(S(=O)(=O)[O-])cc5F)c5nc(c(-c6c(F)cc(S(=O)(=O)[O-])cc6F)c6ccc3[nH]6)C=C5)C=C4)cc2)cc1)C1CC[NH+](C)CC1
REMARK SMILES IDX 11 1 10 2 8 3 9 4 7 5 4 6 5 7 83 8 6 9 82 10 3 11 2 13 1 14
REMARK SMILES IDX 84 15 85 16 90 17 86 18 89 19 87 20 88 21 12 23 13 24 14 25
REMARK SMILES IDX 15 26 16 27 17 28 81 29 18 30 80 31 19 32 20 33 21 34 74 35
REMARK SMILES IDX 22 36 79 37 73 38 75 39 23 40 78 41 72 42 71 43 24 45 58 46
REMARK SMILES IDX 37 47 57 48 38 49 41 50 56 51 76 52 39 53 40 54 55 56 77 57
REMARK SMILES IDX 42 58 25 59 26 60 35 61 27 62 28 63 34 64 36 65 29 66 30 67
REMARK SMILES IDX 31 68 32 69 33 70 59 71 60 72 69 73 61 74 62 75 68 76 70 77
REMARK SMILES IDX 63 78 64 79 65 80 66 81 67 82 43 83 44 84 53 85 45 86 46 87
REMARK SMILES IDX 52 88 54 89 47 90 48 91 49 92 50 93 51 94
REMARK H PARENT 3 12 87 22 75 44 41 55
REMARK Flexibility Score: inf
ROOT
ATOM      1  C   UNL     1      -4.433   2.771   7.761  1.00  0.00     0.275 C 
ENDROOT
BRANCH   1   2
ATOM      2  O   UNL     1      -3.585   1.980   6.910  1.00  0.00    -0.458 OA
BRANCH   2   3
ATOM      3  C   UNL     1      -3.072   2.648   5.854  1.00  0.00     0.338 C 
ATOM      4  O   UNL     1      -3.385   3.762   5.466  1.00  0.00    -0.246 OA
BRANCH   3   5
ATOM      5  C   UNL     1      -1.948   1.912   5.273  1.00  0.00     0.060 A 
ATOM      6  C   UNL     1       0.765   0.239   3.535  1.00  0.00     0.034 A 
ATOM      7  C   UNL     1       0.492   2.017   3.267  1.00  0.00     0.026 A 
ATOM      8  C   UNL     1      -0.193  -0.670   4.786  1.00  0.00     0.026 A 
ATOM      9  C   UNL     1      -0.884   2.848   4.126  1.00  0.00     0.018 A 
ATOM     10  C   UNL     1      -1.573   0.184   5.667  1.00  0.00     0.018 A 
BRANCH   6  11
ATOM     11  N   UNL     1       1.461  -0.449   2.544  1.00  0.00    -0.382 N 
ATOM     12  H   UNL     1       2.402  -0.706   2.672  1.00  0.00     0.160 HD
BRANCH  11  13
ATOM     13  C   UNL     1       0.748  -0.782   1.295  1.00  0.00     0.079 C 
ATOM     14  C   UNL     1       1.403  -0.030   0.129  1.00  0.00     0.031 C 
BRANCH  13  15
ATOM     15  C   UNL     1      -0.813  -0.706   1.193  1.00  0.00     0.022 C 
ATOM     16  C   UNL     1      -1.503   0.645   1.002  1.00  0.00     0.067 C 
ATOM     17  C   UNL     1      -1.578  -1.457   2.272  1.00  0.00     0.067 C 
ATOM     18  C   UNL     1      -1.633   1.511   2.265  1.00  0.00     0.262 C 
ATOM     19  C   UNL     1      -2.110  -0.539   3.390  1.00  0.00     0.262 C 
ATOM     20  N   UNL     1      -1.250   0.792   3.644  1.00  0.00    -0.337 N 
ATOM     21  C   UNL     1       0.064   1.327   5.164  1.00  0.00     0.332 C 
ATOM     22  H   UNL     1      -0.826   1.158   4.497  1.00  0.00     0.347 HD
ENDBRANCH  13  15
ENDBRANCH  11  13
ENDBRANCH   6  11
ENDBRANCH   3   5
ENDBRANCH   2   3
ENDBRANCH   1   2
BRANCH   1  23
ATOM     23  C   UNL     1      -3.655   3.240   8.993  1.00  0.00     0.275 C 
BRANCH  23  24
ATOM     24  O   UNL     1      -2.628   4.193   8.648  1.00  0.00    -0.458 OA
BRANCH  24  25
ATOM     25  C   UNL     1      -1.384   3.674   8.532  1.00  0.00     0.338 C 
ATOM     26  O   UNL     1      -1.054   2.508   8.679  1.00  0.00    -0.246 OA
BRANCH  25  27
ATOM     27  C   UNL     1      -0.422   4.708   8.121  1.00  0.00     0.060 A 
ATOM     28  C   UNL     1      -0.183   4.876   6.763  1.00  0.00     0.016 A 
ATOM     29  C   UNL     1       0.385   5.353   9.051  1.00  0.00     0.016 A 
ATOM     30  C   UNL     1       0.939   5.570   6.319  1.00  0.00     0.010 A 
ATOM     31  C   UNL     1       1.437   6.164   8.600  1.00  0.00     0.010 A 
ATOM     32  C   UNL     1       1.756   6.250   7.230  1.00  0.00    -0.014 A 
BRANCH  32  33
ATOM     33  C   UNL     1       2.935   7.039   6.758  1.00  0.00     0.031 A 
ATOM     34  C   UNL     1       4.313   6.765   7.311  1.00  0.00     0.074 A 
ATOM     35  C   UNL     1       2.777   8.016   5.840  1.00  0.00     0.049 A 
ATOM     36  N   UNL     1       5.419   7.450   7.163  1.00  0.00    -0.248 NA
ATOM     37  C   UNL     1       4.461   5.571   8.158  1.00  0.00     0.031 C 
ATOM     38  C   UNL     1       1.518   8.365   5.179  1.00  0.00     0.029 A 
ATOM     39  N   UNL     1       3.681   8.903   5.306  1.00  0.00    -0.354 N 
ATOM     40  C   UNL     1       6.381   6.799   7.931  1.00  0.00     0.074 A 
ATOM     41  C   UNL     1       5.715   5.683   8.570  1.00  0.00     0.031 C 
ATOM     42  C   UNL     1       1.734   9.361   4.308  1.00  0.00     0.029 A 
ATOM     43  C   UNL     1       3.121   9.793   4.418  1.00  0.00     0.049 A 
ATOM     44  H   UNL     1       4.638   8.902   5.537  1.00  0.00     0.167 HD
ATOM     45  C   UNL     1       7.695   7.098   8.085  1.00  0.00     0.037 A 
ATOM     46  C   UNL     1       3.643  10.867   3.794  1.00  0.00     0.037 A 
ATOM     47  C   UNL     1       8.353   8.203   7.428  1.00  0.00     0.049 A 
ATOM     48  C   UNL     1       5.078  11.235   4.046  1.00  0.00     0.074 A 
ATOM     49  C   UNL     1       9.681   8.586   7.510  1.00  0.00     0.029 A 
ATOM     50  N   UNL     1       7.734   9.103   6.571  1.00  0.00    -0.354 N 
ATOM     51  N   UNL     1       5.966  10.626   4.794  1.00  0.00    -0.248 NA
ATOM     52  C   UNL     1       5.579  12.442   3.377  1.00  0.00     0.031 C 
ATOM     53  C   UNL     1       9.849   9.753   6.757  1.00  0.00     0.029 A 
ATOM     54  C   UNL     1       8.645  10.056   6.141  1.00  0.00     0.049 A 
ATOM     55  H   UNL     1       6.786   9.070   6.308  1.00  0.00     0.167 HD
ATOM     56  C   UNL     1       7.142  11.356   4.657  1.00  0.00     0.074 A 
ATOM     57  C   UNL     1       6.851  12.446   3.749  1.00  0.00     0.031 C 
ATOM     58  C   UNL     1       8.352  11.136   5.229  1.00  0.00     0.037 A 
BRANCH  45  59
ATOM     59  C   UNL     1       8.501   6.242   9.032  1.00  0.00     0.058 A 
ATOM     60  C   UNL     1       8.776   4.890   8.770  1.00  0.00     0.135 A 
ATOM     61  C   UNL     1       9.012   6.787  10.223  1.00  0.00     0.135 A 
ATOM     62  F   UNL     1       8.312   4.309   7.652  1.00  0.00    -0.206 F 
ATOM     63  C   UNL     1       9.475   4.097   9.677  1.00  0.00     0.059 A 
ATOM     64  C   UNL     1       9.747   6.023  11.126  1.00  0.00     0.059 A 
ATOM     65  F   UNL     1       8.793   8.076  10.527  1.00  0.00    -0.206 F 
ATOM     66  C   UNL     1       9.951   4.672  10.856  1.00  0.00     0.060 A 
BRANCH  66  67
ATOM     67  S   UNL     1      10.823   3.621  12.037  1.00  0.00     0.124 S 
ATOM     68  O   UNL     1       9.736   2.787  12.542  1.00  0.00    -0.237 OA
ATOM     69  O   UNL     1      11.800   2.944  11.190  1.00  0.00    -0.237 OA
ATOM     70  O   UNL     1      11.379   4.572  12.995  1.00  0.00    -0.744 OA
ENDBRANCH  66  67
ENDBRANCH  45  59
BRANCH  46  71
ATOM     71  C   UNL     1       2.793  11.675   2.876  1.00  0.00     0.058 A 
ATOM     72  C   UNL     1       3.043  11.692   1.497  1.00  0.00     0.135 A 
ATOM     73  C   UNL     1       1.700  12.420   3.350  1.00  0.00     0.135 A 
ATOM     74  F   UNL     1       4.083  11.008   0.995  1.00  0.00    -0.206 F 
ATOM     75  C   UNL     1       2.245  12.419   0.620  1.00  0.00     0.059 A 
ATOM     76  C   UNL     1       0.867  13.127   2.489  1.00  0.00     0.059 A 
ATOM     77  F   UNL     1       1.410  12.431   4.660  1.00  0.00    -0.206 F 
ATOM     78  C   UNL     1       1.152  13.124   1.125  1.00  0.00     0.060 A 
BRANCH  78  79
ATOM     79  S   UNL     1       0.085  14.004  -0.036  1.00  0.00     0.124 S 
ATOM     80  O   UNL     1       0.959  15.083  -0.481  1.00  0.00    -0.237 OA
ATOM     81  O   UNL     1      -0.207  12.970  -1.023  1.00  0.00    -0.237 OA
ATOM     82  O   UNL     1      -1.048  14.411   0.790  1.00  0.00    -0.744 OA
ENDBRANCH  78  79
ENDBRANCH  46  71
BRANCH  58  83
ATOM     83  C   UNL     1       9.478  12.062   4.849  1.00  0.00     0.058 A 
ATOM     84  C   UNL     1       9.516  13.403   5.263  1.00  0.00     0.135 A 
ATOM     85  C   UNL     1      10.563  11.581   4.096  1.00  0.00     0.135 A 
ATOM     86  F   UNL     1       8.503  13.920   5.975  1.00  0.00    -0.206 F 
ATOM     87  C   UNL     1      10.576  14.239   4.923  1.00  0.00     0.059 A 
ATOM     88  C   UNL     1      11.649  12.389   3.776  1.00  0.00     0.059 A 
ATOM     89  F   UNL     1      10.583  10.305   3.678  1.00  0.00    -0.206 F 
ATOM     90  C   UNL     1      11.641  13.720   4.184  1.00  0.00     0.060 A 
BRANCH  90  91
ATOM     91  S   UNL     1      13.028  14.806   3.788  1.00  0.00     0.124 S 
ATOM     92  O   UNL     1      12.426  15.709   2.812  1.00  0.00    -0.237 OA
ATOM     93  O   UNL     1      13.342  15.394   5.086  1.00  0.00    -0.237 OA
ATOM     94  O   UNL     1      14.036  13.893   3.259  1.00  0.00    -0.744 OA
ENDBRANCH  90  91
ENDBRANCH  58  83
ENDBRANCH  32  33
ENDBRANCH  25  27
ENDBRANCH  24  25
ENDBRANCH  23  24
ENDBRANCH   1  23
TORSDOF 17
