REMARK SMILES CC[NH2+]C(C)(C)C(=O)N[C@@](C)(C(=O)OCCOC(=O)c1ccc(-c2c3nc(c(-c4c(F)cc(S(=O)(=O)[O-])cc4F)c4ccc([nH]4)c(-c4c(F)cc(S(=O)(=O)[O-])cc4F)c4nc(c(-c5c(F)cc(S(=O)(=O)[O-])cc5F)c5ccc2[nH]5)C=C4)C=C3)cc1)C(F)(F)F
REMARK SMILES IDX 15 1 14 2 12 3 13 4 10 5 11 6 9 7 7 8 8 9 4 11 5 12 6 13
REMARK SMILES IDX 3 14 2 17 1 18 86 19 87 20 88 21 89 22 16 23 17 24 18 25
REMARK SMILES IDX 19 26 20 27 21 28 85 29 22 30 84 31 23 32 24 33 25 34 78 35
REMARK SMILES IDX 26 36 83 37 77 38 79 39 27 40 82 41 76 42 75 43 28 45 62 46
REMARK SMILES IDX 41 47 61 48 42 49 45 50 60 51 80 52 43 53 44 54 59 56 81 57
REMARK SMILES IDX 46 58 29 59 30 60 39 61 31 62 32 63 38 64 40 65 33 66 34 67
REMARK SMILES IDX 35 68 36 69 37 70 63 71 64 72 73 73 65 74 66 75 72 76 74 77
REMARK SMILES IDX 67 78 68 79 69 80 70 81 71 82 47 83 48 84 57 85 49 86 50 87
REMARK SMILES IDX 56 88 58 89 51 90 52 91 53 92 54 93 55 94
REMARK H PARENT 9 10 3 15 3 16 79 44 45 55
REMARK Flexibility Score: inf
ROOT
ATOM      1  C   UNL     1      -2.989  -7.065   3.071  1.00  0.00     0.274 C 
ENDROOT
BRANCH   1   2
ATOM      2  O   UNL     1      -2.489  -5.773   3.484  1.00  0.00    -0.460 OA
BRANCH   2   3
ATOM      3  C   UNL     1      -1.427  -5.795   4.352  1.00  0.00     0.341 C 
ATOM      4  O   UNL     1      -0.872  -6.828   4.701  1.00  0.00    -0.249 OA
BRANCH   3   5
ATOM      5  C   UNL     1      -1.212  -4.425   5.010  1.00  0.00     0.231 C 
ATOM      6  C   UNL     1      -2.223  -4.405   6.188  1.00  0.00     0.058 C 
BRANCH   5   7
ATOM      7  N   UNL     1      -1.662  -3.288   4.101  1.00  0.00    -0.328 N 
ATOM      8  C   UNL     1      -1.217  -2.371   3.201  1.00  0.00     0.281 C 
ATOM      9  O   UNL     1      -2.150  -1.817   2.601  1.00  0.00    -0.268 OA
ATOM     10  H   UNL     1      -2.635  -3.177   4.203  1.00  0.00     0.165 HD
BRANCH   8  11
ATOM     11  C   UNL     1       0.277  -2.011   2.909  1.00  0.00     0.169 C 
ATOM     12  C   UNL     1       0.942  -3.196   2.218  1.00  0.00     0.090 C 
ATOM     13  C   UNL     1       0.980  -1.632   4.227  1.00  0.00     0.090 C 
BRANCH  11  14
ATOM     14  N   UNL     1       0.425  -0.782   2.070  1.00  0.00    -0.334 N 
ATOM     15  H   UNL     1      -0.128  -0.046   2.510  1.00  0.00     0.347 HD
ATOM     16  H   UNL     1       1.431  -0.618   2.033  1.00  0.00     0.347 HD
BRANCH  14  17
ATOM     17  C   UNL     1       0.015  -0.854   0.667  1.00  0.00     0.257 C 
ATOM     18  C   UNL     1       0.455   0.425  -0.040  1.00  0.00     0.071 C 
ENDBRANCH  14  17
ENDBRANCH  11  14
ENDBRANCH   8  11
ENDBRANCH   5   7
BRANCH   5  19
ATOM     19  C   UNL     1       0.184  -4.452   5.661  1.00  0.00     0.422 C 
ATOM     20  F   UNL     1       1.190  -4.575   4.779  1.00  0.00    -0.168 F 
ATOM     21  F   UNL     1       0.402  -3.324   6.380  1.00  0.00    -0.168 F 
ATOM     22  F   UNL     1       0.316  -5.467   6.550  1.00  0.00    -0.168 F 
ENDBRANCH   5  19
ENDBRANCH   3   5
ENDBRANCH   2   3
ENDBRANCH   1   2
BRANCH   1  23
ATOM     23  C   UNL     1      -2.530  -7.408   1.659  1.00  0.00     0.275 C 
BRANCH  23  24
ATOM     24  O   UNL     1      -1.096  -7.391   1.621  1.00  0.00    -0.458 OA
BRANCH  24  25
ATOM     25  C   UNL     1      -0.548  -6.799   0.536  1.00  0.00     0.338 C 
ATOM     26  O   UNL     1      -1.148  -6.389  -0.447  1.00  0.00    -0.246 OA
BRANCH  25  27
ATOM     27  C   UNL     1       0.914  -6.663   0.710  1.00  0.00     0.060 A 
ATOM     28  C   UNL     1       1.479  -6.486   1.973  1.00  0.00     0.016 A 
ATOM     29  C   UNL     1       1.723  -6.576  -0.424  1.00  0.00     0.016 A 
ATOM     30  C   UNL     1       2.813  -6.093   2.092  1.00  0.00     0.010 A 
ATOM     31  C   UNL     1       3.087  -6.296  -0.291  1.00  0.00     0.010 A 
ATOM     32  C   UNL     1       3.644  -6.000   0.966  1.00  0.00    -0.014 A 
BRANCH  32  33
ATOM     33  C   UNL     1       5.064  -5.552   1.079  1.00  0.00     0.031 A 
ATOM     34  C   UNL     1       5.573  -4.417   0.221  1.00  0.00     0.074 A 
ATOM     35  C   UNL     1       5.915  -6.144   1.943  1.00  0.00     0.049 A 
ATOM     36  N   UNL     1       6.807  -4.074  -0.049  1.00  0.00    -0.248 NA
ATOM     37  C   UNL     1       4.563  -3.571  -0.437  1.00  0.00     0.031 C 
ATOM     38  C   UNL     1       5.574  -7.219   2.878  1.00  0.00     0.029 A 
ATOM     39  N   UNL     1       7.251  -5.922   2.177  1.00  0.00    -0.354 N 
ATOM     40  C   UNL     1       6.723  -3.031  -0.966  1.00  0.00     0.074 A 
ATOM     41  C   UNL     1       5.316  -2.782  -1.192  1.00  0.00     0.031 C 
ATOM     42  C   UNL     1       6.652  -7.528   3.612  1.00  0.00     0.029 A 
ATOM     43  C   UNL     1       7.790  -6.756   3.128  1.00  0.00     0.049 A 
ATOM     44  H   UNL     1       7.773  -5.231   1.707  1.00  0.00     0.167 HD
ATOM     45  C   UNL     1       7.730  -2.354  -1.570  1.00  0.00     0.037 A 
ATOM     46  C   UNL     1       9.063  -6.932   3.531  1.00  0.00     0.037 A 
ATOM     47  C   UNL     1       9.128  -2.553  -1.284  1.00  0.00     0.049 A 
ATOM     48  C   UNL     1      10.161  -6.154   2.867  1.00  0.00     0.074 A 
ATOM     49  C   UNL     1      10.225  -1.940  -1.865  1.00  0.00     0.029 A 
ATOM     50  N   UNL     1       9.620  -3.401  -0.304  1.00  0.00    -0.354 N 
ATOM     51  N   UNL     1      10.075  -5.274   1.899  1.00  0.00    -0.248 NA
ATOM     52  C   UNL     1      11.532  -6.417   3.326  1.00  0.00     0.031 C 
ATOM     53  C   UNL     1      11.381  -2.422  -1.240  1.00  0.00     0.029 A 
ATOM     54  C   UNL     1      11.001  -3.315  -0.253  1.00  0.00     0.049 A 
ATOM     55  H   UNL     1       9.068  -3.980   0.271  1.00  0.00     0.167 HD
ATOM     56  C   UNL     1      11.381  -4.889   1.623  1.00  0.00     0.074 A 
ATOM     57  C   UNL     1      12.235  -5.604   2.549  1.00  0.00     0.031 C 
ATOM     58  C   UNL     1      11.834  -4.034   0.675  1.00  0.00     0.037 A 
BRANCH  45  59
ATOM     59  C   UNL     1       7.368  -1.348  -2.627  1.00  0.00     0.058 A 
ATOM     60  C   UNL     1       6.866  -0.079  -2.304  1.00  0.00     0.135 A 
ATOM     61  C   UNL     1       7.591  -1.640  -3.983  1.00  0.00     0.135 A 
ATOM     62  F   UNL     1       6.616   0.243  -1.025  1.00  0.00    -0.206 F 
ATOM     63  C   UNL     1       6.590   0.865  -3.290  1.00  0.00     0.059 A 
ATOM     64  C   UNL     1       7.341  -0.705  -4.984  1.00  0.00     0.059 A 
ATOM     65  F   UNL     1       8.069  -2.841  -4.346  1.00  0.00    -0.206 F 
ATOM     66  C   UNL     1       6.832   0.542  -4.627  1.00  0.00     0.060 A 
BRANCH  66  67
ATOM     67  S   UNL     1       6.500   1.784  -5.896  1.00  0.00     0.124 S 
ATOM     68  O   UNL     1       5.046   1.708  -6.001  1.00  0.00    -0.237 OA
ATOM     69  O   UNL     1       7.028   3.003  -5.292  1.00  0.00    -0.237 OA
ATOM     70  O   UNL     1       7.239   1.292  -7.054  1.00  0.00    -0.744 OA
ENDBRANCH  66  67
ENDBRANCH  45  59
BRANCH  46  71
ATOM     71  C   UNL     1       9.371  -7.947   4.571  1.00  0.00     0.058 A 
ATOM     72  C   UNL     1       9.758  -7.566   5.863  1.00  0.00     0.135 A 
ATOM     73  C   UNL     1       9.257  -9.319   4.298  1.00  0.00     0.135 A 
ATOM     74  F   UNL     1       9.893  -6.266   6.166  1.00  0.00    -0.206 F 
ATOM     75  C   UNL     1      10.025  -8.509   6.850  1.00  0.00     0.059 A 
ATOM     76  C   UNL     1       9.492 -10.280   5.274  1.00  0.00     0.059 A 
ATOM     77  F   UNL     1       8.876  -9.733   3.079  1.00  0.00    -0.206 F 
ATOM     78  C   UNL     1       9.885  -9.865   6.546  1.00  0.00     0.060 A 
BRANCH  78  79
ATOM     79  S   UNL     1      10.159 -11.092   7.842  1.00  0.00     0.124 S 
ATOM     80  O   UNL     1      11.606 -11.259   7.785  1.00  0.00    -0.237 OA
ATOM     81  O   UNL     1       9.641 -10.419   9.030  1.00  0.00    -0.237 OA
ATOM     82  O   UNL     1       9.370 -12.232   7.386  1.00  0.00    -0.744 OA
ENDBRANCH  78  79
ENDBRANCH  46  71
BRANCH  58  83
ATOM     83  C   UNL     1      13.317  -3.820   0.604  1.00  0.00     0.058 A 
ATOM     84  C   UNL     1      14.161  -4.766   0.004  1.00  0.00     0.135 A 
ATOM     85  C   UNL     1      13.896  -2.651   1.121  1.00  0.00     0.135 A 
ATOM     86  F   UNL     1      13.652  -5.903  -0.499  1.00  0.00    -0.206 F 
ATOM     87  C   UNL     1      15.536  -4.572  -0.062  1.00  0.00     0.059 A 
ATOM     88  C   UNL     1      15.267  -2.428   1.052  1.00  0.00     0.059 A 
ATOM     89  F   UNL     1      13.127  -1.716   1.700  1.00  0.00    -0.206 F 
ATOM     90  C   UNL     1      16.080  -3.401   0.470  1.00  0.00     0.060 A 
BRANCH  90  91
ATOM     91  S   UNL     1      17.865  -3.148   0.370  1.00  0.00     0.124 S 
ATOM     92  O   UNL     1      18.341  -3.984   1.467  1.00  0.00    -0.237 OA
ATOM     93  O   UNL     1      18.178  -3.625  -0.973  1.00  0.00    -0.237 OA
ATOM     94  O   UNL     1      18.013  -1.709   0.566  1.00  0.00    -0.744 OA
ENDBRANCH  90  91
ENDBRANCH  58  83
ENDBRANCH  32  33
ENDBRANCH  25  27
ENDBRANCH  24  25
ENDBRANCH  23  24
ENDBRANCH   1  23
TORSDOF 19
