REMARK SMILES C[C@H](C(=O)OCCOC(=O)c1ccc(-c2c3nc(c(-c4c(F)cc(S(=O)(=O)[O-])cc4F)c4ccc([nH]4)c(-c4c(F)cc(S(=O)(=O)[O-])cc4F)c4nc(c(-c5c(F)cc(S(=O)(=O)[O-])cc5F)c5ccc2[nH]5)C=C4)C=C3)cc1)c1ccc2c(c1)[nH]c1ccc(Cl)cc12
REMARK SMILES IDX 7 1 6 2 5 3 3 4 4 5 2 6 1 7 77 8 78 9 82 10 79 11 81 12
REMARK SMILES IDX 80 13 83 14 90 15 84 16 89 18 85 19 87 20 86 21 88 22 8 23
REMARK SMILES IDX 9 24 10 25 11 26 12 27 76 28 13 29 75 30 14 31 15 32 16 33
REMARK SMILES IDX 69 34 17 35 74 36 68 37 70 38 18 39 73 40 67 41 66 42 19 44
REMARK SMILES IDX 53 45 32 46 52 47 33 48 36 49 51 50 71 51 34 52 35 53 50 55
REMARK SMILES IDX 72 56 37 57 20 58 21 59 30 60 22 61 23 62 29 63 31 64 24 65
REMARK SMILES IDX 25 66 26 67 27 68 28 69 54 70 55 71 64 72 56 73 57 74 63 75
REMARK SMILES IDX 65 76 58 77 59 78 60 79 61 80 62 81 38 82 39 83 48 84 40 85
REMARK SMILES IDX 41 86 47 87 49 88 42 89 43 90 44 91 45 92 46 93
REMARK H PARENT 83 17 70 43 36 54
REMARK Flexibility Score: inf
ROOT
ATOM      1  C   UNL     1       3.222  -1.903   0.198  1.00  0.00     0.275 C 
ENDROOT
BRANCH   1   2
ATOM      2  C   UNL     1       1.696  -1.938   0.208  1.00  0.00     0.274 C 
BRANCH   2   3
ATOM      3  O   UNL     1       1.137  -0.958  -0.685  1.00  0.00    -0.462 OA
BRANCH   3   4
ATOM      4  C   UNL     1       0.650   0.173  -0.100  1.00  0.00     0.313 C 
ATOM      5  O   UNL     1       0.702   0.406   1.103  1.00  0.00    -0.252 OA
BRANCH   4   6
ATOM      6  C   UNL     1      -0.086   1.077  -1.093  1.00  0.00     0.126 C 
ATOM      7  C   UNL     1       0.533   1.083  -2.486  1.00  0.00     0.025 C 
BRANCH   6   8
ATOM      8  C   UNL     1      -1.577   0.775  -1.107  1.00  0.00    -0.032 A 
ATOM      9  C   UNL     1      -2.509   1.812  -1.247  1.00  0.00     0.005 A 
ATOM     10  C   UNL     1      -2.026  -0.537  -0.890  1.00  0.00     0.031 A 
ATOM     11  C   UNL     1      -3.885   1.575  -1.101  1.00  0.00     0.011 A 
ATOM     12  C   UNL     1      -3.385  -0.733  -0.657  1.00  0.00     0.047 A 
ATOM     13  C   UNL     1      -4.330   0.282  -0.755  1.00  0.00     0.007 A 
ATOM     14  N   UNL     1      -4.035  -1.869  -0.251  1.00  0.00    -0.355 N 
ATOM     15  C   UNL     1      -5.597  -0.295  -0.421  1.00  0.00     0.009 A 
ATOM     16  C   UNL     1      -5.368  -1.621  -0.049  1.00  0.00     0.047 A 
ATOM     17  H   UNL     1      -3.603  -2.745  -0.122  1.00  0.00     0.167 HD
ATOM     18  C   UNL     1      -6.915   0.200  -0.352  1.00  0.00     0.031 A 
ATOM     19  C   UNL     1      -6.367  -2.467   0.441  1.00  0.00     0.028 A 
ATOM     20  C   UNL     1      -7.930  -0.644   0.110  1.00  0.00     0.041 A 
ATOM     21  C   UNL     1      -7.660  -1.949   0.517  1.00  0.00     0.022 A 
ATOM     22  Cl  UNL     1      -9.549  -0.057   0.184  1.00  0.00    -0.084 Cl
ENDBRANCH   6   8
ENDBRANCH   4   6
ENDBRANCH   3   4
ENDBRANCH   2   3
ENDBRANCH   1   2
BRANCH   1  23
ATOM     23  O   UNL     1       3.711  -0.632   0.654  1.00  0.00    -0.458 OA
BRANCH  23  24
ATOM     24  C   UNL     1       3.995   0.253  -0.330  1.00  0.00     0.338 C 
ATOM     25  O   UNL     1       3.951   0.070  -1.533  1.00  0.00    -0.246 OA
BRANCH  24  26
ATOM     26  C   UNL     1       4.275   1.560   0.274  1.00  0.00     0.060 A 
ATOM     27  C   UNL     1       3.237   2.489   0.367  1.00  0.00     0.016 A 
ATOM     28  C   UNL     1       5.571   1.896   0.659  1.00  0.00     0.016 A 
ATOM     29  C   UNL     1       3.487   3.771   0.836  1.00  0.00     0.010 A 
ATOM     30  C   UNL     1       5.819   3.180   1.148  1.00  0.00     0.010 A 
ATOM     31  C   UNL     1       4.781   4.127   1.225  1.00  0.00    -0.014 A 
BRANCH  31  32
ATOM     32  C   UNL     1       5.061   5.516   1.649  1.00  0.00     0.031 A 
ATOM     33  C   UNL     1       5.854   6.413   0.746  1.00  0.00     0.074 A 
ATOM     34  C   UNL     1       4.593   5.963   2.828  1.00  0.00     0.049 A 
ATOM     35  N   UNL     1       6.339   7.602   0.983  1.00  0.00    -0.248 NA
ATOM     36  C   UNL     1       6.143   5.899  -0.603  1.00  0.00     0.031 C 
ATOM     37  C   UNL     1       3.760   5.193   3.754  1.00  0.00     0.029 A 
ATOM     38  N   UNL     1       4.760   7.171   3.453  1.00  0.00    -0.354 N 
ATOM     39  C   UNL     1       7.021   7.967  -0.171  1.00  0.00     0.074 A 
ATOM     40  C   UNL     1       6.892   6.870  -1.107  1.00  0.00     0.031 C 
ATOM     41  C   UNL     1       3.494   5.947   4.833  1.00  0.00     0.029 A 
ATOM     42  C   UNL     1       4.183   7.226   4.699  1.00  0.00     0.049 A 
ATOM     43  H   UNL     1       5.245   7.926   3.048  1.00  0.00     0.167 HD
ATOM     44  C   UNL     1       7.696   9.114  -0.420  1.00  0.00     0.037 A 
ATOM     45  C   UNL     1       4.240   8.187   5.641  1.00  0.00     0.037 A 
ATOM     46  C   UNL     1       7.796  10.203   0.516  1.00  0.00     0.049 A 
ATOM     47  C   UNL     1       5.032   9.434   5.359  1.00  0.00     0.074 A 
ATOM     48  C   UNL     1       8.458  11.409   0.369  1.00  0.00     0.029 A 
ATOM     49  N   UNL     1       7.208  10.219   1.773  1.00  0.00    -0.354 N 
ATOM     50  N   UNL     1       5.710   9.752   4.282  1.00  0.00    -0.248 NA
ATOM     51  C   UNL     1       5.076  10.446   6.422  1.00  0.00     0.031 C 
ATOM     52  C   UNL     1       8.294  12.142   1.551  1.00  0.00     0.029 A 
ATOM     53  C   UNL     1       7.499  11.409   2.418  1.00  0.00     0.049 A 
ATOM     54  H   UNL     1       6.664   9.491   2.151  1.00  0.00     0.167 HD
ATOM     55  C   UNL     1       6.251  11.008   4.530  1.00  0.00     0.074 A 
ATOM     56  C   UNL     1       5.809  11.396   5.855  1.00  0.00     0.031 C 
ATOM     57  C   UNL     1       7.043  11.770   3.737  1.00  0.00     0.037 A 
BRANCH  44  58
ATOM     58  C   UNL     1       8.406   9.227  -1.739  1.00  0.00     0.058 A 
ATOM     59  C   UNL     1       7.710   9.430  -2.941  1.00  0.00     0.135 A 
ATOM     60  C   UNL     1       9.806   9.139  -1.799  1.00  0.00     0.135 A 
ATOM     61  F   UNL     1       6.370   9.499  -2.942  1.00  0.00    -0.206 F 
ATOM     62  C   UNL     1       8.376   9.516  -4.160  1.00  0.00     0.059 A 
ATOM     63  C   UNL     1      10.494   9.245  -3.004  1.00  0.00     0.059 A 
ATOM     64  F   UNL     1      10.520   8.939  -0.680  1.00  0.00    -0.206 F 
ATOM     65  C   UNL     1       9.768   9.418  -4.181  1.00  0.00     0.060 A 
BRANCH  65  66
ATOM     66  S   UNL     1      10.620   9.524  -5.770  1.00  0.00     0.124 S 
ATOM     67  O   UNL     1      10.346   8.206  -6.335  1.00  0.00    -0.237 OA
ATOM     68  O   UNL     1       9.943  10.643  -6.416  1.00  0.00    -0.237 OA
ATOM     69  O   UNL     1      12.009   9.769  -5.394  1.00  0.00    -0.744 OA
ENDBRANCH  65  66
ENDBRANCH  44  58
BRANCH  45  70
ATOM     70  C   UNL     1       3.559   7.983   6.945  1.00  0.00     0.058 A 
ATOM     71  C   UNL     1       2.409   8.710   7.282  1.00  0.00     0.135 A 
ATOM     72  C   UNL     1       4.030   7.036   7.869  1.00  0.00     0.135 A 
ATOM     73  F   UNL     1       1.926   9.632   6.436  1.00  0.00    -0.206 F 
ATOM     74  C   UNL     1       1.751   8.511   8.492  1.00  0.00     0.059 A 
ATOM     75  C   UNL     1       3.376   6.803   9.074  1.00  0.00     0.059 A 
ATOM     76  F   UNL     1       5.120   6.306   7.587  1.00  0.00    -0.206 F 
ATOM     77  C   UNL     1       2.242   7.552   9.381  1.00  0.00     0.060 A 
BRANCH  77  78
ATOM     78  S   UNL     1       1.350   7.257  10.924  1.00  0.00     0.124 S 
ATOM     79  O   UNL     1       1.757   8.408  11.722  1.00  0.00    -0.237 OA
ATOM     80  O   UNL     1      -0.041   7.247  10.480  1.00  0.00    -0.237 OA
ATOM     81  O   UNL     1       1.866   5.965  11.366  1.00  0.00    -0.744 OA
ENDBRANCH  77  78
ENDBRANCH  45  70
BRANCH  57  82
ATOM     82  C   UNL     1       7.458  13.110   4.272  1.00  0.00     0.058 A 
ATOM     83  C   UNL     1       8.454  13.232   5.252  1.00  0.00     0.135 A 
ATOM     84  C   UNL     1       6.885  14.286   3.763  1.00  0.00     0.135 A 
ATOM     85  F   UNL     1       9.026  12.135   5.774  1.00  0.00    -0.206 F 
ATOM     86  C   UNL     1       8.856  14.476   5.725  1.00  0.00     0.059 A 
ATOM     87  C   UNL     1       7.287  15.541   4.205  1.00  0.00     0.059 A 
ATOM     88  F   UNL     1       5.935  14.221   2.817  1.00  0.00    -0.206 F 
ATOM     89  C   UNL     1       8.266  15.626   5.195  1.00  0.00     0.060 A 
BRANCH  89  90
ATOM     90  S   UNL     1       8.819  17.238   5.791  1.00  0.00     0.124 S 
ATOM     91  O   UNL     1       8.143  17.321   7.081  1.00  0.00    -0.237 OA
ATOM     92  O   UNL     1      10.268  17.075   5.843  1.00  0.00    -0.237 OA
ATOM     93  O   UNL     1       8.336  18.160   4.767  1.00  0.00    -0.744 OA
ENDBRANCH  89  90
ENDBRANCH  57  82
ENDBRANCH  31  32
ENDBRANCH  24  26
ENDBRANCH  23  24
ENDBRANCH   1  23
TORSDOF 15
