REMARK SMILES [NH3+][C@@H](CCCC(=O)OCCOC(=O)c1ccc(-c2c3nc(c(-c4c(F)cc(S(=O)(=O)[O-])cc4F)c4ccc([nH]4)c(-c4c(F)cc(S(=O)(=O)[O-])cc4F)c4nc(c(-c5c(F)cc(S(=O)(=O)[O-])cc5F)c5ccc2[nH]5)C=C4)C=C3)cc1)c1cnc2[nH]ccc2c1
REMARK SMILES IDX 9 1 8 2 6 3 7 4 5 5 4 6 3 7 2 8 1 9 80 13 81 14 88 15 82 16
REMARK SMILES IDX 87 17 83 18 86 19 84 20 85 21 10 23 11 24 12 25 13 26 14 27
REMARK SMILES IDX 15 28 79 29 16 30 78 31 17 32 18 33 19 34 72 35 20 36 77 37
REMARK SMILES IDX 71 38 73 39 21 40 76 41 70 42 69 43 22 45 56 46 35 47 55 48
REMARK SMILES IDX 36 49 39 50 54 51 74 52 37 53 38 54 53 56 75 57 40 58 23 59
REMARK SMILES IDX 24 60 33 61 25 62 26 63 32 64 34 65 27 66 28 67 29 68 30 69
REMARK SMILES IDX 31 70 57 71 58 72 67 73 59 74 60 75 66 76 68 77 61 78 62 79
REMARK SMILES IDX 63 80 64 81 65 82 41 83 42 84 51 85 43 86 44 87 50 88 52 89
REMARK SMILES IDX 45 90 46 91 47 92 48 93 49 94
REMARK H PARENT 1 10 1 11 1 12 84 22 73 44 39 55
REMARK Flexibility Score: inf
ROOT
ATOM      1  C   UNL     1      -2.037  -2.104  -5.580  1.00  0.00     0.274 C 
ENDROOT
BRANCH   1   2
ATOM      2  O   UNL     1      -0.901  -1.915  -4.727  1.00  0.00    -0.462 OA
BRANCH   2   3
ATOM      3  C   UNL     1      -1.085  -2.284  -3.433  1.00  0.00     0.305 C 
ATOM      4  O   UNL     1      -2.159  -2.373  -2.856  1.00  0.00    -0.252 OA
BRANCH   3   5
ATOM      5  C   UNL     1       0.243  -2.619  -2.817  1.00  0.00     0.123 C 
BRANCH   5   6
ATOM      6  C   UNL     1       1.159  -1.415  -2.588  1.00  0.00     0.018 C 
BRANCH   6   7
ATOM      7  C   UNL     1       0.508  -0.013  -2.644  1.00  0.00     0.071 C 
BRANCH   7   8
ATOM      8  C   UNL     1       0.311   0.810  -1.350  1.00  0.00     0.213 C 
BRANCH   8   9
ATOM      9  N   UNL     1       1.679   1.201  -0.929  1.00  0.00    -0.351 N 
ATOM     10  H   UNL     1       2.187   1.577  -1.731  1.00  0.00     0.345 HD
ATOM     11  H   UNL     1       2.171   0.384  -0.569  1.00  0.00     0.345 HD
ATOM     12  H   UNL     1       1.621   1.912  -0.200  1.00  0.00     0.345 HD
ENDBRANCH   8   9
BRANCH   8  13
ATOM     13  C   UNL     1      -0.437   0.246  -0.129  1.00  0.00     0.028 A 
ATOM     14  C   UNL     1      -0.475   1.095   0.981  1.00  0.00     0.123 A 
ATOM     15  C   UNL     1      -0.394  -1.115   0.144  1.00  0.00     0.023 A 
ATOM     16  N   UNL     1       0.092   0.800   2.174  1.00  0.00    -0.238 NA
ATOM     17  C   UNL     1       0.423  -1.431   1.231  1.00  0.00     0.019 A 
ATOM     18  C   UNL     1       0.642  -0.431   2.168  1.00  0.00     0.137 A 
ATOM     19  C   UNL     1       1.228  -2.540   1.593  1.00  0.00     0.029 A 
ATOM     20  N   UNL     1       1.596  -0.882   3.036  1.00  0.00    -0.346 N 
ATOM     21  C   UNL     1       2.014  -2.134   2.652  1.00  0.00     0.085 A 
ATOM     22  H   UNL     1       1.932  -0.386   3.817  1.00  0.00     0.167 HD
ENDBRANCH   8  13
ENDBRANCH   7   8
ENDBRANCH   6   7
ENDBRANCH   5   6
ENDBRANCH   3   5
ENDBRANCH   2   3
ENDBRANCH   1   2
BRANCH   1  23
ATOM     23  C   UNL     1      -1.933  -3.519  -6.141  1.00  0.00     0.275 C 
BRANCH  23  24
ATOM     24  O   UNL     1      -2.259  -4.467  -5.103  1.00  0.00    -0.458 OA
BRANCH  24  25
ATOM     25  C   UNL     1      -1.309  -5.385  -4.813  1.00  0.00     0.338 C 
ATOM     26  O   UNL     1      -0.225  -5.519  -5.352  1.00  0.00    -0.246 OA
BRANCH  25  27
ATOM     27  C   UNL     1      -1.780  -6.275  -3.737  1.00  0.00     0.060 A 
ATOM     28  C   UNL     1      -1.960  -5.805  -2.432  1.00  0.00     0.016 A 
ATOM     29  C   UNL     1      -1.923  -7.632  -4.023  1.00  0.00     0.016 A 
ATOM     30  C   UNL     1      -2.226  -6.708  -1.397  1.00  0.00     0.010 A 
ATOM     31  C   UNL     1      -2.245  -8.523  -2.998  1.00  0.00     0.010 A 
ATOM     32  C   UNL     1      -2.360  -8.077  -1.669  1.00  0.00    -0.014 A 
BRANCH  32  33
ATOM     33  C   UNL     1      -2.534  -9.079  -0.582  1.00  0.00     0.031 A 
ATOM     34  C   UNL     1      -1.458 -10.110  -0.353  1.00  0.00     0.074 A 
ATOM     35  C   UNL     1      -3.655  -9.105   0.163  1.00  0.00     0.049 A 
ATOM     36  N   UNL     1      -1.493 -11.204   0.364  1.00  0.00    -0.248 NA
ATOM     37  C   UNL     1      -0.178  -9.886  -1.044  1.00  0.00     0.031 C 
ATOM     38  C   UNL     1      -4.757  -8.148   0.074  1.00  0.00     0.029 A 
ATOM     39  N   UNL     1      -4.060  -9.992   1.131  1.00  0.00    -0.354 N 
ATOM     40  C   UNL     1      -0.262 -11.822   0.173  1.00  0.00     0.074 A 
ATOM     41  C   UNL     1       0.494 -10.986  -0.735  1.00  0.00     0.031 C 
ATOM     42  C   UNL     1      -5.715  -8.499   0.949  1.00  0.00     0.029 A 
ATOM     43  C   UNL     1      -5.321  -9.737   1.615  1.00  0.00     0.049 A 
ATOM     44  H   UNL     1      -3.501 -10.737   1.447  1.00  0.00     0.167 HD
ATOM     45  C   UNL     1       0.196 -12.982   0.704  1.00  0.00     0.037 A 
ATOM     46  C   UNL     1      -6.089 -10.443   2.468  1.00  0.00     0.037 A 
ATOM     47  C   UNL     1      -0.545 -13.790   1.639  1.00  0.00     0.049 A 
ATOM     48  C   UNL     1      -5.568 -11.735   3.036  1.00  0.00     0.074 A 
ATOM     49  C   UNL     1      -0.166 -14.975   2.246  1.00  0.00     0.029 A 
ATOM     50  N   UNL     1      -1.813 -13.488   2.113  1.00  0.00    -0.354 N 
ATOM     51  N   UNL     1      -4.420 -12.332   2.814  1.00  0.00    -0.248 NA
ATOM     52  C   UNL     1      -6.450 -12.455   3.965  1.00  0.00     0.031 C 
ATOM     53  C   UNL     1      -1.215 -15.402   3.069  1.00  0.00     0.029 A 
ATOM     54  C   UNL     1      -2.232 -14.464   3.002  1.00  0.00     0.049 A 
ATOM     55  H   UNL     1      -2.338 -12.696   1.856  1.00  0.00     0.167 HD
ATOM     56  C   UNL     1      -4.437 -13.488   3.587  1.00  0.00     0.074 A 
ATOM     57  C   UNL     1      -5.701 -13.498   4.295  1.00  0.00     0.031 C 
ATOM     58  C   UNL     1      -3.494 -14.456   3.699  1.00  0.00     0.037 A 
BRANCH  45  59
ATOM     59  C   UNL     1       1.553 -13.459   0.266  1.00  0.00     0.058 A 
ATOM     60  C   UNL     1       2.734 -12.833   0.696  1.00  0.00     0.135 A 
ATOM     61  C   UNL     1       1.675 -14.570  -0.584  1.00  0.00     0.135 A 
ATOM     62  F   UNL     1       2.676 -11.755   1.494  1.00  0.00    -0.206 F 
ATOM     63  C   UNL     1       3.985 -13.273   0.275  1.00  0.00     0.059 A 
ATOM     64  C   UNL     1       2.917 -15.043  -0.998  1.00  0.00     0.059 A 
ATOM     65  F   UNL     1       0.578 -15.206  -1.026  1.00  0.00    -0.206 F 
ATOM     66  C   UNL     1       4.066 -14.377  -0.577  1.00  0.00     0.060 A 
BRANCH  66  67
ATOM     67  S   UNL     1       5.695 -14.935  -1.121  1.00  0.00     0.124 S 
ATOM     68  O   UNL     1       6.029 -13.924  -2.119  1.00  0.00    -0.237 OA
ATOM     69  O   UNL     1       6.473 -14.886   0.113  1.00  0.00    -0.237 OA
ATOM     70  O   UNL     1       5.439 -16.273  -1.643  1.00  0.00    -0.744 OA
ENDBRANCH  66  67
ENDBRANCH  45  59
BRANCH  46  71
ATOM     71  C   UNL     1      -7.448  -9.953   2.822  1.00  0.00     0.058 A 
ATOM     72  C   UNL     1      -7.721  -9.450   4.102  1.00  0.00     0.135 A 
ATOM     73  C   UNL     1      -8.496  -9.972   1.889  1.00  0.00     0.135 A 
ATOM     74  F   UNL     1      -6.754  -9.424   5.032  1.00  0.00    -0.206 F 
ATOM     75  C   UNL     1      -8.988  -8.992   4.450  1.00  0.00     0.059 A 
ATOM     76  C   UNL     1      -9.764  -9.497   2.205  1.00  0.00     0.059 A 
ATOM     77  F   UNL     1      -8.283 -10.434   0.647  1.00  0.00    -0.206 F 
ATOM     78  C   UNL     1     -10.003  -9.017   3.492  1.00  0.00     0.060 A 
BRANCH  78  79
ATOM     79  S   UNL     1     -11.630  -8.370   3.934  1.00  0.00     0.124 S 
ATOM     80  O   UNL     1     -12.170  -9.458   4.741  1.00  0.00    -0.237 OA
ATOM     81  O   UNL     1     -11.292  -7.147   4.655  1.00  0.00    -0.237 OA
ATOM     82  O   UNL     1     -12.271  -8.166   2.638  1.00  0.00    -0.744 OA
ENDBRANCH  78  79
ENDBRANCH  46  71
BRANCH  58  83
ATOM     83  C   UNL     1      -3.784 -15.585   4.647  1.00  0.00     0.058 A 
ATOM     84  C   UNL     1      -4.712 -16.590   4.334  1.00  0.00     0.135 A 
ATOM     85  C   UNL     1      -3.116 -15.668   5.879  1.00  0.00     0.135 A 
ATOM     86  F   UNL     1      -5.381 -16.553   3.171  1.00  0.00    -0.206 F 
ATOM     87  C   UNL     1      -4.995 -17.621   5.225  1.00  0.00     0.059 A 
ATOM     88  C   UNL     1      -3.366 -16.703   6.776  1.00  0.00     0.059 A 
ATOM     89  F   UNL     1      -2.210 -14.739   6.222  1.00  0.00    -0.206 F 
ATOM     90  C   UNL     1      -4.321 -17.665   6.447  1.00  0.00     0.060 A 
BRANCH  90  91
ATOM     91  S   UNL     1      -4.692 -19.005   7.599  1.00  0.00     0.124 S 
ATOM     92  O   UNL     1      -5.953 -18.553   8.177  1.00  0.00    -0.237 OA
ATOM     93  O   UNL     1      -4.779 -20.165   6.717  1.00  0.00    -0.237 OA
ATOM     94  O   UNL     1      -3.547 -18.999   8.504  1.00  0.00    -0.744 OA
ENDBRANCH  90  91
ENDBRANCH  58  83
ENDBRANCH  32  33
ENDBRANCH  25  27
ENDBRANCH  24  25
ENDBRANCH  23  24
ENDBRANCH   1  23
TORSDOF 19
