REMARK SMILES CCOC(=O)[C@@]1(C)C/C(=N/c2cccc(C(=O)OCCOC(=O)c3ccc(-c4c5nc(c(-c6c(F)cc(S(=O)(=O)[O-])cc6F)c6ccc([nH]6)c(-c6c(F)cc(S(=O)(=O)[O-])cc6F)c6nc(c(-c7c(F)cc(S(=O)(=O)[O-])cc7F)c7ccc4[nH]7)C=C6)C=C5)cc3)c2)C(=O)N1c1ccccc1
REMARK SMILES IDX 19 1 18 2 16 3 17 4 15 5 11 6 12 7 90 8 13 9 14 10 10 11
REMARK SMILES IDX 6 12 7 13 8 14 93 15 9 16 91 17 92 18 4 19 5 20 3 21 2 22
REMARK SMILES IDX 1 23 94 24 95 25 99 26 96 27 98 28 97 29 20 30 21 31 22 32
REMARK SMILES IDX 23 33 24 34 25 35 89 36 26 37 88 38 27 39 28 40 29 41 82 42
REMARK SMILES IDX 30 43 87 44 81 45 83 46 31 47 86 48 80 49 79 50 32 52 66 53
REMARK SMILES IDX 45 54 65 55 46 56 49 57 64 58 84 59 47 60 48 61 63 63 85 64
REMARK SMILES IDX 50 65 33 66 34 67 43 68 35 69 36 70 42 71 44 72 37 73 38 74
REMARK SMILES IDX 39 75 40 76 41 77 67 78 68 79 77 80 69 81 70 82 76 83 78 84
REMARK SMILES IDX 71 85 72 86 73 87 74 88 75 89 51 90 52 91 61 92 53 93 54 94
REMARK SMILES IDX 60 95 62 96 55 97 56 98 57 99 58 100 59 101
REMARK H PARENT 83 51 49 62
REMARK Flexibility Score: inf
ROOT
ATOM      1  C   UNL     1       6.745   5.348  -7.546  1.00  0.00     0.275 C 
ENDROOT
BRANCH   1   2
ATOM      2  O   UNL     1       6.092   5.864  -6.370  1.00  0.00    -0.458 OA
BRANCH   2   3
ATOM      3  C   UNL     1       6.797   6.796  -5.673  1.00  0.00     0.338 C 
ATOM      4  O   UNL     1       7.948   7.140  -5.886  1.00  0.00    -0.246 OA
BRANCH   3   5
ATOM      5  C   UNL     1       5.946   7.416  -4.628  1.00  0.00     0.062 A 
ATOM      6  C   UNL     1       4.037   7.369  -3.131  1.00  0.00     0.064 A 
ATOM      7  C   UNL     1       4.428   8.598  -2.600  1.00  0.00     0.028 A 
ATOM      8  C   UNL     1       4.773   6.803  -4.179  1.00  0.00     0.044 A 
ATOM      9  C   UNL     1       5.582   9.231  -3.064  1.00  0.00     0.003 A 
ATOM     10  C   UNL     1       6.352   8.631  -4.062  1.00  0.00     0.016 A 
BRANCH   6  11
ATOM     11  N   UNL     1       2.918   6.699  -2.615  1.00  0.00    -0.248 NA
ATOM     12  C   UNL     1       2.708   3.344  -1.729  1.00  0.00     0.148 C 
ATOM     13  C   UNL     1       2.405   2.857  -3.161  1.00  0.00     0.048 C 
ATOM     14  C   UNL     1       2.020   4.718  -1.520  1.00  0.00     0.103 C 
ATOM     15  N   UNL     1       4.160   3.588  -1.549  1.00  0.00    -0.290 N 
ATOM     16  C   UNL     1       3.125   5.616  -1.929  1.00  0.00     0.109 C 
ATOM     17  C   UNL     1       4.431   4.955  -1.566  1.00  0.00     0.273 C 
ATOM     18  O   UNL     1       5.444   5.585  -1.355  1.00  0.00    -0.267 OA
BRANCH  12  19
ATOM     19  C   UNL     1       2.124   2.457  -0.611  1.00  0.00     0.332 C 
ATOM     20  O   UNL     1       2.507   2.466   0.552  1.00  0.00    -0.249 OA
BRANCH  19  21
ATOM     21  O   UNL     1       1.052   1.743  -1.060  1.00  0.00    -0.464 OA
BRANCH  21  22
ATOM     22  C   UNL     1       0.365   0.954  -0.076  1.00  0.00     0.229 C 
ATOM     23  C   UNL     1       0.954  -0.442  -0.038  1.00  0.00     0.049 C 
ENDBRANCH  21  22
ENDBRANCH  19  21
ENDBRANCH  12  19
BRANCH  15  24
ATOM     24  C   UNL     1       5.162   2.569  -1.441  1.00  0.00     0.045 A 
ATOM     25  C   UNL     1       6.511   2.893  -1.218  1.00  0.00     0.026 A 
ATOM     26  C   UNL     1       4.858   1.206  -1.583  1.00  0.00     0.026 A 
ATOM     27  C   UNL     1       7.508   1.912  -1.155  1.00  0.00     0.002 A 
ATOM     28  C   UNL     1       5.855   0.221  -1.531  1.00  0.00     0.002 A 
ATOM     29  C   UNL     1       7.182   0.574  -1.319  1.00  0.00     0.000 A 
ENDBRANCH  15  24
ENDBRANCH   6  11
ENDBRANCH   3   5
ENDBRANCH   2   3
ENDBRANCH   1   2
BRANCH   1  30
ATOM     30  C   UNL     1       6.341   6.166  -8.772  1.00  0.00     0.275 C 
BRANCH  30  31
ATOM     31  O   UNL     1       6.741   7.525  -8.560  1.00  0.00    -0.458 OA
BRANCH  31  32
ATOM     32  C   UNL     1       6.721   8.337  -9.638  1.00  0.00     0.338 C 
ATOM     33  O   UNL     1       6.406   8.018 -10.772  1.00  0.00    -0.246 OA
BRANCH  32  34
ATOM     34  C   UNL     1       7.187   9.690  -9.233  1.00  0.00     0.060 A 
ATOM     35  C   UNL     1       7.170  10.104  -7.893  1.00  0.00     0.016 A 
ATOM     36  C   UNL     1       7.657  10.563 -10.219  1.00  0.00     0.016 A 
ATOM     37  C   UNL     1       7.632  11.372  -7.538  1.00  0.00     0.010 A 
ATOM     38  C   UNL     1       8.136  11.828  -9.862  1.00  0.00     0.010 A 
ATOM     39  C   UNL     1       8.128  12.238  -8.520  1.00  0.00    -0.014 A 
BRANCH  39  40
ATOM     40  C   UNL     1       8.626  13.583  -8.152  1.00  0.00     0.031 A 
ATOM     41  C   UNL     1       7.793  14.795  -8.444  1.00  0.00     0.074 A 
ATOM     42  C   UNL     1       9.823  13.720  -7.552  1.00  0.00     0.049 A 
ATOM     43  N   UNL     1       8.117  16.058  -8.356  1.00  0.00    -0.248 NA
ATOM     44  C   UNL     1       6.415  14.552  -8.897  1.00  0.00     0.031 C 
ATOM     45  C   UNL     1      10.710  12.621  -7.166  1.00  0.00     0.029 A 
ATOM     46  N   UNL     1      10.495  14.848  -7.158  1.00  0.00    -0.354 N 
ATOM     47  C   UNL     1       7.002  16.764  -8.787  1.00  0.00     0.074 A 
ATOM     48  C   UNL     1       5.980  15.787  -9.104  1.00  0.00     0.031 C 
ATOM     49  C   UNL     1      11.801  13.130  -6.570  1.00  0.00     0.029 A 
ATOM     50  C   UNL     1      11.708  14.588  -6.569  1.00  0.00     0.049 A 
ATOM     51  H   UNL     1      10.142  15.758  -7.285  1.00  0.00     0.167 HD
ATOM     52  C   UNL     1       6.854  18.102  -8.928  1.00  0.00     0.037 A 
ATOM     53  C   UNL     1      12.646  15.432  -6.100  1.00  0.00     0.037 A 
ATOM     54  C   UNL     1       7.862  19.073  -8.600  1.00  0.00     0.049 A 
ATOM     55  C   UNL     1      12.446  16.913  -6.231  1.00  0.00     0.074 A 
ATOM     56  C   UNL     1       7.844  20.443  -8.794  1.00  0.00     0.029 A 
ATOM     57  N   UNL     1       9.065  18.773  -7.981  1.00  0.00    -0.354 N 
ATOM     58  N   UNL     1      11.436  17.563  -6.757  1.00  0.00    -0.248 NA
ATOM     59  C   UNL     1      13.524  17.775  -5.726  1.00  0.00     0.031 C 
ATOM     60  C   UNL     1       9.036  20.973  -8.282  1.00  0.00     0.029 A 
ATOM     61  C   UNL     1       9.790  19.932  -7.765  1.00  0.00     0.049 A 
ATOM     62  H   UNL     1       9.361  17.867  -7.731  1.00  0.00     0.167 HD
ATOM     63  C   UNL     1      11.767  18.910  -6.669  1.00  0.00     0.074 A 
ATOM     64  C   UNL     1      13.057  18.984  -6.013  1.00  0.00     0.031 C 
ATOM     65  C   UNL     1      11.072  19.985  -7.111  1.00  0.00     0.037 A 
BRANCH  52  66
ATOM     66  C   UNL     1       5.557  18.571  -9.510  1.00  0.00     0.058 A 
ATOM     67  C   UNL     1       4.430  18.788  -8.706  1.00  0.00     0.135 A 
ATOM     68  C   UNL     1       5.432  18.765 -10.895  1.00  0.00     0.135 A 
ATOM     69  F   UNL     1       4.499  18.594  -7.380  1.00  0.00    -0.206 F 
ATOM     70  C   UNL     1       3.208  19.159  -9.258  1.00  0.00     0.059 A 
ATOM     71  C   UNL     1       4.222  19.140 -11.467  1.00  0.00     0.059 A 
ATOM     72  F   UNL     1       6.482  18.556 -11.704  1.00  0.00    -0.206 F 
ATOM     73  C   UNL     1       3.111  19.316 -10.643  1.00  0.00     0.060 A 
BRANCH  73  74
ATOM     74  S   UNL     1       1.521  19.751 -11.380  1.00  0.00     0.124 S 
ATOM     75  O   UNL     1       0.956  18.431 -11.646  1.00  0.00    -0.237 OA
ATOM     76  O   UNL     1       0.867  20.516 -10.324  1.00  0.00    -0.237 OA
ATOM     77  O   UNL     1       1.906  20.522 -12.559  1.00  0.00    -0.744 OA
ENDBRANCH  73  74
ENDBRANCH  52  66
BRANCH  53  78
ATOM     78  C   UNL     1      13.874  14.886  -5.479  1.00  0.00     0.058 A 
ATOM     79  C   UNL     1      13.977  14.768  -4.086  1.00  0.00     0.135 A 
ATOM     80  C   UNL     1      14.951  14.448  -6.262  1.00  0.00     0.135 A 
ATOM     81  F   UNL     1      12.969  15.179  -3.302  1.00  0.00    -0.206 F 
ATOM     82  C   UNL     1      15.109  14.229  -3.485  1.00  0.00     0.059 A 
ATOM     83  C   UNL     1      16.090  13.900  -5.685  1.00  0.00     0.059 A 
ATOM     84  F   UNL     1      14.889  14.538  -7.599  1.00  0.00    -0.206 F 
ATOM     85  C   UNL     1      16.162  13.799  -4.294  1.00  0.00     0.060 A 
BRANCH  85  86
ATOM     86  S   UNL     1      17.617  13.036  -3.541  1.00  0.00     0.124 S 
ATOM     87  O   UNL     1      18.524  14.173  -3.441  1.00  0.00    -0.237 OA
ATOM     88  O   UNL     1      17.099  12.522  -2.276  1.00  0.00    -0.237 OA
ATOM     89  O   UNL     1      17.982  12.015  -4.518  1.00  0.00    -0.744 OA
ENDBRANCH  85  86
ENDBRANCH  53  78
BRANCH  65  90
ATOM     90  C   UNL     1      11.704  21.328  -6.912  1.00  0.00     0.058 A 
ATOM     91  C   UNL     1      12.595  21.849  -7.861  1.00  0.00     0.135 A 
ATOM     92  C   UNL     1      11.398  22.110  -5.789  1.00  0.00     0.135 A 
ATOM     93  F   UNL     1      12.919  21.133  -8.949  1.00  0.00    -0.206 F 
ATOM     94  C   UNL     1      13.172  23.104  -7.700  1.00  0.00     0.059 A 
ATOM     95  C   UNL     1      11.961  23.369  -5.610  1.00  0.00     0.059 A 
ATOM     96  F   UNL     1      10.552  21.649  -4.855  1.00  0.00    -0.206 F 
ATOM     97  C   UNL     1      12.854  23.855  -6.567  1.00  0.00     0.060 A 
BRANCH  97  98
ATOM     98  S   UNL     1      13.575  25.498  -6.363  1.00  0.00     0.124 S 
ATOM     99  O   UNL     1      14.813  25.188  -5.656  1.00  0.00    -0.237 OA
ATOM    100  O   UNL     1      13.731  25.959  -7.739  1.00  0.00    -0.237 OA
ATOM    101  O   UNL     1      12.564  26.207  -5.585  1.00  0.00    -0.744 OA
ENDBRANCH  97  98
ENDBRANCH  65  90
ENDBRANCH  39  40
ENDBRANCH  32  34
ENDBRANCH  31  32
ENDBRANCH  30  31
ENDBRANCH   1  30
TORSDOF 19
