REMARK SMILES Cc1c(C(=O)OCCOC(=O)c2ccc(-c3c4nc(c(-c5c(F)cc(S(=O)(=O)[O-])cc5F)c5ccc([nH]5)c(-c5c(F)cc(S(=O)(=O)[O-])cc5F)c5nc(c(-c6c(F)cc(S(=O)(=O)[O-])cc6F)c6ccc3[nH]6)C=C5)C=C4)cc2)sc2c1=C(CSc1nncn1-c1ccccc1)CC(=O)N=2
REMARK SMILES IDX 7 1 6 2 4 3 5 4 3 5 1 6 2 7 80 8 78 9 79 10 81 11 98 12
REMARK SMILES IDX 95 13 96 14 97 15 82 16 83 17 84 18 85 19 88 20 86 21 87 22
REMARK SMILES IDX 89 23 90 24 94 25 91 26 93 27 92 28 8 29 9 30 10 31 11 32
REMARK SMILES IDX 12 33 13 34 77 35 14 36 76 37 15 38 16 39 17 40 70 41 18 42
REMARK SMILES IDX 75 43 69 44 71 45 19 46 74 47 68 48 67 49 20 51 54 52 33 53
REMARK SMILES IDX 53 54 34 55 37 56 52 57 72 58 35 59 36 60 51 62 73 63 38 64
REMARK SMILES IDX 21 65 22 66 31 67 23 68 24 69 30 70 32 71 25 72 26 73 27 74
REMARK SMILES IDX 28 75 29 76 55 77 56 78 65 79 57 80 58 81 64 82 66 83 59 84
REMARK SMILES IDX 60 85 61 86 62 87 63 88 39 89 40 90 49 91 41 92 42 93 48 94
REMARK SMILES IDX 50 95 43 96 44 97 45 98 46 99 47 100
REMARK H PARENT 71 50 37 61
REMARK Flexibility Score: inf
ROOT
ATOM      1  C   UNL     1      -0.045  -3.589  -1.960  1.00  0.00     0.275 C 
ENDROOT
BRANCH   1   2
ATOM      2  O   UNL     1       0.262  -2.190  -1.834  1.00  0.00    -0.458 OA
BRANCH   2   3
ATOM      3  C   UNL     1       0.592  -1.544  -2.982  1.00  0.00     0.348 C 
ATOM      4  O   UNL     1       0.775  -2.099  -4.058  1.00  0.00    -0.245 OA
BRANCH   3   5
ATOM      5  C   UNL     1       0.677  -0.066  -2.792  1.00  0.00     0.118 A 
ATOM      6  C   UNL     1       0.840   0.263  -0.246  1.00  0.00     0.047 C 
ATOM      7  C   UNL     1       0.860   0.677  -1.681  1.00  0.00    -0.016 A 
ATOM      8  C   UNL     1       0.835   2.105  -1.941  1.00  0.00     0.016 A 
ATOM      9  S   UNL     1       0.379   0.911  -4.231  1.00  0.00    -0.108 S 
ATOM     10  C   UNL     1       0.440   2.420  -3.345  1.00  0.00     0.128 A 
ATOM     11  C   UNL     1       1.526   3.155  -1.454  1.00  0.00    -0.040 C 
ATOM     12  N   UNL     1       0.268   3.567  -3.901  1.00  0.00    -0.202 NA
ATOM     13  C   UNL     1       0.789   4.470  -1.635  1.00  0.00     0.135 C 
ATOM     14  C   UNL     1       0.464   4.681  -3.110  1.00  0.00     0.251 C 
ATOM     15  O   UNL     1       0.380   5.827  -3.550  1.00  0.00    -0.272 OA
BRANCH  11  16
ATOM     16  C   UNL     1       3.034   3.362  -1.524  1.00  0.00     0.110 C 
BRANCH  16  17
ATOM     17  S   UNL     1       4.084   1.909  -1.568  1.00  0.00    -0.081 SA
BRANCH  17  18
ATOM     18  C   UNL     1       4.458   1.716   0.114  1.00  0.00     0.195 A 
ATOM     19  N   UNL     1       4.625   2.711   0.958  1.00  0.00    -0.123 NA
ATOM     20  N   UNL     1       4.387   0.517   0.798  1.00  0.00    -0.277 N 
ATOM     21  N   UNL     1       4.592   2.195   2.227  1.00  0.00    -0.138 NA
ATOM     22  C   UNL     1       4.410   0.899   2.119  1.00  0.00     0.231 A 
BRANCH  20  23
ATOM     23  C   UNL     1       4.188  -0.797   0.301  1.00  0.00     0.049 A 
ATOM     24  C   UNL     1       4.728  -1.185  -0.932  1.00  0.00     0.027 A 
ATOM     25  C   UNL     1       3.362  -1.682   1.007  1.00  0.00     0.027 A 
ATOM     26  C   UNL     1       4.376  -2.410  -1.495  1.00  0.00     0.002 A 
ATOM     27  C   UNL     1       3.000  -2.899   0.426  1.00  0.00     0.002 A 
ATOM     28  C   UNL     1       3.496  -3.256  -0.827  1.00  0.00     0.000 A 
ENDBRANCH  20  23
ENDBRANCH  17  18
ENDBRANCH  16  17
ENDBRANCH  11  16
ENDBRANCH   3   5
ENDBRANCH   2   3
ENDBRANCH   1   2
BRANCH   1  29
ATOM     29  C   UNL     1      -1.547  -3.826  -2.045  1.00  0.00     0.275 C 
BRANCH  29  30
ATOM     30  O   UNL     1      -2.112  -3.373  -3.276  1.00  0.00    -0.458 OA
BRANCH  30  31
ATOM     31  C   UNL     1      -2.599  -2.111  -3.239  1.00  0.00     0.338 C 
ATOM     32  O   UNL     1      -2.256  -1.217  -2.482  1.00  0.00    -0.246 OA
BRANCH  31  33
ATOM     33  C   UNL     1      -3.773  -2.013  -4.119  1.00  0.00     0.060 A 
ATOM     34  C   UNL     1      -4.271  -0.738  -4.398  1.00  0.00     0.016 A 
ATOM     35  C   UNL     1      -4.476  -3.167  -4.497  1.00  0.00     0.016 A 
ATOM     36  C   UNL     1      -5.513  -0.619  -4.997  1.00  0.00     0.010 A 
ATOM     37  C   UNL     1      -5.719  -3.046  -5.091  1.00  0.00     0.010 A 
ATOM     38  C   UNL     1      -6.245  -1.772  -5.306  1.00  0.00    -0.014 A 
BRANCH  38  39
ATOM     39  C   UNL     1      -7.513  -1.606  -5.999  1.00  0.00     0.031 A 
ATOM     40  C   UNL     1      -7.387  -1.110  -7.393  1.00  0.00     0.074 A 
ATOM     41  C   UNL     1      -8.697  -2.010  -5.501  1.00  0.00     0.049 A 
ATOM     42  N   UNL     1      -7.865  -0.021  -7.898  1.00  0.00    -0.248 NA
ATOM     43  C   UNL     1      -6.524  -1.873  -8.310  1.00  0.00     0.031 C 
ATOM     44  C   UNL     1      -8.932  -2.788  -4.284  1.00  0.00     0.029 A 
ATOM     45  N   UNL     1      -9.940  -1.908  -6.053  1.00  0.00    -0.354 N 
ATOM     46  C   UNL     1      -7.551  -0.069  -9.253  1.00  0.00     0.074 A 
ATOM     47  C   UNL     1      -6.595  -1.133  -9.416  1.00  0.00     0.031 C 
ATOM     48  C   UNL     1     -10.195  -3.270  -4.307  1.00  0.00     0.029 A 
ATOM     49  C   UNL     1     -10.885  -2.746  -5.475  1.00  0.00     0.049 A 
ATOM     50  H   UNL     1     -10.149  -1.295  -6.795  1.00  0.00     0.167 HD
ATOM     51  C   UNL     1      -8.285   0.604 -10.179  1.00  0.00     0.037 A 
ATOM     52  C   UNL     1     -12.110  -3.053  -5.971  1.00  0.00     0.037 A 
ATOM     53  C   UNL     1      -9.053   1.668  -9.585  1.00  0.00     0.049 A 
ATOM     54  C   UNL     1     -12.487  -1.986  -6.934  1.00  0.00     0.074 A 
ATOM     55  C   UNL     1      -8.747   2.773  -8.813  1.00  0.00     0.029 A 
ATOM     56  N   UNL     1     -10.410   1.498  -9.466  1.00  0.00    -0.354 N 
ATOM     57  N   UNL     1     -12.761  -0.756  -6.601  1.00  0.00    -0.248 NA
ATOM     58  C   UNL     1     -12.194  -2.192  -8.345  1.00  0.00     0.031 C 
ATOM     59  C   UNL     1      -9.839   2.911  -7.907  1.00  0.00     0.029 A 
ATOM     60  C   UNL     1     -10.764   1.911  -8.207  1.00  0.00     0.049 A 
ATOM     61  H   UNL     1     -11.016   1.144 -10.157  1.00  0.00     0.167 HD
ATOM     62  C   UNL     1     -12.254   0.014  -7.635  1.00  0.00     0.074 A 
ATOM     63  C   UNL     1     -12.036  -0.924  -8.731  1.00  0.00     0.031 C 
ATOM     64  C   UNL     1     -11.797   1.282  -7.413  1.00  0.00     0.037 A 
BRANCH  51  65
ATOM     65  C   UNL     1      -8.582   0.050 -11.552  1.00  0.00     0.058 A 
ATOM     66  C   UNL     1      -9.158   0.883 -12.530  1.00  0.00     0.135 A 
ATOM     67  C   UNL     1      -8.586  -1.333 -11.846  1.00  0.00     0.135 A 
ATOM     68  F   UNL     1      -9.227   2.211 -12.342  1.00  0.00    -0.206 F 
ATOM     69  C   UNL     1      -9.752   0.373 -13.686  1.00  0.00     0.059 A 
ATOM     70  C   UNL     1      -9.119  -1.856 -13.017  1.00  0.00     0.059 A 
ATOM     71  F   UNL     1      -8.168  -2.252 -10.966  1.00  0.00    -0.206 F 
ATOM     72  C   UNL     1      -9.741  -1.001 -13.910  1.00  0.00     0.060 A 
BRANCH  72  73
ATOM     73  S   UNL     1     -10.608  -1.677 -15.335  1.00  0.00     0.124 S 
ATOM     74  O   UNL     1     -11.999  -1.503 -14.934  1.00  0.00    -0.237 OA
ATOM     75  O   UNL     1     -10.139  -0.815 -16.415  1.00  0.00    -0.237 OA
ATOM     76  O   UNL     1     -10.132  -3.056 -15.392  1.00  0.00    -0.744 OA
ENDBRANCH  72  73
ENDBRANCH  51  65
BRANCH  52  77
ATOM     77  C   UNL     1     -12.832  -4.352  -5.902  1.00  0.00     0.058 A 
ATOM     78  C   UNL     1     -14.175  -4.456  -6.309  1.00  0.00     0.135 A 
ATOM     79  C   UNL     1     -12.149  -5.571  -5.707  1.00  0.00     0.135 A 
ATOM     80  F   UNL     1     -14.900  -3.350  -6.535  1.00  0.00    -0.206 F 
ATOM     81  C   UNL     1     -14.783  -5.688  -6.570  1.00  0.00     0.059 A 
ATOM     82  C   UNL     1     -12.741  -6.810  -5.941  1.00  0.00     0.059 A 
ATOM     83  F   UNL     1     -10.850  -5.599  -5.377  1.00  0.00    -0.206 F 
ATOM     84  C   UNL     1     -14.048  -6.861  -6.404  1.00  0.00     0.060 A 
BRANCH  84  85
ATOM     85  S   UNL     1     -14.753  -8.440  -6.930  1.00  0.00     0.124 S 
ATOM     86  O   UNL     1     -15.764  -8.675  -5.905  1.00  0.00    -0.237 OA
ATOM     87  O   UNL     1     -15.256  -8.125  -8.263  1.00  0.00    -0.237 OA
ATOM     88  O   UNL     1     -13.609  -9.348  -6.899  1.00  0.00    -0.744 OA
ENDBRANCH  84  85
ENDBRANCH  52  77
BRANCH  64  89
ATOM     89  C   UNL     1     -12.211   1.974  -6.140  1.00  0.00     0.058 A 
ATOM     90  C   UNL     1     -11.935   1.506  -4.843  1.00  0.00     0.135 A 
ATOM     91  C   UNL     1     -12.842   3.224  -6.245  1.00  0.00     0.135 A 
ATOM     92  F   UNL     1     -11.228   0.383  -4.648  1.00  0.00    -0.206 F 
ATOM     93  C   UNL     1     -12.336   2.210  -3.707  1.00  0.00     0.059 A 
ATOM     94  C   UNL     1     -13.217   3.962  -5.125  1.00  0.00     0.059 A 
ATOM     95  F   UNL     1     -13.075   3.763  -7.454  1.00  0.00    -0.206 F 
ATOM     96  C   UNL     1     -12.984   3.435  -3.857  1.00  0.00     0.060 A 
BRANCH  96  97
ATOM     97  S   UNL     1     -13.473   4.360  -2.386  1.00  0.00     0.124 S 
ATOM     98  O   UNL     1     -14.607   3.582  -1.898  1.00  0.00    -0.237 OA
ATOM     99  O   UNL     1     -12.268   4.310  -1.562  1.00  0.00    -0.237 OA
ATOM    100  O   UNL     1     -13.804   5.684  -2.908  1.00  0.00    -0.744 OA
ENDBRANCH  96  97
ENDBRANCH  64  89
ENDBRANCH  38  39
ENDBRANCH  31  33
ENDBRANCH  30  31
ENDBRANCH  29  30
ENDBRANCH   1  29
TORSDOF 18
