REMARK SMILES CCC1(CC)CCN(C(=O)NC(CC)(CC)C(=O)OCCOC(=O)c2ccc(-c3c4nc(c(-c5c(F)cc(S(=O)(=O)[O-])cc5F)c5ccc([nH]5)c(-c5c(F)cc(S(=O)(=O)[O-])cc5F)c5nc(c(-c6c(F)cc(S(=O)(=O)[O-])cc6F)c6ccc3[nH]6)C=C5)C=C4)cc2)CC1
REMARK SMILES IDX 21 1 20 2 19 3 17 4 18 5 12 6 11 7 3 8 6 9 92 10 7 11 91 12
REMARK SMILES IDX 8 13 9 14 10 15 2 17 1 18 4 19 5 20 13 21 14 22 15 23 16 24
REMARK SMILES IDX 22 25 23 26 24 27 25 28 26 29 90 30 27 31 89 32 28 33 29 34
REMARK SMILES IDX 30 35 83 36 31 37 88 38 82 39 84 40 32 41 87 42 81 43 80 44
REMARK SMILES IDX 33 46 67 47 46 48 66 49 47 50 50 51 65 52 85 53 48 54 49 55
REMARK SMILES IDX 64 57 86 58 51 59 34 60 35 61 44 62 36 63 37 64 43 65 45 66
REMARK SMILES IDX 38 67 39 68 40 69 41 70 42 71 68 72 69 73 78 74 70 75 71 76
REMARK SMILES IDX 77 77 79 78 72 79 73 80 74 81 75 82 76 83 52 84 53 85 62 86
REMARK SMILES IDX 54 87 55 88 61 89 63 90 56 91 57 92 58 93 59 94 60 95
REMARK H PARENT 11 16 84 45 50 56
REMARK Flexibility Score: inf
ROOT
ATOM      1  C   UNL     1       0.033   1.741  -1.029  1.00  0.00     0.275 C 
ENDROOT
BRANCH   1   2
ATOM      2  C   UNL     1       0.120   0.888  -2.399  1.00  0.00     0.274 C 
BRANCH   2   3
ATOM      3  O   UNL     1       1.124   1.108  -3.391  1.00  0.00    -0.460 OA
BRANCH   3   4
ATOM      4  C   UNL     1       0.962   2.141  -4.256  1.00  0.00     0.332 C 
ATOM      5  O   UNL     1      -0.138   2.570  -4.583  1.00  0.00    -0.249 OA
BRANCH   4   6
ATOM      6  C   UNL     1       2.347   2.844  -4.566  1.00  0.00     0.139 C 
BRANCH   6   7
ATOM      7  N   UNL     1       2.433   4.040  -3.699  1.00  0.00    -0.322 N 
ATOM      8  C   UNL     1       0.491   1.223   1.330  1.00  0.00    -0.027 C 
ATOM      9  C   UNL     1      -0.470   2.873   0.953  1.00  0.00     0.028 C 
ATOM     10  C   UNL     1       1.833   0.728   0.007  1.00  0.00     0.028 C 
ATOM     11  C   UNL     1       0.103   4.074  -0.465  1.00  0.00     0.122 C 
ATOM     12  C   UNL     1       2.406   1.992  -1.345  1.00  0.00     0.122 C 
ATOM     13  N   UNL     1       1.339   3.459  -1.691  1.00  0.00    -0.325 N 
ATOM     14  C   UNL     1       1.609   4.374  -2.677  1.00  0.00     0.318 C 
ATOM     15  O   UNL     1       1.177   5.524  -2.639  1.00  0.00    -0.249 OA
ATOM     16  H   UNL     1       3.173   4.662  -3.885  1.00  0.00     0.166 HD
BRANCH   8  17
ATOM     17  C   UNL     1      -0.320  -0.143   1.498  1.00  0.00     0.004 C 
ATOM     18  C   UNL     1       0.622  -1.366   1.563  1.00  0.00     0.004 C 
ENDBRANCH   8  17
BRANCH   8  19
ATOM     19  C   UNL     1       0.946   1.492   2.840  1.00  0.00     0.004 C 
ATOM     20  C   UNL     1      -0.236   1.695   3.814  1.00  0.00     0.004 C 
ENDBRANCH   8  19
ENDBRANCH   6   7
BRANCH   6  21
ATOM     21  C   UNL     1       2.196   3.340  -6.051  1.00  0.00     0.037 C 
ATOM     22  C   UNL     1       3.335   4.207  -6.602  1.00  0.00     0.007 C 
ENDBRANCH   6  21
BRANCH   6  23
ATOM     23  C   UNL     1       3.614   1.912  -4.523  1.00  0.00     0.037 C 
ATOM     24  C   UNL     1       4.707   2.154  -3.475  1.00  0.00     0.007 C 
ENDBRANCH   6  23
ENDBRANCH   4   6
ENDBRANCH   3   4
ENDBRANCH   2   3
ENDBRANCH   1   2
BRANCH   1  25
ATOM     25  O   UNL     1       1.306   2.647   0.107  1.00  0.00    -0.458 OA
BRANCH  25  26
ATOM     26  C   UNL     1       2.426   2.967   0.935  1.00  0.00     0.338 C 
ATOM     27  O   UNL     1       3.265   2.194   1.399  1.00  0.00    -0.246 OA
BRANCH  26  28
ATOM     28  C   UNL     1       2.761   4.376   1.138  1.00  0.00     0.060 A 
ATOM     29  C   UNL     1       3.315   5.104   0.079  1.00  0.00     0.016 A 
ATOM     30  C   UNL     1       2.833   4.853   2.449  1.00  0.00     0.016 A 
ATOM     31  C   UNL     1       3.851   6.352   0.305  1.00  0.00     0.010 A 
ATOM     32  C   UNL     1       3.384   6.099   2.686  1.00  0.00     0.010 A 
ATOM     33  C   UNL     1       3.881   6.840   1.609  1.00  0.00    -0.014 A 
BRANCH  33  34
ATOM     34  C   UNL     1       4.479   8.146   1.860  1.00  0.00     0.031 A 
ATOM     35  C   UNL     1       5.864   8.197   2.407  1.00  0.00     0.074 A 
ATOM     36  C   UNL     1       3.720   9.216   1.583  1.00  0.00     0.049 A 
ATOM     37  N   UNL     1       6.535   9.223   2.839  1.00  0.00    -0.248 NA
ATOM     38  C   UNL     1       6.586   6.914   2.498  1.00  0.00     0.031 C 
ATOM     39  C   UNL     1       2.376   9.161   0.994  1.00  0.00     0.029 A 
ATOM     40  N   UNL     1       3.960  10.545   1.746  1.00  0.00    -0.354 N 
ATOM     41  C   UNL     1       7.746   8.713   3.288  1.00  0.00     0.074 A 
ATOM     42  C   UNL     1       7.718   7.283   3.079  1.00  0.00     0.031 C 
ATOM     43  C   UNL     1       1.920  10.411   0.825  1.00  0.00     0.029 A 
ATOM     44  C   UNL     1       2.913  11.338   1.344  1.00  0.00     0.049 A 
ATOM     45  H   UNL     1       4.800  10.903   2.116  1.00  0.00     0.167 HD
ATOM     46  C   UNL     1       8.772   9.404   3.836  1.00  0.00     0.037 A 
ATOM     47  C   UNL     1       2.791  12.674   1.417  1.00  0.00     0.037 A 
ATOM     48  C   UNL     1       8.708  10.830   4.023  1.00  0.00     0.049 A 
ATOM     49  C   UNL     1       3.951  13.416   2.019  1.00  0.00     0.074 A 
ATOM     50  C   UNL     1       9.614  11.677   4.628  1.00  0.00     0.029 A 
ATOM     51  N   UNL     1       7.648  11.621   3.580  1.00  0.00    -0.354 N 
ATOM     52  N   UNL     1       5.071  12.928   2.508  1.00  0.00    -0.248 NA
ATOM     53  C   UNL     1       3.841  14.873   2.092  1.00  0.00     0.031 C 
ATOM     54  C   UNL     1       9.092  12.976   4.565  1.00  0.00     0.029 A 
ATOM     55  C   UNL     1       7.880  12.947   3.885  1.00  0.00     0.049 A 
ATOM     56  H   UNL     1       6.849  11.283   3.116  1.00  0.00     0.167 HD
ATOM     57  C   UNL     1       5.811  14.019   2.935  1.00  0.00     0.074 A 
ATOM     58  C   UNL     1       5.012  15.195   2.627  1.00  0.00     0.031 C 
ATOM     59  C   UNL     1       7.029  14.061   3.533  1.00  0.00     0.037 A 
BRANCH  46  60
ATOM     60  C   UNL     1       9.960   8.609   4.303  1.00  0.00     0.058 A 
ATOM     61  C   UNL     1      10.829   7.976   3.397  1.00  0.00     0.135 A 
ATOM     62  C   UNL     1      10.189   8.400   5.672  1.00  0.00     0.135 A 
ATOM     63  F   UNL     1      10.645   8.116   2.074  1.00  0.00    -0.206 F 
ATOM     64  C   UNL     1      11.846   7.127   3.829  1.00  0.00     0.059 A 
ATOM     65  C   UNL     1      11.214   7.573   6.128  1.00  0.00     0.059 A 
ATOM     66  F   UNL     1       9.387   8.969   6.586  1.00  0.00    -0.206 F 
ATOM     67  C   UNL     1      12.021   6.920   5.198  1.00  0.00     0.060 A 
BRANCH  67  68
ATOM     68  S   UNL     1      13.301   5.767   5.745  1.00  0.00     0.124 S 
ATOM     69  O   UNL     1      12.684   4.480   5.440  1.00  0.00    -0.237 OA
ATOM     70  O   UNL     1      14.438   6.137   4.907  1.00  0.00    -0.237 OA
ATOM     71  O   UNL     1      13.449   6.072   7.164  1.00  0.00    -0.744 OA
ENDBRANCH  67  68
ENDBRANCH  46  60
BRANCH  47  72
ATOM     72  C   UNL     1       1.567  13.344   0.907  1.00  0.00     0.058 A 
ATOM     73  C   UNL     1       1.612  14.154  -0.237  1.00  0.00     0.135 A 
ATOM     74  C   UNL     1       0.314  13.144   1.510  1.00  0.00     0.135 A 
ATOM     75  F   UNL     1       2.780  14.367  -0.862  1.00  0.00    -0.206 F 
ATOM     76  C   UNL     1       0.468  14.759  -0.751  1.00  0.00     0.059 A 
ATOM     77  C   UNL     1      -0.848  13.716   1.000  1.00  0.00     0.059 A 
ATOM     78  F   UNL     1       0.205  12.353   2.590  1.00  0.00    -0.206 F 
ATOM     79  C   UNL     1      -0.759  14.536  -0.123  1.00  0.00     0.060 A 
BRANCH  79  80
ATOM     80  S   UNL     1      -2.241  15.308  -0.808  1.00  0.00     0.124 S 
ATOM     81  O   UNL     1      -2.054  16.701  -0.411  1.00  0.00    -0.237 OA
ATOM     82  O   UNL     1      -2.106  15.029  -2.234  1.00  0.00    -0.237 OA
ATOM     83  O   UNL     1      -3.329  14.604  -0.138  1.00  0.00    -0.744 OA
ENDBRANCH  79  80
ENDBRANCH  47  72
BRANCH  59  84
ATOM     84  C   UNL     1       7.556  15.425   3.846  1.00  0.00     0.058 A 
ATOM     85  C   UNL     1       7.073  16.160   4.938  1.00  0.00     0.135 A 
ATOM     86  C   UNL     1       8.590  15.972   3.072  1.00  0.00     0.135 A 
ATOM     87  F   UNL     1       6.077  15.674   5.695  1.00  0.00    -0.206 F 
ATOM     88  C   UNL     1       7.590  17.410   5.244  1.00  0.00     0.059 A 
ATOM     89  C   UNL     1       9.138  17.210   3.376  1.00  0.00     0.059 A 
ATOM     90  F   UNL     1       9.082  15.295   2.023  1.00  0.00    -0.206 F 
ATOM     91  C   UNL     1       8.625  17.925   4.458  1.00  0.00     0.060 A 
BRANCH  91  92
ATOM     92  S   UNL     1       9.323  19.529   4.894  1.00  0.00     0.124 S 
ATOM     93  O   UNL     1       8.306  20.439   4.380  1.00  0.00    -0.237 OA
ATOM     94  O   UNL     1       9.422  19.443   6.348  1.00  0.00    -0.237 OA
ATOM     95  O   UNL     1      10.599  19.544   4.186  1.00  0.00    -0.744 OA
ENDBRANCH  91  92
ENDBRANCH  59  84
ENDBRANCH  33  34
ENDBRANCH  26  28
ENDBRANCH  25  26
ENDBRANCH   1  25
TORSDOF 19
