REMARK SMILES CC[C@@H](C)CN(C)c1cccc(Cl)c1/C=C/C(=O)OCCOC(=O)c1ccc(-c2c3nc(c(-c4c(F)cc(S(=O)(=O)[O-])cc4F)c4ccc([nH]4)c(-c4c(F)cc(S(=O)(=O)[O-])cc4F)c4nc(c(-c5c(F)cc(S(=O)(=O)[O-])cc5F)c5ccc2[nH]5)C=C4)C=C3)cc1
REMARK SMILES IDX 20 1 19 2 17 3 18 4 16 5 15 6 14 7 8 8 9 9 10 10 12 11 11 12
REMARK SMILES IDX 13 13 6 14 7 15 5 16 3 17 4 18 2 19 1 20 21 21 22 22 23 23
REMARK SMILES IDX 24 24 25 25 26 26 90 27 27 28 89 29 28 30 29 31 30 32 83 33
REMARK SMILES IDX 31 34 88 35 82 36 84 37 32 38 87 39 81 40 80 41 33 43 67 44
REMARK SMILES IDX 46 45 66 46 47 47 50 48 65 49 85 50 48 51 49 52 64 54 86 55
REMARK SMILES IDX 51 56 34 57 35 58 44 59 36 60 37 61 43 62 45 63 38 64 39 65
REMARK SMILES IDX 40 66 41 67 42 68 68 69 69 70 78 71 70 72 71 73 77 74 79 75
REMARK SMILES IDX 72 76 73 77 74 78 75 79 76 80 52 81 53 82 62 83 54 84 55 85
REMARK SMILES IDX 61 86 63 87 56 88 57 89 58 90 59 91 60 92
REMARK H PARENT 84 42 50 53
REMARK Flexibility Score: inf
ROOT
ATOM      1  C   UNL     1      -0.048  -8.810   5.367  1.00  0.00     0.275 C 
ENDROOT
BRANCH   1   2
ATOM      2  O   UNL     1      -0.059  -7.928   4.230  1.00  0.00    -0.459 OA
BRANCH   2   3
ATOM      3  C   UNL     1      -0.630  -6.712   4.413  1.00  0.00     0.330 C 
ATOM      4  O   UNL     1      -1.171  -6.319   5.436  1.00  0.00    -0.247 OA
BRANCH   3   5
ATOM      5  C   UNL     1      -0.534  -5.853   3.213  1.00  0.00     0.094 C 
ATOM      6  C   UNL     1       0.166  -6.173   2.116  1.00  0.00     0.019 C 
BRANCH   6   7
ATOM      7  C   UNL     1       0.314  -5.310   0.921  1.00  0.00     0.017 A 
ATOM      8  C   UNL     1       0.934  -4.038   0.987  1.00  0.00     0.045 A 
ATOM      9  C   UNL     1       1.251  -3.382  -0.217  1.00  0.00     0.026 A 
ATOM     10  C   UNL     1       0.884  -3.895  -1.458  1.00  0.00     0.004 A 
ATOM     11  C   UNL     1      -0.060  -5.815  -0.345  1.00  0.00     0.050 A 
ATOM     12  C   UNL     1       0.207  -5.104  -1.520  1.00  0.00     0.021 A 
ATOM     13  Cl  UNL     1      -0.876  -7.337  -0.525  1.00  0.00    -0.084 Cl
BRANCH   8  14
ATOM     14  N   UNL     1       1.289  -3.434   2.191  1.00  0.00    -0.374 N 
ATOM     15  C   UNL     1       2.679  -3.587   2.598  1.00  0.00     0.143 C 
BRANCH  14  16
ATOM     16  C   UNL     1       0.472  -2.336   2.732  1.00  0.00     0.119 C 
BRANCH  16  17
ATOM     17  C   UNL     1       0.883  -0.940   2.210  1.00  0.00     0.005 C 
ATOM     18  C   UNL     1       0.764   0.099   3.335  1.00  0.00     0.009 C 
BRANCH  17  19
ATOM     19  C   UNL     1       0.006  -0.498   1.017  1.00  0.00     0.002 C 
ATOM     20  C   UNL     1       0.723   0.494   0.109  1.00  0.00     0.004 C 
ENDBRANCH  17  19
ENDBRANCH  16  17
ENDBRANCH  14  16
ENDBRANCH   8  14
ENDBRANCH   6   7
ENDBRANCH   3   5
ENDBRANCH   2   3
ENDBRANCH   1   2
BRANCH   1  21
ATOM     21  C   UNL     1       1.346  -8.901   5.992  1.00  0.00     0.275 C 
BRANCH  21  22
ATOM     22  O   UNL     1       1.730  -7.661   6.612  1.00  0.00    -0.458 OA
BRANCH  22  23
ATOM     23  C   UNL     1       2.439  -6.832   5.813  1.00  0.00     0.338 C 
ATOM     24  O   UNL     1       2.814  -7.047   4.672  1.00  0.00    -0.246 OA
BRANCH  23  25
ATOM     25  C   UNL     1       2.643  -5.535   6.476  1.00  0.00     0.060 A 
ATOM     26  C   UNL     1       2.072  -4.412   5.879  1.00  0.00     0.016 A 
ATOM     27  C   UNL     1       3.506  -5.398   7.565  1.00  0.00     0.016 A 
ATOM     28  C   UNL     1       2.427  -3.139   6.316  1.00  0.00     0.010 A 
ATOM     29  C   UNL     1       3.835  -4.114   8.023  1.00  0.00     0.010 A 
ATOM     30  C   UNL     1       3.334  -2.973   7.372  1.00  0.00    -0.014 A 
BRANCH  30  31
ATOM     31  C   UNL     1       3.808  -1.604   7.713  1.00  0.00     0.031 A 
ATOM     32  C   UNL     1       5.237  -1.206   7.437  1.00  0.00     0.074 A 
ATOM     33  C   UNL     1       2.946  -0.690   8.201  1.00  0.00     0.049 A 
ATOM     34  N   UNL     1       5.845  -0.075   7.692  1.00  0.00    -0.248 NA
ATOM     35  C   UNL     1       6.093  -2.213   6.790  1.00  0.00     0.031 C 
ATOM     36  C   UNL     1       1.528  -0.929   8.473  1.00  0.00     0.029 A 
ATOM     37  N   UNL     1       3.134   0.627   8.540  1.00  0.00    -0.354 N 
ATOM     38  C   UNL     1       7.159  -0.243   7.269  1.00  0.00     0.074 A 
ATOM     39  C   UNL     1       7.263  -1.591   6.750  1.00  0.00     0.031 C 
ATOM     40  C   UNL     1       0.969   0.210   8.913  1.00  0.00     0.029 A 
ATOM     41  C   UNL     1       1.996   1.244   9.002  1.00  0.00     0.049 A 
ATOM     42  H   UNL     1       4.001   1.086   8.459  1.00  0.00     0.167 HD
ATOM     43  C   UNL     1       8.184   0.643   7.303  1.00  0.00     0.037 A 
ATOM     44  C   UNL     1       1.803   2.495   9.463  1.00  0.00     0.037 A 
ATOM     45  C   UNL     1       8.074   1.996   7.783  1.00  0.00     0.049 A 
ATOM     46  C   UNL     1       2.959   3.456   9.507  1.00  0.00     0.074 A 
ATOM     47  C   UNL     1       9.058   2.969   7.854  1.00  0.00     0.029 A 
ATOM     48  N   UNL     1       6.909   2.575   8.263  1.00  0.00    -0.354 N 
ATOM     49  N   UNL     1       4.201   3.268   9.131  1.00  0.00    -0.248 NA
ATOM     50  C   UNL     1       2.688   4.798  10.043  1.00  0.00     0.031 C 
ATOM     51  C   UNL     1       8.493   4.127   8.400  1.00  0.00     0.029 A 
ATOM     52  C   UNL     1       7.149   3.887   8.637  1.00  0.00     0.049 A 
ATOM     53  H   UNL     1       6.038   2.120   8.329  1.00  0.00     0.167 HD
ATOM     54  C   UNL     1       4.856   4.472   9.370  1.00  0.00     0.074 A 
ATOM     55  C   UNL     1       3.870   5.385   9.910  1.00  0.00     0.031 C 
ATOM     56  C   UNL     1       6.157   4.789   9.164  1.00  0.00     0.037 A 
BRANCH  43  57
ATOM     57  C   UNL     1       9.529   0.169   6.828  1.00  0.00     0.058 A 
ATOM     58  C   UNL     1       9.814  -0.003   5.465  1.00  0.00     0.135 A 
ATOM     59  C   UNL     1      10.557  -0.086   7.750  1.00  0.00     0.135 A 
ATOM     60  F   UNL     1       8.862   0.210   4.543  1.00  0.00    -0.206 F 
ATOM     61  C   UNL     1      11.064  -0.436   5.033  1.00  0.00     0.059 A 
ATOM     62  C   UNL     1      11.821  -0.498   7.340  1.00  0.00     0.059 A 
ATOM     63  F   UNL     1      10.336   0.065   9.066  1.00  0.00    -0.206 F 
ATOM     64  C   UNL     1      12.061  -0.685   5.980  1.00  0.00     0.060 A 
BRANCH  64  65
ATOM     65  S   UNL     1      13.678  -1.249   5.409  1.00  0.00     0.124 S 
ATOM     66  O   UNL     1      13.404  -2.649   5.101  1.00  0.00    -0.237 OA
ATOM     67  O   UNL     1      13.927  -0.385   4.260  1.00  0.00    -0.237 OA
ATOM     68  O   UNL     1      14.544  -1.017   6.561  1.00  0.00    -0.744 OA
ENDBRANCH  64  65
ENDBRANCH  43  57
BRANCH  44  69
ATOM     69  C   UNL     1       0.455   2.907   9.935  1.00  0.00     0.058 A 
ATOM     70  C   UNL     1      -0.324   3.812   9.201  1.00  0.00     0.135 A 
ATOM     71  C   UNL     1      -0.083   2.392  11.124  1.00  0.00     0.135 A 
ATOM     72  F   UNL     1       0.153   4.338   8.062  1.00  0.00    -0.206 F 
ATOM     73  C   UNL     1      -1.588   4.200   9.632  1.00  0.00     0.059 A 
ATOM     74  C   UNL     1      -1.353   2.746  11.564  1.00  0.00     0.059 A 
ATOM     75  F   UNL     1       0.621   1.514  11.856  1.00  0.00    -0.206 F 
ATOM     76  C   UNL     1      -2.095   3.659  10.816  1.00  0.00     0.060 A 
BRANCH  76  77
ATOM     77  S   UNL     1      -3.760   4.121  11.343  1.00  0.00     0.124 S 
ATOM     78  O   UNL     1      -3.528   5.440  11.919  1.00  0.00    -0.237 OA
ATOM     79  O   UNL     1      -4.501   4.095  10.086  1.00  0.00    -0.237 OA
ATOM     80  O   UNL     1      -4.112   3.068  12.290  1.00  0.00    -0.744 OA
ENDBRANCH  76  77
ENDBRANCH  44  69
BRANCH  56  81
ATOM     81  C   UNL     1       6.585   6.191   9.492  1.00  0.00     0.058 A 
ATOM     82  C   UNL     1       6.769   6.613  10.817  1.00  0.00     0.135 A 
ATOM     83  C   UNL     1       6.850   7.112   8.466  1.00  0.00     0.135 A 
ATOM     84  F   UNL     1       6.524   5.772  11.834  1.00  0.00    -0.206 F 
ATOM     85  C   UNL     1       7.180   7.909  11.116  1.00  0.00     0.059 A 
ATOM     86  C   UNL     1       7.282   8.406   8.741  1.00  0.00     0.059 A 
ATOM     87  F   UNL     1       6.698   6.754   7.181  1.00  0.00    -0.206 F 
ATOM     88  C   UNL     1       7.431   8.799  10.070  1.00  0.00     0.060 A 
BRANCH  88  89
ATOM     89  S   UNL     1       7.988  10.471  10.465  1.00  0.00     0.124 S 
ATOM     90  O   UNL     1       6.738  11.109  10.864  1.00  0.00    -0.237 OA
ATOM     91  O   UNL     1       8.951  10.239  11.537  1.00  0.00    -0.237 OA
ATOM     92  O   UNL     1       8.561  10.942   9.207  1.00  0.00    -0.744 OA
ENDBRANCH  88  89
ENDBRANCH  56  81
ENDBRANCH  30  31
ENDBRANCH  23  25
ENDBRANCH  22  23
ENDBRANCH  21  22
ENDBRANCH   1  21
TORSDOF 19
