REMARK SMILES O=C(Cn1c(=O)n(Cc2cccnc2)c(=O)c2sccc21)OCCOC(=O)c1ccc(-c2c3nc(c(-c4c(F)cc(S(=O)(=O)[O-])cc4F)c4ccc([nH]4)c(-c4c(F)cc(S(=O)(=O)[O-])cc4F)c4nc(c(-c5c(F)cc(S(=O)(=O)[O-])cc5F)c5ccc2[nH]5)C=C4)C=C3)cc1
REMARK SMILES IDX 23 1 22 2 2 3 1 4 3 5 4 6 5 7 21 8 6 9 7 10 17 11 20 12
REMARK SMILES IDX 15 13 18 14 19 15 16 16 8 17 9 18 10 19 14 20 11 21 13 22
REMARK SMILES IDX 12 23 24 24 25 25 26 26 27 27 28 28 29 29 93 30 30 31 92 32
REMARK SMILES IDX 31 33 32 34 33 35 86 36 34 37 91 38 85 39 87 40 35 41 90 42
REMARK SMILES IDX 84 43 83 44 36 46 70 47 49 48 69 49 50 50 53 51 68 52 88 53
REMARK SMILES IDX 51 54 52 55 67 57 89 58 54 59 37 60 38 61 47 62 39 63 40 64
REMARK SMILES IDX 46 65 48 66 41 67 42 68 43 69 44 70 45 71 71 72 72 73 81 74
REMARK SMILES IDX 73 75 74 76 80 77 82 78 75 79 76 80 77 81 78 82 79 83 55 84
REMARK SMILES IDX 56 85 65 86 57 87 58 88 64 89 66 90 59 91 60 92 61 93 62 94
REMARK SMILES IDX 63 95
REMARK H PARENT 87 45 53 56
REMARK Flexibility Score: inf
ROOT
ATOM      1  C   UNL     1       3.937   1.455  -0.781  1.00  0.00     0.274 C 
ENDROOT
BRANCH   1   2
ATOM      2  O   UNL     1       2.626   0.868  -0.689  1.00  0.00    -0.461 OA
BRANCH   2   3
ATOM      3  C   UNL     1       2.410  -0.466  -0.552  1.00  0.00     0.326 C 
ATOM      4  O   UNL     1       1.508  -1.004  -1.196  1.00  0.00    -0.250 OA
BRANCH   3   5
ATOM      5  C   UNL     1       3.253  -1.269   0.446  1.00  0.00     0.250 C 
BRANCH   5   6
ATOM      6  N   UNL     1       3.992  -2.328  -0.229  1.00  0.00    -0.281 N 
ATOM      7  C   UNL     1       5.202  -1.972  -0.826  1.00  0.00     0.332 A 
ATOM      8  C   UNL     1       3.614  -3.668  -0.239  1.00  0.00     0.070 A 
ATOM      9  O   UNL     1       5.813  -0.955  -0.491  1.00  0.00    -0.247 OA
ATOM     10  N   UNL     1       5.670  -2.791  -1.845  1.00  0.00    -0.254 N 
ATOM     11  C   UNL     1       4.231  -4.519  -1.117  1.00  0.00     0.116 A 
ATOM     12  C   UNL     1       2.678  -4.351   0.587  1.00  0.00     0.039 A 
ATOM     13  C   UNL     1       5.189  -4.075  -2.094  1.00  0.00     0.274 A 
ATOM     14  S   UNL     1       3.753  -6.133  -0.930  1.00  0.00    -0.136 S 
ATOM     15  C   UNL     1       2.704  -5.715   0.360  1.00  0.00     0.068 A 
ATOM     16  O   UNL     1       5.549  -4.740  -3.064  1.00  0.00    -0.268 OA
BRANCH  10  17
ATOM     17  C   UNL     1       6.689  -2.232  -2.720  1.00  0.00     0.168 C 
BRANCH  17  18
ATOM     18  C   UNL     1       8.097  -2.564  -2.307  1.00  0.00    -0.010 A 
ATOM     19  C   UNL     1       8.964  -1.595  -1.790  1.00  0.00     0.009 A 
ATOM     20  C   UNL     1       8.602  -3.852  -2.458  1.00  0.00     0.116 A 
ATOM     21  C   UNL     1      10.270  -1.944  -1.457  1.00  0.00     0.020 A 
ATOM     22  N   UNL     1       9.863  -4.219  -2.140  1.00  0.00    -0.264 NA
ATOM     23  C   UNL     1      10.667  -3.257  -1.644  1.00  0.00     0.111 A 
ENDBRANCH  17  18
ENDBRANCH  10  17
ENDBRANCH   5   6
ENDBRANCH   3   5
ENDBRANCH   2   3
ENDBRANCH   1   2
BRANCH   1  24
ATOM     24  C   UNL     1       4.394   2.208   0.463  1.00  0.00     0.275 C 
BRANCH  24  25
ATOM     25  O   UNL     1       4.284   1.444   1.653  1.00  0.00    -0.458 OA
BRANCH  25  26
ATOM     26  C   UNL     1       3.054   1.403   2.224  1.00  0.00     0.338 C 
ATOM     27  O   UNL     1       2.022   1.845   1.780  1.00  0.00    -0.246 OA
BRANCH  26  28
ATOM     28  C   UNL     1       3.184   0.719   3.522  1.00  0.00     0.060 A 
ATOM     29  C   UNL     1       2.021   0.509   4.268  1.00  0.00     0.016 A 
ATOM     30  C   UNL     1       4.457   0.451   4.047  1.00  0.00     0.016 A 
ATOM     31  C   UNL     1       2.146   0.225   5.612  1.00  0.00     0.010 A 
ATOM     32  C   UNL     1       4.580   0.183   5.386  1.00  0.00     0.010 A 
ATOM     33  C   UNL     1       3.428   0.165   6.165  1.00  0.00    -0.014 A 
BRANCH  33  34
ATOM     34  C   UNL     1       3.571   0.064   7.601  1.00  0.00     0.031 A 
ATOM     35  C   UNL     1       3.322  -1.297   8.127  1.00  0.00     0.074 A 
ATOM     36  C   UNL     1       4.037   1.101   8.326  1.00  0.00     0.049 A 
ATOM     37  N   UNL     1       2.347  -1.688   8.877  1.00  0.00    -0.248 NA
ATOM     38  C   UNL     1       4.163  -2.395   7.617  1.00  0.00     0.031 C 
ATOM     39  C   UNL     1       4.572   2.379   7.840  1.00  0.00     0.029 A 
ATOM     40  N   UNL     1       4.223   1.193   9.668  1.00  0.00    -0.354 N 
ATOM     41  C   UNL     1       2.601  -3.029   9.140  1.00  0.00     0.074 A 
ATOM     42  C   UNL     1       3.588  -3.455   8.183  1.00  0.00     0.031 C 
ATOM     43  C   UNL     1       5.221   3.007   8.848  1.00  0.00     0.029 A 
ATOM     44  C   UNL     1       5.033   2.250  10.073  1.00  0.00     0.049 A 
ATOM     45  H   UNL     1       3.816   0.562  10.304  1.00  0.00     0.167 HD
ATOM     46  C   UNL     1       2.193  -3.608  10.302  1.00  0.00     0.037 A 
ATOM     47  C   UNL     1       5.551   2.432  11.317  1.00  0.00     0.037 A 
ATOM     48  C   UNL     1       1.164  -2.834  10.945  1.00  0.00     0.049 A 
ATOM     49  C   UNL     1       4.720   1.618  12.246  1.00  0.00     0.074 A 
ATOM     50  C   UNL     1      -0.099  -2.413  10.573  1.00  0.00     0.029 A 
ATOM     51  N   UNL     1       1.531  -2.033  11.999  1.00  0.00    -0.354 N 
ATOM     52  N   UNL     1       3.461   1.861  12.495  1.00  0.00    -0.248 NA
ATOM     53  C   UNL     1       5.157   0.257  12.517  1.00  0.00     0.031 C 
ATOM     54  C   UNL     1      -0.215  -1.091  11.091  1.00  0.00     0.029 A 
ATOM     55  C   UNL     1       0.947  -0.805  11.811  1.00  0.00     0.049 A 
ATOM     56  H   UNL     1       2.108  -2.293  12.753  1.00  0.00     0.167 HD
ATOM     57  C   UNL     1       2.858   0.612  12.543  1.00  0.00     0.074 A 
ATOM     58  C   UNL     1       3.966  -0.340  12.616  1.00  0.00     0.031 C 
ATOM     59  C   UNL     1       1.539   0.448  12.229  1.00  0.00     0.037 A 
BRANCH  46  60
ATOM     60  C   UNL     1       2.994  -4.665  11.016  1.00  0.00     0.058 A 
ATOM     61  C   UNL     1       2.404  -5.407  12.055  1.00  0.00     0.135 A 
ATOM     62  C   UNL     1       4.397  -4.798  10.888  1.00  0.00     0.135 A 
ATOM     63  F   UNL     1       1.085  -5.323  12.290  1.00  0.00    -0.206 F 
ATOM     64  C   UNL     1       3.157  -6.202  12.921  1.00  0.00     0.059 A 
ATOM     65  C   UNL     1       5.157  -5.629  11.698  1.00  0.00     0.059 A 
ATOM     66  F   UNL     1       5.109  -4.053  10.032  1.00  0.00    -0.206 F 
ATOM     67  C   UNL     1       4.534  -6.303  12.734  1.00  0.00     0.060 A 
BRANCH  67  68
ATOM     68  S   UNL     1       5.517  -7.275  13.888  1.00  0.00     0.124 S 
ATOM     69  O   UNL     1       5.391  -6.490  15.110  1.00  0.00    -0.237 OA
ATOM     70  O   UNL     1       4.817  -8.556  13.872  1.00  0.00    -0.237 OA
ATOM     71  O   UNL     1       6.842  -7.284  13.275  1.00  0.00    -0.744 OA
ENDBRANCH  67  68
ENDBRANCH  46  60
BRANCH  47  72
ATOM     72  C   UNL     1       6.919   2.904  11.682  1.00  0.00     0.058 A 
ATOM     73  C   UNL     1       7.255   3.188  13.020  1.00  0.00     0.135 A 
ATOM     74  C   UNL     1       8.002   2.796  10.786  1.00  0.00     0.135 A 
ATOM     75  F   UNL     1       6.293   3.292  13.949  1.00  0.00    -0.206 F 
ATOM     76  C   UNL     1       8.584   3.296  13.454  1.00  0.00     0.059 A 
ATOM     77  C   UNL     1       9.332   2.908  11.193  1.00  0.00     0.059 A 
ATOM     78  F   UNL     1       7.806   2.482   9.497  1.00  0.00    -0.206 F 
ATOM     79  C   UNL     1       9.618   3.128  12.534  1.00  0.00     0.060 A 
BRANCH  79  80
ATOM     80  S   UNL     1      11.331   3.081  13.117  1.00  0.00     0.124 S 
ATOM     81  O   UNL     1      11.534   4.452  13.572  1.00  0.00    -0.237 OA
ATOM     82  O   UNL     1      11.272   2.064  14.161  1.00  0.00    -0.237 OA
ATOM     83  O   UNL     1      12.084   2.703  11.923  1.00  0.00    -0.744 OA
ENDBRANCH  79  80
ENDBRANCH  47  72
BRANCH  59  84
ATOM     84  C   UNL     1       0.675   1.680  12.098  1.00  0.00     0.058 A 
ATOM     85  C   UNL     1       0.829   2.666  11.105  1.00  0.00     0.135 A 
ATOM     86  C   UNL     1      -0.460   1.774  12.917  1.00  0.00     0.135 A 
ATOM     87  F   UNL     1       1.831   2.599  10.217  1.00  0.00    -0.206 F 
ATOM     88  C   UNL     1      -0.087   3.711  10.956  1.00  0.00     0.059 A 
ATOM     89  C   UNL     1      -1.401   2.789  12.767  1.00  0.00     0.059 A 
ATOM     90  F   UNL     1      -0.697   0.833  13.846  1.00  0.00    -0.206 F 
ATOM     91  C   UNL     1      -1.204   3.761  11.789  1.00  0.00     0.060 A 
BRANCH  91  92
ATOM     92  S   UNL     1      -2.429   5.067  11.548  1.00  0.00     0.124 S 
ATOM     93  O   UNL     1      -1.692   6.260  11.952  1.00  0.00    -0.237 OA
ATOM     94  O   UNL     1      -2.728   4.959  10.123  1.00  0.00    -0.237 OA
ATOM     95  O   UNL     1      -3.522   4.679  12.436  1.00  0.00    -0.744 OA
ENDBRANCH  91  92
ENDBRANCH  59  84
ENDBRANCH  33  34
ENDBRANCH  26  28
ENDBRANCH  25  26
ENDBRANCH  24  25
ENDBRANCH   1  24
TORSDOF 17
