REMARK SMILES COc1ccc2c(c1)C=C(C(=O)OCCOC(=O)c1ccc(-c3c4nc(c(-c5c(F)cc(S(=O)(=O)[O-])cc5F)c5ccc([nH]5)c(-c5c(F)cc(S(=O)(=O)[O-])cc5F)c5nc(c(-c6c(F)cc(S(=O)(=O)[O-])cc6F)c6ccc3[nH]6)C=C5)C=C4)cc1)[C@H](C(F)(F)F)O2
REMARK SMILES IDX 15 1 14 2 13 3 11 4 12 5 10 6 3 7 4 8 8 9 5 10 7 11 6 12
REMARK SMILES IDX 9 13 90 14 85 15 2 16 1 17 86 18 87 19 88 20 89 21 16 22
REMARK SMILES IDX 17 23 18 24 19 25 20 26 84 27 21 28 83 29 22 30 23 31 24 32
REMARK SMILES IDX 77 33 25 34 82 35 76 36 78 37 26 38 81 39 75 40 74 41 27 43
REMARK SMILES IDX 61 44 40 45 60 46 41 47 44 48 59 49 79 50 42 51 43 52 58 54
REMARK SMILES IDX 80 55 45 56 28 57 29 58 38 59 30 60 31 61 37 62 39 63 32 64
REMARK SMILES IDX 33 65 34 66 35 67 36 68 62 69 63 70 72 71 64 72 65 73 71 74
REMARK SMILES IDX 73 75 66 76 67 77 68 78 69 79 70 80 46 81 47 82 56 83 48 84
REMARK SMILES IDX 49 85 55 86 57 87 50 88 51 89 52 90 53 91 54 92
REMARK H PARENT 78 42 44 53
REMARK Flexibility Score: inf
ROOT
ATOM      1  C   UNL     1      -3.695  -1.455   9.517  1.00  0.00     0.275 C 
ENDROOT
BRANCH   1   2
ATOM      2  C   UNL     1      -3.176  -0.080   9.087  1.00  0.00     0.275 C 
BRANCH   2   3
ATOM      3  O   UNL     1      -2.246  -0.171   7.987  1.00  0.00    -0.459 OA
BRANCH   3   4
ATOM      4  C   UNL     1      -0.947   0.099   8.287  1.00  0.00     0.338 C 
ATOM      5  O   UNL     1      -0.531   0.391   9.390  1.00  0.00    -0.246 OA
BRANCH   4   6
ATOM      6  C   UNL     1      -0.068  -0.025   7.098  1.00  0.00     0.087 C 
ATOM      7  C   UNL     1       0.782   0.156   2.337  1.00  0.00     0.119 A 
ATOM      8  C   UNL     1       2.126  -0.132   2.578  1.00  0.00     0.050 A 
ATOM      9  C   UNL     1      -0.100   0.294   3.418  1.00  0.00     0.058 A 
ATOM     10  C   UNL     1       2.591  -0.239   3.890  1.00  0.00     0.051 A 
ATOM     11  C   UNL     1       0.354   0.154   4.734  1.00  0.00     0.021 A 
ATOM     12  C   UNL     1       1.709  -0.090   4.956  1.00  0.00     0.128 A 
ATOM     13  C   UNL     1      -0.540   0.297   5.881  1.00  0.00     0.027 C 
ATOM     14  O   UNL     1       2.252  -0.110   6.207  1.00  0.00    -0.475 OA
ATOM     15  C   UNL     1       1.360  -0.521   7.282  1.00  0.00     0.316 C 
BRANCH   7  16
ATOM     16  O   UNL     1       0.218   0.363   1.107  1.00  0.00    -0.497 OA
ATOM     17  C   UNL     1       0.988  -0.018  -0.028  1.00  0.00     0.278 C 
ENDBRANCH   7  16
BRANCH  15  18
ATOM     18  C   UNL     1       2.083  -0.218   8.609  1.00  0.00     0.430 C 
ATOM     19  F   UNL     1       1.568  -0.923   9.641  1.00  0.00    -0.167 F 
ATOM     20  F   UNL     1       3.388  -0.590   8.527  1.00  0.00    -0.167 F 
ATOM     21  F   UNL     1       2.065   1.096   8.919  1.00  0.00    -0.167 F 
ENDBRANCH  15  18
ENDBRANCH   4   6
ENDBRANCH   3   4
ENDBRANCH   2   3
ENDBRANCH   1   2
BRANCH   1  22
ATOM     22  O   UNL     1      -2.630  -2.302   9.985  1.00  0.00    -0.458 OA
BRANCH  22  23
ATOM     23  C   UNL     1      -2.128  -3.150   9.055  1.00  0.00     0.338 C 
ATOM     24  O   UNL     1      -2.534  -3.302   7.913  1.00  0.00    -0.246 OA
BRANCH  23  25
ATOM     25  C   UNL     1      -0.863  -3.738   9.536  1.00  0.00     0.060 A 
ATOM     26  C   UNL     1       0.226  -3.671   8.664  1.00  0.00     0.016 A 
ATOM     27  C   UNL     1      -0.724  -4.351  10.783  1.00  0.00     0.016 A 
ATOM     28  C   UNL     1       1.479  -4.139   9.057  1.00  0.00     0.010 A 
ATOM     29  C   UNL     1       0.523  -4.874  11.158  1.00  0.00     0.010 A 
ATOM     30  C   UNL     1       1.635  -4.755  10.304  1.00  0.00    -0.014 A 
BRANCH  30  31
ATOM     31  C   UNL     1       2.946  -5.358  10.650  1.00  0.00     0.031 A 
ATOM     32  C   UNL     1       3.223  -6.781  10.254  1.00  0.00     0.074 A 
ATOM     33  C   UNL     1       3.896  -4.631  11.268  1.00  0.00     0.049 A 
ATOM     34  N   UNL     1       4.290  -7.505  10.467  1.00  0.00    -0.248 NA
ATOM     35  C   UNL     1       2.162  -7.476   9.508  1.00  0.00     0.031 C 
ATOM     36  C   UNL     1       3.775  -3.222  11.640  1.00  0.00     0.029 A 
ATOM     37  N   UNL     1       5.154  -4.984  11.697  1.00  0.00    -0.354 N 
ATOM     38  C   UNL     1       4.029  -8.743   9.892  1.00  0.00     0.074 A 
ATOM     39  C   UNL     1       2.701  -8.672   9.321  1.00  0.00     0.031 C 
ATOM     40  C   UNL     1       4.901  -2.839  12.269  1.00  0.00     0.029 A 
ATOM     41  C   UNL     1       5.809  -3.980  12.372  1.00  0.00     0.049 A 
ATOM     42  H   UNL     1       5.548  -5.872  11.536  1.00  0.00     0.167 HD
ATOM     43  C   UNL     1       4.822  -9.839   9.854  1.00  0.00     0.037 A 
ATOM     44  C   UNL     1       6.990  -3.993  13.025  1.00  0.00     0.037 A 
ATOM     45  C   UNL     1       6.140  -9.908  10.429  1.00  0.00     0.049 A 
ATOM     46  C   UNL     1       7.816  -5.258  13.036  1.00  0.00     0.074 A 
ATOM     47  C   UNL     1       7.026 -10.973  10.415  1.00  0.00     0.029 A 
ATOM     48  N   UNL     1       6.755  -8.888  11.138  1.00  0.00    -0.354 N 
ATOM     49  N   UNL     1       7.576  -6.409  12.452  1.00  0.00    -0.248 NA
ATOM     50  C   UNL     1       9.077  -5.228  13.794  1.00  0.00     0.031 C 
ATOM     51  C   UNL     1       8.146 -10.619  11.172  1.00  0.00     0.029 A 
ATOM     52  C   UNL     1       7.990  -9.311  11.601  1.00  0.00     0.049 A 
ATOM     53  H   UNL     1       6.370  -7.994  11.290  1.00  0.00     0.167 HD
ATOM     54  C   UNL     1       8.668  -7.223  12.745  1.00  0.00     0.074 A 
ATOM     55  C   UNL     1       9.576  -6.431  13.546  1.00  0.00     0.031 C 
ATOM     56  C   UNL     1       8.897  -8.510  12.384  1.00  0.00     0.037 A 
BRANCH  43  57
ATOM     57  C   UNL     1       4.274 -11.081   9.211  1.00  0.00     0.058 A 
ATOM     58  C   UNL     1       4.154 -11.209   7.819  1.00  0.00     0.135 A 
ATOM     59  C   UNL     1       3.936 -12.189  10.005  1.00  0.00     0.135 A 
ATOM     60  F   UNL     1       4.443 -10.172   7.016  1.00  0.00    -0.206 F 
ATOM     61  C   UNL     1       3.713 -12.393   7.236  1.00  0.00     0.059 A 
ATOM     62  C   UNL     1       3.518 -13.390   9.443  1.00  0.00     0.059 A 
ATOM     63  F   UNL     1       4.027 -12.115  11.342  1.00  0.00    -0.206 F 
ATOM     64  C   UNL     1       3.405 -13.481   8.056  1.00  0.00     0.060 A 
BRANCH  64  65
ATOM     65  S   UNL     1       2.875 -15.023   7.282  1.00  0.00     0.124 S 
ATOM     66  O   UNL     1       1.545 -14.664   6.798  1.00  0.00    -0.237 OA
ATOM     67  O   UNL     1       3.892 -15.219   6.254  1.00  0.00    -0.237 OA
ATOM     68  O   UNL     1       2.904 -15.984   8.380  1.00  0.00    -0.744 OA
ENDBRANCH  64  65
ENDBRANCH  43  57
BRANCH  44  69
ATOM     69  C   UNL     1       7.453  -2.792  13.778  1.00  0.00     0.058 A 
ATOM     70  C   UNL     1       8.619  -2.101  13.416  1.00  0.00     0.135 A 
ATOM     71  C   UNL     1       6.770  -2.356  14.926  1.00  0.00     0.135 A 
ATOM     72  F   UNL     1       9.319  -2.486  12.338  1.00  0.00    -0.206 F 
ATOM     73  C   UNL     1       9.113  -1.048  14.182  1.00  0.00     0.059 A 
ATOM     74  C   UNL     1       7.226  -1.286  15.690  1.00  0.00     0.059 A 
ATOM     75  F   UNL     1       5.647  -2.977  15.318  1.00  0.00    -0.206 F 
ATOM     76  C   UNL     1       8.411  -0.652  15.322  1.00  0.00     0.060 A 
BRANCH  76  77
ATOM     77  S   UNL     1       9.063   0.706  16.318  1.00  0.00     0.124 S 
ATOM     78  O   UNL     1      10.209   0.074  16.962  1.00  0.00    -0.237 OA
ATOM     79  O   UNL     1       9.375   1.709  15.304  1.00  0.00    -0.237 OA
ATOM     80  O   UNL     1       7.949   1.042  17.200  1.00  0.00    -0.744 OA
ENDBRANCH  76  77
ENDBRANCH  44  69
BRANCH  56  81
ATOM     81  C   UNL     1      10.201  -9.138  12.806  1.00  0.00     0.058 A 
ATOM     82  C   UNL     1      10.464  -9.479  14.142  1.00  0.00     0.135 A 
ATOM     83  C   UNL     1      11.176  -9.459  11.846  1.00  0.00     0.135 A 
ATOM     84  F   UNL     1       9.570  -9.194  15.101  1.00  0.00    -0.206 F 
ATOM     85  C   UNL     1      11.658 -10.091  14.515  1.00  0.00     0.059 A 
ATOM     86  C   UNL     1      12.362 -10.100  12.192  1.00  0.00     0.059 A 
ATOM     87  F   UNL     1      10.973  -9.168  10.551  1.00  0.00    -0.206 F 
ATOM     88  C   UNL     1      12.600 -10.401  13.532  1.00  0.00     0.060 A 
BRANCH  88  89
ATOM     89  S   UNL     1      14.129 -11.226  14.024  1.00  0.00     0.124 S 
ATOM     90  O   UNL     1      14.846 -10.145  14.691  1.00  0.00    -0.237 OA
ATOM     91  O   UNL     1      13.642 -12.294  14.892  1.00  0.00    -0.237 OA
ATOM     92  O   UNL     1      14.700 -11.670  12.756  1.00  0.00    -0.744 OA
ENDBRANCH  88  89
ENDBRANCH  56  81
ENDBRANCH  30  31
ENDBRANCH  23  25
ENDBRANCH  22  23
ENDBRANCH   1  22
TORSDOF 16
