REMARK SMILES O=C(CCc1cn(-c2ccc(Br)cc2)nc1-c1ccccc1)OCCOC(=O)c1ccc(-c2c3nc(c(-c4c(F)cc(S(=O)(=O)[O-])cc4F)c4ccc([nH]4)c(-c4c(F)cc(S(=O)(=O)[O-])cc4F)c4nc(c(-c5c(F)cc(S(=O)(=O)[O-])cc5F)c5ccc2[nH]5)C=C4)C=C3)cc1
REMARK SMILES IDX 24 1 23 2 2 3 1 4 3 5 4 6 5 7 6 8 16 9 7 10 15 11 17 12
REMARK SMILES IDX 18 13 22 14 19 15 21 16 20 17 8 18 9 19 14 20 10 21 13 22
REMARK SMILES IDX 11 23 12 24 25 25 26 26 27 27 28 28 29 29 30 30 94 31 31 32
REMARK SMILES IDX 93 33 32 34 33 35 34 36 87 37 35 38 92 39 86 40 88 41 36 42
REMARK SMILES IDX 91 43 85 44 84 45 37 47 71 48 50 49 70 50 51 51 54 52 69 53
REMARK SMILES IDX 89 54 52 55 53 56 68 58 90 59 55 60 38 61 39 62 48 63 40 64
REMARK SMILES IDX 41 65 47 66 49 67 42 68 43 69 44 70 45 71 46 72 72 73 73 74
REMARK SMILES IDX 82 75 74 76 75 77 81 78 83 79 76 80 77 81 78 82 79 83 80 84
REMARK SMILES IDX 56 85 57 86 66 87 58 88 59 89 65 90 67 91 60 92 61 93 62 94
REMARK SMILES IDX 63 95 64 96
REMARK H PARENT 88 46 54 57
REMARK Flexibility Score: inf
ROOT
ATOM      1  C   UNL     1       3.600  -0.766  -1.484  1.00  0.00     0.274 C 
ENDROOT
BRANCH   1   2
ATOM      2  O   UNL     1       2.338  -0.562  -0.806  1.00  0.00    -0.462 OA
BRANCH   2   3
ATOM      3  C   UNL     1       2.131  -0.219   0.491  1.00  0.00     0.306 C 
ATOM      4  O   UNL     1       1.034  -0.446   1.005  1.00  0.00    -0.252 OA
BRANCH   3   5
ATOM      5  C   UNL     1       3.210   0.462   1.306  1.00  0.00     0.127 C 
BRANCH   5   6
ATOM      6  C   UNL     1       3.994  -0.412   2.285  1.00  0.00     0.051 C 
BRANCH   6   7
ATOM      7  C   UNL     1       5.037  -1.225   1.589  1.00  0.00    -0.001 A 
ATOM      8  C   UNL     1       6.240  -0.791   1.055  1.00  0.00     0.119 A 
ATOM      9  C   UNL     1       4.954  -2.598   1.213  1.00  0.00     0.096 A 
ATOM     10  N   UNL     1       6.673  -1.797   0.218  1.00  0.00    -0.240 N 
ATOM     11  N   UNL     1       5.915  -2.915   0.338  1.00  0.00    -0.168 NA
BRANCH   9  12
ATOM     12  C   UNL     1       3.931  -3.550   1.621  1.00  0.00     0.002 A 
ATOM     13  C   UNL     1       4.246  -4.548   2.545  1.00  0.00     0.010 A 
ATOM     14  C   UNL     1       2.606  -3.409   1.200  1.00  0.00     0.010 A 
ATOM     15  C   UNL     1       3.233  -5.347   3.082  1.00  0.00     0.001 A 
ATOM     16  C   UNL     1       1.589  -4.174   1.765  1.00  0.00     0.001 A 
ATOM     17  C   UNL     1       1.903  -5.141   2.712  1.00  0.00     0.000 A 
ENDBRANCH   9  12
BRANCH  10  18
ATOM     18  C   UNL     1       7.660  -1.692  -0.795  1.00  0.00     0.065 A 
ATOM     19  C   UNL     1       8.812  -0.922  -0.602  1.00  0.00     0.029 A 
ATOM     20  C   UNL     1       7.450  -2.355  -2.015  1.00  0.00     0.029 A 
ATOM     21  C   UNL     1       9.783  -0.873  -1.610  1.00  0.00     0.018 A 
ATOM     22  C   UNL     1       8.395  -2.253  -3.038  1.00  0.00     0.018 A 
ATOM     23  C   UNL     1       9.569  -1.536  -2.820  1.00  0.00     0.018 A 
ATOM     24  Br  UNL     1      10.892  -1.481  -4.171  1.00  0.00    -0.051 Br
ENDBRANCH  10  18
ENDBRANCH   6   7
ENDBRANCH   5   6
ENDBRANCH   3   5
ENDBRANCH   2   3
ENDBRANCH   1   2
BRANCH   1  25
ATOM     25  C   UNL     1       4.087   0.387  -2.345  1.00  0.00     0.275 C 
BRANCH  25  26
ATOM     26  O   UNL     1       4.088   1.576  -1.583  1.00  0.00    -0.458 OA
BRANCH  26  27
ATOM     27  C   UNL     1       2.878   2.169  -1.477  1.00  0.00     0.338 C 
ATOM     28  O   UNL     1       1.832   1.825  -2.007  1.00  0.00    -0.246 OA
BRANCH  27  29
ATOM     29  C   UNL     1       3.063   3.385  -0.690  1.00  0.00     0.060 A 
ATOM     30  C   UNL     1       2.070   4.344  -0.851  1.00  0.00     0.016 A 
ATOM     31  C   UNL     1       4.333   3.679  -0.162  1.00  0.00     0.016 A 
ATOM     32  C   UNL     1       2.471   5.651  -0.832  1.00  0.00     0.010 A 
ATOM     33  C   UNL     1       4.731   4.984  -0.144  1.00  0.00     0.010 A 
ATOM     34  C   UNL     1       3.827   5.928  -0.606  1.00  0.00    -0.014 A 
BRANCH  34  35
ATOM     35  C   UNL     1       4.264   7.290  -0.754  1.00  0.00     0.031 A 
ATOM     36  C   UNL     1       3.738   8.113   0.349  1.00  0.00     0.074 A 
ATOM     37  C   UNL     1       5.079   7.681  -1.750  1.00  0.00     0.049 A 
ATOM     38  N   UNL     1       2.737   8.924   0.294  1.00  0.00    -0.248 NA
ATOM     39  C   UNL     1       4.160   7.770   1.718  1.00  0.00     0.031 C 
ATOM     40  C   UNL     1       5.801   6.862  -2.728  1.00  0.00     0.029 A 
ATOM     41  N   UNL     1       5.493   8.940  -2.046  1.00  0.00    -0.354 N 
ATOM     42  C   UNL     1       2.612   9.419   1.584  1.00  0.00     0.074 A 
ATOM     43  C   UNL     1       3.297   8.488   2.436  1.00  0.00     0.031 C 
ATOM     44  C   UNL     1       6.735   7.624  -3.348  1.00  0.00     0.029 A 
ATOM     45  C   UNL     1       6.580   9.001  -2.917  1.00  0.00     0.049 A 
ATOM     46  H   UNL     1       5.061   9.743  -1.676  1.00  0.00     0.167 HD
ATOM     47  C   UNL     1       2.276  10.723   1.772  1.00  0.00     0.037 A 
ATOM     48  C   UNL     1       7.316  10.118  -3.170  1.00  0.00     0.037 A 
ATOM     49  C   UNL     1       1.620  11.249   0.593  1.00  0.00     0.049 A 
ATOM     50  C   UNL     1       6.454  11.281  -2.802  1.00  0.00     0.074 A 
ATOM     51  C   UNL     1       0.492  10.892  -0.122  1.00  0.00     0.029 A 
ATOM     52  N   UNL     1       2.370  12.030  -0.256  1.00  0.00    -0.354 N 
ATOM     53  N   UNL     1       5.349  11.580  -3.435  1.00  0.00    -0.248 NA
ATOM     54  C   UNL     1       6.535  11.766  -1.431  1.00  0.00     0.031 C 
ATOM     55  C   UNL     1       0.844  11.076  -1.492  1.00  0.00     0.029 A 
ATOM     56  C   UNL     1       2.129  11.619  -1.543  1.00  0.00     0.049 A 
ATOM     57  H   UNL     1       2.974  12.759   0.013  1.00  0.00     0.167 HD
ATOM     58  C   UNL     1       4.439  11.902  -2.436  1.00  0.00     0.074 A 
ATOM     59  C   UNL     1       5.245  12.046  -1.223  1.00  0.00     0.031 C 
ATOM     60  C   UNL     1       3.095  11.727  -2.616  1.00  0.00     0.037 A 
BRANCH  47  61
ATOM     61  C   UNL     1       2.955  11.606   2.798  1.00  0.00     0.058 A 
ATOM     62  C   UNL     1       2.530  12.944   2.912  1.00  0.00     0.135 A 
ATOM     63  C   UNL     1       4.172  11.302   3.454  1.00  0.00     0.135 A 
ATOM     64  F   UNL     1       1.381  13.347   2.347  1.00  0.00    -0.206 F 
ATOM     65  C   UNL     1       3.305  13.923   3.532  1.00  0.00     0.059 A 
ATOM     66  C   UNL     1       4.936  12.252   4.115  1.00  0.00     0.059 A 
ATOM     67  F   UNL     1       4.742  10.094   3.428  1.00  0.00    -0.206 F 
ATOM     68  C   UNL     1       4.518  13.568   4.112  1.00  0.00     0.060 A 
BRANCH  68  69
ATOM     69  S   UNL     1       5.571  14.838   4.822  1.00  0.00     0.124 S 
ATOM     70  O   UNL     1       5.962  15.587   3.633  1.00  0.00    -0.237 OA
ATOM     71  O   UNL     1       4.651  15.511   5.733  1.00  0.00    -0.237 OA
ATOM     72  O   UNL     1       6.634  14.072   5.465  1.00  0.00    -0.744 OA
ENDBRANCH  68  69
ENDBRANCH  47  61
BRANCH  48  73
ATOM     73  C   UNL     1       8.800  10.222  -3.276  1.00  0.00     0.058 A 
ATOM     74  C   UNL     1       9.426  11.407  -3.709  1.00  0.00     0.135 A 
ATOM     75  C   UNL     1       9.646   9.262  -2.683  1.00  0.00     0.135 A 
ATOM     76  F   UNL     1       8.698  12.387  -4.265  1.00  0.00    -0.206 F 
ATOM     77  C   UNL     1      10.795  11.645  -3.522  1.00  0.00     0.059 A 
ATOM     78  C   UNL     1      11.011   9.474  -2.492  1.00  0.00     0.059 A 
ATOM     79  F   UNL     1       9.153   8.119  -2.184  1.00  0.00    -0.206 F 
ATOM     80  C   UNL     1      11.578  10.678  -2.891  1.00  0.00     0.060 A 
BRANCH  80  81
ATOM     81  S   UNL     1      13.307  11.037  -2.491  1.00  0.00     0.124 S 
ATOM     82  O   UNL     1      13.925  11.058  -3.812  1.00  0.00    -0.237 OA
ATOM     83  O   UNL     1      13.208  12.325  -1.813  1.00  0.00    -0.237 OA
ATOM     84  O   UNL     1      13.697   9.917  -1.639  1.00  0.00    -0.744 OA
ENDBRANCH  80  81
ENDBRANCH  48  73
BRANCH  60  85
ATOM     85  C   UNL     1       2.590  11.443  -4.010  1.00  0.00     0.058 A 
ATOM     86  C   UNL     1       2.882  10.284  -4.755  1.00  0.00     0.135 A 
ATOM     87  C   UNL     1       1.638  12.322  -4.547  1.00  0.00     0.135 A 
ATOM     88  F   UNL     1       3.704   9.342  -4.269  1.00  0.00    -0.206 F 
ATOM     89  C   UNL     1       2.283  10.035  -5.994  1.00  0.00     0.059 A 
ATOM     90  C   UNL     1       1.006  12.079  -5.762  1.00  0.00     0.059 A 
ATOM     91  F   UNL     1       1.269  13.413  -3.857  1.00  0.00    -0.206 F 
ATOM     92  C   UNL     1       1.344  10.941  -6.489  1.00  0.00     0.060 A 
BRANCH  92  93
ATOM     93  S   UNL     1       0.524  10.601  -8.064  1.00  0.00     0.124 S 
ATOM     94  O   UNL     1       1.610  10.782  -9.021  1.00  0.00    -0.237 OA
ATOM     95  O   UNL     1       0.055   9.230  -7.888  1.00  0.00    -0.237 OA
ATOM     96  O   UNL     1      -0.533  11.609  -8.123  1.00  0.00    -0.744 OA
ENDBRANCH  92  93
ENDBRANCH  60  85
ENDBRANCH  34  35
ENDBRANCH  27  29
ENDBRANCH  26  27
ENDBRANCH  25  26
ENDBRANCH   1  25
TORSDOF 18
