REMARK SMILES [NH3+][C@@H](CCC1=c2ccccc2=[NH+]C1)C(=O)OCCOC(=O)c1ccc(-c2c3nc(c(-c4c(F)cc(S(=O)(=O)[O-])cc4F)c4ccc([nH]4)c(-c4c(F)cc(S(=O)(=O)[O-])cc4F)c4nc(c(-c5c(F)cc(S(=O)(=O)[O-])cc5F)c5ccc2[nH]5)C=C4)C=C3)cc1
REMARK SMILES IDX 17 1 16 2 14 3 15 4 2 5 1 6 3 10 4 11 5 12 6 13 13 14 7 15
REMARK SMILES IDX 11 16 12 17 8 18 10 19 9 21 18 22 19 23 20 24 21 25 22 26
REMARK SMILES IDX 23 27 87 28 24 29 86 30 25 31 26 32 27 33 80 34 28 35 85 36
REMARK SMILES IDX 79 37 81 38 29 39 84 40 78 41 77 42 30 44 64 45 43 46 63 47
REMARK SMILES IDX 44 48 47 49 62 50 82 51 45 52 46 53 61 55 83 56 48 57 31 58
REMARK SMILES IDX 32 59 41 60 33 61 34 62 40 63 42 64 35 65 36 66 37 67 38 68
REMARK SMILES IDX 39 69 65 70 66 71 75 72 67 73 68 74 74 75 76 76 69 77 70 78
REMARK SMILES IDX 71 79 72 80 73 81 49 82 50 83 59 84 51 85 52 86 58 87 60 88
REMARK SMILES IDX 53 89 54 90 55 91 56 92 57 93
REMARK H PARENT 1 7 1 8 1 9 12 20 81 43 47 54
REMARK Flexibility Score: inf
ROOT
ATOM      1  C   UNL     1      -3.051  -0.394  -0.293  1.00  0.00     0.274 C 
ENDROOT
BRANCH   1   2
ATOM      2  O   UNL     1      -1.623  -0.541  -0.170  1.00  0.00    -0.458 OA
BRANCH   2   3
ATOM      3  C   UNL     1      -0.920  -0.715  -1.326  1.00  0.00     0.364 C 
ATOM      4  O   UNL     1      -1.415  -0.764  -2.447  1.00  0.00    -0.245 OA
BRANCH   3   5
ATOM      5  C   UNL     1       0.586  -0.915  -1.075  1.00  0.00     0.292 C 
BRANCH   5   6
ATOM      6  N   UNL     1       1.034  -0.376   0.222  1.00  0.00    -0.346 N 
ATOM      7  H   UNL     1       2.035  -0.538   0.330  1.00  0.00     0.345 HD
ATOM      8  H   UNL     1       0.531  -0.841   0.977  1.00  0.00     0.345 HD
ATOM      9  H   UNL     1       0.847   0.627   0.256  1.00  0.00     0.345 HD
ENDBRANCH   5   6
BRANCH   5  10
ATOM     10  C   UNL     1       1.017  -2.372  -1.307  1.00  0.00     0.082 C 
BRANCH  10  11
ATOM     11  C   UNL     1       0.661  -3.391  -0.214  1.00  0.00     0.045 C 
BRANCH  11  12
ATOM     12  C   UNL     1      -0.798  -3.634  -0.004  1.00  0.00     0.008 C 
ATOM     13  C   UNL     1      -1.516  -3.425   1.098  1.00  0.00     0.051 A 
ATOM     14  C   UNL     1      -1.664  -4.195  -1.096  1.00  0.00     0.381 C 
ATOM     15  C   UNL     1      -1.250  -2.912   2.404  1.00  0.00     0.015 A 
ATOM     16  C   UNL     1      -2.870  -3.830   0.689  1.00  0.00     0.206 A 
ATOM     17  N   UNL     1      -3.028  -4.282  -0.516  1.00  0.00    -0.237 N 
ATOM     18  C   UNL     1      -2.272  -2.777   3.265  1.00  0.00     0.001 A 
ATOM     19  C   UNL     1      -3.942  -3.658   1.693  1.00  0.00     0.079 A 
ATOM     20  H   UNL     1      -3.854  -4.605  -0.944  1.00  0.00     0.446 HD
ATOM     21  C   UNL     1      -3.629  -3.148   2.896  1.00  0.00     0.007 A 
ENDBRANCH  11  12
ENDBRANCH  10  11
ENDBRANCH   5  10
ENDBRANCH   3   5
ENDBRANCH   2   3
ENDBRANCH   1   2
BRANCH   1  22
ATOM     22  C   UNL     1      -3.484   1.028   0.054  1.00  0.00     0.275 C 
BRANCH  22  23
ATOM     23  O   UNL     1      -3.158   1.916  -1.020  1.00  0.00    -0.458 OA
BRANCH  23  24
ATOM     24  C   UNL     1      -1.911   2.447  -0.977  1.00  0.00     0.338 C 
ATOM     25  O   UNL     1      -1.117   2.399  -0.061  1.00  0.00    -0.246 OA
BRANCH  24  26
ATOM     26  C   UNL     1      -1.610   2.949  -2.328  1.00  0.00     0.060 A 
ATOM     27  C   UNL     1      -2.529   3.752  -3.007  1.00  0.00     0.016 A 
ATOM     28  C   UNL     1      -0.406   2.567  -2.929  1.00  0.00     0.016 A 
ATOM     29  C   UNL     1      -2.248   4.158  -4.306  1.00  0.00     0.010 A 
ATOM     30  C   UNL     1      -0.128   2.969  -4.233  1.00  0.00     0.010 A 
ATOM     31  C   UNL     1      -1.049   3.765  -4.925  1.00  0.00    -0.014 A 
BRANCH  31  32
ATOM     32  C   UNL     1      -0.731   4.288  -6.268  1.00  0.00     0.031 A 
ATOM     33  C   UNL     1      -0.990   3.471  -7.493  1.00  0.00     0.074 A 
ATOM     34  C   UNL     1      -0.252   5.541  -6.352  1.00  0.00     0.049 A 
ATOM     35  N   UNL     1      -0.914   3.829  -8.747  1.00  0.00    -0.248 NA
ATOM     36  C   UNL     1      -1.388   2.071  -7.284  1.00  0.00     0.031 C 
ATOM     37  C   UNL     1       0.038   6.402  -5.203  1.00  0.00     0.029 A 
ATOM     38  N   UNL     1       0.043   6.317  -7.439  1.00  0.00    -0.354 N 
ATOM     39  C   UNL     1      -1.286   2.712  -9.483  1.00  0.00     0.074 A 
ATOM     40  C   UNL     1      -1.534   1.647  -8.533  1.00  0.00     0.031 C 
ATOM     41  C   UNL     1       0.422   7.607  -5.648  1.00  0.00     0.029 A 
ATOM     42  C   UNL     1       0.420   7.595  -7.108  1.00  0.00     0.049 A 
ATOM     43  H   UNL     1      -0.010   5.992  -8.367  1.00  0.00     0.167 HD
ATOM     44  C   UNL     1      -1.426   2.601 -10.826  1.00  0.00     0.037 A 
ATOM     45  C   UNL     1       0.705   8.647  -7.896  1.00  0.00     0.037 A 
ATOM     46  C   UNL     1      -1.133   3.666 -11.753  1.00  0.00     0.049 A 
ATOM     47  C   UNL     1       0.592   8.484  -9.383  1.00  0.00     0.074 A 
ATOM     48  C   UNL     1      -1.221   3.662 -13.134  1.00  0.00     0.029 A 
ATOM     49  N   UNL     1      -0.681   4.929 -11.388  1.00  0.00    -0.354 N 
ATOM     50  N   UNL     1       0.213   7.431 -10.068  1.00  0.00    -0.248 NA
ATOM     51  C   UNL     1       0.941   9.650 -10.203  1.00  0.00     0.031 C 
ATOM     52  C   UNL     1      -0.789   4.909 -13.605  1.00  0.00     0.029 A 
ATOM     53  C   UNL     1      -0.469   5.706 -12.516  1.00  0.00     0.049 A 
ATOM     54  H   UNL     1      -0.533   5.229 -10.462  1.00  0.00     0.167 HD
ATOM     55  C   UNL     1       0.270   7.807 -11.404  1.00  0.00     0.074 A 
ATOM     56  C   UNL     1       0.703   9.192 -11.425  1.00  0.00     0.031 C 
ATOM     57  C   UNL     1      -0.009   7.074 -12.511  1.00  0.00     0.037 A 
BRANCH  44  58
ATOM     58  C   UNL     1      -1.912   1.281 -11.359  1.00  0.00     0.058 A 
ATOM     59  C   UNL     1      -3.242   0.866 -11.175  1.00  0.00     0.135 A 
ATOM     60  C   UNL     1      -1.052   0.421 -12.060  1.00  0.00     0.135 A 
ATOM     61  F   UNL     1      -4.105   1.644 -10.502  1.00  0.00    -0.206 F 
ATOM     62  C   UNL     1      -3.692  -0.368 -11.633  1.00  0.00     0.059 A 
ATOM     63  C   UNL     1      -1.487  -0.810 -12.547  1.00  0.00     0.059 A 
ATOM     64  F   UNL     1       0.228   0.766 -12.267  1.00  0.00    -0.206 F 
ATOM     65  C   UNL     1      -2.804  -1.204 -12.312  1.00  0.00     0.060 A 
BRANCH  65  66
ATOM     66  S   UNL     1      -3.394  -2.814 -12.878  1.00  0.00     0.124 S 
ATOM     67  O   UNL     1      -3.472  -3.554 -11.623  1.00  0.00    -0.237 OA
ATOM     68  O   UNL     1      -4.673  -2.480 -13.496  1.00  0.00    -0.237 OA
ATOM     69  O   UNL     1      -2.352  -3.253 -13.801  1.00  0.00    -0.744 OA
ENDBRANCH  65  66
ENDBRANCH  44  58
BRANCH  45  70
ATOM     70  C   UNL     1       1.048   9.947  -7.270  1.00  0.00     0.058 A 
ATOM     71  C   UNL     1       0.116  10.993  -7.240  1.00  0.00     0.135 A 
ATOM     72  C   UNL     1       2.270  10.135  -6.604  1.00  0.00     0.135 A 
ATOM     73  F   UNL     1      -1.064  10.858  -7.864  1.00  0.00    -0.206 F 
ATOM     74  C   UNL     1       0.376  12.178  -6.561  1.00  0.00     0.059 A 
ATOM     75  C   UNL     1       2.545  11.304  -5.902  1.00  0.00     0.059 A 
ATOM     76  F   UNL     1       3.185   9.154  -6.590  1.00  0.00    -0.206 F 
ATOM     77  C   UNL     1       1.589  12.320  -5.885  1.00  0.00     0.060 A 
BRANCH  77  78
ATOM     78  S   UNL     1       1.870  13.822  -4.922  1.00  0.00     0.124 S 
ATOM     79  O   UNL     1       2.065  14.813  -5.973  1.00  0.00    -0.237 OA
ATOM     80  O   UNL     1       0.629  13.933  -4.161  1.00  0.00    -0.237 OA
ATOM     81  O   UNL     1       3.054  13.498  -4.131  1.00  0.00    -0.744 OA
ENDBRANCH  77  78
ENDBRANCH  45  70
BRANCH  57  82
ATOM     82  C   UNL     1       0.162   7.763 -13.835  1.00  0.00     0.058 A 
ATOM     83  C   UNL     1       1.436   8.015 -14.366  1.00  0.00     0.135 A 
ATOM     84  C   UNL     1      -0.956   8.155 -14.588  1.00  0.00     0.135 A 
ATOM     85  F   UNL     1       2.536   7.667 -13.680  1.00  0.00    -0.206 F 
ATOM     86  C   UNL     1       1.597   8.658 -15.589  1.00  0.00     0.059 A 
ATOM     87  C   UNL     1      -0.818   8.779 -15.824  1.00  0.00     0.059 A 
ATOM     88  F   UNL     1      -2.196   7.930 -14.126  1.00  0.00    -0.206 F 
ATOM     89  C   UNL     1       0.464   9.038 -16.309  1.00  0.00     0.060 A 
BRANCH  89  90
ATOM     90  S   UNL     1       0.687   9.860 -17.901  1.00  0.00     0.124 S 
ATOM     91  O   UNL     1       1.103  11.196 -17.486  1.00  0.00    -0.237 OA
ATOM     92  O   UNL     1       1.719   9.043 -18.533  1.00  0.00    -0.237 OA
ATOM     93  O   UNL     1      -0.634   9.775 -18.515  1.00  0.00    -0.744 OA
ENDBRANCH  89  90
ENDBRANCH  57  82
ENDBRANCH  31  32
ENDBRANCH  24  26
ENDBRANCH  23  24
ENDBRANCH  22  23
ENDBRANCH   1  22
TORSDOF 18
