REMARK SMILES O=C(OCCOC(=O)[C@H]1C(C(=O)Nc2ccccc2-c2ccccc2)[C@@H]2C=C[C@H]1O2)c1ccc(-c2c3nc(c(-c4c(F)cc(S(=O)(=O)[O-])cc4F)c4ccc([nH]4)c(-c4c(F)cc(S(=O)(=O)[O-])cc4F)c4nc(c(-c5c(F)cc(S(=O)(=O)[O-])cc5F)c5ccc2[nH]5)C=C4)C=C3)cc1
REMARK SMILES IDX 4 1 3 2 2 3 1 4 31 5 32 6 96 7 33 8 95 9 34 10 35 11 36 12
REMARK SMILES IDX 89 13 37 14 94 15 88 16 90 17 38 18 93 19 87 20 86 21 39 23
REMARK SMILES IDX 73 24 52 25 72 26 53 27 56 28 71 29 91 30 54 31 55 32 70 34
REMARK SMILES IDX 92 35 57 36 40 37 41 38 50 39 42 40 43 41 49 42 51 43 44 44
REMARK SMILES IDX 45 45 46 46 47 47 48 48 74 49 75 50 84 51 76 52 77 53 83 54
REMARK SMILES IDX 85 55 78 56 79 57 80 58 81 59 82 60 58 61 59 62 68 63 60 64
REMARK SMILES IDX 61 65 67 66 69 67 62 68 63 69 64 70 65 71 66 72 5 73 6 74
REMARK SMILES IDX 7 75 8 76 9 77 10 78 29 79 26 80 28 81 30 82 27 83 11 84
REMARK SMILES IDX 12 85 13 86 14 88 15 89 19 90 16 91 18 92 17 93 20 94 21 95
REMARK SMILES IDX 25 96 22 97 24 98 23 99
REMARK H PARENT 90 22 56 33 13 87
REMARK Flexibility Score: inf
ROOT
ATOM      1  C   UNL     1       3.984   0.800  -7.550  1.00  0.00     0.275 C 
ENDROOT
BRANCH   1   2
ATOM      2  O   UNL     1       4.595   1.205  -6.302  1.00  0.00    -0.458 OA
BRANCH   2   3
ATOM      3  C   UNL     1       4.452   0.401  -5.212  1.00  0.00     0.338 C 
ATOM      4  O   UNL     1       4.905  -0.721  -5.239  1.00  0.00    -0.246 OA
BRANCH   3   5
ATOM      5  C   UNL     1       3.655   1.238  -4.139  1.00  0.00     0.060 A 
ATOM      6  C   UNL     1       2.866   2.538  -5.133  1.00  0.00     0.016 A 
ATOM      7  C   UNL     1       3.721   1.587  -2.256  1.00  0.00     0.016 A 
ATOM      8  C   UNL     1       2.115   3.899  -4.490  1.00  0.00     0.010 A 
ATOM      9  C   UNL     1       2.997   3.165  -1.694  1.00  0.00     0.010 A 
ATOM     10  C   UNL     1       2.158   4.246  -2.848  1.00  0.00    -0.014 A 
BRANCH  10  11
ATOM     11  C   UNL     1       1.169   5.343  -2.474  1.00  0.00     0.031 A 
ATOM     12  C   UNL     1       1.647   6.725  -2.287  1.00  0.00     0.074 A 
ATOM     13  C   UNL     1      -0.195   5.278  -2.584  1.00  0.00     0.049 A 
ATOM     14  N   UNL     1       1.017   7.706  -1.714  1.00  0.00    -0.248 NA
ATOM     15  C   UNL     1       2.929   7.071  -2.904  1.00  0.00     0.031 C 
ATOM     16  C   UNL     1      -1.018   4.322  -3.313  1.00  0.00     0.029 A 
ATOM     17  N   UNL     1      -1.121   5.797  -1.694  1.00  0.00    -0.354 N 
ATOM     18  C   UNL     1       1.775   8.820  -1.989  1.00  0.00     0.074 A 
ATOM     19  C   UNL     1       2.995   8.365  -2.624  1.00  0.00     0.031 C 
ATOM     20  C   UNL     1      -2.108   4.004  -2.580  1.00  0.00     0.029 A 
ATOM     21  C   UNL     1      -2.167   4.902  -1.454  1.00  0.00     0.049 A 
ATOM     22  H   UNL     1      -1.052   6.688  -1.280  1.00  0.00     0.167 HD
ATOM     23  C   UNL     1       1.401  10.106  -1.816  1.00  0.00     0.037 A 
ATOM     24  C   UNL     1      -3.027   4.834  -0.415  1.00  0.00     0.037 A 
ATOM     25  C   UNL     1       0.165  10.480  -1.184  1.00  0.00     0.049 A 
ATOM     26  C   UNL     1      -3.228   6.164   0.242  1.00  0.00     0.074 A 
ATOM     27  C   UNL     1      -0.309  11.736  -0.870  1.00  0.00     0.029 A 
ATOM     28  N   UNL     1      -0.798   9.567  -0.753  1.00  0.00    -0.354 N 
ATOM     29  N   UNL     1      -2.495   7.241   0.088  1.00  0.00    -0.248 NA
ATOM     30  C   UNL     1      -4.447   6.364   1.030  1.00  0.00     0.031 C 
ATOM     31  C   UNL     1      -1.519  11.578  -0.180  1.00  0.00     0.029 A 
ATOM     32  C   UNL     1      -1.833  10.226  -0.116  1.00  0.00     0.049 A 
ATOM     33  H   UNL     1      -0.748   8.593  -0.884  1.00  0.00     0.167 HD
ATOM     34  C   UNL     1      -3.243   8.281   0.595  1.00  0.00     0.074 A 
ATOM     35  C   UNL     1      -4.429   7.684   1.186  1.00  0.00     0.031 C 
ATOM     36  C   UNL     1      -2.999   9.607   0.482  1.00  0.00     0.037 A 
BRANCH  23  37
ATOM     37  C   UNL     1       2.393  11.114  -2.294  1.00  0.00     0.058 A 
ATOM     38  C   UNL     1       2.666  11.271  -3.666  1.00  0.00     0.135 A 
ATOM     39  C   UNL     1       3.233  11.752  -1.374  1.00  0.00     0.135 A 
ATOM     40  F   UNL     1       1.913  10.641  -4.583  1.00  0.00    -0.206 F 
ATOM     41  C   UNL     1       3.795  11.952  -4.103  1.00  0.00     0.059 A 
ATOM     42  C   UNL     1       4.351  12.464  -1.791  1.00  0.00     0.059 A 
ATOM     43  F   UNL     1       3.020  11.616  -0.056  1.00  0.00    -0.206 F 
ATOM     44  C   UNL     1       4.645  12.523  -3.154  1.00  0.00     0.060 A 
BRANCH  44  45
ATOM     45  S   UNL     1       6.174  13.294  -3.721  1.00  0.00     0.124 S 
ATOM     46  O   UNL     1       6.980  12.126  -4.064  1.00  0.00    -0.237 OA
ATOM     47  O   UNL     1       5.718  14.102  -4.847  1.00  0.00    -0.237 OA
ATOM     48  O   UNL     1       6.625  14.046  -2.554  1.00  0.00    -0.744 OA
ENDBRANCH  44  45
ENDBRANCH  23  37
BRANCH  24  49
ATOM     49  C   UNL     1      -3.857   3.640  -0.054  1.00  0.00     0.058 A 
ATOM     50  C   UNL     1      -5.173   3.455  -0.502  1.00  0.00     0.135 A 
ATOM     51  C   UNL     1      -3.361   2.676   0.849  1.00  0.00     0.135 A 
ATOM     52  F   UNL     1      -5.723   4.349  -1.336  1.00  0.00    -0.206 F 
ATOM     53  C   UNL     1      -5.964   2.381  -0.072  1.00  0.00     0.059 A 
ATOM     54  C   UNL     1      -4.130   1.590   1.290  1.00  0.00     0.059 A 
ATOM     55  F   UNL     1      -2.118   2.799   1.343  1.00  0.00    -0.206 F 
ATOM     56  C   UNL     1      -5.435   1.451   0.825  1.00  0.00     0.060 A 
BRANCH  56  57
ATOM     57  S   UNL     1      -6.471   0.058   1.354  1.00  0.00     0.124 S 
ATOM     58  O   UNL     1      -7.528   0.731   2.101  1.00  0.00    -0.237 OA
ATOM     59  O   UNL     1      -6.869  -0.528   0.078  1.00  0.00    -0.237 OA
ATOM     60  O   UNL     1      -5.563  -0.760   2.154  1.00  0.00    -0.744 OA
ENDBRANCH  56  57
ENDBRANCH  24  49
BRANCH  36  61
ATOM     61  C   UNL     1      -4.050  10.534   0.996  1.00  0.00     0.058 A 
ATOM     62  C   UNL     1      -4.203  10.761   2.368  1.00  0.00     0.135 A 
ATOM     63  C   UNL     1      -4.781  11.326   0.096  1.00  0.00     0.135 A 
ATOM     64  F   UNL     1      -3.541  10.006   3.259  1.00  0.00    -0.206 F 
ATOM     65  C   UNL     1      -5.017  11.781   2.835  1.00  0.00     0.059 A 
ATOM     66  C   UNL     1      -5.578  12.370   0.540  1.00  0.00     0.059 A 
ATOM     67  F   UNL     1      -4.667  11.130  -1.228  1.00  0.00    -0.206 F 
ATOM     68  C   UNL     1      -5.675  12.599   1.912  1.00  0.00     0.060 A 
BRANCH  68  69
ATOM     69  S   UNL     1      -6.582  14.028   2.532  1.00  0.00     0.124 S 
ATOM     70  O   UNL     1      -7.760  13.397   3.118  1.00  0.00    -0.237 OA
ATOM     71  O   UNL     1      -5.634  14.607   3.479  1.00  0.00    -0.237 OA
ATOM     72  O   UNL     1      -6.824  14.823   1.332  1.00  0.00    -0.744 OA
ENDBRANCH  68  69
ENDBRANCH  36  61
ENDBRANCH  10  11
ENDBRANCH   3   5
ENDBRANCH   2   3
ENDBRANCH   1   2
BRANCH   1  73
ATOM     73  C   UNL     1       2.554   0.197  -7.460  1.00  0.00     0.274 C 
BRANCH  73  74
ATOM     74  O   UNL     1       1.719   0.892  -6.496  1.00  0.00    -0.462 OA
BRANCH  74  75
ATOM     75  C   UNL     1       1.133   0.154  -5.527  1.00  0.00     0.312 C 
ATOM     76  O   UNL     1       0.751  -0.994  -5.747  1.00  0.00    -0.252 OA
BRANCH  75  77
ATOM     77  C   UNL     1       1.179   0.711  -4.092  1.00  0.00     0.147 C 
ATOM     78  C   UNL     1       2.042   2.047  -3.247  1.00  0.00     0.129 C 
ATOM     79  C   UNL     1      -0.144   0.569  -3.289  1.00  0.00     0.157 C 
ATOM     80  C   UNL     1       0.720   2.276  -2.197  1.00  0.00     0.155 C 
ATOM     81  C   UNL     1      -0.038   0.188  -1.828  1.00  0.00     0.004 C 
ATOM     82  O   UNL     1      -0.383   1.944  -3.072  1.00  0.00    -0.365 OA
ATOM     83  C   UNL     1       0.537   1.195  -1.168  1.00  0.00     0.004 C 
BRANCH  78  84
ATOM     84  C   UNL     1       3.994   3.023  -3.478  1.00  0.00     0.231 C 
ATOM     85  O   UNL     1       4.376   4.191  -3.785  1.00  0.00    -0.274 OA
ATOM     86  N   UNL     1       5.500   2.155  -3.296  1.00  0.00    -0.325 N 
ATOM     87  H   UNL     1       6.272   2.725  -3.516  1.00  0.00     0.169 HD
BRANCH  86  88
ATOM     88  C   UNL     1       5.988   0.614  -2.847  1.00  0.00     0.049 A 
ATOM     89  C   UNL     1       7.398   0.571  -2.774  1.00  0.00     0.027 A 
ATOM     90  C   UNL     1       5.295  -0.716  -2.483  1.00  0.00     0.005 A 
ATOM     91  C   UNL     1       8.115  -0.582  -2.379  1.00  0.00     0.002 A 
ATOM     92  C   UNL     1       6.104  -1.823  -2.101  1.00  0.00     0.011 A 
ATOM     93  C   UNL     1       7.478  -1.765  -2.043  1.00  0.00     0.001 A 
BRANCH  90  94
ATOM     94  C   UNL     1       3.835  -1.258  -2.398  1.00  0.00    -0.016 A 
ATOM     95  C   UNL     1       3.156  -1.345  -1.160  1.00  0.00     0.009 A 
ATOM     96  C   UNL     1       3.245  -2.041  -3.426  1.00  0.00     0.009 A 
ATOM     97  C   UNL     1       1.944  -2.057  -1.008  1.00  0.00     0.001 A 
ATOM     98  C   UNL     1       1.998  -2.685  -3.307  1.00  0.00     0.001 A 
ATOM     99  C   UNL     1       1.341  -2.687  -2.093  1.00  0.00     0.000 A 
ENDBRANCH  90  94
ENDBRANCH  86  88
ENDBRANCH  78  84
ENDBRANCH  75  77
ENDBRANCH  74  75
ENDBRANCH  73  74
ENDBRANCH   1  73
TORSDOF 17
