REMARK SMILES O=C(OCCOC(=O)c1nccnc1C(=O)Nc1n[nH]c2ncccc12)c1ccc(-c2c3nc(c(-c4c(F)cc(S(=O)(=O)[O-])cc4F)c4ccc([nH]4)c(-c4c(F)cc(S(=O)(=O)[O-])cc4F)c4nc(c(-c5c(F)cc(S(=O)(=O)[O-])cc5F)c5ccc2[nH]5)C=C4)C=C3)cc1
REMARK SMILES IDX 4 1 3 2 2 3 1 4 27 5 28 6 92 7 29 8 91 9 30 10 31 11 32 12
REMARK SMILES IDX 85 13 33 14 90 15 84 16 86 17 34 18 89 19 83 20 82 21 35 23
REMARK SMILES IDX 69 24 48 25 68 26 49 27 52 28 67 29 87 30 50 31 51 32 66 34
REMARK SMILES IDX 88 35 53 36 36 37 37 38 46 39 38 40 39 41 45 42 47 43 40 44
REMARK SMILES IDX 41 45 42 46 43 47 44 48 70 49 71 50 80 51 72 52 73 53 79 54
REMARK SMILES IDX 81 55 74 56 75 57 76 58 77 59 78 60 54 61 55 62 64 63 56 64
REMARK SMILES IDX 57 65 63 66 65 67 58 68 59 69 60 70 61 71 62 72 5 73 6 74
REMARK SMILES IDX 7 75 8 76 9 77 10 78 14 79 11 80 13 81 12 82 15 83 16 84
REMARK SMILES IDX 17 85 18 87 19 88 26 89 20 90 21 91 25 92 22 94 24 95 23 96
REMARK H PARENT 86 22 52 33 17 86 20 93
REMARK Flexibility Score: inf
ROOT
ATOM      1  C   UNL     1       4.847   0.199  -1.013  1.00  0.00     0.275 C 
ENDROOT
BRANCH   1   2
ATOM      2  O   UNL     1       3.531  -0.598  -0.807  1.00  0.00    -0.458 OA
BRANCH   2   3
ATOM      3  C   UNL     1       3.188  -1.950  -0.636  1.00  0.00     0.338 C 
ATOM      4  O   UNL     1       2.662  -2.600  -1.531  1.00  0.00    -0.246 OA
BRANCH   3   5
ATOM      5  C   UNL     1       3.160  -2.498   0.793  1.00  0.00     0.060 A 
ATOM      6  C   UNL     1       3.139  -1.565   1.762  1.00  0.00     0.016 A 
ATOM      7  C   UNL     1       3.055  -3.763   1.344  1.00  0.00     0.016 A 
ATOM      8  C   UNL     1       3.857  -1.736   2.934  1.00  0.00     0.010 A 
ATOM      9  C   UNL     1       3.421  -3.973   2.731  1.00  0.00     0.010 A 
ATOM     10  C   UNL     1       4.087  -2.963   3.465  1.00  0.00    -0.014 A 
BRANCH  10  11
ATOM     11  C   UNL     1       5.155  -3.114   4.549  1.00  0.00     0.031 A 
ATOM     12  C   UNL     1       6.055  -4.318   4.425  1.00  0.00     0.074 A 
ATOM     13  C   UNL     1       5.565  -2.182   5.467  1.00  0.00     0.049 A 
ATOM     14  N   UNL     1       6.848  -4.870   5.301  1.00  0.00    -0.248 NA
ATOM     15  C   UNL     1       6.078  -4.974   3.108  1.00  0.00     0.031 C 
ATOM     16  C   UNL     1       5.133  -0.792   5.563  1.00  0.00     0.029 A 
ATOM     17  N   UNL     1       6.498  -2.233   6.497  1.00  0.00    -0.354 N 
ATOM     18  C   UNL     1       7.376  -5.985   4.663  1.00  0.00     0.074 A 
ATOM     19  C   UNL     1       6.787  -6.058   3.350  1.00  0.00     0.031 C 
ATOM     20  C   UNL     1       5.745  -0.137   6.554  1.00  0.00     0.029 A 
ATOM     21  C   UNL     1       6.581  -1.071   7.258  1.00  0.00     0.049 A 
ATOM     22  H   UNL     1       7.054  -3.026   6.673  1.00  0.00     0.167 HD
ATOM     23  C   UNL     1       8.301  -6.859   5.112  1.00  0.00     0.037 A 
ATOM     24  C   UNL     1       7.211  -0.762   8.412  1.00  0.00     0.037 A 
ATOM     25  C   UNL     1       8.967  -6.722   6.371  1.00  0.00     0.049 A 
ATOM     26  C   UNL     1       8.087  -1.821   9.005  1.00  0.00     0.074 A 
ATOM     27  C   UNL     1       9.812  -7.613   7.002  1.00  0.00     0.029 A 
ATOM     28  N   UNL     1       8.893  -5.592   7.174  1.00  0.00    -0.354 N 
ATOM     29  N   UNL     1       8.391  -2.991   8.498  1.00  0.00    -0.248 NA
ATOM     30  C   UNL     1       8.708  -1.536  10.302  1.00  0.00     0.031 C 
ATOM     31  C   UNL     1      10.218  -7.037   8.210  1.00  0.00     0.029 A 
ATOM     32  C   UNL     1       9.670  -5.767   8.303  1.00  0.00     0.049 A 
ATOM     33  H   UNL     1       8.366  -4.786   6.969  1.00  0.00     0.167 HD
ATOM     34  C   UNL     1       9.265  -3.572   9.400  1.00  0.00     0.074 A 
ATOM     35  C   UNL     1       9.457  -2.617  10.474  1.00  0.00     0.031 C 
ATOM     36  C   UNL     1       9.853  -4.791   9.345  1.00  0.00     0.037 A 
BRANCH  23  37
ATOM     37  C   UNL     1       8.546  -8.065   4.255  1.00  0.00     0.058 A 
ATOM     38  C   UNL     1       9.234  -7.999   3.033  1.00  0.00     0.135 A 
ATOM     39  C   UNL     1       7.980  -9.293   4.629  1.00  0.00     0.135 A 
ATOM     40  F   UNL     1       9.735  -6.831   2.599  1.00  0.00    -0.206 F 
ATOM     41  C   UNL     1       9.325  -9.106   2.195  1.00  0.00     0.059 A 
ATOM     42  C   UNL     1       8.086 -10.419   3.823  1.00  0.00     0.059 A 
ATOM     43  F   UNL     1       7.284  -9.396   5.772  1.00  0.00    -0.206 F 
ATOM     44  C   UNL     1       8.747 -10.311   2.600  1.00  0.00     0.060 A 
BRANCH  44  45
ATOM     45  S   UNL     1       8.866 -11.738   1.504  1.00  0.00     0.124 S 
ATOM     46  O   UNL     1       7.939 -11.366   0.440  1.00  0.00    -0.237 OA
ATOM     47  O   UNL     1      10.280 -11.732   1.144  1.00  0.00    -0.237 OA
ATOM     48  O   UNL     1       8.440 -12.850   2.347  1.00  0.00    -0.744 OA
ENDBRANCH  44  45
ENDBRANCH  23  37
BRANCH  24  49
ATOM     49  C   UNL     1       6.983   0.543   9.124  1.00  0.00     0.058 A 
ATOM     50  C   UNL     1       8.028   1.442   9.402  1.00  0.00     0.135 A 
ATOM     51  C   UNL     1       5.708   0.886   9.616  1.00  0.00     0.135 A 
ATOM     52  F   UNL     1       9.268   1.181   8.962  1.00  0.00    -0.206 F 
ATOM     53  C   UNL     1       7.833   2.588  10.177  1.00  0.00     0.059 A 
ATOM     54  C   UNL     1       5.482   2.041  10.365  1.00  0.00     0.059 A 
ATOM     55  F   UNL     1       4.656   0.088   9.371  1.00  0.00    -0.206 F 
ATOM     56  C   UNL     1       6.557   2.873  10.664  1.00  0.00     0.060 A 
BRANCH  56  57
ATOM     57  S   UNL     1       6.319   4.335  11.704  1.00  0.00     0.124 S 
ATOM     58  O   UNL     1       7.006   3.940  12.928  1.00  0.00    -0.237 OA
ATOM     59  O   UNL     1       6.967   5.380  10.917  1.00  0.00    -0.237 OA
ATOM     60  O   UNL     1       4.867   4.443  11.805  1.00  0.00    -0.744 OA
ENDBRANCH  56  57
ENDBRANCH  24  49
BRANCH  36  61
ATOM     61  C   UNL     1      10.790  -5.137  10.457  1.00  0.00     0.058 A 
ATOM     62  C   UNL     1      10.321  -5.429  11.746  1.00  0.00     0.135 A 
ATOM     63  C   UNL     1      12.168  -5.227  10.210  1.00  0.00     0.135 A 
ATOM     64  F   UNL     1       9.011  -5.344  12.026  1.00  0.00    -0.206 F 
ATOM     65  C   UNL     1      11.195  -5.779  12.765  1.00  0.00     0.059 A 
ATOM     66  C   UNL     1      13.056  -5.608  11.206  1.00  0.00     0.059 A 
ATOM     67  F   UNL     1      12.656  -4.962   8.988  1.00  0.00    -0.206 F 
ATOM     68  C   UNL     1      12.560  -5.870  12.482  1.00  0.00     0.060 A 
BRANCH  68  69
ATOM     69  S   UNL     1      13.679  -6.368  13.804  1.00  0.00     0.124 S 
ATOM     70  O   UNL     1      13.722  -5.159  14.620  1.00  0.00    -0.237 OA
ATOM     71  O   UNL     1      12.980  -7.507  14.391  1.00  0.00    -0.237 OA
ATOM     72  O   UNL     1      14.914  -6.694  13.097  1.00  0.00    -0.744 OA
ENDBRANCH  68  69
ENDBRANCH  36  61
ENDBRANCH  10  11
ENDBRANCH   3   5
ENDBRANCH   2   3
ENDBRANCH   1   2
BRANCH   1  73
ATOM     73  C   UNL     1       5.225   1.835  -0.194  1.00  0.00     0.275 C 
BRANCH  73  74
ATOM     74  O   UNL     1       4.316   2.597   1.493  1.00  0.00    -0.457 OA
BRANCH  74  75
ATOM     75  C   UNL     1       3.207   2.702   2.478  1.00  0.00     0.359 C 
ATOM     76  O   UNL     1       2.775   3.831   2.738  1.00  0.00    -0.244 OA
BRANCH  75  77
ATOM     77  C   UNL     1       2.509   1.555   3.252  1.00  0.00     0.179 A 
ATOM     78  N   UNL     1       2.949   1.573   4.562  1.00  0.00    -0.245 NA
ATOM     79  C   UNL     1       1.431   0.703   2.919  1.00  0.00     0.161 A 
ATOM     80  C   UNL     1       2.362   0.741   5.468  1.00  0.00     0.132 A 
ATOM     81  N   UNL     1       0.946  -0.199   3.860  1.00  0.00    -0.247 NA
ATOM     82  C   UNL     1       1.415  -0.176   5.111  1.00  0.00     0.132 A 
BRANCH  79  83
ATOM     83  C   UNL     1       0.612   0.431   1.659  1.00  0.00     0.278 C 
ATOM     84  O   UNL     1      -0.449  -0.204   1.762  1.00  0.00    -0.267 OA
ATOM     85  N   UNL     1       0.906   0.784   0.378  1.00  0.00    -0.303 N 
ATOM     86  H   UNL     1       0.310   0.418  -0.314  1.00  0.00     0.172 HD
BRANCH  85  87
ATOM     87  C   UNL     1       1.905   1.569  -0.066  1.00  0.00     0.164 A 
ATOM     88  N   UNL     1       1.547   2.566  -0.890  1.00  0.00    -0.155 NA
ATOM     89  C   UNL     1       3.244   1.580   0.352  1.00  0.00     0.063 A 
ATOM     90  N   UNL     1       2.426   3.583  -0.730  1.00  0.00    -0.259 N 
ATOM     91  C   UNL     1       3.574   3.230  -0.117  1.00  0.00     0.157 A 
ATOM     92  C   UNL     1       4.551   0.748   1.396  1.00  0.00     0.017 A 
ATOM     93  H   UNL     1       2.242   4.501  -1.034  1.00  0.00     0.192 HD
ATOM     94  N   UNL     1       4.957   4.088   0.321  1.00  0.00    -0.237 NA
ATOM     95  C   UNL     1       5.982   1.652   1.905  1.00  0.00     0.021 A 
ATOM     96  C   UNL     1       6.092   3.270   1.335  1.00  0.00     0.113 A 
ENDBRANCH  85  87
ENDBRANCH  79  83
ENDBRANCH  75  77
ENDBRANCH  74  75
ENDBRANCH  73  74
ENDBRANCH   1  73
TORSDOF 16
