REMARK SMILES C[C@@H](C(=O)OCCOC(=O)c1ccc(-c2c3nc(c(-c4c(F)cc(S(=O)(=O)[O-])cc4F)c4ccc([nH]4)c(-c4c(F)cc(S(=O)(=O)[O-])cc4F)c4nc(c(-c5c(F)cc(S(=O)(=O)[O-])cc5F)c5ccc2[nH]5)C=C4)C=C3)cc1)c1ccc(-c2cccc(OC(=O)NCCC3CCCCC3)c2)c(F)c1
REMARK SMILES IDX 3 1 4 2 2 3 1 4 77 5 78 6 101 7 79 8 99 9 80 10 100 11 81 12
REMARK SMILES IDX 82 13 98 14 83 15 85 16 84 17 86 18 87 19 88 20 89 21 90 23
REMARK SMILES IDX 91 24 92 25 93 26 97 27 94 28 96 29 95 30 5 31 6 32 7 33
REMARK SMILES IDX 8 34 9 35 10 36 11 37 12 38 76 39 13 40 75 41 14 42 15 43
REMARK SMILES IDX 16 44 69 45 17 46 74 47 68 48 70 49 18 50 73 51 67 52 66 53
REMARK SMILES IDX 19 55 53 56 32 57 52 58 33 59 36 60 51 61 71 62 34 63 35 64
REMARK SMILES IDX 50 66 72 67 37 68 20 69 21 70 30 71 22 72 23 73 29 74 31 75
REMARK SMILES IDX 24 76 25 77 26 78 27 79 28 80 54 81 55 82 64 83 56 84 57 85
REMARK SMILES IDX 63 86 65 87 58 88 59 89 60 90 61 91 62 92 38 93 39 94 48 95
REMARK SMILES IDX 40 96 41 97 47 98 49 99 42 100 43 101 44 102 45 103 46 104
REMARK H PARENT 89 22 70 54 36 65
REMARK Flexibility Score: inf
ROOT
ATOM      1  C   UNL     1       0.532  -2.456  -0.721  1.00  0.00     0.313 C 
ATOM      2  O   UNL     1       0.109  -3.549  -1.077  1.00  0.00    -0.252 OA
ENDROOT
BRANCH   1   3
ATOM      3  C   UNL     1       0.023  -1.099  -1.288  1.00  0.00     0.126 C 
ATOM      4  C   UNL     1       0.752   0.080  -0.614  1.00  0.00     0.025 C 
BRANCH   3   5
ATOM      5  C   UNL     1      -1.519  -0.938  -1.335  1.00  0.00    -0.031 A 
ATOM      6  C   UNL     1      -2.183   0.219  -0.882  1.00  0.00     0.005 A 
ATOM      7  C   UNL     1      -2.347  -1.939  -1.873  1.00  0.00     0.044 A 
ATOM      8  C   UNL     1      -3.596   0.328  -0.872  1.00  0.00     0.012 A 
ATOM      9  C   UNL     1      -3.758  -1.828  -1.856  1.00  0.00     0.131 A 
ATOM     10  C   UNL     1      -4.422  -0.713  -1.319  1.00  0.00     0.018 A 
ATOM     11  F   UNL     1      -4.465  -2.863  -2.334  1.00  0.00    -0.206 F 
BRANCH  10  12
ATOM     12  C   UNL     1      -5.895  -0.678  -1.100  1.00  0.00    -0.012 A 
ATOM     13  C   UNL     1      -6.799  -0.140  -2.022  1.00  0.00     0.009 A 
ATOM     14  C   UNL     1      -6.448  -1.214   0.082  1.00  0.00     0.056 A 
ATOM     15  C   UNL     1      -8.193  -0.179  -1.783  1.00  0.00     0.004 A 
ATOM     16  C   UNL     1      -7.838  -1.307   0.285  1.00  0.00     0.133 A 
ATOM     17  C   UNL     1      -8.732  -0.786  -0.637  1.00  0.00     0.047 A 
BRANCH  16  18
ATOM     18  O   UNL     1      -8.449  -2.224   1.556  1.00  0.00    -0.410 OA
BRANCH  18  19
ATOM     19  C   UNL     1      -8.829  -3.340   2.728  1.00  0.00     0.412 C 
ATOM     20  O   UNL     1      -8.328  -4.463   2.722  1.00  0.00    -0.224 OA
ATOM     21  N   UNL     1      -9.674  -3.000   3.743  1.00  0.00    -0.321 N 
ATOM     22  H   UNL     1      -9.505  -2.161   4.230  1.00  0.00     0.167 HD
BRANCH  21  23
ATOM     23  C   UNL     1     -10.800  -3.808   4.139  1.00  0.00     0.119 C 
BRANCH  23  24
ATOM     24  C   UNL     1     -10.653  -5.325   4.116  1.00  0.00     0.025 C 
BRANCH  24  25
ATOM     25  C   UNL     1      -9.867  -5.938   5.289  1.00  0.00    -0.009 C 
ATOM     26  C   UNL     1     -10.412  -5.442   6.639  1.00  0.00     0.003 C 
ATOM     27  C   UNL     1      -9.945  -7.471   5.153  1.00  0.00     0.003 C 
ATOM     28  C   UNL     1      -9.896  -6.236   7.831  1.00  0.00     0.000 C 
ATOM     29  C   UNL     1      -9.446  -8.220   6.381  1.00  0.00     0.000 C 
ATOM     30  C   UNL     1     -10.136  -7.726   7.645  1.00  0.00     0.000 C 
ENDBRANCH  24  25
ENDBRANCH  23  24
ENDBRANCH  21  23
ENDBRANCH  18  19
ENDBRANCH  16  18
ENDBRANCH  10  12
ENDBRANCH   3   5
ENDBRANCH   1   3
BRANCH   1  31
ATOM     31  O   UNL     1       1.579  -2.310   0.152  1.00  0.00    -0.462 OA
BRANCH  31  32
ATOM     32  C   UNL     1       2.256  -3.505   0.613  1.00  0.00     0.274 C 
BRANCH  32  33
ATOM     33  C   UNL     1       2.336  -3.548   2.142  1.00  0.00     0.275 C 
BRANCH  33  34
ATOM     34  O   UNL     1       1.021  -3.742   2.684  1.00  0.00    -0.458 OA
BRANCH  34  35
ATOM     35  C   UNL     1       0.435  -2.631   3.187  1.00  0.00     0.338 C 
ATOM     36  O   UNL     1       0.951  -1.556   3.428  1.00  0.00    -0.246 OA
BRANCH  35  37
ATOM     37  C   UNL     1      -1.013  -2.845   3.096  1.00  0.00     0.060 A 
ATOM     38  C   UNL     1      -1.637  -2.237   2.016  1.00  0.00     0.016 A 
ATOM     39  C   UNL     1      -1.741  -3.618   4.003  1.00  0.00     0.016 A 
ATOM     40  C   UNL     1      -2.989  -2.427   1.814  1.00  0.00     0.010 A 
ATOM     41  C   UNL     1      -3.122  -3.783   3.811  1.00  0.00     0.010 A 
ATOM     42  C   UNL     1      -3.747  -3.189   2.708  1.00  0.00    -0.014 A 
BRANCH  42  43
ATOM     43  C   UNL     1      -5.214  -3.174   2.497  1.00  0.00     0.031 A 
ATOM     44  C   UNL     1      -5.953  -1.979   3.292  1.00  0.00     0.074 A 
ATOM     45  C   UNL     1      -5.685  -3.978   1.474  1.00  0.00     0.049 A 
ATOM     46  N   UNL     1      -7.163  -1.508   3.158  1.00  0.00    -0.248 NA
ATOM     47  C   UNL     1      -5.241  -1.155   4.291  1.00  0.00     0.031 C 
ATOM     48  C   UNL     1      -5.014  -5.005   0.650  1.00  0.00     0.029 A 
ATOM     49  N   UNL     1      -6.905  -3.999   0.856  1.00  0.00    -0.354 N 
ATOM     50  C   UNL     1      -7.429  -0.432   3.966  1.00  0.00     0.074 A 
ATOM     51  C   UNL     1      -6.162  -0.247   4.661  1.00  0.00     0.031 C 
ATOM     52  C   UNL     1      -5.895  -5.538  -0.251  1.00  0.00     0.029 A 
ATOM     53  C   UNL     1      -7.219  -4.929  -0.085  1.00  0.00     0.049 A 
ATOM     54  H   UNL     1      -7.576  -3.320   1.099  1.00  0.00     0.167 HD
ATOM     55  C   UNL     1      -8.616   0.253   4.120  1.00  0.00     0.037 A 
ATOM     56  C   UNL     1      -8.445  -5.181  -0.648  1.00  0.00     0.037 A 
ATOM     57  C   UNL     1      -9.946   0.021   3.468  1.00  0.00     0.049 A 
ATOM     58  C   UNL     1      -9.815  -4.468  -0.251  1.00  0.00     0.074 A 
ATOM     59  C   UNL     1     -11.222   0.392   3.886  1.00  0.00     0.029 A 
ATOM     60  N   UNL     1     -10.216  -0.686   2.289  1.00  0.00    -0.354 N 
ATOM     61  N   UNL     1     -10.054  -3.342   0.382  1.00  0.00    -0.248 NA
ATOM     62  C   UNL     1     -11.090  -5.100  -0.641  1.00  0.00     0.031 C 
ATOM     63  C   UNL     1     -12.191  -0.307   3.111  1.00  0.00     0.029 A 
ATOM     64  C   UNL     1     -11.544  -1.101   2.167  1.00  0.00     0.049 A 
ATOM     65  H   UNL     1      -9.530  -0.874   1.608  1.00  0.00     0.167 HD
ATOM     66  C   UNL     1     -11.418  -3.130   0.545  1.00  0.00     0.074 A 
ATOM     67  C   UNL     1     -12.010  -4.237  -0.194  1.00  0.00     0.031 C 
ATOM     68  C   UNL     1     -12.096  -2.171   1.276  1.00  0.00     0.037 A 
BRANCH  55  69
ATOM     69  C   UNL     1      -8.628   1.224   5.268  1.00  0.00     0.058 A 
ATOM     70  C   UNL     1      -8.216   2.552   5.124  1.00  0.00     0.135 A 
ATOM     71  C   UNL     1      -9.140   0.819   6.515  1.00  0.00     0.135 A 
ATOM     72  F   UNL     1      -7.714   2.981   3.956  1.00  0.00    -0.206 F 
ATOM     73  C   UNL     1      -8.310   3.453   6.182  1.00  0.00     0.059 A 
ATOM     74  C   UNL     1      -9.255   1.705   7.581  1.00  0.00     0.059 A 
ATOM     75  F   UNL     1      -9.554  -0.446   6.693  1.00  0.00    -0.206 F 
ATOM     76  C   UNL     1      -8.831   3.020   7.405  1.00  0.00     0.060 A 
BRANCH  76  77
ATOM     77  S   UNL     1      -8.957   4.207   8.762  1.00  0.00     0.124 S 
ATOM     78  O   UNL     1      -7.554   4.374   9.131  1.00  0.00    -0.237 OA
ATOM     79  O   UNL     1      -9.583   5.355   8.114  1.00  0.00    -0.237 OA
ATOM     80  O   UNL     1      -9.785   3.515   9.744  1.00  0.00    -0.744 OA
ENDBRANCH  76  77
ENDBRANCH  55  69
BRANCH  56  81
ATOM     81  C   UNL     1      -8.548  -6.229  -1.709  1.00  0.00     0.058 A 
ATOM     82  C   UNL     1      -9.036  -5.890  -2.983  1.00  0.00     0.135 A 
ATOM     83  C   UNL     1      -8.247  -7.578  -1.472  1.00  0.00     0.135 A 
ATOM     84  F   UNL     1      -9.379  -4.621  -3.256  1.00  0.00    -0.206 F 
ATOM     85  C   UNL     1      -9.221  -6.845  -3.979  1.00  0.00     0.059 A 
ATOM     86  C   UNL     1      -8.399  -8.548  -2.462  1.00  0.00     0.059 A 
ATOM     87  F   UNL     1      -7.811  -7.974  -0.267  1.00  0.00    -0.206 F 
ATOM     88  C   UNL     1      -8.896  -8.173  -3.710  1.00  0.00     0.060 A 
BRANCH  88  89
ATOM     89  S   UNL     1      -9.091  -9.400  -5.022  1.00  0.00     0.124 S 
ATOM     90  O   UNL     1     -10.536  -9.603  -5.025  1.00  0.00    -0.237 OA
ATOM     91  O   UNL     1      -8.544  -8.705  -6.183  1.00  0.00    -0.237 OA
ATOM     92  O   UNL     1      -8.296 -10.529  -4.547  1.00  0.00    -0.744 OA
ENDBRANCH  88  89
ENDBRANCH  56  81
BRANCH  68  93
ATOM     93  C   UNL     1     -13.615  -2.308   1.293  1.00  0.00     0.058 A 
ATOM     94  C   UNL     1     -14.270  -3.397   1.902  1.00  0.00     0.135 A 
ATOM     95  C   UNL     1     -14.430  -1.290   0.770  1.00  0.00     0.135 A 
ATOM     96  F   UNL     1     -13.562  -4.401   2.442  1.00  0.00    -0.206 F 
ATOM     97  C   UNL     1     -15.661  -3.492   1.953  1.00  0.00     0.059 A 
ATOM     98  C   UNL     1     -15.824  -1.351   0.834  1.00  0.00     0.059 A 
ATOM     99  F   UNL     1     -13.873  -0.206   0.205  1.00  0.00    -0.206 F 
ATOM    100  C   UNL     1     -16.431  -2.464   1.412  1.00  0.00     0.060 A 
BRANCH 100 101
ATOM    101  S   UNL     1     -18.234  -2.587   1.503  1.00  0.00     0.124 S 
ATOM    102  O   UNL     1     -18.515  -3.574   0.466  1.00  0.00    -0.237 OA
ATOM    103  O   UNL     1     -18.451  -3.032   2.876  1.00  0.00    -0.237 OA
ATOM    104  O   UNL     1     -18.681  -1.228   1.214  1.00  0.00    -0.744 OA
ENDBRANCH 100 101
ENDBRANCH  68  93
ENDBRANCH  42  43
ENDBRANCH  35  37
ENDBRANCH  34  35
ENDBRANCH  33  34
ENDBRANCH  32  33
ENDBRANCH  31  32
ENDBRANCH   1  31
TORSDOF 21
