REMARK SMILES O=C(OCCOC(=O)c1cc(Cl)c2c(c1)[C@H]1C=CC[C@H]1[C@H](c1ccc(S(=O)(=O)N3CCOCC3)cc1)N2)c1ccc(-c2c3nc(c(-c4c(F)cc(S(=O)(=O)[O-])cc4F)c4ccc([nH]4)c(-c4c(F)cc(S(=O)(=O)[O-])cc4F)c4nc(c(-c5c(F)cc(S(=O)(=O)[O-])cc5F)c5ccc2[nH]5)C=C4)C=C3)cc1
REMARK SMILES IDX 4 1 3 2 2 3 1 4 38 5 39 6 103 7 40 8 102 9 41 10 42 11 43 12
REMARK SMILES IDX 96 13 44 14 101 15 95 16 97 17 45 18 100 19 94 20 93 21
REMARK SMILES IDX 46 23 80 24 59 25 79 26 60 27 63 28 78 29 98 30 61 31 62 32
REMARK SMILES IDX 77 34 99 35 64 36 47 37 48 38 57 39 49 40 50 41 56 42 58 43
REMARK SMILES IDX 51 44 52 45 53 46 54 47 55 48 81 49 82 50 91 51 83 52 84 53
REMARK SMILES IDX 90 54 92 55 85 56 86 57 87 58 88 59 89 60 65 61 66 62 75 63
REMARK SMILES IDX 67 64 68 65 74 66 76 67 69 68 70 69 71 70 72 71 73 72 5 73
REMARK SMILES IDX 6 74 7 75 8 76 9 77 10 78 15 79 11 80 14 81 12 82 13 83
REMARK SMILES IDX 16 84 37 85 17 86 20 87 21 88 18 90 19 91 22 92 23 93 36 94
REMARK SMILES IDX 24 95 35 96 25 97 26 98 27 99 28 100 29 101 30 102 34 103
REMARK SMILES IDX 31 104 33 105 32 106
REMARK H PARENT 97 22 63 33 37 89
REMARK Flexibility Score: inf
ROOT
ATOM      1  C   UNL     1       4.257   0.106   1.468  1.00  0.00     0.275 C 
ENDROOT
BRANCH   1   2
ATOM      2  O   UNL     1       3.169   0.752   0.792  1.00  0.00    -0.458 OA
BRANCH   2   3
ATOM      3  C   UNL     1       2.987   0.939  -0.536  1.00  0.00     0.338 C 
ATOM      4  O   UNL     1       2.128   1.745  -0.894  1.00  0.00    -0.246 OA
BRANCH   3   5
ATOM      5  C   UNL     1       3.656   0.111  -1.598  1.00  0.00     0.060 A 
ATOM      6  C   UNL     1       4.823  -0.647  -1.476  1.00  0.00     0.016 A 
ATOM      7  C   UNL     1       2.994   0.074  -2.836  1.00  0.00     0.016 A 
ATOM      8  C   UNL     1       5.265  -1.478  -2.508  1.00  0.00     0.010 A 
ATOM      9  C   UNL     1       3.417  -0.762  -3.873  1.00  0.00     0.010 A 
ATOM     10  C   UNL     1       4.567  -1.536  -3.711  1.00  0.00    -0.014 A 
BRANCH  10  11
ATOM     11  C   UNL     1       5.200  -2.170  -4.882  1.00  0.00     0.031 A 
ATOM     12  C   UNL     1       5.972  -1.276  -5.798  1.00  0.00     0.074 A 
ATOM     13  C   UNL     1       5.170  -3.499  -5.078  1.00  0.00     0.049 A 
ATOM     14  N   UNL     1       6.651  -1.584  -6.866  1.00  0.00    -0.248 NA
ATOM     15  C   UNL     1       6.029   0.151  -5.431  1.00  0.00     0.031 C 
ATOM     16  C   UNL     1       4.596  -4.467  -4.154  1.00  0.00     0.029 A 
ATOM     17  N   UNL     1       5.635  -4.267  -6.114  1.00  0.00    -0.354 N 
ATOM     18  C   UNL     1       7.271  -0.408  -7.256  1.00  0.00     0.074 A 
ATOM     19  C   UNL     1       6.819   0.640  -6.371  1.00  0.00     0.031 C 
ATOM     20  C   UNL     1       4.676  -5.696  -4.692  1.00  0.00     0.029 A 
ATOM     21  C   UNL     1       5.309  -5.598  -5.998  1.00  0.00     0.049 A 
ATOM     22  H   UNL     1       6.152  -3.901  -6.867  1.00  0.00     0.167 HD
ATOM     23  C   UNL     1       8.178  -0.233  -8.240  1.00  0.00     0.037 A 
ATOM     24  C   UNL     1       5.502  -6.620  -6.853  1.00  0.00     0.037 A 
ATOM     25  C   UNL     1       8.571  -1.277  -9.142  1.00  0.00     0.049 A 
ATOM     26  C   UNL     1       6.317  -6.353  -8.087  1.00  0.00     0.074 A 
ATOM     27  C   UNL     1       9.425  -1.202 -10.224  1.00  0.00     0.029 A 
ATOM     28  N   UNL     1       8.117  -2.588  -9.073  1.00  0.00    -0.354 N 
ATOM     29  N   UNL     1       6.891  -5.231  -8.459  1.00  0.00    -0.248 NA
ATOM     30  C   UNL     1       6.555  -7.483  -8.991  1.00  0.00     0.031 C 
ATOM     31  C   UNL     1       9.441  -2.454 -10.846  1.00  0.00     0.029 A 
ATOM     32  C   UNL     1       8.648  -3.326 -10.114  1.00  0.00     0.049 A 
ATOM     33  H   UNL     1       7.508  -2.940  -8.384  1.00  0.00     0.167 HD
ATOM     34  C   UNL     1       7.609  -5.535  -9.607  1.00  0.00     0.074 A 
ATOM     35  C   UNL     1       7.384  -6.943  -9.874  1.00  0.00     0.031 C 
ATOM     36  C   UNL     1       8.402  -4.728 -10.356  1.00  0.00     0.037 A 
BRANCH  23  37
ATOM     37  C   UNL     1       8.763   1.139  -8.380  1.00  0.00     0.058 A 
ATOM     38  C   UNL     1       9.660   1.652  -7.427  1.00  0.00     0.135 A 
ATOM     39  C   UNL     1       8.401   1.962  -9.455  1.00  0.00     0.135 A 
ATOM     40  F   UNL     1      10.002   0.919  -6.355  1.00  0.00    -0.206 F 
ATOM     41  C   UNL     1      10.166   2.942  -7.529  1.00  0.00     0.059 A 
ATOM     42  C   UNL     1       8.915   3.247  -9.590  1.00  0.00     0.059 A 
ATOM     43  F   UNL     1       7.526   1.528 -10.374  1.00  0.00    -0.206 F 
ATOM     44  C   UNL     1       9.789   3.731  -8.617  1.00  0.00     0.060 A 
BRANCH  44  45
ATOM     45  S   UNL     1      10.460   5.401  -8.735  1.00  0.00     0.124 S 
ATOM     46  O   UNL     1       9.804   6.060  -7.609  1.00  0.00    -0.237 OA
ATOM     47  O   UNL     1      11.892   5.169  -8.586  1.00  0.00    -0.237 OA
ATOM     48  O   UNL     1      10.031   5.847 -10.057  1.00  0.00    -0.744 OA
ENDBRANCH  44  45
ENDBRANCH  23  37
BRANCH  24  49
ATOM     49  C   UNL     1       4.957  -7.972  -6.549  1.00  0.00     0.058 A 
ATOM     50  C   UNL     1       5.802  -9.040  -6.215  1.00  0.00     0.135 A 
ATOM     51  C   UNL     1       3.574  -8.220  -6.575  1.00  0.00     0.135 A 
ATOM     52  F   UNL     1       7.130  -8.856  -6.176  1.00  0.00    -0.206 F 
ATOM     53  C   UNL     1       5.301 -10.307  -5.931  1.00  0.00     0.059 A 
ATOM     54  C   UNL     1       3.046  -9.476  -6.279  1.00  0.00     0.059 A 
ATOM     55  F   UNL     1       2.718  -7.229  -6.871  1.00  0.00    -0.206 F 
ATOM     56  C   UNL     1       3.920 -10.515  -5.962  1.00  0.00     0.060 A 
BRANCH  56  57
ATOM     57  S   UNL     1       3.290 -12.159  -5.553  1.00  0.00     0.124 S 
ATOM     58  O   UNL     1       3.823 -12.963  -6.647  1.00  0.00    -0.237 OA
ATOM     59  O   UNL     1       3.888 -12.391  -4.241  1.00  0.00    -0.237 OA
ATOM     60  O   UNL     1       1.842 -11.976  -5.552  1.00  0.00    -0.744 OA
ENDBRANCH  56  57
ENDBRANCH  24  49
BRANCH  36  61
ATOM     61  C   UNL     1       9.114  -5.357 -11.518  1.00  0.00     0.058 A 
ATOM     62  C   UNL     1       8.430  -5.750 -12.677  1.00  0.00     0.135 A 
ATOM     63  C   UNL     1      10.511  -5.506 -11.492  1.00  0.00     0.135 A 
ATOM     64  F   UNL     1       7.094  -5.631 -12.748  1.00  0.00    -0.206 F 
ATOM     65  C   UNL     1       9.103  -6.295 -13.762  1.00  0.00     0.059 A 
ATOM     66  C   UNL     1      11.208  -6.015 -12.579  1.00  0.00     0.059 A 
ATOM     67  F   UNL     1      11.212  -5.130 -10.410  1.00  0.00    -0.206 F 
ATOM     68  C   UNL     1      10.493  -6.419 -13.706  1.00  0.00     0.060 A 
BRANCH  68  69
ATOM     69  S   UNL     1      11.355  -7.096 -15.138  1.00  0.00     0.124 S 
ATOM     70  O   UNL     1      10.955  -8.498 -15.085  1.00  0.00    -0.237 OA
ATOM     71  O   UNL     1      10.790  -6.316 -16.235  1.00  0.00    -0.237 OA
ATOM     72  O   UNL     1      12.761  -6.832 -14.847  1.00  0.00    -0.744 OA
ENDBRANCH  68  69
ENDBRANCH  36  61
ENDBRANCH  10  11
ENDBRANCH   3   5
ENDBRANCH   2   3
ENDBRANCH   1   2
BRANCH   1  73
ATOM     73  C   UNL     1       4.043  -1.392   1.723  1.00  0.00     0.275 C 
BRANCH  73  74
ATOM     74  O   UNL     1       3.482  -2.109   0.611  1.00  0.00    -0.458 OA
BRANCH  74  75
ATOM     75  C   UNL     1       2.125  -2.153   0.562  1.00  0.00     0.338 C 
ATOM     76  O   UNL     1       1.347  -1.692   1.379  1.00  0.00    -0.246 OA
BRANCH  75  77
ATOM     77  C   UNL     1       1.705  -2.765  -0.714  1.00  0.00     0.062 A 
ATOM     78  C   UNL     1       2.116  -4.050  -1.045  1.00  0.00     0.038 A 
ATOM     79  C   UNL     1       0.822  -2.071  -1.550  1.00  0.00     0.022 A 
ATOM     80  C   UNL     1       1.680  -4.605  -2.248  1.00  0.00     0.065 A 
ATOM     81  C   UNL     1       0.426  -2.618  -2.787  1.00  0.00    -0.015 A 
ATOM     82  Cl  UNL     1       2.024  -6.279  -2.530  1.00  0.00    -0.082 Cl
ATOM     83  C   UNL     1       0.930  -3.861  -3.184  1.00  0.00     0.057 A 
ATOM     84  C   UNL     1      -0.627  -1.933  -3.612  1.00  0.00     0.049 C 
ATOM     85  N   UNL     1       0.604  -4.400  -4.415  1.00  0.00    -0.376 N 
ATOM     86  C   UNL     1      -0.230  -0.703  -4.381  1.00  0.00    -0.023 C 
ATOM     87  C   UNL     1      -1.255  -2.807  -4.727  1.00  0.00     0.031 C 
ATOM     88  C   UNL     1      -0.159  -3.678  -5.423  1.00  0.00     0.114 C 
ATOM     89  H   UNL     1       0.902  -5.316  -4.620  1.00  0.00     0.161 HD
ATOM     90  C   UNL     1      -0.955  -0.583  -5.499  1.00  0.00    -0.030 C 
ATOM     91  C   UNL     1      -1.917  -1.719  -5.603  1.00  0.00     0.034 C 
BRANCH  88  92
ATOM     92  C   UNL     1      -0.736  -4.692  -6.418  1.00  0.00    -0.025 A 
ATOM     93  C   UNL     1      -0.724  -6.093  -6.236  1.00  0.00     0.007 A 
ATOM     94  C   UNL     1      -1.300  -4.218  -7.599  1.00  0.00     0.007 A 
ATOM     95  C   UNL     1      -1.308  -6.968  -7.173  1.00  0.00     0.022 A 
ATOM     96  C   UNL     1      -1.957  -5.074  -8.470  1.00  0.00     0.022 A 
ATOM     97  C   UNL     1      -1.962  -6.443  -8.283  1.00  0.00     0.082 A 
BRANCH  97  98
ATOM     98  S   UNL     1      -2.773  -7.518  -9.445  1.00  0.00     0.243 S 
ATOM     99  O   UNL     1      -1.737  -8.237 -10.148  1.00  0.00    -0.207 OA
ATOM    100  O   UNL     1      -3.817  -8.204  -8.708  1.00  0.00    -0.207 OA
BRANCH  98 101
ATOM    101  N   UNL     1      -3.538  -6.517 -10.565  1.00  0.00    -0.193 NA
ATOM    102  C   UNL     1      -2.830  -5.930 -11.723  1.00  0.00     0.131 C 
ATOM    103  C   UNL     1      -4.905  -6.010 -10.367  1.00  0.00     0.131 C 
ATOM    104  C   UNL     1      -2.957  -4.396 -11.751  1.00  0.00     0.177 C 
ATOM    105  C   UNL     1      -4.915  -4.481 -10.357  1.00  0.00     0.177 C 
ATOM    106  O   UNL     1      -4.297  -3.927 -11.528  1.00  0.00    -0.379 OA
ENDBRANCH  98 101
ENDBRANCH  97  98
ENDBRANCH  88  92
ENDBRANCH  75  77
ENDBRANCH  74  75
ENDBRANCH  73  74
ENDBRANCH   1  73
TORSDOF 17
