REMARK SMILES CCOC(=O)CS(=O)(=O)N1CCC(CC(=O)OCCOC(=O)c2ccc(-c3c4nc(c(-c5c(F)cc(S(=O)(=O)[O-])cc5F)c5ccc([nH]5)c(-c5c(F)cc(S(=O)(=O)[O-])cc5F)c5nc(c(-c6c(F)cc(S(=O)(=O)[O-])cc6F)c6ccc3[nH]6)C=C5)C=C4)cc2)CC1
REMARK SMILES IDX 17 1 15 2 16 3 14 4 13 5 10 6 11 7 90 8 12 9 89 10 7 11 8 12
REMARK SMILES IDX 9 13 6 14 4 15 5 16 3 17 2 18 1 19 18 20 19 21 20 22 21 23
REMARK SMILES IDX 22 24 23 25 24 26 88 27 25 28 87 29 26 30 27 31 28 32 81 33
REMARK SMILES IDX 29 34 86 35 80 36 82 37 30 38 85 39 79 40 78 41 31 43 65 44
REMARK SMILES IDX 44 45 64 46 45 47 48 48 63 49 83 50 46 51 47 52 62 54 84 55
REMARK SMILES IDX 49 56 32 57 33 58 42 59 34 60 35 61 41 62 43 63 36 64 37 65
REMARK SMILES IDX 38 66 39 67 40 68 66 69 67 70 76 71 68 72 69 73 75 74 77 75
REMARK SMILES IDX 70 76 71 77 72 78 73 79 74 80 50 81 51 82 60 83 52 84 53 85
REMARK SMILES IDX 59 86 61 87 54 88 55 89 56 90 57 91 58 92
REMARK H PARENT 82 42 48 53
REMARK Flexibility Score: inf
ROOT
ATOM      1  O   UNL     1       6.788   0.221   5.181  1.00  0.00    -0.462 OA
ENDROOT
BRANCH   1   2
ATOM      2  C   UNL     1       5.794   1.088   5.493  1.00  0.00     0.306 C 
ATOM      3  O   UNL     1       5.962   2.251   5.837  1.00  0.00    -0.252 OA
BRANCH   2   4
ATOM      4  C   UNL     1       4.426   0.440   5.442  1.00  0.00     0.126 C 
BRANCH   4   5
ATOM      5  C   UNL     1       4.133  -0.400   4.188  1.00  0.00     0.003 C 
ATOM      6  N   UNL     1       2.879  -2.729   2.977  1.00  0.00    -0.201 NA
ATOM      7  C   UNL     1       4.353  -2.672   3.071  1.00  0.00     0.102 C 
ATOM      8  C   UNL     1       2.271  -1.396   2.781  1.00  0.00     0.102 C 
ATOM      9  C   UNL     1       4.740  -1.812   4.271  1.00  0.00     0.021 C 
ATOM     10  C   UNL     1       2.611  -0.507   3.974  1.00  0.00     0.021 C 
BRANCH   6  11
ATOM     11  S   UNL     1       2.182  -4.062   2.220  1.00  0.00     0.224 S 
ATOM     12  O   UNL     1       0.742  -3.931   2.288  1.00  0.00    -0.212 OA
ATOM     13  O   UNL     1       2.813  -5.239   2.788  1.00  0.00    -0.212 OA
BRANCH  11  14
ATOM     14  C   UNL     1       2.708  -3.995   0.533  1.00  0.00     0.276 C 
BRANCH  14  15
ATOM     15  C   UNL     1       2.378  -2.724  -0.154  1.00  0.00     0.322 C 
ATOM     16  O   UNL     1       3.222  -2.068  -0.755  1.00  0.00    -0.251 OA
BRANCH  15  17
ATOM     17  O   UNL     1       1.054  -2.437  -0.135  1.00  0.00    -0.465 OA
BRANCH  17  18
ATOM     18  C   UNL     1       0.621  -1.315  -0.926  1.00  0.00     0.229 C 
ATOM     19  C   UNL     1       0.862   0.002  -0.212  1.00  0.00     0.049 C 
ENDBRANCH  17  18
ENDBRANCH  15  17
ENDBRANCH  14  15
ENDBRANCH  11  14
ENDBRANCH   6  11
ENDBRANCH   4   5
ENDBRANCH   2   4
ENDBRANCH   1   2
BRANCH   1  20
ATOM     20  C   UNL     1       8.132   0.736   5.222  1.00  0.00     0.274 C 
BRANCH  20  21
ATOM     21  C   UNL     1       8.636   1.098   3.824  1.00  0.00     0.275 C 
BRANCH  21  22
ATOM     22  O   UNL     1       7.978   2.273   3.319  1.00  0.00    -0.458 OA
BRANCH  22  23
ATOM     23  C   UNL     1       6.916   2.046   2.510  1.00  0.00     0.338 C 
ATOM     24  O   UNL     1       6.502   0.968   2.123  1.00  0.00    -0.246 OA
BRANCH  23  25
ATOM     25  C   UNL     1       6.231   3.322   2.249  1.00  0.00     0.060 A 
ATOM     26  C   UNL     1       4.944   3.506   2.764  1.00  0.00     0.016 A 
ATOM     27  C   UNL     1       6.834   4.313   1.473  1.00  0.00     0.016 A 
ATOM     28  C   UNL     1       4.258   4.692   2.512  1.00  0.00     0.010 A 
ATOM     29  C   UNL     1       6.144   5.504   1.224  1.00  0.00     0.010 A 
ATOM     30  C   UNL     1       4.852   5.702   1.741  1.00  0.00    -0.014 A 
BRANCH  30  31
ATOM     31  C   UNL     1       4.122   6.968   1.481  1.00  0.00     0.031 A 
ATOM     32  C   UNL     1       3.545   7.242   0.121  1.00  0.00     0.074 A 
ATOM     33  C   UNL     1       3.988   7.873   2.469  1.00  0.00     0.049 A 
ATOM     34  N   UNL     1       2.944   8.318  -0.319  1.00  0.00    -0.248 NA
ATOM     35  C   UNL     1       3.660   6.167  -0.877  1.00  0.00     0.031 C 
ATOM     36  C   UNL     1       4.490   7.711   3.835  1.00  0.00     0.029 A 
ATOM     37  N   UNL     1       3.400   9.113   2.476  1.00  0.00    -0.354 N 
ATOM     38  C   UNL     1       2.621   8.060  -1.645  1.00  0.00     0.074 A 
ATOM     39  C   UNL     1       3.106   6.729  -1.945  1.00  0.00     0.031 C 
ATOM     40  C   UNL     1       4.193   8.812   4.545  1.00  0.00     0.029 A 
ATOM     41  C   UNL     1       3.518   9.773   3.676  1.00  0.00     0.049 A 
ATOM     42  H   UNL     1       2.937   9.494   1.695  1.00  0.00     0.167 HD
ATOM     43  C   UNL     1       1.977   8.860  -2.528  1.00  0.00     0.037 A 
ATOM     44  C   UNL     1       3.152  11.021   4.029  1.00  0.00     0.037 A 
ATOM     45  C   UNL     1       1.483  10.177  -2.219  1.00  0.00     0.049 A 
ATOM     46  C   UNL     1       2.479  11.905   3.013  1.00  0.00     0.074 A 
ATOM     47  C   UNL     1       0.785  11.048  -3.039  1.00  0.00     0.029 A 
ATOM     48  N   UNL     1       1.637  10.817  -0.998  1.00  0.00    -0.354 N 
ATOM     49  N   UNL     1       2.160  11.636   1.769  1.00  0.00    -0.248 NA
ATOM     50  C   UNL     1       2.123  13.264   3.445  1.00  0.00     0.031 C 
ATOM     51  C   UNL     1       0.554  12.230  -2.328  1.00  0.00     0.029 A 
ATOM     52  C   UNL     1       1.070  12.080  -1.051  1.00  0.00     0.049 A 
ATOM     53  H   UNL     1       2.084  10.431  -0.210  1.00  0.00     0.167 HD
ATOM     54  C   UNL     1       1.550  12.784   1.277  1.00  0.00     0.074 A 
ATOM     55  C   UNL     1       1.530  13.745   2.361  1.00  0.00     0.031 C 
ATOM     56  C   UNL     1       1.054  13.024   0.038  1.00  0.00     0.037 A 
BRANCH  43  57
ATOM     57  C   UNL     1       1.776   8.347  -3.926  1.00  0.00     0.058 A 
ATOM     58  C   UNL     1       0.809   7.375  -4.222  1.00  0.00     0.135 A 
ATOM     59  C   UNL     1       2.511   8.888  -4.993  1.00  0.00     0.135 A 
ATOM     60  F   UNL     1       0.090   6.813  -3.237  1.00  0.00    -0.206 F 
ATOM     61  C   UNL     1       0.582   6.952  -5.528  1.00  0.00     0.059 A 
ATOM     62  C   UNL     1       2.287   8.495  -6.309  1.00  0.00     0.059 A 
ATOM     63  F   UNL     1       3.451   9.819  -4.762  1.00  0.00    -0.206 F 
ATOM     64  C   UNL     1       1.324   7.520  -6.566  1.00  0.00     0.060 A 
BRANCH  64  65
ATOM     65  S   UNL     1       0.996   6.981  -8.258  1.00  0.00     0.124 S 
ATOM     66  O   UNL     1       1.600   5.652  -8.261  1.00  0.00    -0.237 OA
ATOM     67  O   UNL     1      -0.461   7.014  -8.320  1.00  0.00    -0.237 OA
ATOM     68  O   UNL     1       1.678   7.982  -9.072  1.00  0.00    -0.744 OA
ENDBRANCH  64  65
ENDBRANCH  43  57
BRANCH  44  69
ATOM     69  C   UNL     1       3.440  11.526   5.397  1.00  0.00     0.058 A 
ATOM     70  C   UNL     1       2.406  11.767   6.314  1.00  0.00     0.135 A 
ATOM     71  C   UNL     1       4.755  11.795   5.807  1.00  0.00     0.135 A 
ATOM     72  F   UNL     1       1.132  11.534   5.964  1.00  0.00    -0.206 F 
ATOM     73  C   UNL     1       2.663  12.279   7.582  1.00  0.00     0.059 A 
ATOM     74  C   UNL     1       5.039  12.283   7.079  1.00  0.00     0.059 A 
ATOM     75  F   UNL     1       5.780  11.571   4.971  1.00  0.00    -0.206 F 
ATOM     76  C   UNL     1       3.983  12.537   7.954  1.00  0.00     0.060 A 
BRANCH  76  77
ATOM     77  S   UNL     1       4.313  13.178   9.610  1.00  0.00     0.124 S 
ATOM     78  O   UNL     1       3.938  14.579   9.461  1.00  0.00    -0.237 OA
ATOM     79  O   UNL     1       3.430  12.364  10.439  1.00  0.00    -0.237 OA
ATOM     80  O   UNL     1       5.739  12.920   9.789  1.00  0.00    -0.744 OA
ENDBRANCH  76  77
ENDBRANCH  44  69
BRANCH  56  81
ATOM     81  C   UNL     1       0.425  14.367  -0.205  1.00  0.00     0.058 A 
ATOM     82  C   UNL     1       1.203  15.526  -0.352  1.00  0.00     0.135 A 
ATOM     83  C   UNL     1      -0.967  14.489  -0.334  1.00  0.00     0.135 A 
ATOM     84  F   UNL     1       2.538  15.463  -0.230  1.00  0.00    -0.206 F 
ATOM     85  C   UNL     1       0.620  16.765  -0.598  1.00  0.00     0.059 A 
ATOM     86  C   UNL     1      -1.570  15.714  -0.603  1.00  0.00     0.059 A 
ATOM     87  F   UNL     1      -1.755  13.409  -0.211  1.00  0.00    -0.206 F 
ATOM     88  C   UNL     1      -0.768  16.849  -0.721  1.00  0.00     0.060 A 
BRANCH  88  89
ATOM     89  S   UNL     1      -1.513  18.456  -1.070  1.00  0.00     0.124 S 
ATOM     90  O   UNL     1      -1.438  19.104   0.235  1.00  0.00    -0.237 OA
ATOM     91  O   UNL     1      -0.628  18.997  -2.098  1.00  0.00    -0.237 OA
ATOM     92  O   UNL     1      -2.857  18.115  -1.527  1.00  0.00    -0.744 OA
ENDBRANCH  88  89
ENDBRANCH  56  81
ENDBRANCH  30  31
ENDBRANCH  23  25
ENDBRANCH  22  23
ENDBRANCH  21  22
ENDBRANCH  20  21
ENDBRANCH   1  20
TORSDOF 20
