REMARK SMILES C[C@@H](Oc1cncc(C(=O)OCCOC(=O)c2ccc(-c3c4nc(c(-c5c(F)cc(S(=O)(=O)[O-])cc5F)c5ccc([nH]5)c(-c5c(F)cc(S(=O)(=O)[O-])cc5F)c5nc(c(-c6c(F)cc(S(=O)(=O)[O-])cc6F)c6ccc3[nH]6)C=C5)C=C4)cc2)n1)C(F)(F)F
REMARK SMILES IDX 12 1 11 2 9 3 10 4 8 5 4 6 5 7 83 8 6 9 7 10 3 11 2 12 1 13
REMARK SMILES IDX 84 14 85 15 86 16 87 17 13 18 14 19 15 20 16 21 17 22 18 23
REMARK SMILES IDX 82 24 19 25 81 26 20 27 21 28 22 29 75 30 23 31 80 32 74 33
REMARK SMILES IDX 76 34 24 35 79 36 73 37 72 38 25 40 59 41 38 42 58 43 39 44
REMARK SMILES IDX 42 45 57 46 77 47 40 48 41 49 56 51 78 52 43 53 26 54 27 55
REMARK SMILES IDX 36 56 28 57 29 58 35 59 37 60 30 61 31 62 32 63 33 64 34 65
REMARK SMILES IDX 60 66 61 67 70 68 62 69 63 70 69 71 71 72 64 73 65 74 66 75
REMARK SMILES IDX 67 76 68 77 44 78 45 79 54 80 46 81 47 82 53 83 55 84 48 85
REMARK SMILES IDX 49 86 50 87 51 88 52 89
REMARK H PARENT 76 39 42 50
REMARK Flexibility Score: inf
ROOT
ATOM      1  C   UNL     1       4.266  -3.130  -6.536  1.00  0.00     0.275 C 
ENDROOT
BRANCH   1   2
ATOM      2  O   UNL     1       3.741  -2.521  -5.336  1.00  0.00    -0.457 OA
BRANCH   2   3
ATOM      3  C   UNL     1       4.183  -3.080  -4.179  1.00  0.00     0.358 C 
ATOM      4  O   UNL     1       4.977  -4.004  -4.095  1.00  0.00    -0.244 OA
BRANCH   3   5
ATOM      5  C   UNL     1       3.659  -2.404  -2.968  1.00  0.00     0.170 A 
ATOM      6  C   UNL     1       1.957  -1.611  -1.671  1.00  0.00     0.233 A 
ATOM      7  C   UNL     1       2.813  -1.581  -0.572  1.00  0.00     0.179 A 
ATOM      8  N   UNL     1       2.353  -2.017  -2.901  1.00  0.00    -0.203 NA
ATOM      9  N   UNL     1       4.117  -1.904  -0.652  1.00  0.00    -0.257 NA
ATOM     10  C   UNL     1       4.510  -2.345  -1.867  1.00  0.00     0.147 A 
BRANCH   6  11
ATOM     11  O   UNL     1       0.608  -1.458  -1.480  1.00  0.00    -0.464 OA
BRANCH  11  12
ATOM     12  C   UNL     1       0.199  -0.079  -1.380  1.00  0.00     0.277 C 
ATOM     13  C   UNL     1       0.400   0.446   0.046  1.00  0.00     0.063 C 
BRANCH  12  14
ATOM     14  C   UNL     1      -1.290   0.003  -1.730  1.00  0.00     0.425 C 
ATOM     15  F   UNL     1      -1.737   1.280  -1.648  1.00  0.00    -0.167 F 
ATOM     16  F   UNL     1      -1.538  -0.423  -2.988  1.00  0.00    -0.167 F 
ATOM     17  F   UNL     1      -2.045  -0.739  -0.886  1.00  0.00    -0.167 F 
ENDBRANCH  12  14
ENDBRANCH  11  12
ENDBRANCH   6  11
ENDBRANCH   3   5
ENDBRANCH   2   3
ENDBRANCH   1   2
BRANCH   1  18
ATOM     18  C   UNL     1       5.463  -2.360  -7.097  1.00  0.00     0.275 C 
BRANCH  18  19
ATOM     19  O   UNL     1       6.556  -2.363  -6.160  1.00  0.00    -0.458 OA
BRANCH  19  20
ATOM     20  C   UNL     1       6.959  -1.147  -5.728  1.00  0.00     0.338 C 
ATOM     21  O   UNL     1       6.514  -0.060  -6.067  1.00  0.00    -0.246 OA
BRANCH  20  22
ATOM     22  C   UNL     1       8.025  -1.276  -4.718  1.00  0.00     0.060 A 
ATOM     23  C   UNL     1       7.791  -2.014  -3.563  1.00  0.00     0.016 A 
ATOM     24  C   UNL     1       9.190  -0.518  -4.830  1.00  0.00     0.016 A 
ATOM     25  C   UNL     1       8.639  -1.881  -2.463  1.00  0.00     0.010 A 
ATOM     26  C   UNL     1      10.108  -0.493  -3.772  1.00  0.00     0.010 A 
ATOM     27  C   UNL     1       9.820  -1.128  -2.549  1.00  0.00    -0.014 A 
BRANCH  27  28
ATOM     28  C   UNL     1      10.720  -0.967  -1.362  1.00  0.00     0.031 A 
ATOM     29  C   UNL     1      11.123   0.412  -0.887  1.00  0.00     0.074 A 
ATOM     30  C   UNL     1      11.172  -2.043  -0.683  1.00  0.00     0.049 A 
ATOM     31  N   UNL     1      12.044   0.753  -0.020  1.00  0.00    -0.248 NA
ATOM     32  C   UNL     1      10.414   1.557  -1.479  1.00  0.00     0.031 C 
ATOM     33  C   UNL     1      10.851  -3.439  -0.987  1.00  0.00     0.029 A 
ATOM     34  N   UNL     1      11.994  -2.132   0.416  1.00  0.00    -0.354 N 
ATOM     35  C   UNL     1      12.078   2.145  -0.022  1.00  0.00     0.074 A 
ATOM     36  C   UNL     1      11.078   2.586  -0.970  1.00  0.00     0.031 C 
ATOM     37  C   UNL     1      11.412  -4.235  -0.066  1.00  0.00     0.029 A 
ATOM     38  C   UNL     1      12.222  -3.422   0.834  1.00  0.00     0.049 A 
ATOM     39  H   UNL     1      12.382  -1.345   0.863  1.00  0.00     0.167 HD
ATOM     40  C   UNL     1      12.870   2.978   0.697  1.00  0.00     0.037 A 
ATOM     41  C   UNL     1      13.025  -3.913   1.799  1.00  0.00     0.037 A 
ATOM     42  C   UNL     1      13.805   2.544   1.704  1.00  0.00     0.049 A 
ATOM     43  C   UNL     1      13.882  -2.973   2.596  1.00  0.00     0.074 A 
ATOM     44  C   UNL     1      14.640   3.315   2.495  1.00  0.00     0.029 A 
ATOM     45  N   UNL     1      14.008   1.225   2.081  1.00  0.00    -0.354 N 
ATOM     46  N   UNL     1      13.965  -1.667   2.515  1.00  0.00    -0.248 NA
ATOM     47  C   UNL     1      14.778  -3.575   3.593  1.00  0.00     0.031 C 
ATOM     48  C   UNL     1      15.363   2.461   3.336  1.00  0.00     0.029 A 
ATOM     49  C   UNL     1      14.954   1.161   3.091  1.00  0.00     0.049 A 
ATOM     50  H   UNL     1      13.547   0.448   1.689  1.00  0.00     0.167 HD
ATOM     51  C   UNL     1      14.922  -1.291   3.449  1.00  0.00     0.074 A 
ATOM     52  C   UNL     1      15.373  -2.504   4.101  1.00  0.00     0.031 C 
ATOM     53  C   UNL     1      15.394  -0.052   3.732  1.00  0.00     0.037 A 
BRANCH  40  54
ATOM     54  C   UNL     1      12.789   4.451   0.401  1.00  0.00     0.058 A 
ATOM     55  C   UNL     1      11.709   5.241   0.822  1.00  0.00     0.135 A 
ATOM     56  C   UNL     1      13.837   5.089  -0.286  1.00  0.00     0.135 A 
ATOM     57  F   UNL     1      10.674   4.681   1.469  1.00  0.00    -0.206 F 
ATOM     58  C   UNL     1      11.656   6.606   0.550  1.00  0.00     0.059 A 
ATOM     59  C   UNL     1      13.817   6.455  -0.548  1.00  0.00     0.059 A 
ATOM     60  F   UNL     1      14.896   4.381  -0.709  1.00  0.00    -0.206 F 
ATOM     61  C   UNL     1      12.714   7.203  -0.139  1.00  0.00     0.060 A 
BRANCH  61  62
ATOM     62  S   UNL     1      12.635   8.973  -0.488  1.00  0.00     0.124 S 
ATOM     63  O   UNL     1      11.696   9.007  -1.604  1.00  0.00    -0.237 OA
ATOM     64  O   UNL     1      12.142   9.522   0.771  1.00  0.00    -0.237 OA
ATOM     65  O   UNL     1      14.015   9.316  -0.818  1.00  0.00    -0.744 OA
ENDBRANCH  61  62
ENDBRANCH  40  54
BRANCH  41  66
ATOM     66  C   UNL     1      13.087  -5.382   2.028  1.00  0.00     0.058 A 
ATOM     67  C   UNL     1      12.534  -5.957   3.181  1.00  0.00     0.135 A 
ATOM     68  C   UNL     1      13.669  -6.240   1.081  1.00  0.00     0.135 A 
ATOM     69  F   UNL     1      11.981  -5.176   4.121  1.00  0.00    -0.206 F 
ATOM     70  C   UNL     1      12.552  -7.333   3.387  1.00  0.00     0.059 A 
ATOM     71  C   UNL     1      13.674  -7.620   1.252  1.00  0.00     0.059 A 
ATOM     72  F   UNL     1      14.202  -5.738  -0.043  1.00  0.00    -0.206 F 
ATOM     73  C   UNL     1      13.119  -8.157   2.412  1.00  0.00     0.060 A 
BRANCH  73  74
ATOM     74  S   UNL     1      13.068  -9.948   2.642  1.00  0.00     0.124 S 
ATOM     75  O   UNL     1      14.174 -10.155   3.568  1.00  0.00    -0.237 OA
ATOM     76  O   UNL     1      11.730 -10.154   3.189  1.00  0.00    -0.237 OA
ATOM     77  O   UNL     1      13.267 -10.461   1.290  1.00  0.00    -0.744 OA
ENDBRANCH  73  74
ENDBRANCH  41  66
BRANCH  53  78
ATOM     78  C   UNL     1      16.437   0.054   4.806  1.00  0.00     0.058 A 
ATOM     79  C   UNL     1      17.772  -0.308   4.568  1.00  0.00     0.135 A 
ATOM     80  C   UNL     1      16.106   0.551   6.076  1.00  0.00     0.135 A 
ATOM     81  F   UNL     1      18.136  -0.796   3.371  1.00  0.00    -0.206 F 
ATOM     82  C   UNL     1      18.740  -0.203   5.561  1.00  0.00     0.059 A 
ATOM     83  C   UNL     1      17.061   0.683   7.078  1.00  0.00     0.059 A 
ATOM     84  F   UNL     1      14.844   0.917   6.350  1.00  0.00    -0.206 F 
ATOM     85  C   UNL     1      18.374   0.291   6.814  1.00  0.00     0.060 A 
BRANCH  85  86
ATOM     86  S   UNL     1      19.641   0.445   8.092  1.00  0.00     0.124 S 
ATOM     87  O   UNL     1      19.776  -0.937   8.539  1.00  0.00    -0.237 OA
ATOM     88  O   UNL     1      20.776   0.984   7.348  1.00  0.00    -0.237 OA
ATOM     89  O   UNL     1      19.039   1.363   9.055  1.00  0.00    -0.744 OA
ENDBRANCH  85  86
ENDBRANCH  53  78
ENDBRANCH  27  28
ENDBRANCH  20  22
ENDBRANCH  19  20
ENDBRANCH  18  19
ENDBRANCH   1  18
TORSDOF 17
