REMARK SMILES O=C(OCCOC(=O)c1ccccc1O[C@H]1CCOC2(CCSCC2)C1)c1ccc(-c2c3nc(c(-c4c(F)cc(S(=O)(=O)[O-])cc4F)c4ccc([nH]4)c(-c4c(F)cc(S(=O)(=O)[O-])cc4F)c4nc(c(-c5c(F)cc(S(=O)(=O)[O-])cc5F)c5ccc2[nH]5)C=C4)C=C3)cc1
REMARK SMILES IDX 4 1 3 2 2 3 1 4 27 5 28 6 92 7 29 8 91 9 30 10 31 11 32 12
REMARK SMILES IDX 85 13 33 14 90 15 84 16 86 17 34 18 89 19 83 20 82 21 35 23
REMARK SMILES IDX 69 24 48 25 68 26 49 27 52 28 67 29 87 30 50 31 51 32 66 34
REMARK SMILES IDX 88 35 53 36 36 37 37 38 46 39 38 40 39 41 45 42 47 43 40 44
REMARK SMILES IDX 41 45 42 46 43 47 44 48 70 49 71 50 80 51 72 52 73 53 79 54
REMARK SMILES IDX 81 55 74 56 75 57 76 58 77 59 78 60 54 61 55 62 64 63 56 64
REMARK SMILES IDX 57 65 63 66 65 67 58 68 59 69 60 70 61 71 62 72 5 73 6 74
REMARK SMILES IDX 7 75 8 76 9 77 10 78 14 79 11 80 13 81 12 82 15 83 16 84
REMARK SMILES IDX 17 85 26 86 18 87 20 88 19 89 21 90 25 91 22 92 24 93 23 94
REMARK H PARENT 86 22 52 33
REMARK Flexibility Score: inf
ROOT
ATOM      1  C   UNL     1      10.912  -4.010  -1.917  1.00  0.00     0.275 C 
ENDROOT
BRANCH   1   2
ATOM      2  O   UNL     1      10.786  -5.394  -2.295  1.00  0.00    -0.458 OA
BRANCH   2   3
ATOM      3  C   UNL     1       9.955  -6.369  -1.859  1.00  0.00     0.338 C 
ATOM      4  O   UNL     1      10.187  -7.518  -2.241  1.00  0.00    -0.246 OA
BRANCH   3   5
ATOM      5  C   UNL     1       8.723  -6.167  -1.012  1.00  0.00     0.060 A 
ATOM      6  C   UNL     1       8.310  -4.986  -0.393  1.00  0.00     0.016 A 
ATOM      7  C   UNL     1       7.876  -7.289  -0.872  1.00  0.00     0.016 A 
ATOM      8  C   UNL     1       7.098  -4.914   0.310  1.00  0.00     0.010 A 
ATOM      9  C   UNL     1       6.665  -7.228  -0.166  1.00  0.00     0.010 A 
ATOM     10  C   UNL     1       6.273  -6.036   0.439  1.00  0.00    -0.014 A 
BRANCH  10  11
ATOM     11  C   UNL     1       5.116  -5.965   1.365  1.00  0.00     0.031 A 
ATOM     12  C   UNL     1       5.343  -6.313   2.794  1.00  0.00     0.074 A 
ATOM     13  C   UNL     1       3.884  -5.619   0.949  1.00  0.00     0.049 A 
ATOM     14  N   UNL     1       4.517  -6.209   3.796  1.00  0.00    -0.248 NA
ATOM     15  C   UNL     1       6.627  -6.953   3.118  1.00  0.00     0.031 C 
ATOM     16  C   UNL     1       3.497  -5.543  -0.444  1.00  0.00     0.029 A 
ATOM     17  N   UNL     1       2.747  -5.235   1.621  1.00  0.00    -0.354 N 
ATOM     18  C   UNL     1       5.130  -6.875   4.843  1.00  0.00     0.074 A 
ATOM     19  C   UNL     1       6.420  -7.328   4.370  1.00  0.00     0.031 C 
ATOM     20  C   UNL     1       2.280  -4.979  -0.539  1.00  0.00     0.029 A 
ATOM     21  C   UNL     1       1.798  -4.656   0.792  1.00  0.00     0.049 A 
ATOM     22  H   UNL     1       2.620  -5.358   2.590  1.00  0.00     0.167 HD
ATOM     23  C   UNL     1       4.611  -7.138   6.063  1.00  0.00     0.037 A 
ATOM     24  C   UNL     1       0.722  -3.895   1.101  1.00  0.00     0.037 A 
ATOM     25  C   UNL     1       3.307  -6.689   6.474  1.00  0.00     0.049 A 
ATOM     26  C   UNL     1       0.326  -3.882   2.554  1.00  0.00     0.074 A 
ATOM     27  C   UNL     1       2.657  -6.900   7.674  1.00  0.00     0.029 A 
ATOM     28  N   UNL     1       2.448  -5.934   5.681  1.00  0.00    -0.354 N 
ATOM     29  N   UNL     1       0.943  -4.445   3.566  1.00  0.00    -0.248 NA
ATOM     30  C   UNL     1      -0.940  -3.226   2.905  1.00  0.00     0.031 C 
ATOM     31  C   UNL     1       1.395  -6.300   7.596  1.00  0.00     0.029 A 
ATOM     32  C   UNL     1       1.279  -5.665   6.369  1.00  0.00     0.049 A 
ATOM     33  H   UNL     1       2.645  -5.635   4.763  1.00  0.00     0.167 HD
ATOM     34  C   UNL     1       0.099  -4.295   4.652  1.00  0.00     0.074 A 
ATOM     35  C   UNL     1      -1.010  -3.472   4.206  1.00  0.00     0.031 C 
ATOM     36  C   UNL     1       0.188  -4.856   5.882  1.00  0.00     0.037 A 
BRANCH  23  37
ATOM     37  C   UNL     1       5.421  -8.022   6.964  1.00  0.00     0.058 A 
ATOM     38  C   UNL     1       6.645  -7.606   7.512  1.00  0.00     0.135 A 
ATOM     39  C   UNL     1       4.995  -9.333   7.230  1.00  0.00     0.135 A 
ATOM     40  F   UNL     1       7.119  -6.377   7.255  1.00  0.00    -0.206 F 
ATOM     41  C   UNL     1       7.435  -8.472   8.260  1.00  0.00     0.059 A 
ATOM     42  C   UNL     1       5.752 -10.204   8.005  1.00  0.00     0.059 A 
ATOM     43  F   UNL     1       3.842  -9.789   6.714  1.00  0.00    -0.206 F 
ATOM     44  C   UNL     1       6.981  -9.770   8.499  1.00  0.00     0.060 A 
BRANCH  44  45
ATOM     45  S   UNL     1       8.023 -10.881   9.465  1.00  0.00     0.124 S 
ATOM     46  O   UNL     1       9.089 -11.180   8.514  1.00  0.00    -0.237 OA
ATOM     47  O   UNL     1       8.402 -10.043  10.598  1.00  0.00    -0.237 OA
ATOM     48  O   UNL     1       7.132 -11.993   9.781  1.00  0.00    -0.744 OA
ENDBRANCH  44  45
ENDBRANCH  23  37
BRANCH  24  49
ATOM     49  C   UNL     1      -0.011  -3.053   0.093  1.00  0.00     0.058 A 
ATOM     50  C   UNL     1      -0.114  -1.655   0.278  1.00  0.00     0.135 A 
ATOM     51  C   UNL     1      -0.589  -3.567  -1.076  1.00  0.00     0.135 A 
ATOM     52  F   UNL     1       0.420  -1.084   1.369  1.00  0.00    -0.206 F 
ATOM     53  C   UNL     1      -0.746  -0.817  -0.643  1.00  0.00     0.059 A 
ATOM     54  C   UNL     1      -1.190  -2.746  -2.033  1.00  0.00     0.059 A 
ATOM     55  F   UNL     1      -0.558  -4.885  -1.323  1.00  0.00    -0.206 F 
ATOM     56  C   UNL     1      -1.274  -1.374  -1.804  1.00  0.00     0.060 A 
BRANCH  56  57
ATOM     57  S   UNL     1      -2.023  -0.290  -3.043  1.00  0.00     0.124 S 
ATOM     58  O   UNL     1      -3.333  -0.033  -2.458  1.00  0.00    -0.237 OA
ATOM     59  O   UNL     1      -1.099   0.838  -3.069  1.00  0.00    -0.237 OA
ATOM     60  O   UNL     1      -2.013  -1.116  -4.247  1.00  0.00    -0.744 OA
ENDBRANCH  56  57
ENDBRANCH  24  49
BRANCH  36  61
ATOM     61  C   UNL     1      -0.977  -4.637   6.798  1.00  0.00     0.058 A 
ATOM     62  C   UNL     1      -2.208  -5.273   6.568  1.00  0.00     0.135 A 
ATOM     63  C   UNL     1      -0.848  -3.831   7.937  1.00  0.00     0.135 A 
ATOM     64  F   UNL     1      -2.380  -6.048   5.485  1.00  0.00    -0.206 F 
ATOM     65  C   UNL     1      -3.284  -5.096   7.427  1.00  0.00     0.059 A 
ATOM     66  C   UNL     1      -1.902  -3.664   8.826  1.00  0.00     0.059 A 
ATOM     67  F   UNL     1       0.313  -3.211   8.199  1.00  0.00    -0.206 F 
ATOM     68  C   UNL     1      -3.119  -4.292   8.556  1.00  0.00     0.060 A 
BRANCH  68  69
ATOM     69  S   UNL     1      -4.512  -4.100   9.684  1.00  0.00     0.124 S 
ATOM     70  O   UNL     1      -5.399  -3.239   8.909  1.00  0.00    -0.237 OA
ATOM     71  O   UNL     1      -4.959  -5.477   9.863  1.00  0.00    -0.237 OA
ATOM     72  O   UNL     1      -3.911  -3.483  10.863  1.00  0.00    -0.744 OA
ENDBRANCH  68  69
ENDBRANCH  36  61
ENDBRANCH  10  11
ENDBRANCH   3   5
ENDBRANCH   2   3
ENDBRANCH   1   2
BRANCH   1  73
ATOM     73  C   UNL     1      10.073  -3.070  -2.787  1.00  0.00     0.275 C 
BRANCH  73  74
ATOM     74  O   UNL     1       8.713  -3.506  -2.877  1.00  0.00    -0.458 OA
BRANCH  74  75
ATOM     75  C   UNL     1       8.416  -4.249  -3.968  1.00  0.00     0.342 C 
ATOM     76  O   UNL     1       9.172  -4.506  -4.897  1.00  0.00    -0.246 OA
BRANCH  75  77
ATOM     77  C   UNL     1       7.090  -4.880  -3.837  1.00  0.00     0.102 A 
ATOM     78  C   UNL     1       7.041  -6.265  -4.097  1.00  0.00     0.019 A 
ATOM     79  C   UNL     1       5.926  -4.154  -3.544  1.00  0.00     0.134 A 
ATOM     80  C   UNL     1       5.830  -6.943  -4.073  1.00  0.00     0.001 A 
ATOM     81  C   UNL     1       4.708  -4.830  -3.687  1.00  0.00     0.047 A 
ATOM     82  C   UNL     1       4.660  -6.216  -3.906  1.00  0.00     0.004 A 
BRANCH  79  83
ATOM     83  O   UNL     1       6.077  -2.857  -3.119  1.00  0.00    -0.489 OA
BRANCH  83  84
ATOM     84  C   UNL     1       4.939  -2.046  -2.780  1.00  0.00     0.178 C 
ATOM     85  C   UNL     1       4.178  -2.538  -1.559  1.00  0.00     0.074 C 
ATOM     86  C   UNL     1       5.416  -0.625  -2.425  1.00  0.00     0.080 C 
ATOM     87  C   UNL     1       3.049  -1.612  -1.167  1.00  0.00     0.165 C 
ATOM     88  C   UNL     1       4.217   0.292  -2.072  1.00  0.00     0.073 C 
ATOM     89  O   UNL     1       3.498  -0.288  -0.978  1.00  0.00    -0.375 OA
ATOM     90  C   UNL     1       3.324   0.506  -3.319  1.00  0.00     0.046 C 
ATOM     91  C   UNL     1       4.707   1.639  -1.502  1.00  0.00     0.046 C 
ATOM     92  C   UNL     1       2.109   1.397  -3.098  1.00  0.00     0.072 C 
ATOM     93  C   UNL     1       3.558   2.578  -1.125  1.00  0.00     0.072 C 
ATOM     94  S   UNL     1       2.628   3.062  -2.601  1.00  0.00    -0.162 SA
ENDBRANCH  83  84
ENDBRANCH  79  83
ENDBRANCH  75  77
ENDBRANCH  74  75
ENDBRANCH  73  74
ENDBRANCH   1  73
TORSDOF 16
