REMARK SMILES CCCc1cc(OC(F)(F)F)cc2c1O[C@@H](C(F)(F)F)C(C(=O)OCCOC(=O)c1ccc(-c3c4nc(c(-c5c(F)cc(S(=O)(=O)[O-])cc5F)c5ccc([nH]5)c(-c5c(F)cc(S(=O)(=O)[O-])cc5F)c5nc(c(-c6c(F)cc(S(=O)(=O)[O-])cc6F)c6ccc3[nH]6)C=C5)C=C4)cc1)=C2
REMARK SMILES IDX 26 1 25 2 24 3 22 4 23 5 21 6 4 7 5 8 14 9 6 10 13 11 15 12
REMARK SMILES IDX 12 13 96 14 16 15 3 16 2 17 1 18 7 19 8 20 9 21 10 22 11 23
REMARK SMILES IDX 17 24 18 25 19 26 20 27 27 28 28 29 29 30 30 31 31 32 95 33
REMARK SMILES IDX 32 34 94 35 33 36 34 37 35 38 88 39 36 40 93 41 87 42 89 43
REMARK SMILES IDX 37 44 92 45 86 46 85 47 38 49 72 50 51 51 71 52 52 53 55 54
REMARK SMILES IDX 70 55 90 56 53 57 54 58 69 60 91 61 56 62 39 63 40 64 49 65
REMARK SMILES IDX 41 66 42 67 48 68 50 69 43 70 44 71 45 72 46 73 47 74 73 75
REMARK SMILES IDX 74 76 83 77 75 78 76 79 82 80 84 81 77 82 78 83 79 84 80 85
REMARK SMILES IDX 81 86 57 87 58 88 67 89 59 90 60 91 66 92 68 93 61 94 62 95
REMARK SMILES IDX 63 96 64 97 65 98
REMARK H PARENT 89 48 55 59
REMARK Flexibility Score: inf
ROOT
ATOM      1  C   UNL     1      -3.445  -4.444   9.289  1.00  0.00     0.275 C 
ENDROOT
BRANCH   1   2
ATOM      2  C   UNL     1      -1.977  -4.012   9.370  1.00  0.00     0.275 C 
BRANCH   2   3
ATOM      3  O   UNL     1      -1.558  -3.294   8.189  1.00  0.00    -0.459 OA
BRANCH   3   4
ATOM      4  C   UNL     1      -0.712  -3.963   7.361  1.00  0.00     0.338 C 
ATOM      5  O   UNL     1      -0.291  -5.086   7.554  1.00  0.00    -0.246 OA
BRANCH   4   6
ATOM      6  C   UNL     1      -0.364  -3.168   6.157  1.00  0.00     0.087 C 
ATOM      7  C   UNL     1       0.912  -1.100   2.728  1.00  0.00    -0.002 A 
ATOM      8  C   UNL     1       0.956   0.300   2.767  1.00  0.00     0.054 A 
ATOM      9  C   UNL     1       0.536  -1.775   3.900  1.00  0.00     0.131 A 
ATOM     10  C   UNL     1       0.533   1.015   3.890  1.00  0.00     0.130 A 
ATOM     11  C   UNL     1       0.086  -1.082   5.031  1.00  0.00     0.021 A 
ATOM     12  O   UNL     1       0.746  -3.125   3.941  1.00  0.00    -0.475 OA
ATOM     13  C   UNL     1       0.070   0.317   5.009  1.00  0.00     0.058 A 
ATOM     14  C   UNL     1      -0.290  -1.827   6.233  1.00  0.00     0.027 C 
ATOM     15  C   UNL     1      -0.091  -3.890   4.848  1.00  0.00     0.316 C 
BRANCH   7  16
ATOM     16  C   UNL     1       1.323  -1.851   1.475  1.00  0.00     0.039 C 
BRANCH  16  17
ATOM     17  C   UNL     1       0.571  -1.494   0.179  1.00  0.00     0.001 C 
ATOM     18  C   UNL     1       0.966  -0.171  -0.466  1.00  0.00     0.004 C 
ENDBRANCH  16  17
ENDBRANCH   7  16
BRANCH  10  19
ATOM     19  O   UNL     1       0.540   2.377   4.016  1.00  0.00    -0.406 OA
BRANCH  19  20
ATOM     20  C   UNL     1       1.052   3.134   2.929  1.00  0.00     0.573 C 
ATOM     21  F   UNL     1       2.340   2.818   2.673  1.00  0.00    -0.132 F 
ATOM     22  F   UNL     1       0.312   2.953   1.814  1.00  0.00    -0.132 F 
ATOM     23  F   UNL     1       1.005   4.446   3.253  1.00  0.00    -0.132 F 
ENDBRANCH  19  20
ENDBRANCH  10  19
BRANCH  15  24
ATOM     24  C   UNL     1       0.489  -5.319   4.889  1.00  0.00     0.430 C 
ATOM     25  F   UNL     1      -0.403  -6.219   5.356  1.00  0.00    -0.167 F 
ATOM     26  F   UNL     1       0.798  -5.731   3.631  1.00  0.00    -0.167 F 
ATOM     27  F   UNL     1       1.621  -5.396   5.620  1.00  0.00    -0.167 F 
ENDBRANCH  15  24
ENDBRANCH   4   6
ENDBRANCH   3   4
ENDBRANCH   2   3
ENDBRANCH   1   2
BRANCH   1  28
ATOM     28  O   UNL     1      -3.673  -5.380   8.220  1.00  0.00    -0.458 OA
BRANCH  28  29
ATOM     29  C   UNL     1      -4.061  -4.822   7.048  1.00  0.00     0.338 C 
ATOM     30  O   UNL     1      -4.268  -3.636   6.840  1.00  0.00    -0.246 OA
BRANCH  29  31
ATOM     31  C   UNL     1      -4.007  -5.825   5.966  1.00  0.00     0.060 A 
ATOM     32  C   UNL     1      -3.358  -5.440   4.790  1.00  0.00     0.016 A 
ATOM     33  C   UNL     1      -4.575  -7.095   6.066  1.00  0.00     0.016 A 
ATOM     34  C   UNL     1      -3.187  -6.342   3.743  1.00  0.00     0.010 A 
ATOM     35  C   UNL     1      -4.463  -7.983   4.987  1.00  0.00     0.010 A 
ATOM     36  C   UNL     1      -3.753  -7.618   3.828  1.00  0.00    -0.014 A 
BRANCH  36  37
ATOM     37  C   UNL     1      -3.710  -8.514   2.648  1.00  0.00     0.031 A 
ATOM     38  C   UNL     1      -4.814  -8.428   1.635  1.00  0.00     0.074 A 
ATOM     39  C   UNL     1      -2.686  -9.368   2.463  1.00  0.00     0.049 A 
ATOM     40  N   UNL     1      -5.029  -9.166   0.578  1.00  0.00    -0.248 NA
ATOM     41  C   UNL     1      -5.801  -7.354   1.834  1.00  0.00     0.031 C 
ATOM     42  C   UNL     1      -1.506  -9.470   3.320  1.00  0.00     0.029 A 
ATOM     43  N   UNL     1      -2.480 -10.318   1.493  1.00  0.00    -0.354 N 
ATOM     44  C   UNL     1      -6.177  -8.652  -0.013  1.00  0.00     0.074 A 
ATOM     45  C   UNL     1      -6.618  -7.545   0.809  1.00  0.00     0.031 C 
ATOM     46  C   UNL     1      -0.712 -10.451   2.853  1.00  0.00     0.029 A 
ATOM     47  C   UNL     1      -1.348 -11.074   1.693  1.00  0.00     0.049 A 
ATOM     48  H   UNL     1      -3.086 -10.447   0.728  1.00  0.00     0.167 HD
ATOM     49  C   UNL     1      -6.807  -9.071  -1.135  1.00  0.00     0.037 A 
ATOM     50  C   UNL     1      -0.900 -12.164   1.036  1.00  0.00     0.037 A 
ATOM     51  C   UNL     1      -6.376 -10.192  -1.929  1.00  0.00     0.049 A 
ATOM     52  C   UNL     1      -1.691 -12.694  -0.137  1.00  0.00     0.074 A 
ATOM     53  C   UNL     1      -6.966 -10.717  -3.065  1.00  0.00     0.029 A 
ATOM     54  N   UNL     1      -5.257 -10.968  -1.664  1.00  0.00    -0.354 N 
ATOM     55  N   UNL     1      -2.788 -12.215  -0.678  1.00  0.00    -0.248 NA
ATOM     56  C   UNL     1      -1.190 -13.914  -0.788  1.00  0.00     0.031 C 
ATOM     57  C   UNL     1      -6.238 -11.846  -3.452  1.00  0.00     0.029 A 
ATOM     58  C   UNL     1      -5.154 -11.983  -2.600  1.00  0.00     0.049 A 
ATOM     59  H   UNL     1      -4.630 -10.820  -0.920  1.00  0.00     0.167 HD
ATOM     60  C   UNL     1      -3.079 -13.048  -1.755  1.00  0.00     0.074 A 
ATOM     61  C   UNL     1      -2.048 -14.063  -1.788  1.00  0.00     0.031 C 
ATOM     62  C   UNL     1      -4.104 -12.972  -2.641  1.00  0.00     0.037 A 
BRANCH  49  63
ATOM     63  C   UNL     1      -8.061  -8.347  -1.538  1.00  0.00     0.058 A 
ATOM     64  C   UNL     1      -8.032  -7.043  -2.056  1.00  0.00     0.135 A 
ATOM     65  C   UNL     1      -9.310  -8.980  -1.426  1.00  0.00     0.135 A 
ATOM     66  F   UNL     1      -6.867  -6.383  -2.163  1.00  0.00    -0.206 F 
ATOM     67  C   UNL     1      -9.199  -6.382  -2.425  1.00  0.00     0.059 A 
ATOM     68  C   UNL     1     -10.487  -8.350  -1.817  1.00  0.00     0.059 A 
ATOM     69  F   UNL     1      -9.395 -10.226  -0.932  1.00  0.00    -0.206 F 
ATOM     70  C   UNL     1     -10.422  -7.045  -2.302  1.00  0.00     0.060 A 
BRANCH  70  71
ATOM     71  S   UNL     1     -11.927  -6.173  -2.783  1.00  0.00     0.124 S 
ATOM     72  O   UNL     1     -12.040  -5.179  -1.719  1.00  0.00    -0.237 OA
ATOM     73  O   UNL     1     -11.577  -5.653  -4.101  1.00  0.00    -0.237 OA
ATOM     74  O   UNL     1     -12.946  -7.218  -2.773  1.00  0.00    -0.744 OA
ENDBRANCH  70  71
ENDBRANCH  49  63
BRANCH  50  75
ATOM     75  C   UNL     1       0.338 -12.861   1.488  1.00  0.00     0.058 A 
ATOM     76  C   UNL     1       1.486 -12.902   0.683  1.00  0.00     0.135 A 
ATOM     77  C   UNL     1       0.386 -13.528   2.723  1.00  0.00     0.135 A 
ATOM     78  F   UNL     1       1.488 -12.297  -0.515  1.00  0.00    -0.206 F 
ATOM     79  C   UNL     1       2.629 -13.595   1.075  1.00  0.00     0.059 A 
ATOM     80  C   UNL     1       1.526 -14.202   3.150  1.00  0.00     0.059 A 
ATOM     81  F   UNL     1      -0.684 -13.521   3.534  1.00  0.00    -0.206 F 
ATOM     82  C   UNL     1       2.639 -14.241   2.312  1.00  0.00     0.060 A 
BRANCH  82  83
ATOM     83  S   UNL     1       4.136 -15.116   2.821  1.00  0.00     0.124 S 
ATOM     84  O   UNL     1       4.126 -16.264   1.922  1.00  0.00    -0.237 OA
ATOM     85  O   UNL     1       5.172 -14.120   2.573  1.00  0.00    -0.237 OA
ATOM     86  O   UNL     1       3.888 -15.417   4.228  1.00  0.00    -0.744 OA
ENDBRANCH  82  83
ENDBRANCH  50  75
BRANCH  62  87
ATOM     87  C   UNL     1      -4.140 -13.966  -3.772  1.00  0.00     0.058 A 
ATOM     88  C   UNL     1      -4.487 -15.310  -3.576  1.00  0.00     0.135 A 
ATOM     89  C   UNL     1      -3.920 -13.533  -5.092  1.00  0.00     0.135 A 
ATOM     90  F   UNL     1      -4.702 -15.779  -2.336  1.00  0.00    -0.206 F 
ATOM     91  C   UNL     1      -4.610 -16.193  -4.646  1.00  0.00     0.059 A 
ATOM     92  C   UNL     1      -4.066 -14.390  -6.178  1.00  0.00     0.059 A 
ATOM     93  F   UNL     1      -3.594 -12.254  -5.338  1.00  0.00    -0.206 F 
ATOM     94  C   UNL     1      -4.408 -15.720  -5.945  1.00  0.00     0.060 A 
BRANCH  94  95
ATOM     95  S   UNL     1      -4.642 -16.858  -7.327  1.00  0.00     0.124 S 
ATOM     96  O   UNL     1      -3.478 -17.727  -7.197  1.00  0.00    -0.237 OA
ATOM     97  O   UNL     1      -5.929 -17.471  -7.011  1.00  0.00    -0.237 OA
ATOM     98  O   UNL     1      -4.643 -15.982  -8.495  1.00  0.00    -0.744 OA
ENDBRANCH  94  95
ENDBRANCH  62  87
ENDBRANCH  36  37
ENDBRANCH  29  31
ENDBRANCH  28  29
ENDBRANCH   1  28
TORSDOF 19
