REMARK SMILES Cc1ccc([C@H](C)Nc2ccc(C(=O)OCCOC(=O)c3ccc(-c4c5nc(c(-c6c(F)cc(S(=O)(=O)[O-])cc6F)c6ccc([nH]6)c(-c6c(F)cc(S(=O)(=O)[O-])cc6F)c6nc(c(-c7c(F)cc(S(=O)(=O)[O-])cc7F)c7ccc4[nH]7)C=C6)C=C5)cc3)cc2Cl)cc1F
REMARK SMILES IDX 16 1 15 2 13 3 14 4 12 5 9 6 10 7 88 8 11 9 87 10 89 11 8 12
REMARK SMILES IDX 6 14 7 15 5 16 1 17 2 18 3 19 91 20 4 21 90 22 92 23 17 24
REMARK SMILES IDX 18 25 19 26 20 27 21 28 22 29 86 30 23 31 85 32 24 33 25 34
REMARK SMILES IDX 26 35 79 36 27 37 84 38 78 39 80 40 28 41 83 42 77 43 76 44
REMARK SMILES IDX 29 46 63 47 42 48 62 49 43 50 46 51 61 52 81 53 44 54 45 55
REMARK SMILES IDX 60 57 82 58 47 59 30 60 31 61 40 62 32 63 33 64 39 65 41 66
REMARK SMILES IDX 34 67 35 68 36 69 37 70 38 71 64 72 65 73 74 74 66 75 67 76
REMARK SMILES IDX 73 77 75 78 68 79 69 80 70 81 71 82 72 83 48 84 49 85 58 86
REMARK SMILES IDX 50 87 51 88 57 89 59 90 52 91 53 92 54 93 55 94 56 95
REMARK H PARENT 8 13 80 45 46 56
REMARK Flexibility Score: inf
ROOT
ATOM      1  C   UNL     1      -9.718  -1.129   5.520  1.00  0.00     0.275 C 
ENDROOT
BRANCH   1   2
ATOM      2  O   UNL     1      -8.696  -1.226   4.507  1.00  0.00    -0.458 OA
BRANCH   2   3
ATOM      3  C   UNL     1      -7.453  -0.788   4.845  1.00  0.00     0.338 C 
ATOM      4  O   UNL     1      -7.165  -0.209   5.886  1.00  0.00    -0.246 OA
BRANCH   3   5
ATOM      5  C   UNL     1      -6.439  -1.129   3.808  1.00  0.00     0.061 A 
ATOM      6  C   UNL     1      -4.438  -1.795   1.896  1.00  0.00     0.053 A 
ATOM      7  C   UNL     1      -4.112  -1.519   3.233  1.00  0.00     0.028 A 
ATOM      8  C   UNL     1      -5.804  -1.740   1.544  1.00  0.00     0.065 A 
ATOM      9  C   UNL     1      -5.088  -1.156   4.169  1.00  0.00     0.018 A 
ATOM     10  C   UNL     1      -6.792  -1.427   2.492  1.00  0.00     0.038 A 
ATOM     11  Cl  UNL     1      -6.377  -2.025  -0.065  1.00  0.00    -0.082 Cl
BRANCH   6  12
ATOM     12  N   UNL     1      -3.414  -2.310   1.099  1.00  0.00    -0.377 N 
ATOM     13  H   UNL     1      -2.931  -3.107   1.417  1.00  0.00     0.161 HD
BRANCH  12  14
ATOM     14  C   UNL     1      -3.023  -1.730  -0.176  1.00  0.00     0.106 C 
ATOM     15  C   UNL     1      -1.783  -0.863   0.098  1.00  0.00     0.036 C 
BRANCH  14  16
ATOM     16  C   UNL     1      -2.830  -2.799  -1.259  1.00  0.00    -0.023 A 
ATOM     17  C   UNL     1      -2.793  -5.526  -4.640  1.00  0.00     0.047 C 
ATOM     18  C   UNL     1      -2.749  -4.613  -3.455  1.00  0.00    -0.015 A 
ATOM     19  C   UNL     1      -1.823  -3.573  -3.359  1.00  0.00     0.007 A 
ATOM     20  C   UNL     1      -3.686  -4.759  -2.435  1.00  0.00     0.126 A 
ATOM     21  C   UNL     1      -1.866  -2.679  -2.278  1.00  0.00     0.006 A 
ATOM     22  C   UNL     1      -3.724  -3.881  -1.355  1.00  0.00     0.045 A 
ATOM     23  F   UNL     1      -4.597  -5.740  -2.517  1.00  0.00    -0.207 F 
ENDBRANCH  14  16
ENDBRANCH  12  14
ENDBRANCH   6  12
ENDBRANCH   3   5
ENDBRANCH   2   3
ENDBRANCH   1   2
BRANCH   1  24
ATOM     24  C   UNL     1      -9.849  -2.371   6.412  1.00  0.00     0.275 C 
BRANCH  24  25
ATOM     25  O   UNL     1      -8.708  -2.567   7.253  1.00  0.00    -0.458 OA
BRANCH  25  26
ATOM     26  C   UNL     1      -7.732  -3.238   6.597  1.00  0.00     0.338 C 
ATOM     27  O   UNL     1      -7.751  -3.567   5.425  1.00  0.00    -0.246 OA
BRANCH  26  28
ATOM     28  C   UNL     1      -6.671  -3.689   7.487  1.00  0.00     0.060 A 
ATOM     29  C   UNL     1      -5.397  -3.850   6.922  1.00  0.00     0.016 A 
ATOM     30  C   UNL     1      -7.063  -4.356   8.643  1.00  0.00     0.016 A 
ATOM     31  C   UNL     1      -4.561  -4.844   7.397  1.00  0.00     0.010 A 
ATOM     32  C   UNL     1      -6.241  -5.357   9.100  1.00  0.00     0.010 A 
ATOM     33  C   UNL     1      -5.041  -5.645   8.423  1.00  0.00    -0.014 A 
BRANCH  33  34
ATOM     34  C   UNL     1      -4.376  -6.844   8.887  1.00  0.00     0.031 A 
ATOM     35  C   UNL     1      -3.472  -6.742  10.043  1.00  0.00     0.074 A 
ATOM     36  C   UNL     1      -4.838  -8.034   8.449  1.00  0.00     0.049 A 
ATOM     37  N   UNL     1      -2.810  -7.726  10.542  1.00  0.00    -0.248 NA
ATOM     38  C   UNL     1      -3.198  -5.470  10.700  1.00  0.00     0.031 C 
ATOM     39  C   UNL     1      -4.799  -9.293   9.175  1.00  0.00     0.029 A 
ATOM     40  N   UNL     1      -5.287  -8.389   7.173  1.00  0.00    -0.354 N 
ATOM     41  C   UNL     1      -2.275  -7.306  11.739  1.00  0.00     0.074 A 
ATOM     42  C   UNL     1      -2.440  -5.872  11.723  1.00  0.00     0.031 C 
ATOM     43  C   UNL     1      -4.944 -10.298   8.300  1.00  0.00     0.029 A 
ATOM     44  C   UNL     1      -4.862  -9.716   6.971  1.00  0.00     0.049 A 
ATOM     45  H   UNL     1      -5.795  -7.827   6.546  1.00  0.00     0.167 HD
ATOM     46  C   UNL     1      -1.879  -8.253  12.639  1.00  0.00     0.037 A 
ATOM     47  C   UNL     1      -3.969 -10.107   6.010  1.00  0.00     0.037 A 
ATOM     48  C   UNL     1      -1.943  -9.588  12.037  1.00  0.00     0.049 A 
ATOM     49  C   UNL     1      -2.716 -10.761   6.560  1.00  0.00     0.074 A 
ATOM     50  C   UNL     1      -2.863 -10.623  12.051  1.00  0.00     0.029 A 
ATOM     51  N   UNL     1      -1.040  -9.892  11.039  1.00  0.00    -0.354 N 
ATOM     52  N   UNL     1      -2.469 -10.917   7.830  1.00  0.00    -0.248 NA
ATOM     53  C   UNL     1      -1.592 -11.193   5.725  1.00  0.00     0.031 C 
ATOM     54  C   UNL     1      -2.518 -11.530  11.004  1.00  0.00     0.029 A 
ATOM     55  C   UNL     1      -1.384 -11.050  10.373  1.00  0.00     0.049 A 
ATOM     56  H   UNL     1      -0.247  -9.349  10.829  1.00  0.00     0.167 HD
ATOM     57  C   UNL     1      -1.183 -11.346   7.996  1.00  0.00     0.074 A 
ATOM     58  C   UNL     1      -0.681 -11.544   6.650  1.00  0.00     0.031 C 
ATOM     59  C   UNL     1      -0.594 -11.442   9.219  1.00  0.00     0.037 A 
BRANCH  46  60
ATOM     60  C   UNL     1      -1.601  -8.048  14.116  1.00  0.00     0.058 A 
ATOM     61  C   UNL     1      -1.519  -9.171  14.975  1.00  0.00     0.135 A 
ATOM     62  C   UNL     1      -1.466  -6.810  14.777  1.00  0.00     0.135 A 
ATOM     63  F   UNL     1      -1.563 -10.423  14.499  1.00  0.00    -0.206 F 
ATOM     64  C   UNL     1      -1.399  -9.069  16.362  1.00  0.00     0.059 A 
ATOM     65  C   UNL     1      -1.364  -6.682  16.164  1.00  0.00     0.059 A 
ATOM     66  F   UNL     1      -1.394  -5.651  14.123  1.00  0.00    -0.206 F 
ATOM     67  C   UNL     1      -1.349  -7.817  16.953  1.00  0.00     0.060 A 
BRANCH  67  68
ATOM     68  S   UNL     1      -1.256  -7.693  18.745  1.00  0.00     0.124 S 
ATOM     69  O   UNL     1      -2.515  -8.308  19.155  1.00  0.00    -0.237 OA
ATOM     70  O   UNL     1      -0.048  -8.453  19.044  1.00  0.00    -0.237 OA
ATOM     71  O   UNL     1      -1.163  -6.255  18.983  1.00  0.00    -0.744 OA
ENDBRANCH  67  68
ENDBRANCH  46  60
BRANCH  47  72
ATOM     72  C   UNL     1      -3.990  -9.265   4.788  1.00  0.00     0.058 A 
ATOM     73  C   UNL     1      -5.110  -9.358   3.943  1.00  0.00     0.135 A 
ATOM     74  C   UNL     1      -3.202  -8.107   4.727  1.00  0.00     0.135 A 
ATOM     75  F   UNL     1      -5.867 -10.467   3.948  1.00  0.00    -0.206 F 
ATOM     76  C   UNL     1      -5.548  -8.263   3.211  1.00  0.00     0.059 A 
ATOM     77  C   UNL     1      -3.625  -7.001   4.004  1.00  0.00     0.059 A 
ATOM     78  F   UNL     1      -2.124  -7.977   5.513  1.00  0.00    -0.206 F 
ATOM     79  C   UNL     1      -4.834  -7.070   3.308  1.00  0.00     0.060 A 
BRANCH  79  80
ATOM     80  S   UNL     1      -5.629  -5.532   2.789  1.00  0.00     0.124 S 
ATOM     81  O   UNL     1      -5.194  -5.432   1.402  1.00  0.00    -0.237 OA
ATOM     82  O   UNL     1      -7.043  -5.824   2.998  1.00  0.00    -0.237 OA
ATOM     83  O   UNL     1      -5.033  -4.567   3.706  1.00  0.00    -0.744 OA
ENDBRANCH  79  80
ENDBRANCH  47  72
BRANCH  59  84
ATOM     84  C   UNL     1       0.818 -11.895   9.401  1.00  0.00     0.058 A 
ATOM     85  C   UNL     1       1.256 -13.134   8.914  1.00  0.00     0.135 A 
ATOM     86  C   UNL     1       1.730 -11.161  10.185  1.00  0.00     0.135 A 
ATOM     87  F   UNL     1       0.442 -13.901   8.170  1.00  0.00    -0.206 F 
ATOM     88  C   UNL     1       2.534 -13.619   9.185  1.00  0.00     0.059 A 
ATOM     89  C   UNL     1       2.992 -11.644  10.508  1.00  0.00     0.059 A 
ATOM     90  F   UNL     1       1.425  -9.935  10.639  1.00  0.00    -0.206 F 
ATOM     91  C   UNL     1       3.393 -12.869   9.989  1.00  0.00     0.060 A 
BRANCH  91  92
ATOM     92  S   UNL     1       5.035 -13.505  10.372  1.00  0.00     0.124 S 
ATOM     93  O   UNL     1       4.810 -14.945  10.460  1.00  0.00    -0.237 OA
ATOM     94  O   UNL     1       5.795 -13.055   9.210  1.00  0.00    -0.237 OA
ATOM     95  O   UNL     1       5.364 -12.850  11.633  1.00  0.00    -0.744 OA
ENDBRANCH  91  92
ENDBRANCH  59  84
ENDBRANCH  33  34
ENDBRANCH  26  28
ENDBRANCH  25  26
ENDBRANCH  24  25
ENDBRANCH   1  24
TORSDOF 17
