REMARK SMILES O=C(OCCOC(=O)c1ccc2nc(Cl)sc2c1)c1ccc(-c2c3nc(c(-c4c(F)cc(S(=O)(=O)[O-])cc4F)c4ccc([nH]4)c(-c4c(F)cc(S(=O)(=O)[O-])cc4F)c4nc(c(-c5c(F)cc(S(=O)(=O)[O-])cc5F)c5ccc2[nH]5)C=C4)C=C3)cc1
REMARK SMILES IDX 3 1 2 2 1 3 19 4 20 5 84 6 21 7 83 8 22 9 23 10 24 11 77 12
REMARK SMILES IDX 25 13 82 14 76 15 78 16 26 17 81 18 75 19 74 20 27 22 61 23
REMARK SMILES IDX 40 24 60 25 41 26 44 27 59 28 79 29 42 30 43 31 58 33 80 34
REMARK SMILES IDX 45 35 28 36 29 37 38 38 30 39 31 40 37 41 39 42 32 43 33 44
REMARK SMILES IDX 34 45 35 46 36 47 62 48 63 49 72 50 64 51 65 52 71 53 73 54
REMARK SMILES IDX 66 55 67 56 68 57 69 58 70 59 46 60 47 61 56 62 48 63 49 64
REMARK SMILES IDX 55 65 57 66 50 67 51 68 52 69 53 70 54 71 4 72 5 73 6 74
REMARK SMILES IDX 7 75 8 76 9 77 10 78 18 79 11 80 17 81 12 82 16 83 13 84
REMARK SMILES IDX 14 85 15 86
REMARK H PARENT 78 21 44 32
REMARK Flexibility Score: inf
ROOT
ATOM      1  O   UNL     1       3.434  -0.488  -0.449  1.00  0.00    -0.458 OA
ENDROOT
BRANCH   1   2
ATOM      2  C   UNL     1       3.264  -1.735   0.066  1.00  0.00     0.338 C 
ATOM      3  O   UNL     1       2.673  -2.578  -0.608  1.00  0.00    -0.246 OA
BRANCH   2   4
ATOM      4  C   UNL     1       3.524  -2.037   1.515  1.00  0.00     0.060 A 
ATOM      5  C   UNL     1       2.773  -3.070   2.113  1.00  0.00     0.016 A 
ATOM      6  C   UNL     1       4.397  -1.338   2.335  1.00  0.00     0.016 A 
ATOM      7  C   UNL     1       2.838  -3.334   3.497  1.00  0.00     0.010 A 
ATOM      8  C   UNL     1       4.418  -1.559   3.718  1.00  0.00     0.010 A 
ATOM      9  C   UNL     1       3.647  -2.563   4.331  1.00  0.00    -0.014 A 
BRANCH   9  10
ATOM     10  C   UNL     1       3.829  -2.965   5.776  1.00  0.00     0.031 A 
ATOM     11  C   UNL     1       5.269  -2.736   6.161  1.00  0.00     0.074 A 
ATOM     12  C   UNL     1       2.953  -2.595   6.742  1.00  0.00     0.049 A 
ATOM     13  N   UNL     1       5.793  -1.594   6.491  1.00  0.00    -0.248 NA
ATOM     14  C   UNL     1       6.253  -3.771   5.834  1.00  0.00     0.031 C 
ATOM     15  C   UNL     1       2.550  -1.224   7.022  1.00  0.00     0.029 A 
ATOM     16  N   UNL     1       2.418  -3.321   7.806  1.00  0.00    -0.354 N 
ATOM     17  C   UNL     1       7.164  -1.732   6.374  1.00  0.00     0.074 A 
ATOM     18  C   UNL     1       7.403  -3.097   5.961  1.00  0.00     0.031 C 
ATOM     19  C   UNL     1       1.767  -1.191   8.114  1.00  0.00     0.029 A 
ATOM     20  C   UNL     1       1.811  -2.498   8.767  1.00  0.00     0.049 A 
ATOM     21  H   UNL     1       2.461  -4.302   7.874  1.00  0.00     0.167 HD
ATOM     22  C   UNL     1       8.035  -0.719   6.612  1.00  0.00     0.037 A 
ATOM     23  C   UNL     1       1.976  -2.611  10.125  1.00  0.00     0.037 A 
ATOM     24  C   UNL     1       7.452   0.515   7.044  1.00  0.00     0.049 A 
ATOM     25  C   UNL     1       3.198  -1.743  10.374  1.00  0.00     0.074 A 
ATOM     26  C   UNL     1       7.188   1.764   6.531  1.00  0.00     0.029 A 
ATOM     27  N   UNL     1       6.978   0.559   8.334  1.00  0.00    -0.354 N 
ATOM     28  N   UNL     1       3.238  -0.431  10.389  1.00  0.00    -0.248 NA
ATOM     29  C   UNL     1       4.494  -2.378  10.133  1.00  0.00     0.031 C 
ATOM     30  C   UNL     1       6.178   2.318   7.382  1.00  0.00     0.029 A 
ATOM     31  C   UNL     1       5.869   1.363   8.352  1.00  0.00     0.049 A 
ATOM     32  H   UNL     1       7.367   0.094   9.109  1.00  0.00     0.167 HD
ATOM     33  C   UNL     1       4.470  -0.090   9.812  1.00  0.00     0.074 A 
ATOM     34  C   UNL     1       5.207  -1.336   9.723  1.00  0.00     0.031 C 
ATOM     35  C   UNL     1       4.743   1.124   9.238  1.00  0.00     0.037 A 
BRANCH  22  36
ATOM     36  C   UNL     1       9.489  -0.934   6.720  1.00  0.00     0.058 A 
ATOM     37  C   UNL     1      10.009  -1.105   8.011  1.00  0.00     0.135 A 
ATOM     38  C   UNL     1      10.380  -0.845   5.646  1.00  0.00     0.135 A 
ATOM     39  F   UNL     1       9.176  -1.211   9.061  1.00  0.00    -0.206 F 
ATOM     40  C   UNL     1      11.371  -1.135   8.247  1.00  0.00     0.059 A 
ATOM     41  C   UNL     1      11.758  -0.883   5.858  1.00  0.00     0.059 A 
ATOM     42  F   UNL     1       9.923  -0.691   4.393  1.00  0.00    -0.206 F 
ATOM     43  C   UNL     1      12.240  -1.006   7.165  1.00  0.00     0.060 A 
BRANCH  43  44
ATOM     44  S   UNL     1      14.007  -0.976   7.521  1.00  0.00     0.124 S 
ATOM     45  O   UNL     1      14.123   0.218   8.352  1.00  0.00    -0.237 OA
ATOM     46  O   UNL     1      14.195  -2.250   8.207  1.00  0.00    -0.237 OA
ATOM     47  O   UNL     1      14.617  -0.881   6.199  1.00  0.00    -0.744 OA
ENDBRANCH  43  44
ENDBRANCH  22  36
BRANCH  23  48
ATOM     48  C   UNL     1       1.716  -3.943  10.743  1.00  0.00     0.058 A 
ATOM     49  C   UNL     1       0.460  -4.533  10.491  1.00  0.00     0.135 A 
ATOM     50  C   UNL     1       2.609  -4.699  11.517  1.00  0.00     0.135 A 
ATOM     51  F   UNL     1      -0.515  -3.820   9.904  1.00  0.00    -0.206 F 
ATOM     52  C   UNL     1       0.186  -5.861  10.794  1.00  0.00     0.059 A 
ATOM     53  C   UNL     1       2.367  -6.042  11.818  1.00  0.00     0.059 A 
ATOM     54  F   UNL     1       3.754  -4.174  11.970  1.00  0.00    -0.206 F 
ATOM     55  C   UNL     1       1.178  -6.628  11.395  1.00  0.00     0.060 A 
BRANCH  55  56
ATOM     56  S   UNL     1       0.926  -8.412  11.499  1.00  0.00     0.124 S 
ATOM     57  O   UNL     1      -0.297  -8.506  12.288  1.00  0.00    -0.237 OA
ATOM     58  O   UNL     1       0.802  -8.768  10.088  1.00  0.00    -0.237 OA
ATOM     59  O   UNL     1       2.138  -8.889  12.156  1.00  0.00    -0.744 OA
ENDBRANCH  55  56
ENDBRANCH  23  48
BRANCH  35  60
ATOM     60  C   UNL     1       3.712   2.201   9.390  1.00  0.00     0.058 A 
ATOM     61  C   UNL     1       3.490   2.791  10.640  1.00  0.00     0.135 A 
ATOM     62  C   UNL     1       3.029   2.746   8.284  1.00  0.00     0.135 A 
ATOM     63  F   UNL     1       4.131   2.333  11.728  1.00  0.00    -0.206 F 
ATOM     64  C   UNL     1       2.661   3.900  10.786  1.00  0.00     0.059 A 
ATOM     65  C   UNL     1       2.215   3.871   8.403  1.00  0.00     0.059 A 
ATOM     66  F   UNL     1       3.183   2.222   7.055  1.00  0.00    -0.206 F 
ATOM     67  C   UNL     1       2.046   4.448   9.660  1.00  0.00     0.060 A 
BRANCH  67  68
ATOM     68  S   UNL     1       1.096   5.972   9.854  1.00  0.00     0.124 S 
ATOM     69  O   UNL     1      -0.042   5.524  10.649  1.00  0.00    -0.237 OA
ATOM     70  O   UNL     1       2.046   6.842  10.540  1.00  0.00    -0.237 OA
ATOM     71  O   UNL     1       0.786   6.361   8.480  1.00  0.00    -0.744 OA
ENDBRANCH  67  68
ENDBRANCH  35  60
ENDBRANCH   9  10
ENDBRANCH   2   4
ENDBRANCH   1   2
BRANCH   1  72
ATOM     72  C   UNL     1       4.587   0.368  -0.301  1.00  0.00     0.275 C 
BRANCH  72  73
ATOM     73  C   UNL     1       4.348   1.582   0.616  1.00  0.00     0.275 C 
BRANCH  73  74
ATOM     74  O   UNL     1       3.371   1.322   1.626  1.00  0.00    -0.458 OA
BRANCH  74  75
ATOM     75  C   UNL     1       2.068   1.415   1.233  1.00  0.00     0.338 C 
ATOM     76  O   UNL     1       1.643   1.869   0.201  1.00  0.00    -0.246 OA
BRANCH  75  77
ATOM     77  C   UNL     1       1.287   0.622   2.214  1.00  0.00     0.061 A 
ATOM     78  C   UNL     1       1.552   0.756   3.571  1.00  0.00     0.018 A 
ATOM     79  C   UNL     1       0.392  -0.352   1.735  1.00  0.00     0.037 A 
ATOM     80  C   UNL     1       0.951  -0.115   4.472  1.00  0.00     0.031 A 
ATOM     81  C   UNL     1      -0.090  -1.302   2.657  1.00  0.00     0.057 A 
ATOM     82  C   UNL     1       0.203  -1.215   4.021  1.00  0.00     0.083 A 
ATOM     83  S   UNL     1      -1.024  -2.732   2.391  1.00  0.00    -0.102 S 
ATOM     84  N   UNL     1      -0.234  -2.271   4.799  1.00  0.00    -0.225 NA
ATOM     85  C   UNL     1      -0.820  -3.143   4.026  1.00  0.00     0.184 A 
ATOM     86  Cl  UNL     1      -1.339  -4.674   4.603  1.00  0.00    -0.050 Cl
ENDBRANCH  75  77
ENDBRANCH  74  75
ENDBRANCH  73  74
ENDBRANCH  72  73
ENDBRANCH   1  72
TORSDOF 14
