REMARK SMILES O=C(OCCOC(=O)c1ccc(Cl)nc1C(F)(F)F)c1ccc(-c2c3nc(c(-c4c(F)cc(S(=O)(=O)[O-])cc4F)c4ccc([nH]4)c(-c4c(F)cc(S(=O)(=O)[O-])cc4F)c4nc(c(-c5c(F)cc(S(=O)(=O)[O-])cc5F)c5ccc2[nH]5)C=C4)C=C3)cc1
REMARK SMILES IDX 4 1 3 2 2 3 1 4 20 5 21 6 85 7 22 8 84 9 23 10 24 11 25 12
REMARK SMILES IDX 78 13 26 14 83 15 77 16 79 17 27 18 82 19 76 20 75 21 28 23
REMARK SMILES IDX 62 24 41 25 61 26 42 27 45 28 60 29 80 30 43 31 44 32 59 34
REMARK SMILES IDX 81 35 46 36 29 37 30 38 39 39 31 40 32 41 38 42 40 43 33 44
REMARK SMILES IDX 34 45 35 46 36 47 37 48 63 49 64 50 73 51 65 52 66 53 72 54
REMARK SMILES IDX 74 55 67 56 68 57 69 58 70 59 71 60 47 61 48 62 57 63 49 64
REMARK SMILES IDX 50 65 56 66 58 67 51 68 52 69 53 70 54 71 55 72 5 73 6 74
REMARK SMILES IDX 7 75 8 76 9 77 10 78 15 79 11 80 14 81 12 82 13 83 16 84
REMARK SMILES IDX 17 85 18 86 19 87
REMARK H PARENT 79 22 45 33
REMARK Flexibility Score: inf
ROOT
ATOM      1  C   UNL     1       4.445   0.690  -1.533  1.00  0.00     0.275 C 
ENDROOT
BRANCH   1   2
ATOM      2  O   UNL     1       3.793  -0.564  -1.231  1.00  0.00    -0.458 OA
BRANCH   2   3
ATOM      3  C   UNL     1       3.558  -1.153  -0.034  1.00  0.00     0.338 C 
ATOM      4  O   UNL     1       2.852  -2.155   0.026  1.00  0.00    -0.246 OA
BRANCH   3   5
ATOM      5  C   UNL     1       4.096  -0.595   1.234  1.00  0.00     0.060 A 
ATOM      6  C   UNL     1       5.393  -0.099   1.365  1.00  0.00     0.016 A 
ATOM      7  C   UNL     1       3.284  -0.674   2.378  1.00  0.00     0.016 A 
ATOM      8  C   UNL     1       5.840   0.401   2.590  1.00  0.00     0.010 A 
ATOM      9  C   UNL     1       3.726  -0.175   3.608  1.00  0.00     0.010 A 
ATOM     10  C   UNL     1       5.015   0.358   3.720  1.00  0.00    -0.014 A 
BRANCH  10  11
ATOM     11  C   UNL     1       5.593   0.704   5.039  1.00  0.00     0.031 A 
ATOM     12  C   UNL     1       6.074  -0.408   5.926  1.00  0.00     0.074 A 
ATOM     13  C   UNL     1       5.771   1.989   5.399  1.00  0.00     0.049 A 
ATOM     14  N   UNL     1       6.761  -0.334   7.034  1.00  0.00    -0.248 NA
ATOM     15  C   UNL     1       5.779  -1.782   5.487  1.00  0.00     0.031 C 
ATOM     16  C   UNL     1       5.410   3.148   4.587  1.00  0.00     0.029 A 
ATOM     17  N   UNL     1       6.299   2.538   6.539  1.00  0.00    -0.354 N 
ATOM     18  C   UNL     1       7.036  -1.647   7.390  1.00  0.00     0.074 A 
ATOM     19  C   UNL     1       6.371  -2.499   6.429  1.00  0.00     0.031 C 
ATOM     20  C   UNL     1       5.663   4.271   5.280  1.00  0.00     0.029 A 
ATOM     21  C   UNL     1       6.243   3.911   6.569  1.00  0.00     0.049 A 
ATOM     22  H   UNL     1       6.683   1.998   7.268  1.00  0.00     0.167 HD
ATOM     23  C   UNL     1       7.814  -2.100   8.400  1.00  0.00     0.037 A 
ATOM     24  C   UNL     1       6.634   4.778   7.523  1.00  0.00     0.037 A 
ATOM     25  C   UNL     1       8.437  -1.245   9.372  1.00  0.00     0.049 A 
ATOM     26  C   UNL     1       7.375   4.245   8.719  1.00  0.00     0.074 A 
ATOM     27  C   UNL     1       9.243  -1.595  10.440  1.00  0.00     0.029 A 
ATOM     28  N   UNL     1       8.302   0.136   9.406  1.00  0.00    -0.354 N 
ATOM     29  N   UNL     1       7.701   3.004   8.996  1.00  0.00    -0.248 NA
ATOM     30  C   UNL     1       7.845   5.226   9.706  1.00  0.00     0.031 C 
ATOM     31  C   UNL     1       9.559  -0.428  11.146  1.00  0.00     0.029 A 
ATOM     32  C   UNL     1       8.986   0.652  10.492  1.00  0.00     0.049 A 
ATOM     33  H   UNL     1       7.794   0.669   8.753  1.00  0.00     0.167 HD
ATOM     34  C   UNL     1       8.459   3.060  10.159  1.00  0.00     0.074 A 
ATOM     35  C   UNL     1       8.535   4.457  10.538  1.00  0.00     0.031 C 
ATOM     36  C   UNL     1       9.055   2.050  10.841  1.00  0.00     0.037 A 
BRANCH  23  37
ATOM     37  C   UNL     1       8.021  -3.584   8.483  1.00  0.00     0.058 A 
ATOM     38  C   UNL     1       8.825  -4.260   7.550  1.00  0.00     0.135 A 
ATOM     39  C   UNL     1       7.396  -4.344   9.483  1.00  0.00     0.135 A 
ATOM     40  F   UNL     1       9.427  -3.582   6.559  1.00  0.00    -0.206 F 
ATOM     41  C   UNL     1       8.975  -5.642   7.584  1.00  0.00     0.059 A 
ATOM     42  C   UNL     1       7.550  -5.726   9.550  1.00  0.00     0.059 A 
ATOM     43  F   UNL     1       6.612  -3.747  10.395  1.00  0.00    -0.206 F 
ATOM     44  C   UNL     1       8.326  -6.367   8.585  1.00  0.00     0.060 A 
BRANCH  44  45
ATOM     45  S   UNL     1       8.507  -8.164   8.601  1.00  0.00     0.124 S 
ATOM     46  O   UNL     1       7.668  -8.550   7.470  1.00  0.00    -0.237 OA
ATOM     47  O   UNL     1       9.943  -8.335   8.411  1.00  0.00    -0.237 OA
ATOM     48  O   UNL     1       8.001  -8.544   9.916  1.00  0.00    -0.744 OA
ENDBRANCH  44  45
ENDBRANCH  23  37
BRANCH  24  49
ATOM     49  C   UNL     1       6.367   6.233   7.366  1.00  0.00     0.058 A 
ATOM     50  C   UNL     1       7.399   7.147   7.109  1.00  0.00     0.135 A 
ATOM     51  C   UNL     1       5.061   6.738   7.473  1.00  0.00     0.135 A 
ATOM     52  F   UNL     1       8.664   6.714   6.994  1.00  0.00    -0.206 F 
ATOM     53  C   UNL     1       7.151   8.511   6.985  1.00  0.00     0.059 A 
ATOM     54  C   UNL     1       4.785   8.095   7.337  1.00  0.00     0.059 A 
ATOM     55  F   UNL     1       4.034   5.903   7.695  1.00  0.00    -0.206 F 
ATOM     56  C   UNL     1       5.840   8.976   7.102  1.00  0.00     0.060 A 
BRANCH  56  57
ATOM     57  S   UNL     1       5.526  10.744   6.900  1.00  0.00     0.124 S 
ATOM     58  O   UNL     1       6.104  11.287   8.124  1.00  0.00    -0.237 OA
ATOM     59  O   UNL     1       6.247  11.039   5.666  1.00  0.00    -0.237 OA
ATOM     60  O   UNL     1       4.072  10.816   6.800  1.00  0.00    -0.744 OA
ENDBRANCH  56  57
ENDBRANCH  24  49
BRANCH  36  61
ATOM     61  C   UNL     1       9.878   2.422  12.040  1.00  0.00     0.058 A 
ATOM     62  C   UNL     1       9.285   2.819  13.248  1.00  0.00     0.135 A 
ATOM     63  C   UNL     1      11.278   2.321  11.995  1.00  0.00     0.135 A 
ATOM     64  F   UNL     1       7.951   2.939  13.337  1.00  0.00    -0.206 F 
ATOM     65  C   UNL     1      10.053   3.121  14.367  1.00  0.00     0.059 A 
ATOM     66  C   UNL     1      12.064   2.593  13.110  1.00  0.00     0.059 A 
ATOM     67  F   UNL     1      11.893   1.937  10.865  1.00  0.00    -0.206 F 
ATOM     68  C   UNL     1      11.442   3.002  14.288  1.00  0.00     0.060 A 
BRANCH  68  69
ATOM     69  S   UNL     1      12.427   3.354  15.759  1.00  0.00     0.124 S 
ATOM     70  O   UNL     1      12.403   4.812  15.785  1.00  0.00    -0.237 OA
ATOM     71  O   UNL     1      11.666   2.688  16.813  1.00  0.00    -0.237 OA
ATOM     72  O   UNL     1      13.720   2.751  15.453  1.00  0.00    -0.744 OA
ENDBRANCH  68  69
ENDBRANCH  36  61
ENDBRANCH  10  11
ENDBRANCH   3   5
ENDBRANCH   2   3
ENDBRANCH   1   2
BRANCH   1  73
ATOM     73  C   UNL     1       3.554   1.911  -1.336  1.00  0.00     0.275 C 
BRANCH  73  74
ATOM     74  O   UNL     1       3.195   2.098   0.043  1.00  0.00    -0.458 OA
BRANCH  74  75
ATOM     75  C   UNL     1       1.868   2.121   0.315  1.00  0.00     0.340 C 
ATOM     76  O   UNL     1       0.951   1.948  -0.472  1.00  0.00    -0.246 OA
BRANCH  75  77
ATOM     77  C   UNL     1       1.655   2.384   1.749  1.00  0.00     0.091 A 
ATOM     78  C   UNL     1       2.390   3.394   2.383  1.00  0.00     0.021 A 
ATOM     79  C   UNL     1       0.708   1.673   2.492  1.00  0.00     0.160 A 
ATOM     80  C   UNL     1       2.187   3.649   3.737  1.00  0.00     0.042 A 
ATOM     81  N   UNL     1       0.536   1.900   3.833  1.00  0.00    -0.231 NA
ATOM     82  C   UNL     1       1.281   2.861   4.416  1.00  0.00     0.129 A 
ATOM     83  Cl  UNL     1       1.027   3.046   6.097  1.00  0.00    -0.062 Cl
BRANCH  79  84
ATOM     84  C   UNL     1      -0.175   0.618   1.843  1.00  0.00     0.434 C 
ATOM     85  F   UNL     1      -0.803  -0.185   2.753  1.00  0.00    -0.164 F 
ATOM     86  F   UNL     1      -1.175   1.151   1.087  1.00  0.00    -0.164 F 
ATOM     87  F   UNL     1       0.509  -0.241   1.038  1.00  0.00    -0.164 F 
ENDBRANCH  79  84
ENDBRANCH  75  77
ENDBRANCH  74  75
ENDBRANCH  73  74
ENDBRANCH   1  73
TORSDOF 15
