REMARK SMILES C[C@@H](C(=O)OCCOC(=O)c1ccc(-c2c3nc(c(-c4c(F)cc(S(=O)(=O)[O-])cc4F)c4ccc([nH]4)c(-c4c(F)cc(S(=O)(=O)[O-])cc4F)c4nc(c(-c5c(F)cc(S(=O)(=O)[O-])cc5F)c5ccc2[nH]5)C=C4)C=C3)cc1)c1ccc(Cc2ccsc2)cc1F
REMARK SMILES IDX 6 1 5 2 3 3 4 4 2 5 1 6 77 7 78 8 88 9 79 10 87 11 89 12
REMARK SMILES IDX 80 13 81 14 82 15 83 16 86 17 84 18 85 19 7 20 8 21 9 22
REMARK SMILES IDX 10 23 11 24 12 25 76 26 13 27 75 28 14 29 15 30 16 31 69 32
REMARK SMILES IDX 17 33 74 34 68 35 70 36 18 37 73 38 67 39 66 40 19 42 53 43
REMARK SMILES IDX 32 44 52 45 33 46 36 47 51 48 71 49 34 50 35 51 50 53 72 54
REMARK SMILES IDX 37 55 20 56 21 57 30 58 22 59 23 60 29 61 31 62 24 63 25 64
REMARK SMILES IDX 26 65 27 66 28 67 54 68 55 69 64 70 56 71 57 72 63 73 65 74
REMARK SMILES IDX 58 75 59 76 60 77 61 78 62 79 38 80 39 81 48 82 40 83 41 84
REMARK SMILES IDX 47 85 49 86 42 87 43 88 44 89 45 90 46 91
REMARK H PARENT 70 41 36 52
REMARK Flexibility Score: inf
ROOT
ATOM      1  C   UNL     1       2.641  -2.627  -2.465  1.00  0.00     0.274 C 
ENDROOT
BRANCH   1   2
ATOM      2  O   UNL     1       2.194  -1.530  -1.638  1.00  0.00    -0.462 OA
BRANCH   2   3
ATOM      3  C   UNL     1       1.099  -0.840  -2.070  1.00  0.00     0.313 C 
ATOM      4  O   UNL     1       0.538  -1.048  -3.141  1.00  0.00    -0.252 OA
BRANCH   3   5
ATOM      5  C   UNL     1       0.706   0.296  -1.119  1.00  0.00     0.129 C 
ATOM      6  C   UNL     1       1.438   0.262   0.226  1.00  0.00     0.025 C 
BRANCH   5   7
ATOM      7  C   UNL     1      -0.807   0.406  -0.973  1.00  0.00     0.002 A 
ATOM      8  C   UNL     1      -1.522   1.306  -1.779  1.00  0.00     0.008 A 
ATOM      9  C   UNL     1      -1.543  -0.418  -0.115  1.00  0.00     0.127 A 
ATOM     10  C   UNL     1      -2.921   1.343  -1.751  1.00  0.00     0.004 A 
ATOM     11  C   UNL     1      -2.940  -0.371  -0.066  1.00  0.00     0.043 A 
ATOM     12  F   UNL     1      -0.915  -1.334   0.636  1.00  0.00    -0.207 F 
ATOM     13  C   UNL     1      -3.652   0.488  -0.913  1.00  0.00    -0.041 A 
BRANCH  13  14
ATOM     14  C   UNL     1      -5.159   0.416  -1.036  1.00  0.00     0.072 C 
BRANCH  14  15
ATOM     15  C   UNL     1      -5.773   0.902   0.239  1.00  0.00    -0.033 A 
ATOM     16  C   UNL     1      -5.563   2.190   0.839  1.00  0.00     0.015 A 
ATOM     17  C   UNL     1      -6.718   0.188   0.957  1.00  0.00     0.068 A 
ATOM     18  C   UNL     1      -6.319   2.380   1.974  1.00  0.00     0.065 A 
ATOM     19  S   UNL     1      -7.293   1.025   2.330  1.00  0.00    -0.152 S 
ENDBRANCH  14  15
ENDBRANCH  13  14
ENDBRANCH   5   7
ENDBRANCH   3   5
ENDBRANCH   2   3
ENDBRANCH   1   2
BRANCH   1  20
ATOM     20  C   UNL     1       2.171  -3.953  -1.873  1.00  0.00     0.275 C 
BRANCH  20  21
ATOM     21  O   UNL     1       0.741  -4.009  -1.976  1.00  0.00    -0.458 OA
BRANCH  21  22
ATOM     22  C   UNL     1       0.084  -4.602  -0.955  1.00  0.00     0.338 C 
ATOM     23  O   UNL     1       0.591  -5.202  -0.017  1.00  0.00    -0.246 OA
BRANCH  22  24
ATOM     24  C   UNL     1      -1.377  -4.422  -1.136  1.00  0.00     0.060 A 
ATOM     25  C   UNL     1      -1.884  -3.341  -1.858  1.00  0.00     0.016 A 
ATOM     26  C   UNL     1      -2.264  -5.308  -0.519  1.00  0.00     0.016 A 
ATOM     27  C   UNL     1      -3.258  -3.104  -1.893  1.00  0.00     0.010 A 
ATOM     28  C   UNL     1      -3.648  -5.109  -0.628  1.00  0.00     0.010 A 
ATOM     29  C   UNL     1      -4.168  -3.978  -1.281  1.00  0.00    -0.014 A 
BRANCH  29  30
ATOM     30  C   UNL     1      -5.635  -3.677  -1.265  1.00  0.00     0.031 A 
ATOM     31  C   UNL     1      -6.396  -3.654   0.041  1.00  0.00     0.074 A 
ATOM     32  C   UNL     1      -6.302  -3.374  -2.400  1.00  0.00     0.049 A 
ATOM     33  N   UNL     1      -7.690  -3.627   0.244  1.00  0.00    -0.248 NA
ATOM     34  C   UNL     1      -5.602  -3.664   1.279  1.00  0.00     0.031 C 
ATOM     35  C   UNL     1      -5.712  -3.286  -3.737  1.00  0.00     0.029 A 
ATOM     36  N   UNL     1      -7.626  -3.064  -2.608  1.00  0.00    -0.354 N 
ATOM     37  C   UNL     1      -7.865  -3.704   1.623  1.00  0.00     0.074 A 
ATOM     38  C   UNL     1      -6.543  -3.755   2.209  1.00  0.00     0.031 C 
ATOM     39  C   UNL     1      -6.649  -2.887  -4.610  1.00  0.00     0.029 A 
ATOM     40  C   UNL     1      -7.934  -2.806  -3.924  1.00  0.00     0.049 A 
ATOM     41  H   UNL     1      -8.291  -3.029  -1.883  1.00  0.00     0.167 HD
ATOM     42  C   UNL     1      -9.019  -3.730   2.334  1.00  0.00     0.037 A 
ATOM     43  C   UNL     1      -9.115  -2.588  -4.535  1.00  0.00     0.037 A 
ATOM     44  C   UNL     1     -10.334  -3.591   1.761  1.00  0.00     0.049 A 
ATOM     45  C   UNL     1     -10.385  -2.642  -3.736  1.00  0.00     0.074 A 
ATOM     46  C   UNL     1     -11.560  -3.601   2.406  1.00  0.00     0.029 A 
ATOM     47  N   UNL     1     -10.597  -3.386   0.415  1.00  0.00    -0.354 N 
ATOM     48  N   UNL     1     -10.538  -2.840  -2.449  1.00  0.00    -0.248 NA
ATOM     49  C   UNL     1     -11.644  -2.481  -4.476  1.00  0.00     0.031 C 
ATOM     50  C   UNL     1     -12.565  -3.426   1.447  1.00  0.00     0.029 A 
ATOM     51  C   UNL     1     -11.963  -3.272   0.210  1.00  0.00     0.049 A 
ATOM     52  H   UNL     1      -9.913  -3.330  -0.291  1.00  0.00     0.167 HD
ATOM     53  C   UNL     1     -11.910  -2.838  -2.227  1.00  0.00     0.074 A 
ATOM     54  C   UNL     1     -12.542  -2.590  -3.506  1.00  0.00     0.031 C 
ATOM     55  C   UNL     1     -12.584  -3.038  -1.068  1.00  0.00     0.037 A 
BRANCH  42  56
ATOM     56  C   UNL     1      -8.923  -3.956   3.819  1.00  0.00     0.058 A 
ATOM     57  C   UNL     1      -8.504  -2.952   4.703  1.00  0.00     0.135 A 
ATOM     58  C   UNL     1      -9.307  -5.191   4.367  1.00  0.00     0.135 A 
ATOM     59  F   UNL     1      -8.109  -1.760   4.231  1.00  0.00    -0.206 F 
ATOM     60  C   UNL     1      -8.449  -3.168   6.077  1.00  0.00     0.059 A 
ATOM     61  C   UNL     1      -9.283  -5.423   5.739  1.00  0.00     0.059 A 
ATOM     62  F   UNL     1      -9.719  -6.187   3.567  1.00  0.00    -0.206 F 
ATOM     63  C   UNL     1      -8.840  -4.409   6.586  1.00  0.00     0.060 A 
BRANCH  63  64
ATOM     64  S   UNL     1      -8.775  -4.676   8.371  1.00  0.00     0.124 S 
ATOM     65  O   UNL     1      -7.342  -4.845   8.588  1.00  0.00    -0.237 OA
ATOM     66  O   UNL     1      -9.353  -3.442   8.895  1.00  0.00    -0.237 OA
ATOM     67  O   UNL     1      -9.585  -5.874   8.565  1.00  0.00    -0.744 OA
ENDBRANCH  63  64
ENDBRANCH  42  56
BRANCH  43  68
ATOM     68  C   UNL     1      -9.150  -2.366  -6.006  1.00  0.00     0.058 A 
ATOM     69  C   UNL     1      -9.455  -1.107  -6.541  1.00  0.00     0.135 A 
ATOM     70  C   UNL     1      -8.835  -3.401  -6.901  1.00  0.00     0.135 A 
ATOM     71  F   UNL     1      -9.781  -0.092  -5.726  1.00  0.00    -0.206 F 
ATOM     72  C   UNL     1      -9.432  -0.876  -7.913  1.00  0.00     0.059 A 
ATOM     73  C   UNL     1      -8.778  -3.187  -8.274  1.00  0.00     0.059 A 
ATOM     74  F   UNL     1      -8.531  -4.623  -6.437  1.00  0.00    -0.206 F 
ATOM     75  C   UNL     1      -9.082  -1.921  -8.771  1.00  0.00     0.060 A 
BRANCH  75  76
ATOM     76  S   UNL     1      -8.948  -1.594 -10.542  1.00  0.00     0.124 S 
ATOM     77  O   UNL     1     -10.344  -1.659 -10.958  1.00  0.00    -0.237 OA
ATOM     78  O   UNL     1      -8.335  -0.270 -10.570  1.00  0.00    -0.237 OA
ATOM     79  O   UNL     1      -8.094  -2.679 -11.015  1.00  0.00    -0.744 OA
ENDBRANCH  75  76
ENDBRANCH  43  68
BRANCH  55  80
ATOM     80  C   UNL     1     -14.084  -2.992  -1.130  1.00  0.00     0.058 A 
ATOM     81  C   UNL     1     -14.827  -4.058  -1.661  1.00  0.00     0.135 A 
ATOM     82  C   UNL     1     -14.788  -1.885  -0.630  1.00  0.00     0.135 A 
ATOM     83  F   UNL     1     -14.200  -5.135  -2.159  1.00  0.00    -0.206 F 
ATOM     84  C   UNL     1     -16.216  -4.018  -1.716  1.00  0.00     0.059 A 
ATOM     85  C   UNL     1     -16.178  -1.833  -0.657  1.00  0.00     0.059 A 
ATOM     86  F   UNL     1     -14.124  -0.843  -0.105  1.00  0.00    -0.206 F 
ATOM     87  C   UNL     1     -16.884  -2.899  -1.214  1.00  0.00     0.060 A 
BRANCH  87  88
ATOM     88  S   UNL     1     -18.688  -2.863  -1.278  1.00  0.00     0.124 S 
ATOM     89  O   UNL     1     -18.926  -2.559  -2.685  1.00  0.00    -0.237 OA
ATOM     90  O   UNL     1     -19.046  -4.212  -0.851  1.00  0.00    -0.237 OA
ATOM     91  O   UNL     1     -19.039  -1.802  -0.339  1.00  0.00    -0.744 OA
ENDBRANCH  87  88
ENDBRANCH  55  80
ENDBRANCH  29  30
ENDBRANCH  22  24
ENDBRANCH  21  22
ENDBRANCH  20  21
ENDBRANCH   1  20
TORSDOF 17
