REMARK SMILES O=C(OCCOC(=O)c1nnn(-c2ccccc2C(F)(F)F)c1-c1cccc(Cl)c1)c1ccc(-c2c3nc(c(-c4c(F)cc(S(=O)(=O)[O-])cc4F)c4ccc([nH]4)c(-c4c(F)cc(S(=O)(=O)[O-])cc4F)c4nc(c(-c5c(F)cc(S(=O)(=O)[O-])cc5F)c5ccc2[nH]5)C=C4)C=C3)cc1
REMARK SMILES IDX 4 1 3 2 2 3 1 4 31 5 32 6 96 7 33 8 95 9 34 10 35 11 36 12
REMARK SMILES IDX 89 13 37 14 94 15 88 16 90 17 38 18 93 19 87 20 86 21 39 23
REMARK SMILES IDX 73 24 52 25 72 26 53 27 56 28 71 29 91 30 54 31 55 32 70 34
REMARK SMILES IDX 92 35 57 36 40 37 41 38 50 39 42 40 43 41 49 42 51 43 44 44
REMARK SMILES IDX 45 45 46 46 47 47 48 48 74 49 75 50 84 51 76 52 77 53 83 54
REMARK SMILES IDX 85 55 78 56 79 57 80 58 81 59 82 60 58 61 59 62 68 63 60 64
REMARK SMILES IDX 61 65 67 66 69 67 62 68 63 69 64 70 65 71 66 72 5 73 6 74
REMARK SMILES IDX 7 75 8 76 9 77 10 78 23 79 11 80 12 81 24 82 25 83 30 84
REMARK SMILES IDX 26 85 28 86 27 87 29 88 13 89 14 90 18 91 15 92 17 93 16 94
REMARK SMILES IDX 19 95 20 96 21 97 22 98
REMARK H PARENT 90 22 56 33
REMARK Flexibility Score: inf
ROOT
ATOM      1  C   UNL     1       4.626  -1.432  -0.378  1.00  0.00     0.275 C 
ENDROOT
BRANCH   1   2
ATOM      2  O   UNL     1       3.507  -1.868   0.421  1.00  0.00    -0.458 OA
BRANCH   2   3
ATOM      3  C   UNL     1       2.373  -1.130   0.400  1.00  0.00     0.338 C 
ATOM      4  O   UNL     1       1.512  -1.222  -0.457  1.00  0.00    -0.246 OA
BRANCH   3   5
ATOM      5  C   UNL     1       2.263  -0.278   1.608  1.00  0.00     0.060 A 
ATOM      6  C   UNL     1       3.389   0.036   2.380  1.00  0.00     0.016 A 
ATOM      7  C   UNL     1       1.004   0.218   1.964  1.00  0.00     0.016 A 
ATOM      8  C   UNL     1       3.251   0.781   3.538  1.00  0.00     0.010 A 
ATOM      9  C   UNL     1       0.863   0.960   3.132  1.00  0.00     0.010 A 
ATOM     10  C   UNL     1       1.983   1.208   3.931  1.00  0.00    -0.014 A 
BRANCH  10  11
ATOM     11  C   UNL     1       1.891   1.935   5.193  1.00  0.00     0.031 A 
ATOM     12  C   UNL     1       2.442   3.317   5.209  1.00  0.00     0.074 A 
ATOM     13  C   UNL     1       1.244   1.426   6.260  1.00  0.00     0.049 A 
ATOM     14  N   UNL     1       3.343   3.817   5.994  1.00  0.00    -0.248 NA
ATOM     15  C   UNL     1       1.966   4.250   4.177  1.00  0.00     0.031 C 
ATOM     16  C   UNL     1       0.423   0.213   6.292  1.00  0.00     0.029 A 
ATOM     17  N   UNL     1       1.076   1.954   7.508  1.00  0.00    -0.354 N 
ATOM     18  C   UNL     1       3.382   5.182   5.710  1.00  0.00     0.074 A 
ATOM     19  C   UNL     1       2.625   5.363   4.498  1.00  0.00     0.031 C 
ATOM     20  C   UNL     1      -0.334   0.225   7.409  1.00  0.00     0.029 A 
ATOM     21  C   UNL     1       0.027   1.380   8.215  1.00  0.00     0.049 A 
ATOM     22  H   UNL     1       1.643   2.672   7.871  1.00  0.00     0.167 HD
ATOM     23  C   UNL     1       3.833   6.092   6.618  1.00  0.00     0.037 A 
ATOM     24  C   UNL     1      -0.571   1.868   9.329  1.00  0.00     0.037 A 
ATOM     25  C   UNL     1       4.688   5.484   7.607  1.00  0.00     0.049 A 
ATOM     26  C   UNL     1       0.367   2.822   9.973  1.00  0.00     0.074 A 
ATOM     27  C   UNL     1       5.843   4.726   7.570  1.00  0.00     0.029 A 
ATOM     28  N   UNL     1       4.226   5.380   8.897  1.00  0.00    -0.354 N 
ATOM     29  N   UNL     1       1.485   2.482  10.553  1.00  0.00    -0.248 NA
ATOM     30  C   UNL     1       0.237   4.237   9.658  1.00  0.00     0.031 C 
ATOM     31  C   UNL     1       5.748   3.838   8.682  1.00  0.00     0.029 A 
ATOM     32  C   UNL     1       4.555   4.128   9.343  1.00  0.00     0.049 A 
ATOM     33  H   UNL     1       3.749   6.075   9.405  1.00  0.00     0.167 HD
ATOM     34  C   UNL     1       2.351   3.533  10.296  1.00  0.00     0.074 A 
ATOM     35  C   UNL     1       1.496   4.630   9.861  1.00  0.00     0.031 C 
ATOM     36  C   UNL     1       3.697   3.329  10.189  1.00  0.00     0.037 A 
BRANCH  23  37
ATOM     37  C   UNL     1       3.182   7.447   6.841  1.00  0.00     0.058 A 
ATOM     38  C   UNL     1       3.771   8.350   7.753  1.00  0.00     0.135 A 
ATOM     39  C   UNL     1       1.854   7.749   6.464  1.00  0.00     0.135 A 
ATOM     40  F   UNL     1       5.037   8.179   8.165  1.00  0.00    -0.206 F 
ATOM     41  C   UNL     1       3.051   9.387   8.350  1.00  0.00     0.059 A 
ATOM     42  C   UNL     1       1.137   8.811   7.004  1.00  0.00     0.059 A 
ATOM     43  F   UNL     1       1.149   6.977   5.630  1.00  0.00    -0.206 F 
ATOM     44  C   UNL     1       1.722   9.584   7.992  1.00  0.00     0.060 A 
BRANCH  44  45
ATOM     45  S   UNL     1       0.730  10.793   8.886  1.00  0.00     0.124 S 
ATOM     46  O   UNL     1       0.534  10.110  10.160  1.00  0.00    -0.237 OA
ATOM     47  O   UNL     1       1.614  11.954   8.910  1.00  0.00    -0.237 OA
ATOM     48  O   UNL     1      -0.457  10.932   8.049  1.00  0.00    -0.744 OA
ENDBRANCH  44  45
ENDBRANCH  23  37
BRANCH  24  49
ATOM     49  C   UNL     1      -2.006   1.772   9.706  1.00  0.00     0.058 A 
ATOM     50  C   UNL     1      -2.444   2.106  10.999  1.00  0.00     0.135 A 
ATOM     51  C   UNL     1      -3.017   1.593   8.738  1.00  0.00     0.135 A 
ATOM     52  F   UNL     1      -1.553   2.326  11.979  1.00  0.00    -0.206 F 
ATOM     53  C   UNL     1      -3.797   2.288  11.305  1.00  0.00     0.059 A 
ATOM     54  C   UNL     1      -4.371   1.745   9.024  1.00  0.00     0.059 A 
ATOM     55  F   UNL     1      -2.718   1.354   7.453  1.00  0.00    -0.206 F 
ATOM     56  C   UNL     1      -4.754   2.119  10.305  1.00  0.00     0.060 A 
BRANCH  56  57
ATOM     57  S   UNL     1      -6.484   2.507  10.648  1.00  0.00     0.124 S 
ATOM     58  O   UNL     1      -6.863   1.426  11.551  1.00  0.00    -0.237 OA
ATOM     59  O   UNL     1      -6.391   3.834  11.245  1.00  0.00    -0.237 OA
ATOM     60  O   UNL     1      -7.110   2.464   9.328  1.00  0.00    -0.744 OA
ENDBRANCH  56  57
ENDBRANCH  24  49
BRANCH  36  61
ATOM     61  C   UNL     1       4.277   2.057  10.744  1.00  0.00     0.058 A 
ATOM     62  C   UNL     1       3.949   0.770  10.286  1.00  0.00     0.135 A 
ATOM     63  C   UNL     1       5.304   2.158  11.696  1.00  0.00     0.135 A 
ATOM     64  F   UNL     1       3.064   0.594   9.294  1.00  0.00    -0.206 F 
ATOM     65  C   UNL     1       4.574  -0.369  10.795  1.00  0.00     0.059 A 
ATOM     66  C   UNL     1       5.965   1.038  12.192  1.00  0.00     0.059 A 
ATOM     67  F   UNL     1       5.711   3.365  12.124  1.00  0.00    -0.206 F 
ATOM     68  C   UNL     1       5.582  -0.226  11.749  1.00  0.00     0.060 A 
BRANCH  68  69
ATOM     69  S   UNL     1       6.442  -1.697  12.345  1.00  0.00     0.124 S 
ATOM     70  O   UNL     1       5.448  -2.298  13.228  1.00  0.00    -0.237 OA
ATOM     71  O   UNL     1       6.720  -2.427  11.111  1.00  0.00    -0.237 OA
ATOM     72  O   UNL     1       7.623  -1.154  13.013  1.00  0.00    -0.744 OA
ENDBRANCH  68  69
ENDBRANCH  36  61
ENDBRANCH  10  11
ENDBRANCH   3   5
ENDBRANCH   2   3
ENDBRANCH   1   2
BRANCH   1  73
ATOM     73  C   UNL     1       4.333  -0.455  -1.513  1.00  0.00     0.275 C 
BRANCH  73  74
ATOM     74  O   UNL     1       3.919   0.812  -0.976  1.00  0.00    -0.457 OA
BRANCH  74  75
ATOM     75  C   UNL     1       2.862   1.402  -1.610  1.00  0.00     0.361 C 
ATOM     76  O   UNL     1       2.273   0.935  -2.575  1.00  0.00    -0.244 OA
BRANCH  75  77
ATOM     77  C   UNL     1       2.656   2.759  -1.160  1.00  0.00     0.198 A 
ATOM     78  N   UNL     1       1.828   3.145  -0.140  1.00  0.00    -0.122 NA
ATOM     79  C   UNL     1       3.283   3.869  -1.698  1.00  0.00     0.109 A 
ATOM     80  N   UNL     1       1.884   4.471  -0.049  1.00  0.00    -0.061 NA
ATOM     81  N   UNL     1       2.612   4.919  -1.094  1.00  0.00    -0.211 N 
BRANCH  79  82
ATOM     82  C   UNL     1       4.377   3.978  -2.655  1.00  0.00     0.004 A 
ATOM     83  C   UNL     1       5.522   4.721  -2.336  1.00  0.00     0.010 A 
ATOM     84  C   UNL     1       4.315   3.313  -3.885  1.00  0.00     0.031 A 
ATOM     85  C   UNL     1       6.576   4.825  -3.245  1.00  0.00     0.002 A 
ATOM     86  C   UNL     1       5.369   3.421  -4.789  1.00  0.00     0.041 A 
ATOM     87  C   UNL     1       6.497   4.177  -4.476  1.00  0.00     0.020 A 
ATOM     88  Cl  UNL     1       5.275   2.617  -6.307  1.00  0.00    -0.084 Cl
ENDBRANCH  79  82
BRANCH  81  89
ATOM     89  C   UNL     1       2.677   6.284  -1.444  1.00  0.00     0.079 A 
ATOM     90  C   UNL     1       3.112   7.185  -0.463  1.00  0.00     0.029 A 
ATOM     91  C   UNL     1       2.441   6.710  -2.769  1.00  0.00     0.081 A 
ATOM     92  C   UNL     1       3.425   8.495  -0.824  1.00  0.00     0.002 A 
ATOM     93  C   UNL     1       2.776   8.034  -3.106  1.00  0.00     0.015 A 
ATOM     94  C   UNL     1       3.280   8.912  -2.147  1.00  0.00     0.001 A 
BRANCH  91  95
ATOM     95  C   UNL     1       1.768   5.870  -3.834  1.00  0.00     0.418 C 
ATOM     96  F   UNL     1       0.736   6.534  -4.430  1.00  0.00    -0.166 F 
ATOM     97  F   UNL     1       2.616   5.543  -4.848  1.00  0.00    -0.166 F 
ATOM     98  F   UNL     1       1.232   4.702  -3.396  1.00  0.00    -0.166 F 
ENDBRANCH  91  95
ENDBRANCH  81  89
ENDBRANCH  75  77
ENDBRANCH  74  75
ENDBRANCH  73  74
ENDBRANCH   1  73
TORSDOF 17
