REMARK SMILES Cc1c(Cl)cc2c(c1C)O[C@@H](C(F)(F)F)C(C(=O)OCCOC(=O)c1ccc(-c3c4nc(c(-c5c(F)cc(S(=O)(=O)[O-])cc5F)c5ccc([nH]5)c(-c5c(F)cc(S(=O)(=O)[O-])cc5F)c5nc(c(-c6c(F)cc(S(=O)(=O)[O-])cc6F)c6ccc3[nH]6)C=C5)C=C4)cc1)=C2
REMARK SMILES IDX 21 1 20 2 19 3 17 4 18 5 16 6 1 7 2 8 3 9 8 10 4 11 5 12
REMARK SMILES IDX 7 13 9 14 6 15 10 16 91 17 11 18 12 19 13 20 14 21 15 22
REMARK SMILES IDX 22 23 23 24 24 25 25 26 26 27 90 28 27 29 89 30 28 31 29 32
REMARK SMILES IDX 30 33 83 34 31 35 88 36 82 37 84 38 32 39 87 40 81 41 80 42
REMARK SMILES IDX 33 44 67 45 46 46 66 47 47 48 50 49 65 50 85 51 48 52 49 53
REMARK SMILES IDX 64 55 86 56 51 57 34 58 35 59 44 60 36 61 37 62 43 63 45 64
REMARK SMILES IDX 38 65 39 66 40 67 41 68 42 69 68 70 69 71 78 72 70 73 71 74
REMARK SMILES IDX 77 75 79 76 72 77 73 78 74 79 75 80 76 81 52 82 53 83 62 84
REMARK SMILES IDX 54 85 55 86 61 87 63 88 56 89 57 90 58 91 59 92 60 93
REMARK H PARENT 84 43 50 54
REMARK Flexibility Score: inf
ROOT
ATOM      1  C   UNL     1      -3.295   0.652  -9.589  1.00  0.00     0.275 C 
ENDROOT
BRANCH   1   2
ATOM      2  C   UNL     1      -2.179  -0.382  -9.460  1.00  0.00     0.275 C 
BRANCH   2   3
ATOM      3  O   UNL     1      -1.929  -0.676  -8.069  1.00  0.00    -0.459 OA
BRANCH   3   4
ATOM      4  C   UNL     1      -0.775  -0.199  -7.553  1.00  0.00     0.338 C 
ATOM      5  O   UNL     1       0.103   0.375  -8.167  1.00  0.00    -0.246 OA
BRANCH   4   6
ATOM      6  C   UNL     1      -0.743  -0.402  -6.092  1.00  0.00     0.087 C 
ATOM      7  C   UNL     1       0.846  -0.228   0.240  1.00  0.00     0.046 C 
ATOM      8  C   UNL     1       0.462  -0.022  -1.205  1.00  0.00    -0.026 A 
ATOM      9  C   UNL     1       0.473   1.277  -1.755  1.00  0.00     0.045 A 
ATOM     10  C   UNL     1       0.174  -1.122  -2.058  1.00  0.00    -0.004 A 
ATOM     11  Cl  UNL     1       0.883   2.675  -0.821  1.00  0.00    -0.084 Cl
ATOM     12  C   UNL     1       0.193   1.489  -3.104  1.00  0.00     0.032 A 
ATOM     13  C   UNL     1      -0.147  -0.884  -3.411  1.00  0.00     0.131 A 
ATOM     14  C   UNL     1       0.186  -2.550  -1.575  1.00  0.00     0.049 C 
ATOM     15  C   UNL     1      -0.102   0.408  -3.932  1.00  0.00     0.019 A 
ATOM     16  O   UNL     1      -0.417  -1.972  -4.210  1.00  0.00    -0.475 OA
ATOM     17  C   UNL     1      -0.251   0.605  -5.360  1.00  0.00     0.027 C 
ATOM     18  C   UNL     1      -1.093  -1.730  -5.484  1.00  0.00     0.316 C 
BRANCH  18  19
ATOM     19  C   UNL     1      -2.597  -2.014  -5.332  1.00  0.00     0.430 C 
ATOM     20  F   UNL     1      -3.257  -1.022  -4.699  1.00  0.00    -0.167 F 
ATOM     21  F   UNL     1      -3.202  -2.220  -6.526  1.00  0.00    -0.167 F 
ATOM     22  F   UNL     1      -2.798  -3.153  -4.618  1.00  0.00    -0.167 F 
ENDBRANCH  18  19
ENDBRANCH   4   6
ENDBRANCH   3   4
ENDBRANCH   2   3
ENDBRANCH   1   2
BRANCH   1  23
ATOM     23  O   UNL     1      -2.827   1.923  -9.104  1.00  0.00    -0.458 OA
BRANCH  23  24
ATOM     24  C   UNL     1      -3.394   2.362  -7.958  1.00  0.00     0.338 C 
ATOM     25  O   UNL     1      -4.301   1.837  -7.331  1.00  0.00    -0.246 OA
BRANCH  24  26
ATOM     26  C   UNL     1      -2.703   3.577  -7.501  1.00  0.00     0.060 A 
ATOM     27  C   UNL     1      -1.363   3.487  -7.139  1.00  0.00     0.016 A 
ATOM     28  C   UNL     1      -3.407   4.759  -7.284  1.00  0.00     0.016 A 
ATOM     29  C   UNL     1      -0.762   4.523  -6.429  1.00  0.00     0.010 A 
ATOM     30  C   UNL     1      -2.757   5.850  -6.693  1.00  0.00     0.010 A 
ATOM     31  C   UNL     1      -1.442   5.731  -6.206  1.00  0.00    -0.014 A 
BRANCH  31  32
ATOM     32  C   UNL     1      -0.790   6.829  -5.428  1.00  0.00     0.031 A 
ATOM     33  C   UNL     1      -1.459   7.394  -4.195  1.00  0.00     0.074 A 
ATOM     34  C   UNL     1       0.424   7.298  -5.789  1.00  0.00     0.049 A 
ATOM     35  N   UNL     1      -1.115   8.428  -3.468  1.00  0.00    -0.248 NA
ATOM     36  C   UNL     1      -2.681   6.720  -3.726  1.00  0.00     0.031 C 
ATOM     37  C   UNL     1       1.210   6.825  -6.931  1.00  0.00     0.029 A 
ATOM     38  N   UNL     1       1.227   8.258  -5.219  1.00  0.00    -0.354 N 
ATOM     39  C   UNL     1      -2.102   8.558  -2.495  1.00  0.00     0.074 A 
ATOM     40  C   UNL     1      -3.068   7.509  -2.734  1.00  0.00     0.031 C 
ATOM     41  C   UNL     1       2.404   7.436  -6.933  1.00  0.00     0.029 A 
ATOM     42  C   UNL     1       2.436   8.420  -5.856  1.00  0.00     0.049 A 
ATOM     43  H   UNL     1       0.962   8.781  -4.428  1.00  0.00     0.167 HD
ATOM     44  C   UNL     1      -2.189   9.460  -1.487  1.00  0.00     0.037 A 
ATOM     45  C   UNL     1       3.447   9.283  -5.631  1.00  0.00     0.037 A 
ATOM     46  C   UNL     1      -1.189  10.457  -1.206  1.00  0.00     0.049 A 
ATOM     47  C   UNL     1       3.308  10.304  -4.537  1.00  0.00     0.074 A 
ATOM     48  C   UNL     1      -1.177  11.400  -0.192  1.00  0.00     0.029 A 
ATOM     49  N   UNL     1      -0.015  10.628  -1.923  1.00  0.00    -0.354 N 
ATOM     50  N   UNL     1       2.340  10.447  -3.665  1.00  0.00    -0.248 NA
ATOM     51  C   UNL     1       4.378  11.306  -4.421  1.00  0.00     0.031 C 
ATOM     52  C   UNL     1      -0.013  12.164  -0.318  1.00  0.00     0.029 A 
ATOM     53  C   UNL     1       0.717  11.675  -1.389  1.00  0.00     0.049 A 
ATOM     54  H   UNL     1       0.257  10.085  -2.698  1.00  0.00     0.167 HD
ATOM     55  C   UNL     1       2.678  11.559  -2.903  1.00  0.00     0.074 A 
ATOM     56  C   UNL     1       3.954  12.034  -3.396  1.00  0.00     0.031 C 
ATOM     57  C   UNL     1       1.983  12.141  -1.896  1.00  0.00     0.037 A 
BRANCH  44  58
ATOM     58  C   UNL     1      -3.415   9.426  -0.615  1.00  0.00     0.058 A 
ATOM     59  C   UNL     1      -3.618   8.418   0.341  1.00  0.00     0.135 A 
ATOM     60  C   UNL     1      -4.377  10.446  -0.704  1.00  0.00     0.135 A 
ATOM     61  F   UNL     1      -2.738   7.412   0.459  1.00  0.00    -0.206 F 
ATOM     62  C   UNL     1      -4.743   8.409   1.160  1.00  0.00     0.059 A 
ATOM     63  C   UNL     1      -5.497  10.471   0.123  1.00  0.00     0.059 A 
ATOM     64  F   UNL     1      -4.232  11.436  -1.599  1.00  0.00    -0.206 F 
ATOM     65  C   UNL     1      -5.678   9.440   1.043  1.00  0.00     0.060 A 
BRANCH  65  66
ATOM     66  S   UNL     1      -7.129   9.414   2.117  1.00  0.00     0.124 S 
ATOM     67  O   UNL     1      -7.893   8.308   1.548  1.00  0.00    -0.237 OA
ATOM     68  O   UNL     1      -6.542   9.169   3.430  1.00  0.00    -0.237 OA
ATOM     69  O   UNL     1      -7.715  10.739   1.933  1.00  0.00    -0.744 OA
ENDBRANCH  65  66
ENDBRANCH  44  58
BRANCH  45  70
ATOM     70  C   UNL     1       4.663   9.242  -6.489  1.00  0.00     0.058 A 
ATOM     71  C   UNL     1       5.895   8.816  -5.972  1.00  0.00     0.135 A 
ATOM     72  C   UNL     1       4.612   9.597  -7.847  1.00  0.00     0.135 A 
ATOM     73  F   UNL     1       6.000   8.483  -4.677  1.00  0.00    -0.206 F 
ATOM     74  C   UNL     1       7.032   8.736  -6.771  1.00  0.00     0.059 A 
ATOM     75  C   UNL     1       5.728   9.499  -8.672  1.00  0.00     0.059 A 
ATOM     76  F   UNL     1       3.456  10.005  -8.392  1.00  0.00    -0.206 F 
ATOM     77  C   UNL     1       6.936   9.071  -8.123  1.00  0.00     0.060 A 
BRANCH  77  78
ATOM     78  S   UNL     1       8.398   8.894  -9.168  1.00  0.00     0.124 S 
ATOM     79  O   UNL     1       9.219  10.012  -8.717  1.00  0.00    -0.237 OA
ATOM     80  O   UNL     1       8.876   7.563  -8.803  1.00  0.00    -0.237 OA
ATOM     81  O   UNL     1       7.861   9.009 -10.520  1.00  0.00    -0.744 OA
ENDBRANCH  77  78
ENDBRANCH  45  70
BRANCH  57  82
ATOM     82  C   UNL     1       2.571  13.370  -1.264  1.00  0.00     0.058 A 
ATOM     83  C   UNL     1       2.502  14.615  -1.907  1.00  0.00     0.135 A 
ATOM     84  C   UNL     1       3.115  13.324   0.029  1.00  0.00     0.135 A 
ATOM     85  F   UNL     1       2.000  14.708  -3.148  1.00  0.00    -0.206 F 
ATOM     86  C   UNL     1       2.949  15.776  -1.286  1.00  0.00     0.059 A 
ATOM     87  C   UNL     1       3.550  14.476   0.677  1.00  0.00     0.059 A 
ATOM     88  F   UNL     1       3.198  12.156   0.686  1.00  0.00    -0.206 F 
ATOM     89  C   UNL     1       3.461  15.698   0.011  1.00  0.00     0.060 A 
BRANCH  89  90
ATOM     90  S   UNL     1       3.964  17.227   0.830  1.00  0.00     0.124 S 
ATOM     91  O   UNL     1       5.176  17.571   0.095  1.00  0.00    -0.237 OA
ATOM     92  O   UNL     1       2.814  18.096   0.599  1.00  0.00    -0.237 OA
ATOM     93  O   UNL     1       4.166  16.820   2.217  1.00  0.00    -0.744 OA
ENDBRANCH  89  90
ENDBRANCH  57  82
ENDBRANCH  31  32
ENDBRANCH  24  26
ENDBRANCH  23  24
ENDBRANCH   1  23
TORSDOF 15
