REMARK SMILES Nc1oc2ccc(F)cc2c(=O)c1[C@@H]1[NH2+][C@H](C(=O)OCCOC(=O)c2ccc(-c3c4nc(c(-c5c(F)cc(S(=O)(=O)[O-])cc5F)c5ccc([nH]5)c(-c5c(F)cc(S(=O)(=O)[O-])cc5F)c5nc(c(-c6c(F)cc(S(=O)(=O)[O-])cc6F)c6ccc3[nH]6)C=C5)C=C4)cc2)CS1
REMARK SMILES IDX 21 1 20 2 19 3 17 4 18 5 16 6 14 7 15 8 92 9 91 12 13 13
REMARK SMILES IDX 2 14 3 15 4 16 11 17 5 18 10 19 12 20 6 21 9 22 7 23 8 24
REMARK SMILES IDX 1 25 22 28 23 29 24 30 25 31 26 32 90 33 27 34 89 35 28 36
REMARK SMILES IDX 29 37 30 38 83 39 31 40 88 41 82 42 84 43 32 44 87 45 81 46
REMARK SMILES IDX 80 47 33 49 67 50 46 51 66 52 47 53 50 54 65 55 85 56 48 57
REMARK SMILES IDX 49 58 64 60 86 61 51 62 34 63 35 64 44 65 36 66 37 67 43 68
REMARK SMILES IDX 45 69 38 70 39 71 40 72 41 73 42 74 68 75 69 76 78 77 70 78
REMARK SMILES IDX 71 79 77 80 79 81 72 82 73 83 74 84 75 85 76 86 52 87 53 88
REMARK SMILES IDX 62 89 54 90 55 91 61 92 63 93 56 94 57 95 58 96 59 97 60 98
REMARK H PARENT 15 10 15 11 1 26 1 27 84 48 50 59
REMARK Flexibility Score: inf
ROOT
ATOM      1  C   UNL     1      -2.090  -0.066  -1.355  1.00  0.00     0.275 C 
ENDROOT
BRANCH   1   2
ATOM      2  C   UNL     1      -0.648  -0.574  -1.361  1.00  0.00     0.274 C 
BRANCH   2   3
ATOM      3  O   UNL     1       0.187   0.401  -0.711  1.00  0.00    -0.458 OA
BRANCH   3   4
ATOM      4  C   UNL     1       1.466   0.519  -1.151  1.00  0.00     0.365 C 
ATOM      5  O   UNL     1       1.931  -0.115  -2.092  1.00  0.00    -0.245 OA
BRANCH   4   6
ATOM      6  C   UNL     1       2.271   1.592  -0.394  1.00  0.00     0.304 C 
ATOM      7  C   UNL     1       2.076   1.312   2.004  1.00  0.00     0.283 C 
ATOM      8  N   UNL     1       1.632   2.099   0.845  1.00  0.00    -0.319 N 
ATOM      9  S   UNL     1       3.751   0.711   1.660  1.00  0.00    -0.087 SA
ATOM     10  H   UNL     1       1.890   3.076   0.982  1.00  0.00     0.348 HD
ATOM     11  H   UNL     1       0.619   2.015   0.755  1.00  0.00     0.348 HD
ATOM     12  C   UNL     1       3.692   1.126  -0.101  1.00  0.00     0.153 C 
BRANCH   7  13
ATOM     13  C   UNL     1       1.080   0.246   2.397  1.00  0.00     0.128 A 
ATOM     14  C   UNL     1       0.934  -1.002   1.896  1.00  0.00     0.205 A 
ATOM     15  O   UNL     1      -0.150  -1.819   2.169  1.00  0.00    -0.440 OA
ATOM     16  C   UNL     1      -1.087  -1.418   3.075  1.00  0.00     0.140 A 
ATOM     17  C   UNL     1       0.153   0.651   3.495  1.00  0.00     0.205 A 
ATOM     18  C   UNL     1      -2.179  -2.264   3.278  1.00  0.00     0.051 A 
ATOM     19  C   UNL     1      -0.956  -0.253   3.815  1.00  0.00     0.068 A 
ATOM     20  O   UNL     1       0.310   1.672   4.157  1.00  0.00    -0.288 OA
ATOM     21  C   UNL     1      -3.103  -1.968   4.279  1.00  0.00     0.043 A 
ATOM     22  C   UNL     1      -1.862   0.037   4.839  1.00  0.00     0.055 A 
ATOM     23  C   UNL     1      -2.920  -0.835   5.067  1.00  0.00     0.124 A 
ATOM     24  F   UNL     1      -3.780  -0.586   6.064  1.00  0.00    -0.207 F 
BRANCH  14  25
ATOM     25  N   UNL     1       1.797  -1.600   1.025  1.00  0.00    -0.369 N 
ATOM     26  H   UNL     1       1.619  -2.514   0.706  1.00  0.00     0.159 HD
ATOM     27  H   UNL     1       2.597  -1.117   0.716  1.00  0.00     0.159 HD
ENDBRANCH  14  25
ENDBRANCH   7  13
ENDBRANCH   4   6
ENDBRANCH   3   4
ENDBRANCH   2   3
ENDBRANCH   1   2
BRANCH   1  28
ATOM     28  O   UNL     1      -2.195   1.044  -2.261  1.00  0.00    -0.458 OA
BRANCH  28  29
ATOM     29  C   UNL     1      -1.867   2.250  -1.735  1.00  0.00     0.338 C 
ATOM     30  O   UNL     1      -1.761   2.553  -0.561  1.00  0.00    -0.246 OA
BRANCH  29  31
ATOM     31  C   UNL     1      -1.427   3.088  -2.859  1.00  0.00     0.060 A 
ATOM     32  C   UNL     1      -2.293   3.377  -3.912  1.00  0.00     0.016 A 
ATOM     33  C   UNL     1      -0.101   3.529  -2.875  1.00  0.00     0.016 A 
ATOM     34  C   UNL     1      -1.813   4.094  -5.006  1.00  0.00     0.010 A 
ATOM     35  C   UNL     1       0.381   4.238  -3.972  1.00  0.00     0.010 A 
ATOM     36  C   UNL     1      -0.473   4.518  -5.046  1.00  0.00    -0.014 A 
BRANCH  36  37
ATOM     37  C   UNL     1       0.013   5.327  -6.184  1.00  0.00     0.031 A 
ATOM     38  C   UNL     1       0.894   4.726  -7.237  1.00  0.00     0.074 A 
ATOM     39  C   UNL     1      -0.337   6.624  -6.233  1.00  0.00     0.049 A 
ATOM     40  N   UNL     1       1.364   5.276  -8.326  1.00  0.00    -0.248 NA
ATOM     41  C   UNL     1       1.317   3.332  -7.035  1.00  0.00     0.031 C 
ATOM     42  C   UNL     1      -1.143   7.312  -5.221  1.00  0.00     0.029 A 
ATOM     43  N   UNL     1      -0.062   7.593  -7.159  1.00  0.00    -0.354 N 
ATOM     44  C   UNL     1       2.129   4.297  -8.948  1.00  0.00     0.074 A 
ATOM     45  C   UNL     1       2.097   3.131  -8.089  1.00  0.00     0.031 C 
ATOM     46  C   UNL     1      -1.313   8.589  -5.593  1.00  0.00     0.029 A 
ATOM     47  C   UNL     1      -0.613   8.813  -6.854  1.00  0.00     0.049 A 
ATOM     48  H   UNL     1       0.478   7.431  -7.966  1.00  0.00     0.167 HD
ATOM     49  C   UNL     1       2.783   4.368 -10.133  1.00  0.00     0.037 A 
ATOM     50  C   UNL     1      -0.562   9.981  -7.520  1.00  0.00     0.037 A 
ATOM     51  C   UNL     1       2.808   5.546 -10.966  1.00  0.00     0.049 A 
ATOM     52  C   UNL     1       0.158  10.032  -8.835  1.00  0.00     0.074 A 
ATOM     53  C   UNL     1       3.386   5.709 -12.212  1.00  0.00     0.029 A 
ATOM     54  N   UNL     1       2.240   6.768 -10.628  1.00  0.00    -0.354 N 
ATOM     55  N   UNL     1       0.809   9.075  -9.454  1.00  0.00    -0.248 NA
ATOM     56  C   UNL     1       0.138  11.312  -9.551  1.00  0.00     0.031 C 
ATOM     57  C   UNL     1       3.212   7.042 -12.605  1.00  0.00     0.029 A 
ATOM     58  C   UNL     1       2.479   7.698 -11.628  1.00  0.00     0.049 A 
ATOM     59  H   UNL     1       1.740   6.948  -9.799  1.00  0.00     0.167 HD
ATOM     60  C   UNL     1       1.277   9.635 -10.635  1.00  0.00     0.074 A 
ATOM     61  C   UNL     1       0.805  11.007 -10.656  1.00  0.00     0.031 C 
ATOM     62  C   UNL     1       2.029   9.069 -11.613  1.00  0.00     0.037 A 
BRANCH  49  63
ATOM     63  C   UNL     1       3.526   3.144 -10.599  1.00  0.00     0.058 A 
ATOM     64  C   UNL     1       2.849   1.988 -11.023  1.00  0.00     0.135 A 
ATOM     65  C   UNL     1       4.929   3.137 -10.664  1.00  0.00     0.135 A 
ATOM     66  F   UNL     1       1.508   1.932 -10.973  1.00  0.00    -0.206 F 
ATOM     67  C   UNL     1       3.536   0.863 -11.470  1.00  0.00     0.059 A 
ATOM     68  C   UNL     1       5.636   2.031 -11.132  1.00  0.00     0.059 A 
ATOM     69  F   UNL     1       5.628   4.213 -10.271  1.00  0.00    -0.206 F 
ATOM     70  C   UNL     1       4.930   0.894 -11.521  1.00  0.00     0.060 A 
BRANCH  70  71
ATOM     71  S   UNL     1       5.803  -0.574 -12.108  1.00  0.00     0.124 S 
ATOM     72  O   UNL     1       5.580  -1.506 -11.006  1.00  0.00    -0.237 OA
ATOM     73  O   UNL     1       5.098  -0.880 -13.348  1.00  0.00    -0.237 OA
ATOM     74  O   UNL     1       7.178  -0.112 -12.268  1.00  0.00    -0.744 OA
ENDBRANCH  70  71
ENDBRANCH  49  63
BRANCH  50  75
ATOM     75  C   UNL     1      -1.254  11.168  -6.955  1.00  0.00     0.058 A 
ATOM     76  C   UNL     1      -2.453  11.635  -7.509  1.00  0.00     0.135 A 
ATOM     77  C   UNL     1      -0.774  11.802  -5.798  1.00  0.00     0.135 A 
ATOM     78  F   UNL     1      -2.949  11.062  -8.616  1.00  0.00    -0.206 F 
ATOM     79  C   UNL     1      -3.159  12.687  -6.934  1.00  0.00     0.059 A 
ATOM     80  C   UNL     1      -1.473  12.840  -5.191  1.00  0.00     0.059 A 
ATOM     81  F   UNL     1       0.360  11.377  -5.219  1.00  0.00    -0.206 F 
ATOM     82  C   UNL     1      -2.666  13.274  -5.767  1.00  0.00     0.060 A 
BRANCH  82  83
ATOM     83  S   UNL     1      -3.643  14.572  -4.978  1.00  0.00     0.124 S 
ATOM     84  O   UNL     1      -3.486  15.674  -5.920  1.00  0.00    -0.237 OA
ATOM     85  O   UNL     1      -4.968  13.964  -4.922  1.00  0.00    -0.237 OA
ATOM     86  O   UNL     1      -2.988  14.748  -3.685  1.00  0.00    -0.744 OA
ENDBRANCH  82  83
ENDBRANCH  50  75
BRANCH  62  87
ATOM     87  C   UNL     1       2.397   9.948 -12.777  1.00  0.00     0.058 A 
ATOM     88  C   UNL     1       3.327  10.991 -12.642  1.00  0.00     0.135 A 
ATOM     89  C   UNL     1       1.823   9.741 -14.041  1.00  0.00     0.135 A 
ATOM     90  F   UNL     1       3.902  11.235 -11.453  1.00  0.00    -0.206 F 
ATOM     91  C   UNL     1       3.643  11.825 -13.708  1.00  0.00     0.059 A 
ATOM     92  C   UNL     1       2.147  10.544 -15.130  1.00  0.00     0.059 A 
ATOM     93  F   UNL     1       0.938   8.749 -14.229  1.00  0.00    -0.206 F 
ATOM     94  C   UNL     1       3.043  11.597 -14.948  1.00  0.00     0.060 A 
BRANCH  94  95
ATOM     95  S   UNL     1       3.454  12.694 -16.321  1.00  0.00     0.124 S 
ATOM     96  O   UNL     1       2.739  13.911 -15.947  1.00  0.00    -0.237 OA
ATOM     97  O   UNL     1       4.909  12.764 -16.241  1.00  0.00    -0.237 OA
ATOM     98  O   UNL     1       2.928  11.991 -17.487  1.00  0.00    -0.744 OA
ENDBRANCH  94  95
ENDBRANCH  62  87
ENDBRANCH  36  37
ENDBRANCH  29  31
ENDBRANCH  28  29
ENDBRANCH   1  28
TORSDOF 16
