REMARK SMILES Cc1ccc(-c2nc(C)cc(N3CCCC[C@H]3C(=O)OCCOC(=O)c3ccc(-c4c5nc(c(-c6c(F)cc(S(=O)(=O)[O-])cc6F)c6ccc([nH]6)c(-c6c(F)cc(S(=O)(=O)[O-])cc6F)c6nc(c(-c7c(F)cc(S(=O)(=O)[O-])cc7F)c7ccc4[nH]7)C=C6)C=C5)cc3)n2)cc1
REMARK SMILES IDX 22 1 21 2 20 3 18 4 19 5 17 6 12 7 13 8 14 9 16 10 15 11
REMARK SMILES IDX 11 12 6 13 7 14 92 15 8 16 9 17 10 18 5 19 1 20 2 21 3 22
REMARK SMILES IDX 94 23 4 24 93 25 23 26 24 27 25 28 26 29 27 30 91 31 28 32
REMARK SMILES IDX 90 33 29 34 30 35 31 36 84 37 32 38 89 39 83 40 85 41 33 42
REMARK SMILES IDX 88 43 82 44 81 45 34 47 68 48 47 49 67 50 48 51 51 52 66 53
REMARK SMILES IDX 86 54 49 55 50 56 65 58 87 59 52 60 35 61 36 62 45 63 37 64
REMARK SMILES IDX 38 65 44 66 46 67 39 68 40 69 41 70 42 71 43 72 69 73 70 74
REMARK SMILES IDX 79 75 71 76 72 77 78 78 80 79 73 80 74 81 75 82 76 83 77 84
REMARK SMILES IDX 53 85 54 86 63 87 55 88 56 89 62 90 64 91 57 92 58 93 59 94
REMARK SMILES IDX 60 95 61 96
REMARK H PARENT 85 46 51 57
REMARK Flexibility Score: inf
ROOT
ATOM      1  C   UNL     1     -10.496   0.633  -5.358  1.00  0.00     0.275 C 
ENDROOT
BRANCH   1   2
ATOM      2  C   UNL     1     -11.121   1.663  -4.401  1.00  0.00     0.274 C 
BRANCH   2   3
ATOM      3  O   UNL     1     -10.082   2.553  -3.931  1.00  0.00    -0.461 OA
BRANCH   3   4
ATOM      4  C   UNL     1      -9.183   2.010  -2.906  1.00  0.00     0.328 C 
ATOM      5  O   UNL     1      -9.900   1.158  -2.308  1.00  0.00    -0.250 OA
BRANCH   4   6
ATOM      6  C   UNL     1      -7.076   2.610  -2.626  1.00  0.00     0.193 C 
ATOM      7  N   UNL     1      -5.695   1.554  -2.348  1.00  0.00    -0.343 N 
ATOM      8  C   UNL     1      -4.930   1.120  -3.539  1.00  0.00     0.119 C 
ATOM      9  C   UNL     1      -4.378   2.248  -4.390  1.00  0.00     0.022 C 
ATOM     10  C   UNL     1      -6.064   3.846  -3.377  1.00  0.00     0.037 C 
ATOM     11  C   UNL     1      -5.287   3.433  -4.624  1.00  0.00     0.005 C 
BRANCH   7  12
ATOM     12  C   UNL     1      -5.045   1.185  -1.143  1.00  0.00     0.133 A 
ATOM     13  C   UNL     1      -3.073   0.391  -0.182  1.00  0.00     0.161 A 
ATOM     14  N   UNL     1      -3.661  -0.225   0.845  1.00  0.00    -0.233 NA
ATOM     15  N   UNL     1      -3.692   1.107  -1.152  1.00  0.00    -0.211 NA
ATOM     16  C   UNL     1      -4.982  -0.075   0.917  1.00  0.00     0.043 A 
ATOM     17  C   UNL     1      -5.638  -0.829   2.034  1.00  0.00     0.067 C 
ATOM     18  C   UNL     1      -5.693   0.665  -0.026  1.00  0.00     0.070 A 
BRANCH  13  19
ATOM     19  C   UNL     1      -1.617   0.268  -0.206  1.00  0.00     0.019 A 
ATOM     20  C   UNL     1       2.688  -0.055   0.008  1.00  0.00     0.044 C 
ATOM     21  C   UNL     1       1.195   0.057  -0.058  1.00  0.00    -0.051 A 
ATOM     22  C   UNL     1       0.403  -1.095  -0.052  1.00  0.00     0.004 A 
ATOM     23  C   UNL     1       0.577   1.310  -0.134  1.00  0.00     0.004 A 
ATOM     24  C   UNL     1      -0.989  -0.989  -0.116  1.00  0.00     0.012 A 
ATOM     25  C   UNL     1      -0.813   1.412  -0.216  1.00  0.00     0.012 A 
ENDBRANCH  13  19
ENDBRANCH   7  12
ENDBRANCH   4   6
ENDBRANCH   3   4
ENDBRANCH   2   3
ENDBRANCH   1   2
BRANCH   1  26
ATOM     26  O   UNL     1      -9.501  -0.194  -4.709  1.00  0.00    -0.458 OA
BRANCH  26  27
ATOM     27  C   UNL     1      -8.202   0.090  -4.992  1.00  0.00     0.338 C 
ATOM     28  O   UNL     1      -7.645  -0.052  -6.067  1.00  0.00    -0.246 OA
BRANCH  27  29
ATOM     29  C   UNL     1      -7.733   1.057  -3.978  1.00  0.00     0.060 A 
ATOM     30  C   UNL     1      -7.820   0.653  -2.223  1.00  0.00     0.016 A 
ATOM     31  C   UNL     1      -8.018   2.735  -4.514  1.00  0.00     0.016 A 
ATOM     32  C   UNL     1      -8.310   1.938  -1.022  1.00  0.00     0.010 A 
ATOM     33  C   UNL     1      -8.552   3.984  -3.326  1.00  0.00     0.010 A 
ATOM     34  C   UNL     1      -8.757   3.566  -1.608  1.00  0.00    -0.014 A 
BRANCH  34  35
ATOM     35  C   UNL     1      -9.783   4.370  -0.981  1.00  0.00     0.031 A 
ATOM     36  C   UNL     1      -9.527   5.812  -0.851  1.00  0.00     0.074 A 
ATOM     37  C   UNL     1     -11.009   3.805  -0.846  1.00  0.00     0.049 A 
ATOM     38  N   UNL     1     -10.306   6.596  -0.208  1.00  0.00    -0.248 NA
ATOM     39  C   UNL     1      -8.358   6.514  -1.393  1.00  0.00     0.031 C 
ATOM     40  C   UNL     1     -12.310   4.448  -0.694  1.00  0.00     0.029 A 
ATOM     41  N   UNL     1     -11.362   2.466  -0.755  1.00  0.00    -0.354 N 
ATOM     42  C   UNL     1      -9.982   7.884  -0.559  1.00  0.00     0.074 A 
ATOM     43  C   UNL     1      -8.681   7.792  -1.159  1.00  0.00     0.031 C 
ATOM     44  C   UNL     1     -13.195   3.550  -0.216  1.00  0.00     0.029 A 
ATOM     45  C   UNL     1     -12.472   2.320   0.059  1.00  0.00     0.049 A 
ATOM     46  H   UNL     1     -10.890   1.728  -1.204  1.00  0.00     0.167 HD
ATOM     47  C   UNL     1     -10.959   8.821  -0.426  1.00  0.00     0.037 A 
ATOM     48  C   UNL     1     -12.357   1.720   1.281  1.00  0.00     0.037 A 
ATOM     49  C   UNL     1     -12.060   8.259   0.368  1.00  0.00     0.049 A 
ATOM     50  C   UNL     1     -12.437   2.772   2.384  1.00  0.00     0.074 A 
ATOM     51  C   UNL     1     -13.328   7.800   0.063  1.00  0.00     0.029 A 
ATOM     52  N   UNL     1     -11.756   7.745   1.630  1.00  0.00    -0.354 N 
ATOM     53  N   UNL     1     -12.281   4.058   2.173  1.00  0.00    -0.248 NA
ATOM     54  C   UNL     1     -12.805   2.497   3.769  1.00  0.00     0.031 C 
ATOM     55  C   UNL     1     -13.718   6.894   1.101  1.00  0.00     0.029 A 
ATOM     56  C   UNL     1     -12.709   6.837   2.054  1.00  0.00     0.049 A 
ATOM     57  H   UNL     1     -10.961   7.997   2.153  1.00  0.00     0.167 HD
ATOM     58  C   UNL     1     -12.573   4.775   3.301  1.00  0.00     0.074 A 
ATOM     59  C   UNL     1     -12.897   3.743   4.274  1.00  0.00     0.031 C 
ATOM     60  C   UNL     1     -12.553   6.148   3.341  1.00  0.00     0.037 A 
BRANCH  47  61
ATOM     61  C   UNL     1     -11.012  10.150  -1.147  1.00  0.00     0.058 A 
ATOM     62  C   UNL     1     -12.046  11.064  -0.852  1.00  0.00     0.135 A 
ATOM     63  C   UNL     1     -10.162  10.547  -2.206  1.00  0.00     0.135 A 
ATOM     64  F   UNL     1     -12.947  10.801   0.106  1.00  0.00    -0.206 F 
ATOM     65  C   UNL     1     -12.218  12.270  -1.540  1.00  0.00     0.059 A 
ATOM     66  C   UNL     1     -10.287  11.767  -2.878  1.00  0.00     0.059 A 
ATOM     67  F   UNL     1      -9.203   9.751  -2.690  1.00  0.00    -0.206 F 
ATOM     68  C   UNL     1     -11.327  12.619  -2.546  1.00  0.00     0.060 A 
BRANCH  68  69
ATOM     69  S   UNL     1     -11.550  14.181  -3.418  1.00  0.00     0.124 S 
ATOM     70  O   UNL     1     -12.809  13.957  -4.121  1.00  0.00    -0.237 OA
ATOM     71  O   UNL     1     -11.595  15.142  -2.321  1.00  0.00    -0.237 OA
ATOM     72  O   UNL     1     -10.368  14.268  -4.271  1.00  0.00    -0.744 OA
ENDBRANCH  68  69
ENDBRANCH  47  61
BRANCH  48  73
ATOM     73  C   UNL     1     -11.602   0.423   1.227  1.00  0.00     0.058 A 
ATOM     74  C   UNL     1     -12.174  -0.618   0.453  1.00  0.00     0.135 A 
ATOM     75  C   UNL     1     -10.237   0.300   1.497  1.00  0.00     0.135 A 
ATOM     76  F   UNL     1     -13.492  -0.600   0.196  1.00  0.00    -0.206 F 
ATOM     77  C   UNL     1     -11.416  -1.624  -0.159  1.00  0.00     0.059 A 
ATOM     78  C   UNL     1      -9.465  -0.712   0.898  1.00  0.00     0.059 A 
ATOM     79  F   UNL     1      -9.595   1.237   2.210  1.00  0.00    -0.206 F 
ATOM     80  C   UNL     1     -10.045  -1.641   0.036  1.00  0.00     0.060 A 
BRANCH  80  81
ATOM     81  S   UNL     1      -9.024  -2.796  -0.927  1.00  0.00     0.124 S 
ATOM     82  O   UNL     1      -9.392  -4.082  -0.349  1.00  0.00    -0.237 OA
ATOM     83  O   UNL     1      -9.478  -2.559  -2.292  1.00  0.00    -0.237 OA
ATOM     84  O   UNL     1      -7.660  -2.354  -0.643  1.00  0.00    -0.744 OA
ENDBRANCH  80  81
ENDBRANCH  48  73
BRANCH  60  85
ATOM     85  C   UNL     1     -12.465   6.994   4.608  1.00  0.00     0.058 A 
ATOM     86  C   UNL     1     -12.105   6.496   5.872  1.00  0.00     0.135 A 
ATOM     87  C   UNL     1     -12.615   8.408   4.556  1.00  0.00     0.135 A 
ATOM     88  F   UNL     1     -11.761   5.216   6.060  1.00  0.00    -0.206 F 
ATOM     89  C   UNL     1     -12.025   7.304   7.008  1.00  0.00     0.059 A 
ATOM     90  C   UNL     1     -12.441   9.243   5.655  1.00  0.00     0.059 A 
ATOM     91  F   UNL     1     -12.925   9.055   3.424  1.00  0.00    -0.206 F 
ATOM     92  C   UNL     1     -12.198   8.677   6.890  1.00  0.00     0.060 A 
BRANCH  92  93
ATOM     93  S   UNL     1     -12.080   9.709   8.355  1.00  0.00     0.124 S 
ATOM     94  O   UNL     1     -13.387   9.489   8.966  1.00  0.00    -0.237 OA
ATOM     95  O   UNL     1     -10.944   9.125   9.062  1.00  0.00    -0.237 OA
ATOM     96  O   UNL     1     -11.854  11.045   7.814  1.00  0.00    -0.744 OA
ENDBRANCH  92  93
ENDBRANCH  60  85
ENDBRANCH  34  35
ENDBRANCH  27  29
ENDBRANCH  26  27
ENDBRANCH   1  26
TORSDOF 16
