REMARK SMILES COCCOc1ccc(C(=O)OCCOC(=O)c2ccc(-c3c4nc(c(-c5c(F)cc(S(=O)(=O)[O-])cc5F)c5ccc([nH]5)c(-c5c(F)cc(S(=O)(=O)[O-])cc5F)c5nc(c(-c6c(F)cc(S(=O)(=O)[O-])cc6F)c6ccc3[nH]6)C=C5)C=C4)cc2)cc1Br
REMARK SMILES IDX 13 1 12 2 10 3 11 4 9 5 6 6 7 7 85 8 8 9 84 10 86 11 5 12
REMARK SMILES IDX 4 13 3 14 2 15 1 16 14 17 15 18 16 19 17 20 18 21 19 22
REMARK SMILES IDX 83 23 20 24 82 25 21 26 22 27 23 28 76 29 24 30 81 31 75 32
REMARK SMILES IDX 77 33 25 34 80 35 74 36 73 37 26 39 60 40 39 41 59 42 40 43
REMARK SMILES IDX 43 44 58 45 78 46 41 47 42 48 57 50 79 51 44 52 27 53 28 54
REMARK SMILES IDX 37 55 29 56 30 57 36 58 38 59 31 60 32 61 33 62 34 63 35 64
REMARK SMILES IDX 61 65 62 66 71 67 63 68 64 69 70 70 72 71 65 72 66 73 67 74
REMARK SMILES IDX 68 75 69 76 45 77 46 78 55 79 47 80 48 81 54 82 56 83 49 84
REMARK SMILES IDX 50 85 51 86 52 87 53 88
REMARK H PARENT 77 38 43 49
REMARK Flexibility Score: inf
ROOT
ATOM      1  C   UNL     1      -0.985   1.819   5.324  1.00  0.00     0.275 C 
ENDROOT
BRANCH   1   2
ATOM      2  O   UNL     1      -0.370   1.438   4.080  1.00  0.00    -0.458 OA
BRANCH   2   3
ATOM      3  C   UNL     1      -1.076   1.734   2.964  1.00  0.00     0.338 C 
ATOM      4  O   UNL     1      -2.224   2.137   2.922  1.00  0.00    -0.246 OA
BRANCH   3   5
ATOM      5  C   UNL     1      -0.237   1.581   1.745  1.00  0.00     0.061 A 
ATOM      6  C   UNL     1       1.186   1.261  -0.638  1.00  0.00     0.133 A 
ATOM      7  C   UNL     1      -0.060   1.887  -0.654  1.00  0.00     0.048 A 
ATOM      8  C   UNL     1       1.780   0.927   0.586  1.00  0.00     0.060 A 
ATOM      9  C   UNL     1      -0.785   2.009   0.527  1.00  0.00     0.019 A 
ATOM     10  C   UNL     1       1.069   1.081   1.780  1.00  0.00     0.035 A 
ATOM     11  Br  UNL     1       3.525   0.184   0.671  1.00  0.00    -0.047 Br
BRANCH   6  12
ATOM     12  O   UNL     1       1.828   0.949  -1.805  1.00  0.00    -0.490 OA
BRANCH  12  13
ATOM     13  C   UNL     1       1.023   0.186  -2.726  1.00  0.00     0.258 C 
BRANCH  13  14
ATOM     14  C   UNL     1       1.294  -1.318  -2.595  1.00  0.00     0.201 C 
BRANCH  14  15
ATOM     15  O   UNL     1       0.224  -2.052  -1.983  1.00  0.00    -0.381 OA
ATOM     16  C   UNL     1       0.153  -1.915  -0.573  1.00  0.00     0.195 C 
ENDBRANCH  14  15
ENDBRANCH  13  14
ENDBRANCH  12  13
ENDBRANCH   6  12
ENDBRANCH   3   5
ENDBRANCH   2   3
ENDBRANCH   1   2
BRANCH   1  17
ATOM     17  C   UNL     1      -0.271   3.043   5.896  1.00  0.00     0.275 C 
BRANCH  17  18
ATOM     18  O   UNL     1      -0.490   4.196   5.060  1.00  0.00    -0.458 OA
BRANCH  18  19
ATOM     19  C   UNL     1       0.524   4.518   4.223  1.00  0.00     0.338 C 
ATOM     20  O   UNL     1       1.611   3.974   4.128  1.00  0.00    -0.246 OA
BRANCH  19  21
ATOM     21  C   UNL     1       0.081   5.601   3.332  1.00  0.00     0.060 A 
ATOM     22  C   UNL     1      -0.567   5.258   2.147  1.00  0.00     0.016 A 
ATOM     23  C   UNL     1       0.362   6.934   3.617  1.00  0.00     0.016 A 
ATOM     24  C   UNL     1      -0.915   6.235   1.222  1.00  0.00     0.010 A 
ATOM     25  C   UNL     1      -0.048   7.926   2.716  1.00  0.00     0.010 A 
ATOM     26  C   UNL     1      -0.688   7.585   1.510  1.00  0.00    -0.014 A 
BRANCH  26  27
ATOM     27  C   UNL     1      -1.140   8.633   0.556  1.00  0.00     0.031 A 
ATOM     28  C   UNL     1      -0.139   9.538  -0.105  1.00  0.00     0.074 A 
ATOM     29  C   UNL     1      -2.454   8.771   0.287  1.00  0.00     0.049 A 
ATOM     30  N   UNL     1      -0.344  10.617  -0.814  1.00  0.00    -0.248 NA
ATOM     31  C   UNL     1       1.280   9.185   0.058  1.00  0.00     0.031 C 
ATOM     32  C   UNL     1      -3.522   7.920   0.819  1.00  0.00     0.029 A 
ATOM     33  N   UNL     1      -3.120   9.680  -0.498  1.00  0.00    -0.354 N 
ATOM     34  C   UNL     1       0.916  11.098  -1.147  1.00  0.00     0.074 A 
ATOM     35  C   UNL     1       1.882  10.193  -0.561  1.00  0.00     0.031 C 
ATOM     36  C   UNL     1      -4.702   8.337   0.337  1.00  0.00     0.029 A 
ATOM     37  C   UNL     1      -4.487   9.536  -0.466  1.00  0.00     0.049 A 
ATOM     38  H   UNL     1      -2.662  10.370  -1.032  1.00  0.00     0.167 HD
ATOM     39  C   UNL     1       1.233  12.199  -1.872  1.00  0.00     0.037 A 
ATOM     40  C   UNL     1      -5.466  10.311  -0.974  1.00  0.00     0.037 A 
ATOM     41  C   UNL     1       0.260  13.072  -2.477  1.00  0.00     0.049 A 
ATOM     42  C   UNL     1      -5.092  11.567  -1.708  1.00  0.00     0.074 A 
ATOM     43  C   UNL     1       0.478  14.198  -3.252  1.00  0.00     0.029 A 
ATOM     44  N   UNL     1      -1.116  12.918  -2.376  1.00  0.00    -0.354 N 
ATOM     45  N   UNL     1      -3.897  12.031  -1.988  1.00  0.00    -0.248 NA
ATOM     46  C   UNL     1      -6.195  12.420  -2.170  1.00  0.00     0.031 C 
ATOM     47  C   UNL     1      -0.765  14.751  -3.581  1.00  0.00     0.029 A 
ATOM     48  C   UNL     1      -1.759  13.946  -3.047  1.00  0.00     0.049 A 
ATOM     49  H   UNL     1      -1.568  12.187  -1.897  1.00  0.00     0.167 HD
ATOM     50  C   UNL     1      -4.104  13.231  -2.657  1.00  0.00     0.074 A 
ATOM     51  C   UNL     1      -5.538  13.409  -2.763  1.00  0.00     0.031 C 
ATOM     52  C   UNL     1      -3.189  14.112  -3.131  1.00  0.00     0.037 A 
BRANCH  39  53
ATOM     53  C   UNL     1       2.688  12.546  -2.018  1.00  0.00     0.058 A 
ATOM     54  C   UNL     1       3.550  11.816  -2.850  1.00  0.00     0.135 A 
ATOM     55  C   UNL     1       3.219  13.656  -1.339  1.00  0.00     0.135 A 
ATOM     56  F   UNL     1       3.099  10.737  -3.509  1.00  0.00    -0.206 F 
ATOM     57  C   UNL     1       4.892  12.159  -2.986  1.00  0.00     0.059 A 
ATOM     58  C   UNL     1       4.552  14.032  -1.479  1.00  0.00     0.059 A 
ATOM     59  F   UNL     1       2.439  14.389  -0.529  1.00  0.00    -0.206 F 
ATOM     60  C   UNL     1       5.385  13.268  -2.295  1.00  0.00     0.060 A 
BRANCH  60  61
ATOM     61  S   UNL     1       7.127  13.702  -2.483  1.00  0.00     0.124 S 
ATOM     62  O   UNL     1       7.774  12.651  -1.702  1.00  0.00    -0.237 OA
ATOM     63  O   UNL     1       7.315  13.624  -3.928  1.00  0.00    -0.237 OA
ATOM     64  O   UNL     1       7.208  15.044  -1.915  1.00  0.00    -0.744 OA
ENDBRANCH  60  61
ENDBRANCH  39  53
BRANCH  40  65
ATOM     65  C   UNL     1      -6.891   9.952  -0.741  1.00  0.00     0.058 A 
ATOM     66  C   UNL     1      -7.712   9.525  -1.792  1.00  0.00     0.135 A 
ATOM     67  C   UNL     1      -7.452  10.008   0.546  1.00  0.00     0.135 A 
ATOM     68  F   UNL     1      -7.227   9.469  -3.042  1.00  0.00    -0.206 F 
ATOM     69  C   UNL     1      -9.040   9.165  -1.579  1.00  0.00     0.059 A 
ATOM     70  C   UNL     1      -8.767   9.627   0.789  1.00  0.00     0.059 A 
ATOM     71  F   UNL     1      -6.705  10.403   1.589  1.00  0.00    -0.206 F 
ATOM     72  C   UNL     1      -9.556   9.214  -0.282  1.00  0.00     0.060 A 
BRANCH  72  73
ATOM     73  S   UNL     1     -11.260   8.683  -0.004  1.00  0.00     0.124 S 
ATOM     74  O   UNL     1     -12.010   9.817  -0.532  1.00  0.00    -0.237 OA
ATOM     75  O   UNL     1     -11.330   7.451  -0.784  1.00  0.00    -0.237 OA
ATOM     76  O   UNL     1     -11.322   8.503   1.444  1.00  0.00    -0.744 OA
ENDBRANCH  72  73
ENDBRANCH  40  65
BRANCH  52  77
ATOM     77  C   UNL     1      -3.711  15.348  -3.806  1.00  0.00     0.058 A 
ATOM     78  C   UNL     1      -4.259  16.406  -3.065  1.00  0.00     0.135 A 
ATOM     79  C   UNL     1      -3.614  15.500  -5.198  1.00  0.00     0.135 A 
ATOM     80  F   UNL     1      -4.385  16.304  -1.732  1.00  0.00    -0.206 F 
ATOM     81  C   UNL     1      -4.705  17.569  -3.683  1.00  0.00     0.059 A 
ATOM     82  C   UNL     1      -4.032  16.664  -5.835  1.00  0.00     0.059 A 
ATOM     83  F   UNL     1      -3.092  14.518  -5.951  1.00  0.00    -0.206 F 
ATOM     84  C   UNL     1      -4.583  17.691  -5.069  1.00  0.00     0.060 A 
BRANCH  84  85
ATOM     85  S   UNL     1      -5.122  19.225  -5.852  1.00  0.00     0.124 S 
ATOM     86  O   UNL     1      -6.574  19.093  -5.790  1.00  0.00    -0.237 OA
ATOM     87  O   UNL     1      -4.540  20.242  -4.982  1.00  0.00    -0.237 OA
ATOM     88  O   UNL     1      -4.542  19.146  -7.189  1.00  0.00    -0.744 OA
ENDBRANCH  84  85
ENDBRANCH  52  77
ENDBRANCH  26  27
ENDBRANCH  19  21
ENDBRANCH  18  19
ENDBRANCH  17  18
ENDBRANCH   1  17
TORSDOF 18
