REMARK SMILES O=C(CCC(=O)OCCOC(=O)c1ccc(-c2c3nc(c(-c4c(F)cc(S(=O)(=O)[O-])cc4F)c4ccc([nH]4)c(-c4c(F)cc(S(=O)(=O)[O-])cc4F)c4nc(c(-c5c(F)cc(S(=O)(=O)[O-])cc5F)c5ccc2[nH]5)C=C4)C=C3)cc1)Nc1nncs1
REMARK SMILES IDX 8 1 7 2 5 3 6 4 4 5 3 6 2 7 1 8 79 9 80 11 81 12 84 13 82 14
REMARK SMILES IDX 83 15 9 16 10 17 11 18 12 19 13 20 14 21 78 22 15 23 77 24
REMARK SMILES IDX 16 25 17 26 18 27 71 28 19 29 76 30 70 31 72 32 20 33 75 34
REMARK SMILES IDX 69 35 68 36 21 38 55 39 34 40 54 41 35 42 38 43 53 44 73 45
REMARK SMILES IDX 36 46 37 47 52 49 74 50 39 51 22 52 23 53 32 54 24 55 25 56
REMARK SMILES IDX 31 57 33 58 26 59 27 60 28 61 29 62 30 63 56 64 57 65 66 66
REMARK SMILES IDX 58 67 59 68 65 69 67 70 60 71 61 72 62 73 63 74 64 75 40 76
REMARK SMILES IDX 41 77 50 78 42 79 43 80 49 81 51 82 44 83 45 84 46 85 47 86
REMARK SMILES IDX 48 87
REMARK H PARENT 79 10 72 37 38 48
REMARK Flexibility Score: inf
ROOT
ATOM      1  C   UNL     1       5.666  -2.400  -0.370  1.00  0.00     0.274 C 
ENDROOT
BRANCH   1   2
ATOM      2  O   UNL     1       4.488  -1.702   0.099  1.00  0.00    -0.462 OA
BRANCH   2   3
ATOM      3  C   UNL     1       4.496  -1.290   1.397  1.00  0.00     0.306 C 
ATOM      4  O   UNL     1       5.434  -1.447   2.167  1.00  0.00    -0.252 OA
BRANCH   3   5
ATOM      5  C   UNL     1       3.174  -0.682   1.819  1.00  0.00     0.132 C 
BRANCH   5   6
ATOM      6  C   UNL     1       2.666   0.457   0.939  1.00  0.00     0.112 C 
BRANCH   6   7
ATOM      7  C   UNL     1       1.670  -0.048  -0.087  1.00  0.00     0.226 C 
ATOM      8  O   UNL     1       0.467   0.120   0.072  1.00  0.00    -0.275 OA
ATOM      9  N   UNL     1       2.274  -0.738  -1.108  1.00  0.00    -0.301 N 
ATOM     10  H   UNL     1       3.252  -0.687  -1.202  1.00  0.00     0.172 HD
BRANCH   9  11
ATOM     11  C   UNL     1       1.565  -1.493  -1.996  1.00  0.00     0.212 A 
ATOM     12  N   UNL     1       0.272  -1.627  -2.166  1.00  0.00    -0.120 NA
ATOM     13  S   UNL     1       2.529  -2.500  -2.987  1.00  0.00    -0.083 S 
ATOM     14  N   UNL     1      -0.026  -2.593  -3.113  1.00  0.00    -0.145 NA
ATOM     15  C   UNL     1       1.063  -3.147  -3.598  1.00  0.00     0.204 A 
ENDBRANCH   9  11
ENDBRANCH   6   7
ENDBRANCH   5   6
ENDBRANCH   3   5
ENDBRANCH   2   3
ENDBRANCH   1   2
BRANCH   1  16
ATOM     16  C   UNL     1       6.536  -1.510  -1.264  1.00  0.00     0.275 C 
BRANCH  16  17
ATOM     17  O   UNL     1       7.232  -0.522  -0.487  1.00  0.00    -0.458 OA
BRANCH  17  18
ATOM     18  C   UNL     1       6.540   0.624  -0.286  1.00  0.00     0.338 C 
ATOM     19  O   UNL     1       5.455   0.904  -0.768  1.00  0.00    -0.246 OA
BRANCH  18  20
ATOM     20  C   UNL     1       7.217   1.437   0.739  1.00  0.00     0.060 A 
ATOM     21  C   UNL     1       6.501   1.782   1.889  1.00  0.00     0.016 A 
ATOM     22  C   UNL     1       8.518   1.904   0.544  1.00  0.00     0.016 A 
ATOM     23  C   UNL     1       7.075   2.622   2.841  1.00  0.00     0.010 A 
ATOM     24  C   UNL     1       9.093   2.747   1.501  1.00  0.00     0.010 A 
ATOM     25  C   UNL     1       8.366   3.130   2.642  1.00  0.00    -0.014 A 
BRANCH  25  26
ATOM     26  C   UNL     1       8.906   4.147   3.578  1.00  0.00     0.031 A 
ATOM     27  C   UNL     1       8.950   5.588   3.148  1.00  0.00     0.074 A 
ATOM     28  C   UNL     1       9.320   3.790   4.808  1.00  0.00     0.049 A 
ATOM     29  N   UNL     1       9.431   6.627   3.780  1.00  0.00    -0.248 NA
ATOM     30  C   UNL     1       8.376   5.900   1.829  1.00  0.00     0.031 C 
ATOM     31  C   UNL     1       9.298   2.429   5.347  1.00  0.00     0.029 A 
ATOM     32  N   UNL     1       9.845   4.545   5.827  1.00  0.00    -0.354 N 
ATOM     33  C   UNL     1       9.221   7.713   2.938  1.00  0.00     0.074 A 
ATOM     34  C   UNL     1       8.602   7.202   1.734  1.00  0.00     0.031 C 
ATOM     35  C   UNL     1       9.797   2.445   6.595  1.00  0.00     0.029 A 
ATOM     36  C   UNL     1      10.200   3.808   6.932  1.00  0.00     0.049 A 
ATOM     37  H   UNL     1       9.956   5.521   5.771  1.00  0.00     0.167 HD
ATOM     38  C   UNL     1       9.503   9.020   3.156  1.00  0.00     0.037 A 
ATOM     39  C   UNL     1      10.800   4.190   8.077  1.00  0.00     0.037 A 
ATOM     40  C   UNL     1      10.117   9.523   4.357  1.00  0.00     0.049 A 
ATOM     41  C   UNL     1      11.135   5.645   8.280  1.00  0.00     0.074 A 
ATOM     42  C   UNL     1      10.479  10.824   4.663  1.00  0.00     0.029 A 
ATOM     43  N   UNL     1      10.447   8.749   5.460  1.00  0.00    -0.354 N 
ATOM     44  N   UNL     1      10.950   6.657   7.465  1.00  0.00    -0.248 NA
ATOM     45  C   UNL     1      11.748   6.014   9.563  1.00  0.00     0.031 C 
ATOM     46  C   UNL     1      11.048  10.833   5.941  1.00  0.00     0.029 A 
ATOM     47  C   UNL     1      11.000   9.545   6.449  1.00  0.00     0.049 A 
ATOM     48  H   UNL     1      10.308   7.777   5.529  1.00  0.00     0.167 HD
ATOM     49  C   UNL     1      11.389   7.785   8.152  1.00  0.00     0.074 A 
ATOM     50  C   UNL     1      11.839   7.331   9.452  1.00  0.00     0.031 C 
ATOM     51  C   UNL     1      11.418   9.079   7.746  1.00  0.00     0.037 A 
BRANCH  38  52
ATOM     52  C   UNL     1       9.152   9.998   2.070  1.00  0.00     0.058 A 
ATOM     53  C   UNL     1       7.820  10.356   1.809  1.00  0.00     0.135 A 
ATOM     54  C   UNL     1      10.158  10.618   1.311  1.00  0.00     0.135 A 
ATOM     55  F   UNL     1       6.819   9.776   2.490  1.00  0.00    -0.206 F 
ATOM     56  C   UNL     1       7.495  11.282   0.823  1.00  0.00     0.059 A 
ATOM     57  C   UNL     1       9.857  11.566   0.336  1.00  0.00     0.059 A 
ATOM     58  F   UNL     1      11.447  10.308   1.516  1.00  0.00    -0.206 F 
ATOM     59  C   UNL     1       8.522  11.883   0.093  1.00  0.00     0.060 A 
BRANCH  59  60
ATOM     60  S   UNL     1       8.085  13.098  -1.169  1.00  0.00     0.124 S 
ATOM     61  O   UNL     1       7.531  12.244  -2.215  1.00  0.00    -0.237 OA
ATOM     62  O   UNL     1       7.126  13.946  -0.469  1.00  0.00    -0.237 OA
ATOM     63  O   UNL     1       9.361  13.732  -1.487  1.00  0.00    -0.744 OA
ENDBRANCH  59  60
ENDBRANCH  38  52
BRANCH  39  64
ATOM     64  C   UNL     1      11.141   3.183   9.118  1.00  0.00     0.058 A 
ATOM     65  C   UNL     1      10.494   3.172  10.363  1.00  0.00     0.135 A 
ATOM     66  C   UNL     1      12.153   2.235   8.900  1.00  0.00     0.135 A 
ATOM     67  F   UNL     1       9.524   4.062  10.622  1.00  0.00    -0.206 F 
ATOM     68  C   UNL     1      10.861   2.282  11.368  1.00  0.00     0.059 A 
ATOM     69  C   UNL     1      12.518   1.316   9.879  1.00  0.00     0.059 A 
ATOM     70  F   UNL     1      12.793   2.192   7.721  1.00  0.00    -0.206 F 
ATOM     71  C   UNL     1      11.880   1.361  11.117  1.00  0.00     0.060 A 
BRANCH  71  72
ATOM     72  S   UNL     1      12.350   0.205  12.423  1.00  0.00     0.124 S 
ATOM     73  O   UNL     1      13.130   1.063  13.306  1.00  0.00    -0.237 OA
ATOM     74  O   UNL     1      11.053  -0.229  12.934  1.00  0.00    -0.237 OA
ATOM     75  O   UNL     1      13.105  -0.818  11.706  1.00  0.00    -0.744 OA
ENDBRANCH  71  72
ENDBRANCH  39  64
BRANCH  51  76
ATOM     76  C   UNL     1      11.889  10.101   8.743  1.00  0.00     0.058 A 
ATOM     77  C   UNL     1      13.238  10.213   9.113  1.00  0.00     0.135 A 
ATOM     78  C   UNL     1      10.973  10.995   9.322  1.00  0.00     0.135 A 
ATOM     79  F   UNL     1      14.154   9.382   8.590  1.00  0.00    -0.206 F 
ATOM     80  C   UNL     1      13.657  11.148  10.055  1.00  0.00     0.059 A 
ATOM     81  C   UNL     1      11.374  11.956  10.245  1.00  0.00     0.059 A 
ATOM     82  F   UNL     1       9.674  10.941   8.990  1.00  0.00    -0.206 F 
ATOM     83  C   UNL     1      12.716  12.011  10.620  1.00  0.00     0.060 A 
BRANCH  83  84
ATOM     84  S   UNL     1      13.268  13.219  11.843  1.00  0.00     0.124 S 
ATOM     85  O   UNL     1      13.430  12.382  13.028  1.00  0.00    -0.237 OA
ATOM     86  O   UNL     1      14.502  13.725  11.251  1.00  0.00    -0.237 OA
ATOM     87  O   UNL     1      12.166  14.176  11.895  1.00  0.00    -0.744 OA
ENDBRANCH  83  84
ENDBRANCH  51  76
ENDBRANCH  25  26
ENDBRANCH  18  20
ENDBRANCH  17  18
ENDBRANCH  16  17
ENDBRANCH   1  16
TORSDOF 17
