REMARK SMILES O=C(CCC(=O)OCCOC(=O)c1ccc(-c2c3nc(c(-c4c(F)cc(S(=O)(=O)[O-])cc4F)c4ccc([nH]4)c(-c4c(F)cc(S(=O)(=O)[O-])cc4F)c4nc(c(-c5c(F)cc(S(=O)(=O)[O-])cc5F)c5ccc2[nH]5)C=C4)C=C3)cc1)Nc1cccc2c1C(=O)c1ccccc1C2=O
REMARK SMILES IDX 8 1 7 2 5 3 6 4 4 5 3 6 2 7 1 8 79 9 80 11 81 12 85 13 82 14
REMARK SMILES IDX 84 15 86 16 83 17 94 18 87 19 88 20 93 21 95 22 89 23 92 24
REMARK SMILES IDX 90 25 91 26 9 27 10 28 11 29 12 30 13 31 14 32 78 33 15 34
REMARK SMILES IDX 77 35 16 36 17 37 18 38 71 39 19 40 76 41 70 42 72 43 20 44
REMARK SMILES IDX 75 45 69 46 68 47 21 49 55 50 34 51 54 52 35 53 38 54 53 55
REMARK SMILES IDX 73 56 36 57 37 58 52 60 74 61 39 62 22 63 23 64 32 65 24 66
REMARK SMILES IDX 25 67 31 68 33 69 26 70 27 71 28 72 29 73 30 74 56 75 57 76
REMARK SMILES IDX 66 77 58 78 59 79 65 80 67 81 60 82 61 83 62 84 63 85 64 86
REMARK SMILES IDX 40 87 41 88 50 89 42 90 43 91 49 92 51 93 44 94 45 95 46 96
REMARK SMILES IDX 47 97 48 98
REMARK H PARENT 79 10 72 48 38 59
REMARK Flexibility Score: inf
ROOT
ATOM      1  C   UNL     1       5.551   1.924  -1.476  1.00  0.00     0.274 C 
ENDROOT
BRANCH   1   2
ATOM      2  O   UNL     1       4.246   1.303  -1.412  1.00  0.00    -0.462 OA
BRANCH   2   3
ATOM      3  C   UNL     1       4.137   0.043  -1.916  1.00  0.00     0.306 C 
ATOM      4  O   UNL     1       5.047  -0.567  -2.459  1.00  0.00    -0.252 OA
BRANCH   3   5
ATOM      5  C   UNL     1       2.710  -0.470  -1.858  1.00  0.00     0.132 C 
BRANCH   5   6
ATOM      6  C   UNL     1       1.995  -0.241  -0.531  1.00  0.00     0.112 C 
BRANCH   6   7
ATOM      7  C   UNL     1       1.094   0.991  -0.393  1.00  0.00     0.224 C 
ATOM      8  O   UNL     1       0.172   0.984   0.421  1.00  0.00    -0.275 OA
ATOM      9  N   UNL     1       1.554   2.120  -1.050  1.00  0.00    -0.325 N 
ATOM     10  H   UNL     1       1.899   2.022  -1.967  1.00  0.00     0.169 HD
BRANCH   9  11
ATOM     11  C   UNL     1       1.551   3.412  -0.460  1.00  0.00     0.053 A 
ATOM     12  C   UNL     1       2.717   4.146  -0.715  1.00  0.00     0.027 A 
ATOM     13  C   UNL     1       0.754   3.788   0.622  1.00  0.00     0.057 A 
ATOM     14  C   UNL     1       3.247   4.982   0.267  1.00  0.00     0.003 A 
ATOM     15  C   UNL     1       1.348   4.506   1.656  1.00  0.00     0.036 A 
ATOM     16  C   UNL     1      -0.722   3.966   0.449  1.00  0.00     0.196 C 
ATOM     17  C   UNL     1       2.611   5.080   1.500  1.00  0.00     0.013 A 
ATOM     18  C   UNL     1       0.569   4.817   2.857  1.00  0.00     0.194 C 
ATOM     19  O   UNL     1      -1.315   3.567  -0.546  1.00  0.00    -0.288 OA
ATOM     20  C   UNL     1      -1.430   4.859   1.414  1.00  0.00     0.034 A 
ATOM     21  C   UNL     1      -0.830   5.192   2.629  1.00  0.00     0.034 A 
ATOM     22  O   UNL     1       1.097   4.891   3.958  1.00  0.00    -0.289 OA
ATOM     23  C   UNL     1      -2.639   5.473   1.070  1.00  0.00     0.013 A 
ATOM     24  C   UNL     1      -1.452   6.054   3.538  1.00  0.00     0.013 A 
ATOM     25  C   UNL     1      -3.233   6.391   1.946  1.00  0.00     0.001 A 
ATOM     26  C   UNL     1      -2.652   6.664   3.187  1.00  0.00     0.001 A 
ENDBRANCH   9  11
ENDBRANCH   6   7
ENDBRANCH   5   6
ENDBRANCH   3   5
ENDBRANCH   2   3
ENDBRANCH   1   2
BRANCH   1  27
ATOM     27  C   UNL     1       6.297   1.843  -0.141  1.00  0.00     0.275 C 
BRANCH  27  28
ATOM     28  O   UNL     1       7.022   0.609  -0.026  1.00  0.00    -0.458 OA
BRANCH  28  29
ATOM     29  C   UNL     1       6.313  -0.431   0.472  1.00  0.00     0.338 C 
ATOM     30  O   UNL     1       5.168  -0.399   0.886  1.00  0.00    -0.246 OA
BRANCH  29  31
ATOM     31  C   UNL     1       7.091  -1.673   0.310  1.00  0.00     0.060 A 
ATOM     32  C   UNL     1       6.430  -2.793  -0.205  1.00  0.00     0.016 A 
ATOM     33  C   UNL     1       8.439  -1.747   0.674  1.00  0.00     0.016 A 
ATOM     34  C   UNL     1       7.116  -3.995  -0.355  1.00  0.00     0.010 A 
ATOM     35  C   UNL     1       9.124  -2.955   0.527  1.00  0.00     0.010 A 
ATOM     36  C   UNL     1       8.463  -4.086   0.019  1.00  0.00    -0.014 A 
BRANCH  36  37
ATOM     37  C   UNL     1       9.172  -5.379  -0.093  1.00  0.00     0.031 A 
ATOM     38  C   UNL     1       9.318  -6.257   1.114  1.00  0.00     0.074 A 
ATOM     39  C   UNL     1       9.676  -5.761  -1.280  1.00  0.00     0.049 A 
ATOM     40  N   UNL     1       9.917  -7.414   1.225  1.00  0.00    -0.248 NA
ATOM     41  C   UNL     1       8.710  -5.768   2.361  1.00  0.00     0.031 C 
ATOM     42  C   UNL     1       9.582  -4.994  -2.522  1.00  0.00     0.029 A 
ATOM     43  N   UNL     1      10.370  -6.889  -1.632  1.00  0.00    -0.354 N 
ATOM     44  C   UNL     1       9.764  -7.792   2.552  1.00  0.00     0.074 A 
ATOM     45  C   UNL     1       9.030  -6.732   3.212  1.00  0.00     0.031 C 
ATOM     46  C   UNL     1      10.204  -5.672  -3.501  1.00  0.00     0.029 A 
ATOM     47  C   UNL     1      10.754  -6.909  -2.950  1.00  0.00     0.049 A 
ATOM     48  H   UNL     1      10.575  -7.616  -1.000  1.00  0.00     0.167 HD
ATOM     49  C   UNL     1      10.193  -8.923   3.162  1.00  0.00     0.037 A 
ATOM     50  C   UNL     1      11.477  -7.816  -3.632  1.00  0.00     0.037 A 
ATOM     51  C   UNL     1      10.924  -9.973   2.503  1.00  0.00     0.049 A 
ATOM     52  C   UNL     1      11.966  -9.050  -2.929  1.00  0.00     0.074 A 
ATOM     53  C   UNL     1      11.388 -11.164   3.033  1.00  0.00     0.029 A 
ATOM     54  N   UNL     1      11.302  -9.954   1.169  1.00  0.00    -0.354 N 
ATOM     55  N   UNL     1      11.796  -9.405  -1.678  1.00  0.00    -0.248 NA
ATOM     56  C   UNL     1      12.744 -10.007  -3.727  1.00  0.00     0.031 C 
ATOM     57  C   UNL     1      12.069 -11.855   2.022  1.00  0.00     0.029 A 
ATOM     58  C   UNL     1      12.007 -11.104   0.859  1.00  0.00     0.049 A 
ATOM     59  H   UNL     1      11.098  -9.228   0.535  1.00  0.00     0.167 HD
ATOM     60  C   UNL     1      12.436 -10.631  -1.540  1.00  0.00     0.074 A 
ATOM     61  C   UNL     1      12.989 -10.961  -2.838  1.00  0.00     0.031 C 
ATOM     62  C   UNL     1      12.553 -11.412  -0.438  1.00  0.00     0.037 A 
BRANCH  49  63
ATOM     63  C   UNL     1       9.893  -9.061   4.625  1.00  0.00     0.058 A 
ATOM     64  C   UNL     1       8.613  -9.410   5.080  1.00  0.00     0.135 A 
ATOM     65  C   UNL     1      10.894  -8.836   5.582  1.00  0.00     0.135 A 
ATOM     66  F   UNL     1       7.617  -9.618   4.203  1.00  0.00    -0.206 F 
ATOM     67  C   UNL     1       8.326  -9.503   6.438  1.00  0.00     0.059 A 
ATOM     68  C   UNL     1      10.634  -8.939   6.944  1.00  0.00     0.059 A 
ATOM     69  F   UNL     1      12.134  -8.495   5.196  1.00  0.00    -0.206 F 
ATOM     70  C   UNL     1       9.342  -9.255   7.363  1.00  0.00     0.060 A 
BRANCH  70  71
ATOM     71  S   UNL     1       8.960  -9.351   9.125  1.00  0.00     0.124 S 
ATOM     72  O   UNL     1       8.341  -8.050   9.357  1.00  0.00    -0.237 OA
ATOM     73  O   UNL     1       8.063 -10.500   9.195  1.00  0.00    -0.237 OA
ATOM     74  O   UNL     1      10.268  -9.545   9.742  1.00  0.00    -0.744 OA
ENDBRANCH  70  71
ENDBRANCH  49  63
BRANCH  50  75
ATOM     75  C   UNL     1      11.780  -7.581  -5.065  1.00  0.00     0.058 A 
ATOM     76  C   UNL     1      11.090  -8.271  -6.071  1.00  0.00     0.135 A 
ATOM     77  C   UNL     1      12.733  -6.628  -5.454  1.00  0.00     0.135 A 
ATOM     78  F   UNL     1      10.175  -9.196  -5.744  1.00  0.00    -0.206 F 
ATOM     79  C   UNL     1      11.334  -8.024  -7.418  1.00  0.00     0.059 A 
ATOM     80  C   UNL     1      12.983  -6.353  -6.794  1.00  0.00     0.059 A 
ATOM     81  F   UNL     1      13.409  -5.935  -4.525  1.00  0.00    -0.206 F 
ATOM     82  C   UNL     1      12.280  -7.060  -7.770  1.00  0.00     0.060 A 
BRANCH  82  83
ATOM     83  S   UNL     1      12.537  -6.682  -9.518  1.00  0.00     0.124 S 
ATOM     84  O   UNL     1      13.424  -7.764  -9.924  1.00  0.00    -0.237 OA
ATOM     85  O   UNL     1      11.179  -6.734 -10.052  1.00  0.00    -0.237 OA
ATOM     86  O   UNL     1      13.135  -5.350  -9.484  1.00  0.00    -0.744 OA
ENDBRANCH  82  83
ENDBRANCH  50  75
BRANCH  62  87
ATOM     87  C   UNL     1      13.302 -12.704  -0.593  1.00  0.00     0.058 A 
ATOM     88  C   UNL     1      14.704 -12.736  -0.605  1.00  0.00     0.135 A 
ATOM     89  C   UNL     1      12.611 -13.922  -0.684  1.00  0.00     0.135 A 
ATOM     90  F   UNL     1      15.406 -11.595  -0.526  1.00  0.00    -0.206 F 
ATOM     91  C   UNL     1      15.400 -13.935  -0.716  1.00  0.00     0.059 A 
ATOM     92  C   UNL     1      13.287 -15.134  -0.781  1.00  0.00     0.059 A 
ATOM     93  F   UNL     1      11.269 -13.941  -0.671  1.00  0.00    -0.206 F 
ATOM     94  C   UNL     1      14.682 -15.130  -0.806  1.00  0.00     0.060 A 
BRANCH  94  95
ATOM     95  S   UNL     1      15.589 -16.688  -0.915  1.00  0.00     0.124 S 
ATOM     96  O   UNL     1      15.922 -16.733  -2.335  1.00  0.00    -0.237 OA
ATOM     97  O   UNL     1      16.711 -16.468  -0.007  1.00  0.00    -0.237 OA
ATOM     98  O   UNL     1      14.613 -17.676  -0.465  1.00  0.00    -0.744 OA
ENDBRANCH  94  95
ENDBRANCH  62  87
ENDBRANCH  36  37
ENDBRANCH  29  31
ENDBRANCH  28  29
ENDBRANCH  27  28
ENDBRANCH   1  27
TORSDOF 17
