REMARK SMILES CC(=O)Oc1c(Cl)cc(-c2ccccc2)cc1C(=O)OCCOC(=O)c1ccc(-c2c3nc(c(-c4c(F)cc(S(=O)(=O)[O-])cc4F)c4ccc([nH]4)c(-c4c(F)cc(S(=O)(=O)[O-])cc4F)c4nc(c(-c5c(F)cc(S(=O)(=O)[O-])cc5F)c5ccc2[nH]5)C=C4)C=C3)cc1
REMARK SMILES IDX 22 1 21 2 20 3 18 4 19 5 17 6 5 7 6 8 7 9 8 10 16 11 9 12
REMARK SMILES IDX 4 13 2 14 1 15 3 16 10 17 11 18 15 19 12 20 14 21 13 22
REMARK SMILES IDX 23 23 24 24 25 25 26 26 27 27 91 28 28 29 90 30 29 31 30 32
REMARK SMILES IDX 31 33 84 34 32 35 89 36 83 37 85 38 33 39 88 40 82 41 81 42
REMARK SMILES IDX 34 44 68 45 47 46 67 47 48 48 51 49 66 50 86 51 49 52 50 53
REMARK SMILES IDX 65 55 87 56 52 57 35 58 36 59 45 60 37 61 38 62 44 63 46 64
REMARK SMILES IDX 39 65 40 66 41 67 42 68 43 69 69 70 70 71 79 72 71 73 72 74
REMARK SMILES IDX 78 75 80 76 73 77 74 78 75 79 76 80 77 81 53 82 54 83 63 84
REMARK SMILES IDX 55 85 56 86 62 87 64 88 57 89 58 90 59 91 60 92 61 93
REMARK H PARENT 85 43 51 54
REMARK Flexibility Score: inf
ROOT
ATOM      1  C   UNL     1       5.089  -2.375   2.679  1.00  0.00     0.275 C 
ENDROOT
BRANCH   1   2
ATOM      2  C   UNL     1       4.035  -2.944   1.733  1.00  0.00     0.275 C 
BRANCH   2   3
ATOM      3  O   UNL     1       2.703  -2.617   2.184  1.00  0.00    -0.458 OA
BRANCH   3   4
ATOM      4  C   UNL     1       2.001  -3.639   2.739  1.00  0.00     0.342 C 
ATOM      5  O   UNL     1       2.393  -4.779   2.898  1.00  0.00    -0.246 OA
BRANCH   4   6
ATOM      6  C   UNL     1       0.682  -3.185   3.239  1.00  0.00     0.105 A 
ATOM      7  C   UNL     1      -0.172  -2.345   2.524  1.00  0.00     0.164 A 
ATOM      8  C   UNL     1      -1.453  -2.065   3.024  1.00  0.00     0.085 A 
ATOM      9  Cl  UNL     1      -2.606  -1.171   2.096  1.00  0.00    -0.080 Cl
ATOM     10  C   UNL     1      -1.839  -2.533   4.286  1.00  0.00     0.033 A 
ATOM     11  C   UNL     1       0.258  -3.692   4.477  1.00  0.00     0.028 A 
ATOM     12  C   UNL     1      -0.971  -3.327   5.044  1.00  0.00    -0.016 A 
BRANCH   7  13
ATOM     13  O   UNL     1       0.220  -1.856   1.274  1.00  0.00    -0.424 OA
BRANCH  13  14
ATOM     14  C   UNL     1       0.581  -0.514   1.335  1.00  0.00     0.308 C 
ATOM     15  C   UNL     1       1.040  -0.060  -0.018  1.00  0.00     0.139 C 
ATOM     16  O   UNL     1       0.580   0.200   2.329  1.00  0.00    -0.252 OA
ENDBRANCH  13  14
ENDBRANCH   7  13
BRANCH  12  17
ATOM     17  C   UNL     1      -1.305  -3.759   6.406  1.00  0.00    -0.018 A 
ATOM     18  C   UNL     1      -2.301  -4.715   6.647  1.00  0.00     0.009 A 
ATOM     19  C   UNL     1      -0.602  -3.234   7.506  1.00  0.00     0.009 A 
ATOM     20  C   UNL     1      -2.579  -5.141   7.950  1.00  0.00     0.001 A 
ATOM     21  C   UNL     1      -0.881  -3.658   8.807  1.00  0.00     0.001 A 
ATOM     22  C   UNL     1      -1.868  -4.614   9.027  1.00  0.00     0.000 A 
ENDBRANCH  12  17
ENDBRANCH   4   6
ENDBRANCH   3   4
ENDBRANCH   2   3
ENDBRANCH   1   2
BRANCH   1  23
ATOM     23  O   UNL     1       4.980  -3.021   3.959  1.00  0.00    -0.458 OA
BRANCH  23  24
ATOM     24  C   UNL     1       4.798  -2.198   5.016  1.00  0.00     0.338 C 
ATOM     25  O   UNL     1       4.799  -0.978   5.014  1.00  0.00    -0.246 OA
BRANCH  24  26
ATOM     26  C   UNL     1       4.552  -2.993   6.231  1.00  0.00     0.060 A 
ATOM     27  C   UNL     1       3.466  -3.861   6.265  1.00  0.00     0.016 A 
ATOM     28  C   UNL     1       5.294  -2.760   7.386  1.00  0.00     0.016 A 
ATOM     29  C   UNL     1       3.032  -4.393   7.479  1.00  0.00     0.010 A 
ATOM     30  C   UNL     1       4.926  -3.388   8.582  1.00  0.00     0.010 A 
ATOM     31  C   UNL     1       3.752  -4.162   8.661  1.00  0.00    -0.014 A 
BRANCH  31  32
ATOM     32  C   UNL     1       3.238  -4.655   9.976  1.00  0.00     0.031 A 
ATOM     33  C   UNL     1       3.005  -3.686  11.114  1.00  0.00     0.074 A 
ATOM     34  C   UNL     1       2.944  -5.958  10.163  1.00  0.00     0.049 A 
ATOM     35  N   UNL     1       2.718  -3.932  12.368  1.00  0.00    -0.248 NA
ATOM     36  C   UNL     1       3.133  -2.253  10.805  1.00  0.00     0.031 C 
ATOM     37  C   UNL     1       3.088  -7.014   9.159  1.00  0.00     0.029 A 
ATOM     38  N   UNL     1       2.452  -6.619  11.264  1.00  0.00    -0.354 N 
ATOM     39  C   UNL     1       2.704  -2.696  13.009  1.00  0.00     0.074 A 
ATOM     40  C   UNL     1       3.015  -1.702  12.004  1.00  0.00     0.031 C 
ATOM     41  C   UNL     1       2.649  -8.174   9.670  1.00  0.00     0.029 A 
ATOM     42  C   UNL     1       2.272  -7.967  11.064  1.00  0.00     0.049 A 
ATOM     43  H   UNL     1       2.248  -6.168  12.115  1.00  0.00     0.167 HD
ATOM     44  C   UNL     1       2.454  -2.412  14.311  1.00  0.00     0.037 A 
ATOM     45  C   UNL     1       1.882  -8.942  11.910  1.00  0.00     0.037 A 
ATOM     46  C   UNL     1       2.074  -3.390  15.298  1.00  0.00     0.049 A 
ATOM     47  C   UNL     1       1.572  -8.602  13.339  1.00  0.00     0.074 A 
ATOM     48  C   UNL     1       1.792  -3.198  16.640  1.00  0.00     0.029 A 
ATOM     49  N   UNL     1       1.895  -4.743  15.046  1.00  0.00    -0.354 N 
ATOM     50  N   UNL     1       1.633  -7.438  13.941  1.00  0.00    -0.248 NA
ATOM     51  C   UNL     1       1.151  -9.709  14.209  1.00  0.00     0.031 C 
ATOM     52  C   UNL     1       1.461  -4.436  17.203  1.00  0.00     0.029 A 
ATOM     53  C   UNL     1       1.500  -5.394  16.204  1.00  0.00     0.049 A 
ATOM     54  H   UNL     1       2.029  -5.176  14.172  1.00  0.00     0.167 HD
ATOM     55  C   UNL     1       1.260  -7.673  15.259  1.00  0.00     0.074 A 
ATOM     56  C   UNL     1       0.946  -9.084  15.360  1.00  0.00     0.031 C 
ATOM     57  C   UNL     1       1.193  -6.799  16.294  1.00  0.00     0.037 A 
BRANCH  44  58
ATOM     58  C   UNL     1       2.612  -0.981  14.751  1.00  0.00     0.058 A 
ATOM     59  C   UNL     1       1.698   0.019  14.383  1.00  0.00     0.135 A 
ATOM     60  C   UNL     1       3.696  -0.607  15.563  1.00  0.00     0.135 A 
ATOM     61  F   UNL     1       0.652  -0.280  13.595  1.00  0.00    -0.206 F 
ATOM     62  C   UNL     1       1.872   1.344  14.771  1.00  0.00     0.059 A 
ATOM     63  C   UNL     1       3.875   0.708  15.986  1.00  0.00     0.059 A 
ATOM     64  F   UNL     1       4.599  -1.522  15.950  1.00  0.00    -0.206 F 
ATOM     65  C   UNL     1       2.969   1.680  15.567  1.00  0.00     0.060 A 
BRANCH  65  66
ATOM     66  S   UNL     1       3.198   3.405  16.049  1.00  0.00     0.124 S 
ATOM     67  O   UNL     1       3.728   3.982  14.818  1.00  0.00    -0.237 OA
ATOM     68  O   UNL     1       1.844   3.815  16.409  1.00  0.00    -0.237 OA
ATOM     69  O   UNL     1       4.140   3.324  17.162  1.00  0.00    -0.744 OA
ENDBRANCH  65  66
ENDBRANCH  44  58
BRANCH  45  70
ATOM     70  C   UNL     1       1.795 -10.344  11.420  1.00  0.00     0.058 A 
ATOM     71  C   UNL     1       0.555 -10.970  11.231  1.00  0.00     0.135 A 
ATOM     72  C   UNL     1       2.952 -11.068  11.090  1.00  0.00     0.135 A 
ATOM     73  F   UNL     1      -0.578 -10.324  11.545  1.00  0.00    -0.206 F 
ATOM     74  C   UNL     1       0.463 -12.265  10.729  1.00  0.00     0.059 A 
ATOM     75  C   UNL     1       2.884 -12.352  10.562  1.00  0.00     0.059 A 
ATOM     76  F   UNL     1       4.162 -10.507  11.243  1.00  0.00    -0.206 F 
ATOM     77  C   UNL     1       1.634 -12.944  10.389  1.00  0.00     0.060 A 
BRANCH  77  78
ATOM     78  S   UNL     1       1.507 -14.590   9.655  1.00  0.00     0.124 S 
ATOM     79  O   UNL     1       1.243 -15.414  10.829  1.00  0.00    -0.237 OA
ATOM     80  O   UNL     1       0.394 -14.429   8.724  1.00  0.00    -0.237 OA
ATOM     81  O   UNL     1       2.813 -14.778   9.030  1.00  0.00    -0.744 OA
ENDBRANCH  77  78
ENDBRANCH  45  70
BRANCH  57  82
ATOM     82  C   UNL     1       0.741  -7.344  17.619  1.00  0.00     0.058 A 
ATOM     83  C   UNL     1       1.577  -8.148  18.410  1.00  0.00     0.135 A 
ATOM     84  C   UNL     1      -0.541  -7.048  18.110  1.00  0.00     0.135 A 
ATOM     85  F   UNL     1       2.810  -8.464  17.983  1.00  0.00    -0.206 F 
ATOM     86  C   UNL     1       1.146  -8.669  19.625  1.00  0.00     0.059 A 
ATOM     87  C   UNL     1      -0.985  -7.540  19.334  1.00  0.00     0.059 A 
ATOM     88  F   UNL     1      -1.376  -6.275  17.398  1.00  0.00    -0.206 F 
ATOM     89  C   UNL     1      -0.140  -8.366  20.076  1.00  0.00     0.060 A 
BRANCH  89  90
ATOM     90  S   UNL     1      -0.694  -9.048  21.653  1.00  0.00     0.124 S 
ATOM     91  O   UNL     1      -1.007 -10.424  21.283  1.00  0.00    -0.237 OA
ATOM     92  O   UNL     1       0.480  -8.872  22.503  1.00  0.00    -0.237 OA
ATOM     93  O   UNL     1      -1.840  -8.212  21.999  1.00  0.00    -0.744 OA
ENDBRANCH  89  90
ENDBRANCH  57  82
ENDBRANCH  31  32
ENDBRANCH  24  26
ENDBRANCH  23  24
ENDBRANCH   1  23
TORSDOF 17
