REMARK SMILES C[C@]12CC[C@H]3[C@@H](CCC4=CC(=O)C=C[C@@]43C)[C@@H]1CC[C@H]2O[C@@H]1O[C@H](C(=O)OCCOC(=O)c2ccc(-c3c4nc(c(-c5c(F)cc(S(=O)(=O)[O-])cc5F)c5ccc([nH]5)c(-c5c(F)cc(S(=O)(=O)[O-])cc5F)c5nc(c(-c6c(F)cc(S(=O)(=O)[O-])cc6F)c6ccc3[nH]6)C=C5)C=C4)cc2)[C@@H](O)[C@H](O)[C@H]1O
REMARK SMILES IDX 29 1 28 2 27 3 25 4 26 5 24 6 22 7 23 8 103 9 101 10 99 11
REMARK SMILES IDX 21 12 20 13 1 14 2 15 3 16 17 17 4 18 6 19 18 20 19 21 5 22
REMARK SMILES IDX 7 23 15 24 8 25 9 26 14 27 16 28 10 29 13 30 11 31 12 32
REMARK SMILES IDX 104 33 102 35 100 37 30 39 31 40 32 41 33 42 34 43 98 44
REMARK SMILES IDX 35 45 97 46 36 47 37 48 38 49 91 50 39 51 96 52 90 53 92 54
REMARK SMILES IDX 40 55 95 56 89 57 88 58 41 60 75 61 54 62 74 63 55 64 58 65
REMARK SMILES IDX 73 66 93 67 56 68 57 69 72 71 94 72 59 73 42 74 43 75 52 76
REMARK SMILES IDX 44 77 45 78 51 79 53 80 46 81 47 82 48 83 49 84 50 85 76 86
REMARK SMILES IDX 77 87 86 88 78 89 79 90 85 91 87 92 80 93 81 94 82 95 83 96
REMARK SMILES IDX 84 97 60 98 61 99 70 100 62 101 63 102 69 103 71 104 64 105
REMARK SMILES IDX 65 106 66 107 67 108 68 109
REMARK H PARENT 104 34 102 36 100 38 92 59 58 70
REMARK Flexibility Score: inf
ROOT
ATOM      1  C   UNL     1       5.943  -5.322  -2.262  1.00  0.00     0.275 C 
ENDROOT
BRANCH   1   2
ATOM      2  C   UNL     1       4.882  -5.076  -1.189  1.00  0.00     0.274 C 
BRANCH   2   3
ATOM      3  O   UNL     1       4.164  -3.857  -1.474  1.00  0.00    -0.460 OA
BRANCH   3   4
ATOM      4  C   UNL     1       4.047  -2.964  -0.466  1.00  0.00     0.338 C 
ATOM      5  O   UNL     1       4.445  -3.140   0.681  1.00  0.00    -0.249 OA
BRANCH   4   6
ATOM      6  C   UNL     1       3.343  -1.669  -0.883  1.00  0.00     0.262 C 
ATOM      7  C   UNL     1       2.746  -0.110  -2.619  1.00  0.00     0.282 C 
ATOM      8  O   UNL     1       3.294  -1.386  -2.278  1.00  0.00    -0.332 OA
ATOM      9  C   UNL     1       1.466   0.286  -1.833  1.00  0.00     0.202 C 
ATOM     10  C   UNL     1       1.446  -0.202  -0.379  1.00  0.00     0.180 C 
ATOM     11  C   UNL     1       1.920  -1.660  -0.317  1.00  0.00     0.186 C 
BRANCH   7  12
ATOM     12  O   UNL     1       2.672   0.105  -4.040  1.00  0.00    -0.346 OA
BRANCH  12  13
ATOM     13  C   UNL     1       1.784  -0.490  -4.993  1.00  0.00     0.127 C 
ATOM     14  C   UNL     1       1.369  -2.230  -6.807  1.00  0.00     0.014 C 
ATOM     15  C   UNL     1       2.049  -1.962  -5.427  1.00  0.00    -0.003 C 
ATOM     16  C   UNL     1       3.505  -2.406  -5.524  1.00  0.00     0.010 C 
ATOM     17  C   UNL     1       1.342  -2.700  -4.287  1.00  0.00     0.001 C 
ATOM     18  C   UNL     1       3.620  -3.935  -5.693  1.00  0.00     0.006 C 
ATOM     19  C   UNL     1       1.390  -4.226  -4.375  1.00  0.00    -0.003 C 
ATOM     20  C   UNL     1      -0.002  -1.971  -4.153  1.00  0.00     0.007 C 
ATOM     21  C   UNL     1       0.280  -0.529  -4.654  1.00  0.00     0.033 C 
ATOM     22  C   UNL     1       2.860  -4.727  -4.601  1.00  0.00     0.006 C 
ATOM     23  C   UNL     1       0.867  -4.840  -3.060  1.00  0.00     0.009 C 
ATOM     24  C   UNL     1       2.908  -6.298  -4.740  1.00  0.00     0.010 C 
ATOM     25  C   UNL     1       0.937  -6.364  -3.050  1.00  0.00     0.032 C 
ATOM     26  C   UNL     1       2.292  -6.892  -3.462  1.00  0.00    -0.056 C 
ATOM     27  C   UNL     1       4.322  -6.823  -4.962  1.00  0.00    -0.012 C 
ATOM     28  C   UNL     1       2.107  -6.805  -5.957  1.00  0.00     0.021 C 
ATOM     29  C   UNL     1       2.912  -7.814  -2.701  1.00  0.00     0.052 C 
ATOM     30  C   UNL     1       4.925  -7.759  -4.216  1.00  0.00     0.048 C 
ATOM     31  C   UNL     1       4.259  -8.323  -3.028  1.00  0.00     0.178 C 
ATOM     32  O   UNL     1       4.821  -9.143  -2.313  1.00  0.00    -0.290 OA
ENDBRANCH  12  13
ENDBRANCH   7  12
BRANCH   9  33
ATOM     33  O   UNL     1       1.227   1.700  -1.905  1.00  0.00    -0.385 OA
ATOM     34  H   UNL     1       1.950   2.173  -1.465  1.00  0.00     0.211 HD
ENDBRANCH   9  33
BRANCH  10  35
ATOM     35  O   UNL     1       0.116  -0.070   0.149  1.00  0.00    -0.387 OA
ATOM     36  H   UNL     1      -0.497  -0.604  -0.380  1.00  0.00     0.211 HD
ENDBRANCH  10  35
BRANCH  11  37
ATOM     37  O   UNL     1       1.776  -2.158   1.010  1.00  0.00    -0.387 OA
ATOM     38  H   UNL     1       2.283  -1.601   1.621  1.00  0.00     0.211 HD
ENDBRANCH  11  37
ENDBRANCH   4   6
ENDBRANCH   3   4
ENDBRANCH   2   3
ENDBRANCH   1   2
BRANCH   1  39
ATOM     39  O   UNL     1       7.051  -4.453  -2.047  1.00  0.00    -0.458 OA
BRANCH  39  40
ATOM     40  C   UNL     1       6.921  -3.226  -2.599  1.00  0.00     0.338 C 
ATOM     41  O   UNL     1       6.152  -2.860  -3.466  1.00  0.00    -0.246 OA
BRANCH  40  42
ATOM     42  C   UNL     1       7.689  -2.346  -1.722  1.00  0.00     0.060 A 
ATOM     43  C   UNL     1       7.023  -1.259  -1.150  1.00  0.00     0.016 A 
ATOM     44  C   UNL     1       9.002  -2.675  -1.383  1.00  0.00     0.016 A 
ATOM     45  C   UNL     1       7.672  -0.493  -0.200  1.00  0.00     0.010 A 
ATOM     46  C   UNL     1       9.659  -1.900  -0.445  1.00  0.00     0.010 A 
ATOM     47  C   UNL     1       8.998  -0.801   0.125  1.00  0.00    -0.014 A 
BRANCH  47  48
ATOM     48  C   UNL     1       9.781   0.173   0.892  1.00  0.00     0.031 A 
ATOM     49  C   UNL     1      10.675   1.083   0.108  1.00  0.00     0.074 A 
ATOM     50  C   UNL     1       9.665   0.217   2.228  1.00  0.00     0.049 A 
ATOM     51  N   UNL     1      11.546   1.951   0.533  1.00  0.00    -0.248 NA
ATOM     52  C   UNL     1      10.588   0.985  -1.363  1.00  0.00     0.031 C 
ATOM     53  C   UNL     1       8.778  -0.631   3.029  1.00  0.00     0.029 A 
ATOM     54  N   UNL     1      10.303   1.001   3.146  1.00  0.00    -0.354 N 
ATOM     55  C   UNL     1      12.129   2.481  -0.612  1.00  0.00     0.074 A 
ATOM     56  C   UNL     1      11.537   1.822  -1.750  1.00  0.00     0.031 C 
ATOM     57  C   UNL     1       8.937  -0.323   4.328  1.00  0.00     0.029 A 
ATOM     58  C   UNL     1       9.962   0.709   4.445  1.00  0.00     0.049 A 
ATOM     59  H   UNL     1      10.944   1.707   2.902  1.00  0.00     0.167 HD
ATOM     60  C   UNL     1      13.076   3.440  -0.687  1.00  0.00     0.037 A 
ATOM     61  C   UNL     1      10.460   1.213   5.589  1.00  0.00     0.037 A 
ATOM     62  C   UNL     1      13.621   4.077   0.480  1.00  0.00     0.049 A 
ATOM     63  C   UNL     1      11.523   2.275   5.473  1.00  0.00     0.074 A 
ATOM     64  C   UNL     1      14.578   5.069   0.557  1.00  0.00     0.029 A 
ATOM     65  N   UNL     1      13.240   3.777   1.783  1.00  0.00    -0.354 N 
ATOM     66  N   UNL     1      12.076   2.773   4.389  1.00  0.00    -0.248 NA
ATOM     67  C   UNL     1      12.024   2.853   6.724  1.00  0.00     0.031 C 
ATOM     68  C   UNL     1      14.806   5.339   1.910  1.00  0.00     0.029 A 
ATOM     69  C   UNL     1      13.947   4.560   2.673  1.00  0.00     0.049 A 
ATOM     70  H   UNL     1      12.565   3.105   2.034  1.00  0.00     0.167 HD
ATOM     71  C   UNL     1      12.964   3.748   4.825  1.00  0.00     0.074 A 
ATOM     72  C   UNL     1      12.864   3.774   6.272  1.00  0.00     0.031 C 
ATOM     73  C   UNL     1      13.788   4.553   4.107  1.00  0.00     0.037 A 
BRANCH  60  74
ATOM     74  C   UNL     1      13.586   3.823  -2.047  1.00  0.00     0.058 A 
ATOM     75  C   UNL     1      12.792   4.519  -2.973  1.00  0.00     0.135 A 
ATOM     76  C   UNL     1      14.900   3.504  -2.425  1.00  0.00     0.135 A 
ATOM     77  F   UNL     1      11.516   4.817  -2.682  1.00  0.00    -0.206 F 
ATOM     78  C   UNL     1      13.281   4.882  -4.225  1.00  0.00     0.059 A 
ATOM     79  C   UNL     1      15.419   3.881  -3.660  1.00  0.00     0.059 A 
ATOM     80  F   UNL     1      15.696   2.818  -1.589  1.00  0.00    -0.206 F 
ATOM     81  C   UNL     1      14.600   4.566  -4.556  1.00  0.00     0.060 A 
BRANCH  81  82
ATOM     82  S   UNL     1      15.234   5.087  -6.163  1.00  0.00     0.124 S 
ATOM     83  O   UNL     1      14.514   4.195  -7.066  1.00  0.00    -0.237 OA
ATOM     84  O   UNL     1      14.838   6.491  -6.211  1.00  0.00    -0.237 OA
ATOM     85  O   UNL     1      16.670   4.847  -6.058  1.00  0.00    -0.744 OA
ENDBRANCH  81  82
ENDBRANCH  60  74
BRANCH  61  86
ATOM     86  C   UNL     1       9.975   0.723   6.907  1.00  0.00     0.058 A 
ATOM     87  C   UNL     1       9.252   1.556   7.774  1.00  0.00     0.135 A 
ATOM     88  C   UNL     1      10.220  -0.595   7.327  1.00  0.00     0.135 A 
ATOM     89  F   UNL     1       8.986   2.822   7.420  1.00  0.00    -0.206 F 
ATOM     90  C   UNL     1       8.820   1.114   9.022  1.00  0.00     0.059 A 
ATOM     91  C   UNL     1       9.773  -1.069   8.557  1.00  0.00     0.059 A 
ATOM     92  F   UNL     1      10.888  -1.443   6.529  1.00  0.00    -0.206 F 
ATOM     93  C   UNL     1       9.089  -0.201   9.405  1.00  0.00     0.060 A 
BRANCH  93  94
ATOM     94  S   UNL     1       8.515  -0.768  11.021  1.00  0.00     0.124 S 
ATOM     95  O   UNL     1       9.423  -0.063  11.918  1.00  0.00    -0.237 OA
ATOM     96  O   UNL     1       7.128  -0.315  11.030  1.00  0.00    -0.237 OA
ATOM     97  O   UNL     1       8.693  -2.215  10.953  1.00  0.00    -0.744 OA
ENDBRANCH  93  94
ENDBRANCH  61  86
BRANCH  73  98
ATOM     98  C   UNL     1      14.584   5.564   4.877  1.00  0.00     0.058 A 
ATOM     99  C   UNL     1      15.677   5.195   5.675  1.00  0.00     0.135 A 
ATOM    100  C   UNL     1      14.273   6.929   4.767  1.00  0.00     0.135 A 
ATOM    101  F   UNL     1      16.009   3.902   5.810  1.00  0.00    -0.206 F 
ATOM    102  C   UNL     1      16.414   6.146   6.369  1.00  0.00     0.059 A 
ATOM    103  C   UNL     1      15.018   7.899   5.425  1.00  0.00     0.059 A 
ATOM    104  F   UNL     1      13.246   7.330   4.001  1.00  0.00    -0.206 F 
ATOM    105  C   UNL     1      16.076   7.495   6.237  1.00  0.00     0.060 A 
BRANCH 105 106
ATOM    106  S   UNL     1      17.054   8.720   7.128  1.00  0.00     0.124 S 
ATOM    107  O   UNL     1      16.588   8.524   8.497  1.00  0.00    -0.237 OA
ATOM    108  O   UNL     1      18.421   8.287   6.855  1.00  0.00    -0.237 OA
ATOM    109  O   UNL     1      16.665   9.982   6.506  1.00  0.00    -0.744 OA
ENDBRANCH 105 106
ENDBRANCH  73  98
ENDBRANCH  47  48
ENDBRANCH  40  42
ENDBRANCH  39  40
ENDBRANCH   1  39
TORSDOF 19
