REMARK SMILES Cc1ccc(N[C@H](CC(=O)c2ccccc2)C(=O)OCCOC(=O)c2ccc(-c3c4nc(c(-c5c(F)cc(S(=O)(=O)[O-])cc5F)c5ccc([nH]5)c(-c5c(F)cc(S(=O)(=O)[O-])cc5F)c5nc(c(-c6c(F)cc(S(=O)(=O)[O-])cc6F)c6ccc3[nH]6)C=C5)C=C4)cc2)cc1Cl
REMARK SMILES IDX 20 1 19 2 17 3 18 4 7 5 6 6 5 8 1 9 2 10 3 11 92 12 4 13
REMARK SMILES IDX 91 14 93 15 8 16 9 17 10 18 11 19 12 20 16 21 13 22 15 23
REMARK SMILES IDX 14 24 21 25 22 26 23 27 24 28 25 29 26 30 90 31 27 32 89 33
REMARK SMILES IDX 28 34 29 35 30 36 83 37 31 38 88 39 82 40 84 41 32 42 87 43
REMARK SMILES IDX 81 44 80 45 33 47 67 48 46 49 66 50 47 51 50 52 65 53 85 54
REMARK SMILES IDX 48 55 49 56 64 58 86 59 51 60 34 61 35 62 44 63 36 64 37 65
REMARK SMILES IDX 43 66 45 67 38 68 39 69 40 70 41 71 42 72 68 73 69 74 78 75
REMARK SMILES IDX 70 76 71 77 77 78 79 79 72 80 73 81 74 82 75 83 76 84 52 85
REMARK SMILES IDX 53 86 62 87 54 88 55 89 61 90 63 91 56 92 57 93 58 94 59 95
REMARK SMILES IDX 60 96
REMARK H PARENT 6 7 84 46 50 57
REMARK Flexibility Score: inf
ROOT
ATOM      1  C   UNL     1      -4.071  -5.599  -2.553  1.00  0.00     0.274 C 
ENDROOT
BRANCH   1   2
ATOM      2  O   UNL     1      -3.882  -4.668  -1.470  1.00  0.00    -0.461 OA
BRANCH   2   3
ATOM      3  C   UNL     1      -2.816  -4.897  -0.654  1.00  0.00     0.329 C 
ATOM      4  O   UNL     1      -2.043  -5.843  -0.765  1.00  0.00    -0.250 OA
BRANCH   3   5
ATOM      5  C   UNL     1      -2.755  -3.913   0.540  1.00  0.00     0.197 C 
BRANCH   5   6
ATOM      6  N   UNL     1      -3.595  -4.495   1.614  1.00  0.00    -0.372 N 
ATOM      7  H   UNL     1      -4.011  -5.370   1.441  1.00  0.00     0.161 HD
BRANCH   6   8
ATOM      8  C   UNL     1      -3.841  -3.905   2.841  1.00  0.00     0.036 A 
ATOM      9  C   UNL     1      -4.558  -2.143   6.744  1.00  0.00     0.046 C 
ATOM     10  C   UNL     1      -4.336  -2.747   5.387  1.00  0.00    -0.032 A 
ATOM     11  C   UNL     1      -3.540  -3.892   5.261  1.00  0.00     0.007 A 
ATOM     12  C   UNL     1      -4.861  -2.178   4.222  1.00  0.00     0.046 A 
ATOM     13  C   UNL     1      -3.296  -4.458   4.004  1.00  0.00     0.026 A 
ATOM     14  C   UNL     1      -4.623  -2.759   2.971  1.00  0.00     0.046 A 
ATOM     15  Cl  UNL     1      -5.817  -0.738   4.266  1.00  0.00    -0.084 Cl
ENDBRANCH   6   8
ENDBRANCH   5   6
BRANCH   5  16
ATOM     16  C   UNL     1      -3.085  -2.494   0.089  1.00  0.00     0.118 C 
BRANCH  16  17
ATOM     17  C   UNL     1      -2.217  -1.341   0.577  1.00  0.00     0.165 C 
ATOM     18  O   UNL     1      -2.018  -0.360  -0.141  1.00  0.00    -0.294 OA
BRANCH  17  19
ATOM     19  C   UNL     1      -1.728  -1.246   1.969  1.00  0.00     0.018 A 
ATOM     20  C   UNL     1      -2.224  -0.204   2.763  1.00  0.00     0.012 A 
ATOM     21  C   UNL     1      -0.714  -2.072   2.457  1.00  0.00     0.012 A 
ATOM     22  C   UNL     1      -1.759  -0.038   4.068  1.00  0.00     0.001 A 
ATOM     23  C   UNL     1      -0.260  -1.909   3.768  1.00  0.00     0.001 A 
ATOM     24  C   UNL     1      -0.787  -0.900   4.574  1.00  0.00     0.000 A 
ENDBRANCH  17  19
ENDBRANCH  16  17
ENDBRANCH   5  16
ENDBRANCH   3   5
ENDBRANCH   2   3
ENDBRANCH   1   2
BRANCH   1  25
ATOM     25  C   UNL     1      -3.525  -5.053  -3.873  1.00  0.00     0.275 C 
BRANCH  25  26
ATOM     26  O   UNL     1      -2.095  -4.908  -3.826  1.00  0.00    -0.458 OA
BRANCH  26  27
ATOM     27  C   UNL     1      -1.653  -3.650  -3.599  1.00  0.00     0.338 C 
ATOM     28  O   UNL     1      -2.330  -2.645  -3.456  1.00  0.00    -0.246 OA
BRANCH  27  29
ATOM     29  C   UNL     1      -0.195  -3.665  -3.438  1.00  0.00     0.060 A 
ATOM     30  C   UNL     1       0.339  -3.596  -2.148  1.00  0.00     0.016 A 
ATOM     31  C   UNL     1       0.637  -3.657  -4.558  1.00  0.00     0.016 A 
ATOM     32  C   UNL     1       1.718  -3.511  -1.972  1.00  0.00     0.010 A 
ATOM     33  C   UNL     1       2.021  -3.579  -4.378  1.00  0.00     0.010 A 
ATOM     34  C   UNL     1       2.568  -3.493  -3.086  1.00  0.00    -0.014 A 
BRANCH  34  35
ATOM     35  C   UNL     1       4.031  -3.335  -2.905  1.00  0.00     0.031 A 
ATOM     36  C   UNL     1       4.686  -2.022  -3.227  1.00  0.00     0.074 A 
ATOM     37  C   UNL     1       4.767  -4.370  -2.457  1.00  0.00     0.049 A 
ATOM     38  N   UNL     1       5.957  -1.718  -3.253  1.00  0.00    -0.248 NA
ATOM     39  C   UNL     1       3.790  -0.906  -3.568  1.00  0.00     0.031 C 
ATOM     40  C   UNL     1       4.238  -5.682  -2.083  1.00  0.00     0.029 A 
ATOM     41  N   UNL     1       6.119  -4.482  -2.255  1.00  0.00    -0.354 N 
ATOM     42  C   UNL     1       6.019  -0.383  -3.631  1.00  0.00     0.074 A 
ATOM     43  C   UNL     1       4.657   0.062  -3.836  1.00  0.00     0.031 C 
ATOM     44  C   UNL     1       5.258  -6.472  -1.708  1.00  0.00     0.029 A 
ATOM     45  C   UNL     1       6.511  -5.736  -1.853  1.00  0.00     0.049 A 
ATOM     46  H   UNL     1       6.748  -3.736  -2.385  1.00  0.00     0.167 HD
ATOM     47  C   UNL     1       7.113   0.400  -3.789  1.00  0.00     0.037 A 
ATOM     48  C   UNL     1       7.743  -6.244  -1.658  1.00  0.00     0.037 A 
ATOM     49  C   UNL     1       8.466  -0.045  -3.575  1.00  0.00     0.049 A 
ATOM     50  C   UNL     1       8.945  -5.366  -1.871  1.00  0.00     0.074 A 
ATOM     51  C   UNL     1       9.643   0.670  -3.719  1.00  0.00     0.029 A 
ATOM     52  N   UNL     1       8.822  -1.321  -3.163  1.00  0.00    -0.354 N 
ATOM     53  N   UNL     1       8.990  -4.111  -2.252  1.00  0.00    -0.248 NA
ATOM     54  C   UNL     1      10.262  -5.971  -1.633  1.00  0.00     0.031 C 
ATOM     55  C   UNL     1      10.712  -0.182  -3.416  1.00  0.00     0.029 A 
ATOM     56  C   UNL     1      10.199  -1.417  -3.054  1.00  0.00     0.049 A 
ATOM     57  H   UNL     1       8.188  -2.051  -2.977  1.00  0.00     0.167 HD
ATOM     58  C   UNL     1      10.338  -3.774  -2.290  1.00  0.00     0.074 A 
ATOM     59  C   UNL     1      11.075  -4.951  -1.878  1.00  0.00     0.031 C 
ATOM     60  C   UNL     1      10.913  -2.597  -2.639  1.00  0.00     0.037 A 
BRANCH  47  61
ATOM     61  C   UNL     1       6.889   1.816  -4.238  1.00  0.00     0.058 A 
ATOM     62  C   UNL     1       6.403   2.797  -3.360  1.00  0.00     0.135 A 
ATOM     63  C   UNL     1       7.185   2.201  -5.555  1.00  0.00     0.135 A 
ATOM     64  F   UNL     1       6.090   2.476  -2.095  1.00  0.00    -0.206 F 
ATOM     65  C   UNL     1       6.196   4.107  -3.779  1.00  0.00     0.059 A 
ATOM     66  C   UNL     1       7.003   3.510  -5.991  1.00  0.00     0.059 A 
ATOM     67  F   UNL     1       7.650   1.300  -6.435  1.00  0.00    -0.206 F 
ATOM     68  C   UNL     1       6.494   4.454  -5.098  1.00  0.00     0.060 A 
BRANCH  68  69
ATOM     69  S   UNL     1       6.223   6.157  -5.633  1.00  0.00     0.124 S 
ATOM     70  O   UNL     1       4.776   6.176  -5.820  1.00  0.00    -0.237 OA
ATOM     71  O   UNL     1       6.726   6.928  -4.501  1.00  0.00    -0.237 OA
ATOM     72  O   UNL     1       7.016   6.258  -6.855  1.00  0.00    -0.744 OA
ENDBRANCH  68  69
ENDBRANCH  47  61
BRANCH  48  73
ATOM     73  C   UNL     1       7.899  -7.667  -1.264  1.00  0.00     0.058 A 
ATOM     74  C   UNL     1       8.285  -8.021   0.036  1.00  0.00     0.135 A 
ATOM     75  C   UNL     1       7.645  -8.702  -2.178  1.00  0.00     0.135 A 
ATOM     76  F   UNL     1       8.547  -7.066   0.941  1.00  0.00    -0.206 F 
ATOM     77  C   UNL     1       8.422  -9.352   0.417  1.00  0.00     0.059 A 
ATOM     78  C   UNL     1       7.755 -10.040  -1.815  1.00  0.00     0.059 A 
ATOM     79  F   UNL     1       7.261  -8.412  -3.431  1.00  0.00    -0.206 F 
ATOM     80  C   UNL     1       8.152 -10.355  -0.516  1.00  0.00     0.060 A 
BRANCH  80  81
ATOM     81  S   UNL     1       8.268 -12.082  -0.000  1.00  0.00     0.124 S 
ATOM     82  O   UNL     1       9.707 -12.308  -0.057  1.00  0.00    -0.237 OA
ATOM     83  O   UNL     1       7.679 -12.048   1.335  1.00  0.00    -0.237 OA
ATOM     84  O   UNL     1       7.476 -12.783  -1.007  1.00  0.00    -0.744 OA
ENDBRANCH  80  81
ENDBRANCH  48  73
BRANCH  60  85
ATOM     85  C   UNL     1      12.411  -2.520  -2.568  1.00  0.00     0.058 A 
ATOM     86  C   UNL     1      13.221  -3.096  -3.558  1.00  0.00     0.135 A 
ATOM     87  C   UNL     1      13.040  -1.826  -1.522  1.00  0.00     0.135 A 
ATOM     88  F   UNL     1      12.666  -3.776  -4.574  1.00  0.00    -0.206 F 
ATOM     89  C   UNL     1      14.608  -3.003  -3.504  1.00  0.00     0.059 A 
ATOM     90  C   UNL     1      14.424  -1.705  -1.458  1.00  0.00     0.059 A 
ATOM     91  F   UNL     1      12.307  -1.252  -0.555  1.00  0.00    -0.206 F 
ATOM     92  C   UNL     1      15.201  -2.307  -2.448  1.00  0.00     0.060 A 
BRANCH  92  93
ATOM     93  S   UNL     1      17.000  -2.165  -2.400  1.00  0.00     0.124 S 
ATOM     94  O   UNL     1      17.383  -3.473  -1.880  1.00  0.00    -0.237 OA
ATOM     95  O   UNL     1      17.336  -1.915  -3.798  1.00  0.00    -0.237 OA
ATOM     96  O   UNL     1      17.225  -1.039  -1.498  1.00  0.00    -0.744 OA
ENDBRANCH  92  93
ENDBRANCH  60  85
ENDBRANCH  34  35
ENDBRANCH  27  29
ENDBRANCH  26  27
ENDBRANCH  25  26
ENDBRANCH   1  25
TORSDOF 19
