REMARK SMILES CC(C)N1C[C@@H](C(=O)N[C@@H](C)CC(=O)OCCOC(=O)c2ccc(-c3c4nc(c(-c5c(F)cc(S(=O)(=O)[O-])cc5F)c5ccc([nH]5)c(-c5c(F)cc(S(=O)(=O)[O-])cc5F)c5nc(c(-c6c(F)cc(S(=O)(=O)[O-])cc6F)c6ccc3[nH]6)C=C5)C=C4)cc2)CC1=O
REMARK SMILES IDX 16 1 15 2 13 3 14 4 12 5 10 6 11 7 9 8 7 9 8 10 6 12 4 13
REMARK SMILES IDX 5 14 88 15 87 16 89 17 2 18 1 19 3 20 17 21 18 22 19 23
REMARK SMILES IDX 20 24 21 25 22 26 86 27 23 28 85 29 24 30 25 31 26 32 79 33
REMARK SMILES IDX 27 34 84 35 78 36 80 37 28 38 83 39 77 40 76 41 29 43 63 44
REMARK SMILES IDX 42 45 62 46 43 47 46 48 61 49 81 50 44 51 45 52 60 54 82 55
REMARK SMILES IDX 47 56 30 57 31 58 40 59 32 60 33 61 39 62 41 63 34 64 35 65
REMARK SMILES IDX 36 66 37 67 38 68 64 69 65 70 74 71 66 72 67 73 73 74 75 75
REMARK SMILES IDX 68 76 69 77 70 78 71 79 72 80 48 81 49 82 58 83 50 84 51 85
REMARK SMILES IDX 57 86 59 87 52 88 53 89 54 90 55 91 56 92
REMARK H PARENT 9 11 80 42 46 53
REMARK Flexibility Score: inf
ROOT
ATOM      1  C   UNL     1      -1.952  -6.274   0.453  1.00  0.00     0.274 C 
ENDROOT
BRANCH   1   2
ATOM      2  O   UNL     1      -2.873  -5.241   0.866  1.00  0.00    -0.462 OA
BRANCH   2   3
ATOM      3  C   UNL     1      -2.825  -4.904   2.180  1.00  0.00     0.307 C 
ATOM      4  O   UNL     1      -2.128  -5.474   3.014  1.00  0.00    -0.252 OA
BRANCH   3   5
ATOM      5  C   UNL     1      -3.796  -3.816   2.566  1.00  0.00     0.147 C 
BRANCH   5   6
ATOM      6  C   UNL     1      -3.928  -2.565   1.671  1.00  0.00     0.090 C 
ATOM      7  C   UNL     1      -4.660  -1.508   2.515  1.00  0.00     0.031 C 
BRANCH   6   8
ATOM      8  N   UNL     1      -4.702  -2.857   0.459  1.00  0.00    -0.353 N 
ATOM      9  C   UNL     1      -4.656  -2.418  -0.822  1.00  0.00     0.225 C 
ATOM     10  O   UNL     1      -5.468  -2.950  -1.592  1.00  0.00    -0.275 OA
ATOM     11  H   UNL     1      -5.414  -3.519   0.611  1.00  0.00     0.163 HD
BRANCH   9  12
ATOM     12  C   UNL     1      -3.713  -1.365  -1.383  1.00  0.00     0.107 C 
ATOM     13  N   UNL     1      -1.483  -0.588  -1.224  1.00  0.00    -0.339 N 
ATOM     14  C   UNL     1      -2.260  -1.783  -1.497  1.00  0.00     0.133 C 
ATOM     15  C   UNL     1      -2.302   0.490  -0.913  1.00  0.00     0.223 C 
ATOM     16  C   UNL     1      -3.699  -0.017  -0.695  1.00  0.00     0.115 C 
ATOM     17  O   UNL     1      -1.981   1.658  -0.794  1.00  0.00    -0.275 OA
BRANCH  13  18
ATOM     18  C   UNL     1      -0.041  -0.452  -1.503  1.00  0.00     0.078 C 
ATOM     19  C   UNL     1       0.690   0.352  -0.417  1.00  0.00     0.031 C 
ATOM     20  C   UNL     1       0.690  -1.786  -1.679  1.00  0.00     0.031 C 
ENDBRANCH  13  18
ENDBRANCH   9  12
ENDBRANCH   6   8
ENDBRANCH   5   6
ENDBRANCH   3   5
ENDBRANCH   2   3
ENDBRANCH   1   2
BRANCH   1  21
ATOM     21  C   UNL     1      -0.641  -5.718  -0.124  1.00  0.00     0.275 C 
BRANCH  21  22
ATOM     22  O   UNL     1       0.275  -5.199   0.864  1.00  0.00    -0.458 OA
BRANCH  22  23
ATOM     23  C   UNL     1      -0.024  -3.953   1.279  1.00  0.00     0.338 C 
ATOM     24  O   UNL     1      -1.006  -3.301   0.950  1.00  0.00    -0.246 OA
BRANCH  23  25
ATOM     25  C   UNL     1       0.938  -3.339   2.185  1.00  0.00     0.060 A 
ATOM     26  C   UNL     1       0.404  -2.592   3.243  1.00  0.00     0.016 A 
ATOM     27  C   UNL     1       2.295  -3.277   1.866  1.00  0.00     0.016 A 
ATOM     28  C   UNL     1       1.226  -1.754   3.977  1.00  0.00     0.010 A 
ATOM     29  C   UNL     1       3.122  -2.438   2.611  1.00  0.00     0.010 A 
ATOM     30  C   UNL     1       2.586  -1.667   3.657  1.00  0.00    -0.014 A 
BRANCH  30  31
ATOM     31  C   UNL     1       3.456  -0.833   4.503  1.00  0.00     0.031 A 
ATOM     32  C   UNL     1       3.796   0.572   4.117  1.00  0.00     0.074 A 
ATOM     33  C   UNL     1       3.892  -1.373   5.653  1.00  0.00     0.049 A 
ATOM     34  N   UNL     1       4.538   1.438   4.755  1.00  0.00    -0.248 NA
ATOM     35  C   UNL     1       3.229   1.074   2.856  1.00  0.00     0.031 C 
ATOM     36  C   UNL     1       3.579  -2.729   6.112  1.00  0.00     0.029 A 
ATOM     37  N   UNL     1       4.683  -0.857   6.640  1.00  0.00    -0.354 N 
ATOM     38  C   UNL     1       4.526   2.592   3.982  1.00  0.00     0.074 A 
ATOM     39  C   UNL     1       3.716   2.309   2.815  1.00  0.00     0.031 C 
ATOM     40  C   UNL     1       4.186  -2.943   7.287  1.00  0.00     0.029 A 
ATOM     41  C   UNL     1       4.942  -1.750   7.649  1.00  0.00     0.049 A 
ATOM     42  H   UNL     1       5.033   0.064   6.629  1.00  0.00     0.167 HD
ATOM     43  C   UNL     1       5.138   3.773   4.235  1.00  0.00     0.037 A 
ATOM     44  C   UNL     1       5.719  -1.622   8.739  1.00  0.00     0.037 A 
ATOM     45  C   UNL     1       5.953   4.022   5.399  1.00  0.00     0.049 A 
ATOM     46  C   UNL     1       6.394  -0.309   8.988  1.00  0.00     0.074 A 
ATOM     47  C   UNL     1       6.640   5.173   5.745  1.00  0.00     0.029 A 
ATOM     48  N   UNL     1       6.190   3.099   6.409  1.00  0.00    -0.354 N 
ATOM     49  N   UNL     1       6.381   0.772   8.245  1.00  0.00    -0.248 NA
ATOM     50  C   UNL     1       7.173  -0.190  10.224  1.00  0.00     0.031 C 
ATOM     51  C   UNL     1       7.309   4.937   6.953  1.00  0.00     0.029 A 
ATOM     52  C   UNL     1       7.015   3.650   7.375  1.00  0.00     0.049 A 
ATOM     53  H   UNL     1       5.824   2.185   6.435  1.00  0.00     0.167 HD
ATOM     54  C   UNL     1       7.144   1.709   8.928  1.00  0.00     0.074 A 
ATOM     55  C   UNL     1       7.590   1.068  10.151  1.00  0.00     0.031 C 
ATOM     56  C   UNL     1       7.448   2.982   8.577  1.00  0.00     0.037 A 
BRANCH  43  57
ATOM     57  C   UNL     1       4.966   4.877   3.231  1.00  0.00     0.058 A 
ATOM     58  C   UNL     1       3.776   5.617   3.150  1.00  0.00     0.135 A 
ATOM     59  C   UNL     1       6.016   5.230   2.369  1.00  0.00     0.135 A 
ATOM     60  F   UNL     1       2.736   5.312   3.941  1.00  0.00    -0.206 F 
ATOM     61  C   UNL     1       3.629   6.662   2.241  1.00  0.00     0.059 A 
ATOM     62  C   UNL     1       5.897   6.281   1.463  1.00  0.00     0.059 A 
ATOM     63  F   UNL     1       7.174   4.552   2.402  1.00  0.00    -0.206 F 
ATOM     64  C   UNL     1       4.695   6.986   1.399  1.00  0.00     0.060 A 
BRANCH  64  65
ATOM     65  S   UNL     1       4.506   8.356   0.237  1.00  0.00     0.124 S 
ATOM     66  O   UNL     1       3.723   7.731  -0.825  1.00  0.00    -0.237 OA
ATOM     67  O   UNL     1       3.806   9.357   1.036  1.00  0.00    -0.237 OA
ATOM     68  O   UNL     1       5.883   8.693  -0.114  1.00  0.00    -0.744 OA
ENDBRANCH  64  65
ENDBRANCH  43  57
BRANCH  44  69
ATOM     69  C   UNL     1       5.875  -2.780   9.650  1.00  0.00     0.058 A 
ATOM     70  C   UNL     1       5.203  -2.832  10.877  1.00  0.00     0.135 A 
ATOM     71  C   UNL     1       6.629  -3.898   9.261  1.00  0.00     0.135 A 
ATOM     72  F   UNL     1       4.467  -1.787  11.285  1.00  0.00    -0.206 F 
ATOM     73  C   UNL     1       5.268  -3.958  11.691  1.00  0.00     0.059 A 
ATOM     74  C   UNL     1       6.694  -5.042  10.049  1.00  0.00     0.059 A 
ATOM     75  F   UNL     1       7.268  -3.901   8.081  1.00  0.00    -0.206 F 
ATOM     76  C   UNL     1       6.012  -5.061  11.265  1.00  0.00     0.060 A 
BRANCH  76  77
ATOM     77  S   UNL     1       6.017  -6.558  12.275  1.00  0.00     0.124 S 
ATOM     78  O   UNL     1       7.021  -6.228  13.280  1.00  0.00    -0.237 OA
ATOM     79  O   UNL     1       4.637  -6.622  12.748  1.00  0.00    -0.237 OA
ATOM     80  O   UNL     1       6.391  -7.599  11.322  1.00  0.00    -0.744 OA
ENDBRANCH  76  77
ENDBRANCH  44  69
BRANCH  56  81
ATOM     81  C   UNL     1       8.294   3.755   9.544  1.00  0.00     0.058 A 
ATOM     82  C   UNL     1       9.678   3.540   9.634  1.00  0.00     0.135 A 
ATOM     83  C   UNL     1       7.715   4.714  10.388  1.00  0.00     0.135 A 
ATOM     84  F   UNL     1      10.273   2.626   8.851  1.00  0.00    -0.206 F 
ATOM     85  C   UNL     1      10.457   4.231  10.555  1.00  0.00     0.059 A 
ATOM     86  C   UNL     1       8.479   5.428  11.304  1.00  0.00     0.059 A 
ATOM     87  F   UNL     1       6.396   4.956  10.332  1.00  0.00    -0.206 F 
ATOM     88  C   UNL     1       9.846   5.167  11.392  1.00  0.00     0.060 A 
BRANCH  88  89
ATOM     89  S   UNL     1      10.860   6.058  12.591  1.00  0.00     0.124 S 
ATOM     90  O   UNL     1      10.954   5.084  13.673  1.00  0.00    -0.237 OA
ATOM     91  O   UNL     1      12.093   6.301  11.848  1.00  0.00    -0.237 OA
ATOM     92  O   UNL     1      10.067   7.249  12.880  1.00  0.00    -0.744 OA
ENDBRANCH  88  89
ENDBRANCH  56  81
ENDBRANCH  30  31
ENDBRANCH  23  25
ENDBRANCH  22  23
ENDBRANCH  21  22
ENDBRANCH   1  21
TORSDOF 18
