REMARK SMILES CC(=O)O[C@H]1C[C@@H](C(=O)OCCOC(=O)c2ccc(-c3c4nc(c(-c5c(F)cc(S(=O)(=O)[O-])cc5F)c5ccc([nH]5)c(-c5c(F)cc(S(=O)(=O)[O-])cc5F)c5nc(c(-c6c(F)cc(S(=O)(=O)[O-])cc6F)c6ccc3[nH]6)C=C5)C=C4)cc2)N(S(=O)(=O)c2ccc(F)cc2)C1
REMARK SMILES IDX 12 1 11 2 10 3 8 4 9 5 7 6 5 7 6 8 93 9 82 10 4 11 2 12 1 13
REMARK SMILES IDX 3 14 83 15 84 16 85 17 86 18 87 19 92 20 88 21 91 22 89 23
REMARK SMILES IDX 90 24 13 25 14 26 15 27 16 28 17 29 81 30 18 31 80 32 19 33
REMARK SMILES IDX 20 34 21 35 74 36 22 37 79 38 73 39 75 40 23 41 78 42 72 43
REMARK SMILES IDX 71 44 24 46 58 47 37 48 57 49 38 50 41 51 56 52 76 53 39 54
REMARK SMILES IDX 40 55 55 57 77 58 42 59 25 60 26 61 35 62 27 63 28 64 34 65
REMARK SMILES IDX 36 66 29 67 30 68 31 69 32 70 33 71 59 72 60 73 69 74 61 75
REMARK SMILES IDX 62 76 68 77 70 78 63 79 64 80 65 81 66 82 67 83 43 84 44 85
REMARK SMILES IDX 53 86 45 87 46 88 52 89 54 90 47 91 48 92 49 93 50 94 51 95
REMARK H PARENT 75 45 41 56
REMARK Flexibility Score: inf
ROOT
ATOM      1  C   UNL     1       4.398  -2.672  -7.482  1.00  0.00     0.275 C 
ENDROOT
BRANCH   1   2
ATOM      2  C   UNL     1       2.876  -2.519  -7.415  1.00  0.00     0.274 C 
BRANCH   2   3
ATOM      3  O   UNL     1       2.598  -1.208  -6.885  1.00  0.00    -0.461 OA
BRANCH   3   4
ATOM      4  C   UNL     1       1.438  -1.053  -6.199  1.00  0.00     0.324 C 
ATOM      5  O   UNL     1       0.556  -1.898  -6.144  1.00  0.00    -0.250 OA
BRANCH   4   6
ATOM      6  C   UNL     1       1.486   0.221  -5.388  1.00  0.00     0.187 C 
ATOM      7  C   UNL     1       0.441   1.654  -3.791  1.00  0.00     0.194 C 
ATOM      8  C   UNL     1       0.288   0.296  -4.444  1.00  0.00     0.079 C 
ATOM      9  C   UNL     1       1.028   2.524  -4.915  1.00  0.00     0.148 C 
ATOM     10  N   UNL     1       1.584   1.596  -5.966  1.00  0.00    -0.180 NA
BRANCH   7  11
ATOM     11  O   UNL     1      -0.846   2.178  -3.411  1.00  0.00    -0.461 OA
BRANCH  11  12
ATOM     12  C   UNL     1      -1.536   1.781  -2.316  1.00  0.00     0.302 C 
ATOM     13  C   UNL     1      -0.783   1.035  -1.256  1.00  0.00     0.139 C 
ATOM     14  O   UNL     1      -2.720   2.076  -2.183  1.00  0.00    -0.253 OA
ENDBRANCH  11  12
ENDBRANCH   7  11
BRANCH  10  15
ATOM     15  S   UNL     1       0.967   1.889  -7.523  1.00  0.00     0.243 S 
ATOM     16  O   UNL     1      -0.240   1.107  -7.664  1.00  0.00    -0.207 OA
ATOM     17  O   UNL     1       0.952   3.324  -7.724  1.00  0.00    -0.207 OA
BRANCH  15  18
ATOM     18  C   UNL     1       2.181   1.261  -8.664  1.00  0.00     0.082 A 
ATOM     19  C   UNL     1       3.326   2.021  -8.937  1.00  0.00     0.025 A 
ATOM     20  C   UNL     1       1.918   0.096  -9.394  1.00  0.00     0.025 A 
ATOM     21  C   UNL     1       4.236   1.578  -9.902  1.00  0.00     0.040 A 
ATOM     22  C   UNL     1       2.847  -0.358 -10.333  1.00  0.00     0.040 A 
ATOM     23  C   UNL     1       3.996   0.385 -10.577  1.00  0.00     0.123 A 
ATOM     24  F   UNL     1       4.878  -0.048 -11.487  1.00  0.00    -0.207 F 
ENDBRANCH  15  18
ENDBRANCH  10  15
ENDBRANCH   4   6
ENDBRANCH   3   4
ENDBRANCH   2   3
ENDBRANCH   1   2
BRANCH   1  25
ATOM     25  O   UNL     1       4.884  -3.109  -6.201  1.00  0.00    -0.458 OA
BRANCH  25  26
ATOM     26  C   UNL     1       4.853  -2.181  -5.209  1.00  0.00     0.338 C 
ATOM     27  O   UNL     1       4.846  -0.974  -5.320  1.00  0.00    -0.246 OA
BRANCH  26  28
ATOM     28  C   UNL     1       4.493  -2.905  -3.972  1.00  0.00     0.060 A 
ATOM     29  C   UNL     1       3.503  -2.349  -3.152  1.00  0.00     0.016 A 
ATOM     30  C   UNL     1       5.032  -4.161  -3.686  1.00  0.00     0.016 A 
ATOM     31  C   UNL     1       3.020  -3.061  -2.060  1.00  0.00     0.010 A 
ATOM     32  C   UNL     1       4.554  -4.870  -2.590  1.00  0.00     0.010 A 
ATOM     33  C   UNL     1       3.546  -4.325  -1.778  1.00  0.00    -0.014 A 
BRANCH  33  34
ATOM     34  C   UNL     1       3.117  -5.066  -0.578  1.00  0.00     0.031 A 
ATOM     35  C   UNL     1       4.032  -5.085   0.606  1.00  0.00     0.074 A 
ATOM     36  C   UNL     1       1.958  -5.748  -0.587  1.00  0.00     0.049 A 
ATOM     37  N   UNL     1       3.968  -5.810   1.687  1.00  0.00    -0.248 NA
ATOM     38  C   UNL     1       5.185  -4.170   0.555  1.00  0.00     0.031 C 
ATOM     39  C   UNL     1       0.986  -5.749  -1.681  1.00  0.00     0.029 A 
ATOM     40  N   UNL     1       1.417  -6.595   0.344  1.00  0.00    -0.354 N 
ATOM     41  C   UNL     1       5.082  -5.459   2.438  1.00  0.00     0.074 A 
ATOM     42  C   UNL     1       5.814  -4.467   1.682  1.00  0.00     0.031 C 
ATOM     43  C   UNL     1      -0.022  -6.581  -1.369  1.00  0.00     0.029 A 
ATOM     44  C   UNL     1       0.262  -7.207  -0.080  1.00  0.00     0.049 A 
ATOM     45  H   UNL     1       1.817  -6.750   1.230  1.00  0.00     0.167 HD
ATOM     46  C   UNL     1       5.454  -5.931   3.650  1.00  0.00     0.037 A 
ATOM     47  C   UNL     1      -0.453  -8.196   0.491  1.00  0.00     0.037 A 
ATOM     48  C   UNL     1       4.706  -6.921   4.375  1.00  0.00     0.049 A 
ATOM     49  C   UNL     1       0.024  -8.763   1.802  1.00  0.00     0.074 A 
ATOM     50  C   UNL     1       4.971  -7.460   5.620  1.00  0.00     0.029 A 
ATOM     51  N   UNL     1       3.548  -7.531   3.910  1.00  0.00    -0.354 N 
ATOM     52  N   UNL     1       1.069  -8.415   2.518  1.00  0.00    -0.248 NA
ATOM     53  C   UNL     1      -0.759  -9.864   2.378  1.00  0.00     0.031 C 
ATOM     54  C   UNL     1       3.999  -8.431   5.886  1.00  0.00     0.029 A 
ATOM     55  C   UNL     1       3.103  -8.464   4.828  1.00  0.00     0.049 A 
ATOM     56  H   UNL     1       3.109  -7.328   3.052  1.00  0.00     0.167 HD
ATOM     57  C   UNL     1       1.063  -9.245   3.633  1.00  0.00     0.074 A 
ATOM     58  C   UNL     1      -0.100 -10.101   3.505  1.00  0.00     0.031 C 
ATOM     59  C   UNL     1       1.938  -9.300   4.667  1.00  0.00     0.037 A 
BRANCH  46  60
ATOM     60  C   UNL     1       6.732  -5.406   4.236  1.00  0.00     0.058 A 
ATOM     61  C   UNL     1       6.841  -4.092   4.719  1.00  0.00     0.135 A 
ATOM     62  C   UNL     1       7.865  -6.231   4.324  1.00  0.00     0.135 A 
ATOM     63  F   UNL     1       5.796  -3.253   4.636  1.00  0.00    -0.206 F 
ATOM     64  C   UNL     1       8.034  -3.607   5.245  1.00  0.00     0.059 A 
ATOM     65  C   UNL     1       9.061  -5.776   4.869  1.00  0.00     0.059 A 
ATOM     66  F   UNL     1       7.819  -7.492   3.866  1.00  0.00    -0.206 F 
ATOM     67  C   UNL     1       9.139  -4.457   5.315  1.00  0.00     0.060 A 
BRANCH  67  68
ATOM     68  S   UNL     1      10.681  -3.810   5.996  1.00  0.00     0.124 S 
ATOM     69  O   UNL     1      11.122  -2.923   4.924  1.00  0.00    -0.237 OA
ATOM     70  O   UNL     1      10.229  -3.151   7.217  1.00  0.00    -0.237 OA
ATOM     71  O   UNL     1      11.493  -5.005   6.195  1.00  0.00    -0.744 OA
ENDBRANCH  67  68
ENDBRANCH  46  60
BRANCH  47  72
ATOM     72  C   UNL     1      -1.660  -8.736  -0.191  1.00  0.00     0.058 A 
ATOM     73  C   UNL     1      -2.943  -8.518   0.331  1.00  0.00     0.135 A 
ATOM     74  C   UNL     1      -1.558  -9.467  -1.385  1.00  0.00     0.135 A 
ATOM     75  F   UNL     1      -3.093  -7.835   1.476  1.00  0.00    -0.206 F 
ATOM     76  C   UNL     1      -4.081  -9.011  -0.300  1.00  0.00     0.059 A 
ATOM     77  C   UNL     1      -2.683  -9.949  -2.049  1.00  0.00     0.059 A 
ATOM     78  F   UNL     1      -0.354  -9.696  -1.933  1.00  0.00    -0.206 F 
ATOM     79  C   UNL     1      -3.941  -9.723  -1.493  1.00  0.00     0.060 A 
BRANCH  79  80
ATOM     80  S   UNL     1      -5.428 -10.315  -2.330  1.00  0.00     0.124 S 
ATOM     81  O   UNL     1      -5.836 -11.413  -1.461  1.00  0.00    -0.237 OA
ATOM     82  O   UNL     1      -6.282  -9.132  -2.309  1.00  0.00    -0.237 OA
ATOM     83  O   UNL     1      -4.938 -10.702  -3.650  1.00  0.00    -0.744 OA
ENDBRANCH  79  80
ENDBRANCH  47  72
BRANCH  59  84
ATOM     84  C   UNL     1       1.670 -10.311   5.745  1.00  0.00     0.058 A 
ATOM     85  C   UNL     1       1.932 -11.675   5.547  1.00  0.00     0.135 A 
ATOM     86  C   UNL     1       1.237  -9.899   7.015  1.00  0.00     0.135 A 
ATOM     87  F   UNL     1       2.339 -12.118   4.346  1.00  0.00    -0.206 F 
ATOM     88  C   UNL     1       1.771 -12.598   6.573  1.00  0.00     0.059 A 
ATOM     89  C   UNL     1       1.094 -10.802   8.063  1.00  0.00     0.059 A 
ATOM     90  F   UNL     1       0.982  -8.603   7.255  1.00  0.00    -0.206 F 
ATOM     91  C   UNL     1       1.360 -12.151   7.830  1.00  0.00     0.060 A 
BRANCH  91  92
ATOM     92  S   UNL     1       1.226 -13.351   9.172  1.00  0.00     0.124 S 
ATOM     93  O   UNL     1       0.019 -14.079   8.795  1.00  0.00    -0.237 OA
ATOM     94  O   UNL     1       2.478 -14.092   9.052  1.00  0.00    -0.237 OA
ATOM     95  O   UNL     1       1.111 -12.516  10.364  1.00  0.00    -0.744 OA
ENDBRANCH  91  92
ENDBRANCH  59  84
ENDBRANCH  33  34
ENDBRANCH  26  28
ENDBRANCH  25  26
ENDBRANCH   1  25
TORSDOF 18
