REMARK SMILES Cc1cc2c(c(C)c1Br)C=C(C(=O)OCCOC(=O)c1ccc(-c3c4nc(c(-c5c(F)cc(S(=O)(=O)[O-])cc5F)c5ccc([nH]5)c(-c5c(F)cc(S(=O)(=O)[O-])cc5F)c5nc(c(-c6c(F)cc(S(=O)(=O)[O-])cc6F)c6ccc3[nH]6)C=C5)C=C4)cc1)[C@@H](C(F)(F)F)O2
REMARK SMILES IDX 16 1 15 2 14 3 12 4 13 5 11 6 1 7 2 8 3 9 8 10 4 11 6 12
REMARK SMILES IDX 9 13 5 14 91 15 7 16 10 17 86 18 87 19 88 20 89 21 90 22
REMARK SMILES IDX 17 23 18 24 19 25 20 26 21 27 85 28 22 29 84 30 23 31 24 32
REMARK SMILES IDX 25 33 78 34 26 35 83 36 77 37 79 38 27 39 82 40 76 41 75 42
REMARK SMILES IDX 28 44 62 45 41 46 61 47 42 48 45 49 60 50 80 51 43 52 44 53
REMARK SMILES IDX 59 55 81 56 46 57 29 58 30 59 39 60 31 61 32 62 38 63 40 64
REMARK SMILES IDX 33 65 34 66 35 67 36 68 37 69 63 70 64 71 73 72 65 73 66 74
REMARK SMILES IDX 72 75 74 76 67 77 68 78 69 79 70 80 71 81 47 82 48 83 57 84
REMARK SMILES IDX 49 85 50 86 56 87 58 88 51 89 52 90 53 91 54 92 55 93
REMARK H PARENT 79 43 45 54
REMARK Flexibility Score: inf
ROOT
ATOM      1  C   UNL     1       0.255  -9.592   4.391  1.00  0.00     0.275 C 
ENDROOT
BRANCH   1   2
ATOM      2  C   UNL     1      -0.068  -9.485   2.901  1.00  0.00     0.275 C 
BRANCH   2   3
ATOM      3  O   UNL     1       0.351  -8.213   2.362  1.00  0.00    -0.459 OA
BRANCH   3   4
ATOM      4  C   UNL     1      -0.640  -7.319   2.137  1.00  0.00     0.338 C 
ATOM      5  O   UNL     1      -1.834  -7.496   2.325  1.00  0.00    -0.246 OA
BRANCH   4   6
ATOM      6  C   UNL     1      -0.087  -6.049   1.629  1.00  0.00     0.087 C 
ATOM      7  C   UNL     1       1.192  -0.010  -0.352  1.00  0.00     0.046 C 
ATOM      8  C   UNL     1       0.733  -1.225   0.411  1.00  0.00    -0.033 A 
ATOM      9  C   UNL     1       1.205  -2.468  -0.040  1.00  0.00     0.051 A 
ATOM     10  C   UNL     1      -0.169  -1.190   1.495  1.00  0.00     0.024 A 
ATOM     11  C   UNL     1       0.796  -3.657   0.556  1.00  0.00     0.128 A 
ATOM     12  C   UNL     1      -0.580  -2.387   2.131  1.00  0.00    -0.026 A 
ATOM     13  Br  UNL     1      -0.850   0.501   2.081  1.00  0.00    -0.050 Br
ATOM     14  C   UNL     1      -0.097  -3.629   1.630  1.00  0.00     0.021 A 
ATOM     15  O   UNL     1       1.338  -4.795   0.026  1.00  0.00    -0.475 OA
ATOM     16  C   UNL     1      -1.502  -2.385   3.332  1.00  0.00     0.046 C 
ATOM     17  C   UNL     1      -0.523  -4.911   2.181  1.00  0.00     0.027 C 
ATOM     18  C   UNL     1       0.826  -6.087   0.446  1.00  0.00     0.316 C 
BRANCH  18  19
ATOM     19  C   UNL     1       0.157  -6.773  -0.757  1.00  0.00     0.430 C 
ATOM     20  F   UNL     1       0.976  -6.784  -1.837  1.00  0.00    -0.167 F 
ATOM     21  F   UNL     1      -0.139  -8.069  -0.491  1.00  0.00    -0.167 F 
ATOM     22  F   UNL     1      -0.992  -6.164  -1.125  1.00  0.00    -0.167 F 
ENDBRANCH  18  19
ENDBRANCH   4   6
ENDBRANCH   3   4
ENDBRANCH   2   3
ENDBRANCH   1   2
BRANCH   1  23
ATOM     23  O   UNL     1      -0.542  -8.661   5.144  1.00  0.00    -0.458 OA
BRANCH  23  24
ATOM     24  C   UNL     1       0.117  -7.576   5.611  1.00  0.00     0.338 C 
ATOM     25  O   UNL     1       1.305  -7.328   5.504  1.00  0.00    -0.246 OA
BRANCH  24  26
ATOM     26  C   UNL     1      -0.840  -6.645   6.229  1.00  0.00     0.060 A 
ATOM     27  C   UNL     1      -1.748  -5.993   5.407  1.00  0.00     0.016 A 
ATOM     28  C   UNL     1      -0.743  -6.296   7.574  1.00  0.00     0.016 A 
ATOM     29  C   UNL     1      -2.456  -4.896   5.883  1.00  0.00     0.010 A 
ATOM     30  C   UNL     1      -1.571  -5.285   8.085  1.00  0.00     0.010 A 
ATOM     31  C   UNL     1      -2.408  -4.537   7.237  1.00  0.00    -0.014 A 
BRANCH  31  32
ATOM     32  C   UNL     1      -3.220  -3.379   7.727  1.00  0.00     0.031 A 
ATOM     33  C   UNL     1      -2.571  -2.243   8.485  1.00  0.00     0.074 A 
ATOM     34  C   UNL     1      -4.540  -3.312   7.444  1.00  0.00     0.049 A 
ATOM     35  N   UNL     1      -3.135  -1.226   9.088  1.00  0.00    -0.248 NA
ATOM     36  C   UNL     1      -1.103  -2.254   8.593  1.00  0.00     0.031 C 
ATOM     37  C   UNL     1      -5.297  -4.315   6.687  1.00  0.00     0.029 A 
ATOM     38  N   UNL     1      -5.480  -2.348   7.723  1.00  0.00    -0.354 N 
ATOM     39  C   UNL     1      -2.102  -0.511   9.687  1.00  0.00     0.074 A 
ATOM     40  C   UNL     1      -0.876  -1.217   9.388  1.00  0.00     0.031 C 
ATOM     41  C   UNL     1      -6.543  -3.871   6.479  1.00  0.00     0.029 A 
ATOM     42  C   UNL     1      -6.723  -2.615   7.193  1.00  0.00     0.049 A 
ATOM     43  H   UNL     1      -5.282  -1.541   8.252  1.00  0.00     0.167 HD
ATOM     44  C   UNL     1      -2.170   0.632  10.412  1.00  0.00     0.037 A 
ATOM     45  C   UNL     1      -7.893  -1.953   7.297  1.00  0.00     0.037 A 
ATOM     46  C   UNL     1      -3.389   1.363  10.653  1.00  0.00     0.049 A 
ATOM     47  C   UNL     1      -7.951  -0.713   8.143  1.00  0.00     0.074 A 
ATOM     48  C   UNL     1      -3.563   2.525  11.386  1.00  0.00     0.029 A 
ATOM     49  N   UNL     1      -4.634   1.021  10.147  1.00  0.00    -0.354 N 
ATOM     50  N   UNL     1      -6.976  -0.103   8.772  1.00  0.00    -0.248 NA
ATOM     51  C   UNL     1      -9.269  -0.090   8.322  1.00  0.00     0.031 C 
ATOM     52  C   UNL     1      -4.918   2.865  11.353  1.00  0.00     0.029 A 
ATOM     53  C   UNL     1      -5.581   1.944  10.558  1.00  0.00     0.049 A 
ATOM     54  H   UNL     1      -4.817   0.238   9.579  1.00  0.00     0.167 HD
ATOM     55  C   UNL     1      -7.560   0.983   9.411  1.00  0.00     0.074 A 
ATOM     56  C   UNL     1      -8.970   0.956   9.081  1.00  0.00     0.031 C 
ATOM     57  C   UNL     1      -6.979   1.913  10.207  1.00  0.00     0.037 A 
BRANCH  44  58
ATOM     58  C   UNL     1      -0.899   1.169  11.018  1.00  0.00     0.058 A 
ATOM     59  C   UNL     1       0.096   1.778  10.238  1.00  0.00     0.135 A 
ATOM     60  C   UNL     1      -0.709   1.138  12.410  1.00  0.00     0.135 A 
ATOM     61  F   UNL     1      -0.025   1.822   8.902  1.00  0.00    -0.206 F 
ATOM     62  C   UNL     1       1.240   2.323  10.814  1.00  0.00     0.059 A 
ATOM     63  C   UNL     1       0.414   1.701  13.010  1.00  0.00     0.059 A 
ATOM     64  F   UNL     1      -1.629   0.569  13.205  1.00  0.00    -0.206 F 
ATOM     65  C   UNL     1       1.388   2.284  12.202  1.00  0.00     0.060 A 
BRANCH  65  66
ATOM     66  S   UNL     1       2.869   3.015  12.933  1.00  0.00     0.124 S 
ATOM     67  O   UNL     1       3.902   2.079  12.498  1.00  0.00    -0.237 OA
ATOM     68  O   UNL     1       2.906   4.333  12.308  1.00  0.00    -0.237 OA
ATOM     69  O   UNL     1       2.584   3.010  14.364  1.00  0.00    -0.744 OA
ENDBRANCH  65  66
ENDBRANCH  44  58
BRANCH  45  70
ATOM     70  C   UNL     1      -9.108  -2.473   6.610  1.00  0.00     0.058 A 
ATOM     71  C   UNL     1      -9.690  -1.772   5.544  1.00  0.00     0.135 A 
ATOM     72  C   UNL     1      -9.692  -3.696   6.980  1.00  0.00     0.135 A 
ATOM     73  F   UNL     1      -9.180  -0.592   5.159  1.00  0.00    -0.206 F 
ATOM     74  C   UNL     1     -10.805  -2.261   4.870  1.00  0.00     0.059 A 
ATOM     75  C   UNL     1     -10.786  -4.223   6.301  1.00  0.00     0.059 A 
ATOM     76  F   UNL     1      -9.170  -4.414   7.987  1.00  0.00    -0.206 F 
ATOM     77  C   UNL     1     -11.341  -3.493   5.251  1.00  0.00     0.060 A 
BRANCH  77  78
ATOM     78  S   UNL     1     -12.750  -4.149   4.332  1.00  0.00     0.124 S 
ATOM     79  O   UNL     1     -13.825  -3.268   4.775  1.00  0.00    -0.237 OA
ATOM     80  O   UNL     1     -12.317  -3.983   2.948  1.00  0.00    -0.237 OA
ATOM     81  O   UNL     1     -12.838  -5.531   4.793  1.00  0.00    -0.744 OA
ENDBRANCH  77  78
ENDBRANCH  45  70
BRANCH  57  82
ATOM     82  C   UNL     1      -7.852   3.005  10.755  1.00  0.00     0.058 A 
ATOM     83  C   UNL     1      -8.742   2.772  11.814  1.00  0.00     0.135 A 
ATOM     84  C   UNL     1      -7.727   4.319  10.276  1.00  0.00     0.135 A 
ATOM     85  F   UNL     1      -8.905   1.531  12.299  1.00  0.00    -0.206 F 
ATOM     86  C   UNL     1      -9.479   3.805  12.380  1.00  0.00     0.059 A 
ATOM     87  C   UNL     1      -8.436   5.372  10.844  1.00  0.00     0.059 A 
ATOM     88  F   UNL     1      -6.884   4.594   9.268  1.00  0.00    -0.206 F 
ATOM     89  C   UNL     1      -9.311   5.104  11.895  1.00  0.00     0.060 A 
BRANCH  89  90
ATOM     90  S   UNL     1     -10.223   6.444  12.690  1.00  0.00     0.124 S 
ATOM     91  O   UNL     1     -11.589   6.169  12.259  1.00  0.00    -0.237 OA
ATOM     92  O   UNL     1      -9.945   6.212  14.104  1.00  0.00    -0.237 OA
ATOM     93  O   UNL     1      -9.619   7.649  12.128  1.00  0.00    -0.744 OA
ENDBRANCH  89  90
ENDBRANCH  57  82
ENDBRANCH  31  32
ENDBRANCH  24  26
ENDBRANCH  23  24
ENDBRANCH   1  23
TORSDOF 15
