REMARK SMILES C[C@H]1C[N@H+]2CCCC[C@@H]2CN1c1ccc(C(=O)OCCOC(=O)c2ccc(-c3c4nc(c(-c5c(F)cc(S(=O)(=O)[O-])cc5F)c5ccc([nH]5)c(-c5c(F)cc(S(=O)(=O)[O-])cc5F)c5nc(c(-c6c(F)cc(S(=O)(=O)[O-])cc6F)c6ccc3[nH]6)C=C5)C=C4)cc2)cc1Cl
REMARK SMILES IDX 20 1 19 2 18 3 16 4 17 5 15 6 12 7 13 8 91 9 14 10 90 11
REMARK SMILES IDX 92 12 11 13 1 14 2 15 3 16 4 17 10 18 5 19 9 20 6 22 8 23
REMARK SMILES IDX 7 24 21 25 22 26 23 27 24 28 25 29 89 30 26 31 88 32 27 33
REMARK SMILES IDX 28 34 29 35 82 36 30 37 87 38 81 39 83 40 31 41 86 42 80 43
REMARK SMILES IDX 79 44 32 46 66 47 45 48 65 49 46 50 49 51 64 52 84 53 47 54
REMARK SMILES IDX 48 55 63 57 85 58 50 59 33 60 34 61 43 62 35 63 36 64 42 65
REMARK SMILES IDX 44 66 37 67 38 68 39 69 40 70 41 71 67 72 68 73 77 74 69 75
REMARK SMILES IDX 70 76 76 77 78 78 71 79 72 80 73 81 74 82 75 83 51 84 52 85
REMARK SMILES IDX 61 86 53 87 54 88 60 89 62 90 55 91 56 92 57 93 58 94 59 95
REMARK H PARENT 4 21 83 45 49 56
REMARK Flexibility Score: inf
ROOT
ATOM      1  C   UNL     1       6.231   1.242   6.901  1.00  0.00     0.275 C 
ENDROOT
BRANCH   1   2
ATOM      2  C   UNL     1       5.832  -0.222   7.096  1.00  0.00     0.275 C 
BRANCH   2   3
ATOM      3  O   UNL     1       5.128  -0.735   5.946  1.00  0.00    -0.458 OA
BRANCH   3   4
ATOM      4  C   UNL     1       3.781  -0.859   6.082  1.00  0.00     0.338 C 
ATOM      5  O   UNL     1       3.128  -0.604   7.073  1.00  0.00    -0.246 OA
BRANCH   4   6
ATOM      6  C   UNL     1       3.164  -1.269   4.795  1.00  0.00     0.061 A 
ATOM      7  C   UNL     1       1.915  -1.962   2.349  1.00  0.00     0.056 A 
ATOM      8  C   UNL     1       1.270  -1.139   3.274  1.00  0.00     0.028 A 
ATOM      9  C   UNL     1       3.200  -2.454   2.698  1.00  0.00     0.065 A 
ATOM     10  C   UNL     1       1.871  -0.826   4.495  1.00  0.00     0.018 A 
ATOM     11  C   UNL     1       3.827  -2.099   3.897  1.00  0.00     0.038 A 
ATOM     12  Cl  UNL     1       4.082  -3.520   1.650  1.00  0.00    -0.082 Cl
BRANCH   7  13
ATOM     13  N   UNL     1       1.282  -2.331   1.176  1.00  0.00    -0.356 N 
ATOM     14  C   UNL     1       1.193  -0.021   0.172  1.00  0.00     0.037 C 
ATOM     15  C   UNL     1       0.582  -1.423   0.239  1.00  0.00     0.134 C 
ATOM     16  C   UNL     1       0.649  -2.053  -1.198  1.00  0.00     0.287 C 
ATOM     17  N   UNL     1       0.278  -3.491  -1.307  1.00  0.00    -0.329 N 
ATOM     18  C   UNL     1       0.735  -3.697   1.157  1.00  0.00     0.182 C 
ATOM     19  C   UNL     1       0.660  -4.005  -2.633  1.00  0.00     0.262 C 
ATOM     20  C   UNL     1       0.961  -4.283  -0.250  1.00  0.00     0.203 C 
ATOM     21  H   UNL     1      -0.731  -3.579  -1.186  1.00  0.00     0.348 HD
ATOM     22  C   UNL     1       0.281  -5.479  -2.797  1.00  0.00     0.062 C 
ATOM     23  C   UNL     1       0.482  -5.737  -0.307  1.00  0.00     0.067 C 
ATOM     24  C   UNL     1       0.822  -6.345  -1.663  1.00  0.00     0.012 C 
ENDBRANCH   7  13
ENDBRANCH   4   6
ENDBRANCH   3   4
ENDBRANCH   2   3
ENDBRANCH   1   2
BRANCH   1  25
ATOM     25  O   UNL     1       5.067   2.089   6.868  1.00  0.00    -0.458 OA
BRANCH  25  26
ATOM     26  C   UNL     1       4.733   2.556   5.644  1.00  0.00     0.338 C 
ATOM     27  O   UNL     1       5.325   2.372   4.593  1.00  0.00    -0.246 OA
BRANCH  26  28
ATOM     28  C   UNL     1       3.453   3.275   5.707  1.00  0.00     0.060 A 
ATOM     29  C   UNL     1       2.288   2.519   5.694  1.00  0.00     0.016 A 
ATOM     30  C   UNL     1       3.385   4.660   5.585  1.00  0.00     0.016 A 
ATOM     31  C   UNL     1       1.059   3.119   5.438  1.00  0.00     0.010 A 
ATOM     32  C   UNL     1       2.132   5.277   5.448  1.00  0.00     0.010 A 
ATOM     33  C   UNL     1       0.955   4.512   5.329  1.00  0.00    -0.014 A 
BRANCH  33  34
ATOM     34  C   UNL     1      -0.372   5.151   5.069  1.00  0.00     0.031 A 
ATOM     35  C   UNL     1      -0.556   6.074   3.886  1.00  0.00     0.074 A 
ATOM     36  C   UNL     1      -1.420   4.903   5.884  1.00  0.00     0.049 A 
ATOM     37  N   UNL     1      -1.564   6.860   3.601  1.00  0.00    -0.248 NA
ATOM     38  C   UNL     1       0.539   6.135   2.904  1.00  0.00     0.031 C 
ATOM     39  C   UNL     1      -1.403   4.007   7.044  1.00  0.00     0.029 A 
ATOM     40  N   UNL     1      -2.709   5.383   5.867  1.00  0.00    -0.354 N 
ATOM     41  C   UNL     1      -1.198   7.552   2.450  1.00  0.00     0.074 A 
ATOM     42  C   UNL     1       0.124   7.092   2.086  1.00  0.00     0.031 C 
ATOM     43  C   UNL     1      -2.620   3.979   7.605  1.00  0.00     0.029 A 
ATOM     44  C   UNL     1      -3.480   4.930   6.915  1.00  0.00     0.049 A 
ATOM     45  H   UNL     1      -3.049   5.992   5.172  1.00  0.00     0.167 HD
ATOM     46  C   UNL     1      -1.901   8.486   1.764  1.00  0.00     0.037 A 
ATOM     47  C   UNL     1      -4.717   5.280   7.320  1.00  0.00     0.037 A 
ATOM     48  C   UNL     1      -3.247   8.887   2.093  1.00  0.00     0.049 A 
ATOM     49  C   UNL     1      -5.466   6.334   6.553  1.00  0.00     0.074 A 
ATOM     50  C   UNL     1      -4.058   9.792   1.429  1.00  0.00     0.029 A 
ATOM     51  N   UNL     1      -3.982   8.405   3.165  1.00  0.00    -0.354 N 
ATOM     52  N   UNL     1      -5.094   6.993   5.482  1.00  0.00    -0.248 NA
ATOM     53  C   UNL     1      -6.796   6.705   7.056  1.00  0.00     0.031 C 
ATOM     54  C   UNL     1      -5.264   9.895   2.128  1.00  0.00     0.029 A 
ATOM     55  C   UNL     1      -5.228   9.010   3.193  1.00  0.00     0.049 A 
ATOM     56  H   UNL     1      -3.666   7.731   3.810  1.00  0.00     0.167 HD
ATOM     57  C   UNL     1      -6.152   7.840   5.172  1.00  0.00     0.074 A 
ATOM     58  C   UNL     1      -7.186   7.595   6.155  1.00  0.00     0.031 C 
ATOM     59  C   UNL     1      -6.256   8.743   4.167  1.00  0.00     0.037 A 
BRANCH  46  60
ATOM     60  C   UNL     1      -1.239   9.173   0.600  1.00  0.00     0.058 A 
ATOM     61  C   UNL     1      -1.033   8.533  -0.631  1.00  0.00     0.135 A 
ATOM     62  C   UNL     1      -0.897  10.534   0.693  1.00  0.00     0.135 A 
ATOM     63  F   UNL     1      -1.325   7.230  -0.773  1.00  0.00    -0.206 F 
ATOM     64  C   UNL     1      -0.509   9.215  -1.727  1.00  0.00     0.059 A 
ATOM     65  C   UNL     1      -0.398  11.242  -0.397  1.00  0.00     0.059 A 
ATOM     66  F   UNL     1      -1.073  11.197   1.847  1.00  0.00    -0.206 F 
ATOM     67  C   UNL     1      -0.204  10.572  -1.603  1.00  0.00     0.060 A 
BRANCH  67  68
ATOM     68  S   UNL     1       0.423  11.454  -3.049  1.00  0.00     0.124 S 
ATOM     69  O   UNL     1       1.766  10.896  -3.171  1.00  0.00    -0.237 OA
ATOM     70  O   UNL     1      -0.524  11.060  -4.087  1.00  0.00    -0.237 OA
ATOM     71  O   UNL     1       0.361  12.856  -2.648  1.00  0.00    -0.744 OA
ENDBRANCH  67  68
ENDBRANCH  46  60
BRANCH  47  72
ATOM     72  C   UNL     1      -5.300   4.681   8.555  1.00  0.00     0.058 A 
ATOM     73  C   UNL     1      -6.435   3.860   8.502  1.00  0.00     0.135 A 
ATOM     74  C   UNL     1      -4.742   4.941   9.818  1.00  0.00     0.135 A 
ATOM     75  F   UNL     1      -7.013   3.588   7.322  1.00  0.00    -0.206 F 
ATOM     76  C   UNL     1      -7.014   3.342   9.657  1.00  0.00     0.059 A 
ATOM     77  C   UNL     1      -5.280   4.404  10.982  1.00  0.00     0.059 A 
ATOM     78  F   UNL     1      -3.647   5.709   9.926  1.00  0.00    -0.206 F 
ATOM     79  C   UNL     1      -6.430   3.622  10.893  1.00  0.00     0.060 A 
BRANCH  79  80
ATOM     80  S   UNL     1      -7.179   2.938  12.386  1.00  0.00     0.124 S 
ATOM     81  O   UNL     1      -8.359   3.783  12.534  1.00  0.00    -0.237 OA
ATOM     82  O   UNL     1      -7.429   1.553  11.999  1.00  0.00    -0.237 OA
ATOM     83  O   UNL     1      -6.141   3.121  13.396  1.00  0.00    -0.744 OA
ENDBRANCH  79  80
ENDBRANCH  47  72
BRANCH  59  84
ATOM     84  C   UNL     1      -7.551   9.498   4.047  1.00  0.00     0.058 A 
ATOM     85  C   UNL     1      -7.908  10.505   4.956  1.00  0.00     0.135 A 
ATOM     86  C   UNL     1      -8.425   9.236   2.979  1.00  0.00     0.135 A 
ATOM     87  F   UNL     1      -7.112  10.788   5.999  1.00  0.00    -0.206 F 
ATOM     88  C   UNL     1      -9.101  11.208   4.826  1.00  0.00     0.059 A 
ATOM     89  C   UNL     1      -9.608   9.948   2.813  1.00  0.00     0.059 A 
ATOM     90  F   UNL     1      -8.125   8.288   2.076  1.00  0.00    -0.206 F 
ATOM     91  C   UNL     1      -9.943  10.924   3.749  1.00  0.00     0.060 A 
BRANCH  91  92
ATOM     92  S   UNL     1     -11.473  11.866   3.575  1.00  0.00     0.124 S 
ATOM     93  O   UNL     1     -12.290  11.299   4.643  1.00  0.00    -0.237 OA
ATOM     94  O   UNL     1     -11.021  13.238   3.783  1.00  0.00    -0.237 OA
ATOM     95  O   UNL     1     -11.911  11.555   2.218  1.00  0.00    -0.744 OA
ENDBRANCH  91  92
ENDBRANCH  59  84
ENDBRANCH  33  34
ENDBRANCH  26  28
ENDBRANCH  25  26
ENDBRANCH   1  25
TORSDOF 15
