REMARK SMILES O=C(OCCOC(=O)c1cc(-c2ccc(C(F)(F)F)cc2)cc([N+](=O)[O-])c1)c1ccc(-c2c3nc(c(-c4c(F)cc(S(=O)(=O)[O-])cc4F)c4ccc([nH]4)c(-c4c(F)cc(S(=O)(=O)[O-])cc4F)c4nc(c(-c5c(F)cc(S(=O)(=O)[O-])cc5F)c5ccc2[nH]5)C=C4)C=C3)cc1
REMARK SMILES IDX 4 1 3 2 2 3 1 4 28 5 29 6 93 7 30 8 92 9 31 10 32 11 33 12
REMARK SMILES IDX 86 13 34 14 91 15 85 16 87 17 35 18 90 19 84 20 83 21 36 23
REMARK SMILES IDX 70 24 49 25 69 26 50 27 53 28 68 29 88 30 51 31 52 32 67 34
REMARK SMILES IDX 89 35 54 36 37 37 38 38 47 39 39 40 40 41 46 42 48 43 41 44
REMARK SMILES IDX 42 45 43 46 44 47 45 48 71 49 72 50 81 51 73 52 74 53 80 54
REMARK SMILES IDX 82 55 75 56 76 57 77 58 78 59 79 60 55 61 56 62 65 63 57 64
REMARK SMILES IDX 58 65 64 66 66 67 59 68 60 69 61 70 62 71 63 72 5 73 6 74
REMARK SMILES IDX 7 75 8 76 9 77 10 78 27 79 11 80 23 81 22 82 12 83 13 84
REMARK SMILES IDX 21 85 14 86 20 87 15 88 16 89 17 90 18 91 19 92 24 93 25 94
REMARK SMILES IDX 26 95
REMARK H PARENT 87 22 53 33
REMARK Flexibility Score: inf
ROOT
ATOM      1  C   UNL     1       4.119  -0.104  -1.606  1.00  0.00     0.275 C 
ENDROOT
BRANCH   1   2
ATOM      2  O   UNL     1       2.980  -0.743  -1.001  1.00  0.00    -0.458 OA
BRANCH   2   3
ATOM      3  C   UNL     1       2.715  -1.026   0.295  1.00  0.00     0.338 C 
ATOM      4  O   UNL     1       1.715  -1.696   0.553  1.00  0.00    -0.246 OA
BRANCH   3   5
ATOM      5  C   UNL     1       3.490  -0.470   1.454  1.00  0.00     0.060 A 
ATOM      6  C   UNL     1       4.793   0.027   1.411  1.00  0.00     0.016 A 
ATOM      7  C   UNL     1       2.816  -0.425   2.691  1.00  0.00     0.016 A 
ATOM      8  C   UNL     1       5.382   0.613   2.530  1.00  0.00     0.010 A 
ATOM      9  C   UNL     1       3.393   0.173   3.815  1.00  0.00     0.010 A 
ATOM     10  C   UNL     1       4.689   0.692   3.735  1.00  0.00    -0.014 A 
BRANCH  10  11
ATOM     11  C   UNL     1       5.416   1.155   4.933  1.00  0.00     0.031 A 
ATOM     12  C   UNL     1       5.922   0.119   5.887  1.00  0.00     0.074 A 
ATOM     13  C   UNL     1       5.725   2.455   5.092  1.00  0.00     0.049 A 
ATOM     14  N   UNL     1       6.664   0.274   6.948  1.00  0.00    -0.248 NA
ATOM     15  C   UNL     1       5.591  -1.283   5.577  1.00  0.00     0.031 C 
ATOM     16  C   UNL     1       5.417   3.514   4.134  1.00  0.00     0.029 A 
ATOM     17  N   UNL     1       6.373   3.110   6.105  1.00  0.00    -0.354 N 
ATOM     18  C   UNL     1       6.923  -1.009   7.409  1.00  0.00     0.074 A 
ATOM     19  C   UNL     1       6.202  -1.927   6.557  1.00  0.00     0.031 C 
ATOM     20  C   UNL     1       5.816   4.695   4.632  1.00  0.00     0.029 A 
ATOM     21  C   UNL     1       6.414   4.475   5.940  1.00  0.00     0.049 A 
ATOM     22  H   UNL     1       6.772   2.648   6.877  1.00  0.00     0.167 HD
ATOM     23  C   UNL     1       7.725  -1.383   8.430  1.00  0.00     0.037 A 
ATOM     24  C   UNL     1       6.885   5.438   6.754  1.00  0.00     0.037 A 
ATOM     25  C   UNL     1       8.408  -0.446   9.280  1.00  0.00     0.049 A 
ATOM     26  C   UNL     1       7.613   5.007   7.995  1.00  0.00     0.074 A 
ATOM     27  C   UNL     1       9.224  -0.702  10.364  1.00  0.00     0.029 A 
ATOM     28  N   UNL     1       8.333   0.936   9.148  1.00  0.00    -0.354 N 
ATOM     29  N   UNL     1       7.867   3.788   8.413  1.00  0.00    -0.248 NA
ATOM     30  C   UNL     1       8.158   6.066   8.850  1.00  0.00     0.031 C 
ATOM     31  C   UNL     1       9.589   0.525  10.928  1.00  0.00     0.029 A 
ATOM     32  C   UNL     1       9.057   1.548  10.156  1.00  0.00     0.049 A 
ATOM     33  H   UNL     1       7.838   1.410   8.441  1.00  0.00     0.167 HD
ATOM     34  C   UNL     1       8.654   3.932   9.547  1.00  0.00     0.074 A 
ATOM     35  C   UNL     1       8.822   5.358   9.753  1.00  0.00     0.031 C 
ATOM     36  C   UNL     1       9.206   2.973  10.332  1.00  0.00     0.037 A 
BRANCH  23  37
ATOM     37  C   UNL     1       7.848  -2.856   8.692  1.00  0.00     0.058 A 
ATOM     38  C   UNL     1       8.517  -3.716   7.803  1.00  0.00     0.135 A 
ATOM     39  C   UNL     1       7.246  -3.425   9.824  1.00  0.00     0.135 A 
ATOM     40  F   UNL     1       9.082  -3.228   6.686  1.00  0.00    -0.206 F 
ATOM     41  C   UNL     1       8.551  -5.091   8.009  1.00  0.00     0.059 A 
ATOM     42  C   UNL     1       7.293  -4.795  10.065  1.00  0.00     0.059 A 
ATOM     43  F   UNL     1       6.582  -2.652  10.697  1.00  0.00    -0.206 F 
ATOM     44  C   UNL     1       7.931  -5.621   9.141  1.00  0.00     0.060 A 
BRANCH  44  45
ATOM     45  S   UNL     1       7.959  -7.409   9.381  1.00  0.00     0.124 S 
ATOM     46  O   UNL     1       7.039  -7.856   8.339  1.00  0.00    -0.237 OA
ATOM     47  O   UNL     1       9.366  -7.730   9.164  1.00  0.00    -0.237 OA
ATOM     48  O   UNL     1       7.483  -7.576  10.751  1.00  0.00    -0.744 OA
ENDBRANCH  44  45
ENDBRANCH  23  37
BRANCH  24  49
ATOM     49  C   UNL     1       6.709   6.875   6.410  1.00  0.00     0.058 A 
ATOM     50  C   UNL     1       7.793   7.682   6.037  1.00  0.00     0.135 A 
ATOM     51  C   UNL     1       5.439   7.475   6.454  1.00  0.00     0.135 A 
ATOM     52  F   UNL     1       9.028   7.161   5.984  1.00  0.00    -0.206 F 
ATOM     53  C   UNL     1       7.631   9.033   5.742  1.00  0.00     0.059 A 
ATOM     54  C   UNL     1       5.247   8.818   6.138  1.00  0.00     0.059 A 
ATOM     55  F   UNL     1       4.368   6.749   6.810  1.00  0.00    -0.206 F 
ATOM     56  C   UNL     1       6.353   9.593   5.795  1.00  0.00     0.060 A 
BRANCH  56  57
ATOM     57  S   UNL     1       6.161  11.345   5.394  1.00  0.00     0.124 S 
ATOM     58  O   UNL     1       6.829  11.981   6.523  1.00  0.00    -0.237 OA
ATOM     59  O   UNL     1       6.849  11.441   4.110  1.00  0.00    -0.237 OA
ATOM     60  O   UNL     1       4.713  11.526   5.337  1.00  0.00    -0.744 OA
ENDBRANCH  56  57
ENDBRANCH  24  49
BRANCH  36  61
ATOM     61  C   UNL     1      10.083   3.439  11.458  1.00  0.00     0.058 A 
ATOM     62  C   UNL     1       9.558   4.072  12.595  1.00  0.00     0.135 A 
ATOM     63  C   UNL     1      11.467   3.205  11.413  1.00  0.00     0.135 A 
ATOM     64  F   UNL     1       8.242   4.325  12.681  1.00  0.00    -0.206 F 
ATOM     65  C   UNL     1      10.379   4.483  13.637  1.00  0.00     0.059 A 
ATOM     66  C   UNL     1      12.302   3.575  12.460  1.00  0.00     0.059 A 
ATOM     67  F   UNL     1      12.017   2.593  10.352  1.00  0.00    -0.206 F 
ATOM     68  C   UNL     1      11.750   4.226  13.561  1.00  0.00     0.060 A 
BRANCH  68  69
ATOM     69  S   UNL     1      12.800   4.734  14.937  1.00  0.00     0.124 S 
ATOM     70  O   UNL     1      12.838   6.181  14.758  1.00  0.00    -0.237 OA
ATOM     71  O   UNL     1      12.049   4.257  16.094  1.00  0.00    -0.237 OA
ATOM     72  O   UNL     1      14.056   4.035  14.682  1.00  0.00    -0.744 OA
ENDBRANCH  68  69
ENDBRANCH  36  61
ENDBRANCH  10  11
ENDBRANCH   3   5
ENDBRANCH   2   3
ENDBRANCH   1   2
BRANCH   1  73
ATOM     73  C   UNL     1       4.065   1.429  -1.627  1.00  0.00     0.275 C 
BRANCH  73  74
ATOM     74  O   UNL     1       3.618   2.019  -0.395  1.00  0.00    -0.458 OA
BRANCH  74  75
ATOM     75  C   UNL     1       2.283   2.241  -0.316  1.00  0.00     0.338 C 
ATOM     76  O   UNL     1       1.455   2.034  -1.193  1.00  0.00    -0.246 OA
BRANCH  75  77
ATOM     77  C   UNL     1       1.913   2.656   1.052  1.00  0.00     0.067 A 
ATOM     78  C   UNL     1       0.825   2.015   1.663  1.00  0.00     0.025 A 
ATOM     79  C   UNL     1       2.557   3.715   1.694  1.00  0.00     0.101 A 
ATOM     80  C   UNL     1       0.391   2.391   2.944  1.00  0.00    -0.011 A 
ATOM     81  C   UNL     1       2.108   4.105   2.965  1.00  0.00     0.270 A 
ATOM     82  C   UNL     1       1.069   3.421   3.608  1.00  0.00     0.094 A 
BRANCH  80  83
ATOM     83  C   UNL     1      -0.864   1.874   3.491  1.00  0.00    -0.018 A 
ATOM     84  C   UNL     1      -1.022   0.563   3.953  1.00  0.00     0.009 A 
ATOM     85  C   UNL     1      -1.975   2.732   3.514  1.00  0.00     0.009 A 
ATOM     86  C   UNL     1      -2.273   0.115   4.396  1.00  0.00     0.014 A 
ATOM     87  C   UNL     1      -3.221   2.289   3.949  1.00  0.00     0.014 A 
ATOM     88  C   UNL     1      -3.389   0.969   4.380  1.00  0.00     0.056 A 
BRANCH  88  89
ATOM     89  C   UNL     1      -4.750   0.469   4.792  1.00  0.00     0.416 C 
ATOM     90  F   UNL     1      -5.178  -0.568   4.019  1.00  0.00    -0.166 F 
ATOM     91  F   UNL     1      -4.785   0.021   6.076  1.00  0.00    -0.166 F 
ATOM     92  F   UNL     1      -5.726   1.418   4.703  1.00  0.00    -0.166 F 
ENDBRANCH  88  89
ENDBRANCH  80  83
BRANCH  81  93
ATOM     93  N   UNL     1       2.639   5.325   3.586  1.00  0.00     0.062 N 
ATOM     94  O   UNL     1       2.290   5.577   4.746  1.00  0.00    -0.258 OA
ATOM     95  O   UNL     1       3.364   6.044   2.886  1.00  0.00    -0.258 OA
ENDBRANCH  81  93
ENDBRANCH  75  77
ENDBRANCH  74  75
ENDBRANCH  73  74
ENDBRANCH   1  73
TORSDOF 17
