REMARK SMILES O=C(OCCOC(=O)[C@@H]1CCn2c(C(=O)c3ccccc3)ccc21)c1ccc(-c2c3nc(c(-c4c(F)cc(S(=O)(=O)[O-])cc4F)c4ccc([nH]4)c(-c4c(F)cc(S(=O)(=O)[O-])cc4F)c4nc(c(-c5c(F)cc(S(=O)(=O)[O-])cc5F)c5ccc2[nH]5)C=C4)C=C3)cc1
REMARK SMILES IDX 4 1 3 2 2 3 1 4 25 5 26 6 90 7 27 8 89 9 28 10 29 11 30 12
REMARK SMILES IDX 83 13 31 14 88 15 82 16 84 17 32 18 87 19 81 20 80 21 33 23
REMARK SMILES IDX 67 24 46 25 66 26 47 27 50 28 65 29 85 30 48 31 49 32 64 34
REMARK SMILES IDX 86 35 51 36 34 37 35 38 44 39 36 40 37 41 43 42 45 43 38 44
REMARK SMILES IDX 39 45 40 46 41 47 42 48 68 49 69 50 78 51 70 52 71 53 77 54
REMARK SMILES IDX 79 55 72 56 73 57 74 58 75 59 76 60 52 61 53 62 62 63 54 64
REMARK SMILES IDX 55 65 61 66 63 67 56 68 57 69 58 70 59 71 60 72 5 73 6 74
REMARK SMILES IDX 7 75 8 76 9 77 10 78 24 79 11 80 12 81 23 82 13 83 22 84
REMARK SMILES IDX 14 85 15 86 16 87 17 88 21 89 18 90 20 91 19 92
REMARK H PARENT 84 22 50 33
REMARK Flexibility Score: inf
ROOT
ATOM      1  C   UNL     1       4.019   1.700  -0.638  1.00  0.00     0.275 C 
ENDROOT
BRANCH   1   2
ATOM      2  O   UNL     1       3.232   0.663  -1.234  1.00  0.00    -0.458 OA
BRANCH   2   3
ATOM      3  C   UNL     1       3.345  -0.679  -1.105  1.00  0.00     0.338 C 
ATOM      4  O   UNL     1       2.599  -1.395  -1.771  1.00  0.00    -0.246 OA
BRANCH   3   5
ATOM      5  C   UNL     1       4.260  -1.336  -0.116  1.00  0.00     0.060 A 
ATOM      6  C   UNL     1       5.479  -0.845   0.363  1.00  0.00     0.016 A 
ATOM      7  C   UNL     1       3.836  -2.578   0.362  1.00  0.00     0.016 A 
ATOM      8  C   UNL     1       6.192  -1.510   1.373  1.00  0.00     0.010 A 
ATOM      9  C   UNL     1       4.536  -3.233   1.377  1.00  0.00     0.010 A 
ATOM     10  C   UNL     1       5.712  -2.700   1.914  1.00  0.00    -0.014 A 
BRANCH  10  11
ATOM     11  C   UNL     1       6.463  -3.444   2.961  1.00  0.00     0.031 A 
ATOM     12  C   UNL     1       6.961  -4.827   2.634  1.00  0.00     0.074 A 
ATOM     13  C   UNL     1       6.644  -2.925   4.196  1.00  0.00     0.049 A 
ATOM     14  N   UNL     1       7.620  -5.667   3.388  1.00  0.00    -0.248 NA
ATOM     15  C   UNL     1       6.672  -5.340   1.282  1.00  0.00     0.031 C 
ATOM     16  C   UNL     1       6.224  -1.592   4.636  1.00  0.00     0.029 A 
ATOM     17  N   UNL     1       7.199  -3.467   5.329  1.00  0.00    -0.354 N 
ATOM     18  C   UNL     1       7.825  -6.792   2.599  1.00  0.00     0.074 A 
ATOM     19  C   UNL     1       7.128  -6.578   1.354  1.00  0.00     0.031 C 
ATOM     20  C   UNL     1       6.453  -1.453   5.952  1.00  0.00     0.029 A 
ATOM     21  C   UNL     1       7.102  -2.660   6.442  1.00  0.00     0.049 A 
ATOM     22  H   UNL     1       7.628  -4.353   5.345  1.00  0.00     0.167 HD
ATOM     23  C   UNL     1       8.579  -7.882   2.865  1.00  0.00     0.037 A 
ATOM     24  C   UNL     1       7.528  -2.851   7.706  1.00  0.00     0.037 A 
ATOM     25  C   UNL     1       9.263  -8.081   4.111  1.00  0.00     0.049 A 
ATOM     26  C   UNL     1       8.367  -4.069   7.985  1.00  0.00     0.074 A 
ATOM     27  C   UNL     1      10.083  -9.126   4.492  1.00  0.00     0.029 A 
ATOM     28  N   UNL     1       9.202  -7.202   5.184  1.00  0.00    -0.354 N 
ATOM     29  N   UNL     1       8.644  -5.074   7.188  1.00  0.00    -0.248 NA
ATOM     30  C   UNL     1       9.014  -4.143   9.300  1.00  0.00     0.031 C 
ATOM     31  C   UNL     1      10.490  -8.896   5.811  1.00  0.00     0.029 A 
ATOM     32  C   UNL     1       9.962  -7.685   6.233  1.00  0.00     0.049 A 
ATOM     33  H   UNL     1       8.693  -6.360   5.196  1.00  0.00     0.167 HD
ATOM     34  C   UNL     1       9.550  -5.867   7.881  1.00  0.00     0.074 A 
ATOM     35  C   UNL     1       9.769  -5.224   9.161  1.00  0.00     0.031 C 
ATOM     36  C   UNL     1      10.160  -7.014   7.493  1.00  0.00     0.037 A 
BRANCH  23  37
ATOM     37  C   UNL     1       8.716  -8.897   1.764  1.00  0.00     0.058 A 
ATOM     38  C   UNL     1       9.390  -8.585   0.569  1.00  0.00     0.135 A 
ATOM     39  C   UNL     1       8.151 -10.175   1.879  1.00  0.00     0.135 A 
ATOM     40  F   UNL     1       9.928  -7.366   0.394  1.00  0.00    -0.206 F 
ATOM     41  C   UNL     1       9.462  -9.486  -0.485  1.00  0.00     0.059 A 
ATOM     42  C   UNL     1       8.241 -11.107   0.848  1.00  0.00     0.059 A 
ATOM     43  F   UNL     1       7.489 -10.523   2.994  1.00  0.00    -0.206 F 
ATOM     44  C   UNL     1       8.884 -10.746  -0.336  1.00  0.00     0.060 A 
BRANCH  44  45
ATOM     45  S   UNL     1       9.004 -11.907  -1.712  1.00  0.00     0.124 S 
ATOM     46  O   UNL     1       8.056 -11.336  -2.662  1.00  0.00    -0.237 OA
ATOM     47  O   UNL     1      10.411 -11.807  -2.082  1.00  0.00    -0.237 OA
ATOM     48  O   UNL     1       8.606 -13.181  -1.115  1.00  0.00    -0.744 OA
ENDBRANCH  44  45
ENDBRANCH  23  37
BRANCH  24  49
ATOM     49  C   UNL     1       7.277  -1.832   8.765  1.00  0.00     0.058 A 
ATOM     50  C   UNL     1       8.311  -1.016   9.251  1.00  0.00     0.135 A 
ATOM     51  C   UNL     1       6.003  -1.671   9.333  1.00  0.00     0.135 A 
ATOM     52  F   UNL     1       9.545  -1.123   8.736  1.00  0.00    -0.206 F 
ATOM     53  C   UNL     1       8.107  -0.113  10.290  1.00  0.00     0.059 A 
ATOM     54  C   UNL     1       5.768  -0.757  10.361  1.00  0.00     0.059 A 
ATOM     55  F   UNL     1       4.970  -2.403   8.887  1.00  0.00    -0.206 F 
ATOM     56  C   UNL     1       6.832   0.004  10.845  1.00  0.00     0.060 A 
BRANCH  56  57
ATOM     57  S   UNL     1       6.582   1.183  12.193  1.00  0.00     0.124 S 
ATOM     58  O   UNL     1       7.305   0.540  13.283  1.00  0.00    -0.237 OA
ATOM     59  O   UNL     1       7.187   2.396  11.650  1.00  0.00    -0.237 OA
ATOM     60  O   UNL     1       5.129   1.225  12.335  1.00  0.00    -0.744 OA
ENDBRANCH  56  57
ENDBRANCH  24  49
BRANCH  36  61
ATOM     61  C   UNL     1      11.139  -7.624   8.452  1.00  0.00     0.058 A 
ATOM     62  C   UNL     1      10.718  -8.235   9.643  1.00  0.00     0.135 A 
ATOM     63  C   UNL     1      12.511  -7.632   8.153  1.00  0.00     0.135 A 
ATOM     64  F   UNL     1       9.417  -8.247   9.973  1.00  0.00    -0.206 F 
ATOM     65  C   UNL     1      11.630  -8.803  10.524  1.00  0.00     0.059 A 
ATOM     66  C   UNL     1      13.436  -8.224   9.003  1.00  0.00     0.059 A 
ATOM     67  F   UNL     1      12.960  -7.070   7.019  1.00  0.00    -0.206 F 
ATOM     68  C   UNL     1      12.986  -8.793  10.194  1.00  0.00     0.060 A 
BRANCH  68  69
ATOM     69  S   UNL     1      14.155  -9.554  11.337  1.00  0.00     0.124 S 
ATOM     70  O   UNL     1      14.203  -8.564  12.408  1.00  0.00    -0.237 OA
ATOM     71  O   UNL     1      13.494 -10.813  11.666  1.00  0.00    -0.237 OA
ATOM     72  O   UNL     1      15.373  -9.681  10.542  1.00  0.00    -0.744 OA
ENDBRANCH  68  69
ENDBRANCH  36  61
ENDBRANCH  10  11
ENDBRANCH   3   5
ENDBRANCH   2   3
ENDBRANCH   1   2
BRANCH   1  73
ATOM     73  C   UNL     1       3.656   2.061   0.804  1.00  0.00     0.274 C 
BRANCH  73  74
ATOM     74  O   UNL     1       3.354   0.957   1.673  1.00  0.00    -0.462 OA
BRANCH  74  75
ATOM     75  C   UNL     1       2.031   0.647   1.828  1.00  0.00     0.315 C 
ATOM     76  O   UNL     1       1.137   1.158   1.161  1.00  0.00    -0.251 OA
BRANCH  75  77
ATOM     77  C   UNL     1       1.763  -0.330   2.978  1.00  0.00     0.148 C 
ATOM     78  C   UNL     1       2.976  -0.696   3.858  1.00  0.00     0.043 C 
ATOM     79  C   UNL     1       1.317  -1.682   2.532  1.00  0.00     0.033 A 
ATOM     80  C   UNL     1       2.743  -2.141   4.327  1.00  0.00     0.124 C 
ATOM     81  N   UNL     1       1.870  -2.683   3.300  1.00  0.00    -0.341 N 
ATOM     82  C   UNL     1       0.527  -2.260   1.579  1.00  0.00     0.025 A 
ATOM     83  C   UNL     1       1.565  -3.924   2.817  1.00  0.00     0.090 A 
ATOM     84  C   UNL     1       0.675  -3.663   1.764  1.00  0.00     0.032 A 
BRANCH  83  85
ATOM     85  C   UNL     1       2.067  -5.265   3.136  1.00  0.00     0.209 C 
ATOM     86  O   UNL     1       1.785  -6.224   2.415  1.00  0.00    -0.287 OA
BRANCH  85  87
ATOM     87  C   UNL     1       2.995  -5.572   4.257  1.00  0.00     0.024 A 
ATOM     88  C   UNL     1       4.049  -6.471   4.018  1.00  0.00     0.012 A 
ATOM     89  C   UNL     1       2.802  -5.082   5.549  1.00  0.00     0.012 A 
ATOM     90  C   UNL     1       4.931  -6.824   5.042  1.00  0.00     0.001 A 
ATOM     91  C   UNL     1       3.702  -5.417   6.567  1.00  0.00     0.001 A 
ATOM     92  C   UNL     1       4.769  -6.280   6.312  1.00  0.00     0.000 A 
ENDBRANCH  85  87
ENDBRANCH  83  85
ENDBRANCH  75  77
ENDBRANCH  74  75
ENDBRANCH  73  74
ENDBRANCH   1  73
TORSDOF 16
