REMARK SMILES C[C@H]1[C@@H](C(=O)OCCOC(=O)c2ccc(-c3c4nc(c(-c5c(F)cc(S(=O)(=O)[O-])cc5F)c5ccc([nH]5)c(-c5c(F)cc(S(=O)(=O)[O-])cc5F)c5nc(c(-c6c(F)cc(S(=O)(=O)[O-])cc6F)c6ccc3[nH]6)C=C5)C=C4)cc2)CCN1C(=O)c1cc2cc(F)ccc2s1
REMARK SMILES IDX 8 1 7 2 6 3 4 4 5 5 3 6 1 7 2 8 80 9 78 10 79 11 81 12 82 13
REMARK SMILES IDX 83 14 84 15 92 16 85 17 91 18 86 19 90 20 87 21 89 22 88 23
REMARK SMILES IDX 9 24 10 25 11 26 12 27 13 28 77 29 14 30 76 31 15 32 16 33
REMARK SMILES IDX 17 34 70 35 18 36 75 37 69 38 71 39 19 40 74 41 68 42 67 43
REMARK SMILES IDX 20 45 54 46 33 47 53 48 34 49 37 50 52 51 72 52 35 53 36 54
REMARK SMILES IDX 51 56 73 57 38 58 21 59 22 60 31 61 23 62 24 63 30 64 32 65
REMARK SMILES IDX 25 66 26 67 27 68 28 69 29 70 55 71 56 72 65 73 57 74 58 75
REMARK SMILES IDX 64 76 66 77 59 78 60 79 61 80 62 81 63 82 39 83 40 84 49 85
REMARK SMILES IDX 41 86 42 87 48 88 50 89 43 90 44 91 45 92 46 93 47 94
REMARK H PARENT 71 44 37 55
REMARK Flexibility Score: inf
ROOT
ATOM      1  C   UNL     1       1.246   2.302  -3.934  1.00  0.00     0.275 C 
ENDROOT
BRANCH   1   2
ATOM      2  C   UNL     1       2.003   2.614  -2.649  1.00  0.00     0.274 C 
BRANCH   2   3
ATOM      3  O   UNL     1       1.651   1.687  -1.603  1.00  0.00    -0.462 OA
BRANCH   3   4
ATOM      4  C   UNL     1       0.914   2.167  -0.580  1.00  0.00     0.311 C 
ATOM      5  O   UNL     1       0.449   3.302  -0.543  1.00  0.00    -0.252 OA
BRANCH   4   6
ATOM      6  C   UNL     1       0.718   1.200   0.570  1.00  0.00     0.123 C 
ATOM      7  C   UNL     1       2.586  -0.488  -0.284  1.00  0.00     0.032 C 
ATOM      8  C   UNL     1       1.409  -0.176   0.625  1.00  0.00     0.096 C 
ATOM      9  N   UNL     1       0.347  -1.169   0.470  1.00  0.00    -0.334 N 
ATOM     10  C   UNL     1      -0.768   0.857   0.743  1.00  0.00     0.039 C 
ATOM     11  C   UNL     1      -0.880  -0.501   0.080  1.00  0.00     0.121 C 
BRANCH   9  12
ATOM     12  C   UNL     1       0.247  -2.082   1.515  1.00  0.00     0.264 C 
ATOM     13  O   UNL     1      -0.265  -1.757   2.587  1.00  0.00    -0.268 OA
BRANCH  12  14
ATOM     14  C   UNL     1       0.780  -3.403   1.287  1.00  0.00     0.093 A 
ATOM     15  C   UNL     1       1.181  -4.285   2.267  1.00  0.00     0.034 A 
ATOM     16  S   UNL     1       0.793  -4.147  -0.246  1.00  0.00    -0.130 S 
ATOM     17  C   UNL     1       0.960  -5.635   1.853  1.00  0.00    -0.004 A 
ATOM     18  C   UNL     1       0.677  -5.705   0.485  1.00  0.00     0.035 A 
ATOM     19  C   UNL     1       0.868  -6.811   2.627  1.00  0.00     0.048 A 
ATOM     20  C   UNL     1       0.296  -6.910  -0.132  1.00  0.00     0.022 A 
ATOM     21  C   UNL     1       0.398  -7.976   2.032  1.00  0.00     0.123 A 
ATOM     22  C   UNL     1       0.111  -8.033   0.677  1.00  0.00     0.041 A 
ATOM     23  F   UNL     1       0.176  -9.052   2.798  1.00  0.00    -0.207 F 
ENDBRANCH  12  14
ENDBRANCH   9  12
ENDBRANCH   4   6
ENDBRANCH   3   4
ENDBRANCH   2   3
ENDBRANCH   1   2
BRANCH   1  24
ATOM     24  O   UNL     1      -0.149   2.594  -3.761  1.00  0.00    -0.458 OA
BRANCH  24  25
ATOM     25  C   UNL     1      -0.949   1.521  -3.594  1.00  0.00     0.338 C 
ATOM     26  O   UNL     1      -0.631   0.340  -3.620  1.00  0.00    -0.246 OA
BRANCH  25  27
ATOM     27  C   UNL     1      -2.317   1.976  -3.334  1.00  0.00     0.060 A 
ATOM     28  C   UNL     1      -2.626   2.542  -2.097  1.00  0.00     0.016 A 
ATOM     29  C   UNL     1      -3.315   1.744  -4.277  1.00  0.00     0.016 A 
ATOM     30  C   UNL     1      -3.952   2.804  -1.765  1.00  0.00     0.010 A 
ATOM     31  C   UNL     1      -4.631   2.099  -3.977  1.00  0.00     0.010 A 
ATOM     32  C   UNL     1      -4.969   2.609  -2.709  1.00  0.00    -0.014 A 
BRANCH  32  33
ATOM     33  C   UNL     1      -6.388   2.926  -2.398  1.00  0.00     0.031 A 
ATOM     34  C   UNL     1      -7.435   1.851  -2.513  1.00  0.00     0.074 A 
ATOM     35  C   UNL     1      -6.750   4.182  -2.068  1.00  0.00     0.049 A 
ATOM     36  N   UNL     1      -8.734   1.966  -2.589  1.00  0.00    -0.248 NA
ATOM     37  C   UNL     1      -6.950   0.462  -2.569  1.00  0.00     0.031 C 
ATOM     38  C   UNL     1      -5.834   5.307  -1.867  1.00  0.00     0.029 A 
ATOM     39  N   UNL     1      -7.993   4.729  -1.863  1.00  0.00    -0.354 N 
ATOM     40  C   UNL     1      -9.220   0.676  -2.771  1.00  0.00     0.074 A 
ATOM     41  C   UNL     1      -8.075  -0.209  -2.777  1.00  0.00     0.031 C 
ATOM     42  C   UNL     1      -6.542   6.404  -1.561  1.00  0.00     0.029 A 
ATOM     43  C   UNL     1      -7.963   6.085  -1.635  1.00  0.00     0.049 A 
ATOM     44  H   UNL     1      -8.824   4.202  -1.877  1.00  0.00     0.167 HD
ATOM     45  C   UNL     1     -10.504   0.276  -2.931  1.00  0.00     0.037 A 
ATOM     46  C   UNL     1      -8.961   6.986  -1.560  1.00  0.00     0.037 A 
ATOM     47  C   UNL     1     -11.634   1.165  -2.869  1.00  0.00     0.049 A 
ATOM     48  C   UNL     1     -10.377   6.528  -1.759  1.00  0.00     0.074 A 
ATOM     49  C   UNL     1     -12.977   0.864  -3.014  1.00  0.00     0.029 A 
ATOM     50  N   UNL     1     -11.554   2.528  -2.622  1.00  0.00    -0.354 N 
ATOM     51  N   UNL     1     -10.819   5.319  -2.008  1.00  0.00    -0.248 NA
ATOM     52  C   UNL     1     -11.426   7.553  -1.691  1.00  0.00     0.031 C 
ATOM     53  C   UNL     1     -13.708   2.049  -2.876  1.00  0.00     0.029 A 
ATOM     54  C   UNL     1     -12.822   3.083  -2.613  1.00  0.00     0.049 A 
ATOM     55  H   UNL     1     -10.719   3.027  -2.475  1.00  0.00     0.167 HD
ATOM     56  C   UNL     1     -12.199   5.435  -2.115  1.00  0.00     0.074 A 
ATOM     57  C   UNL     1     -12.520   6.831  -1.896  1.00  0.00     0.031 C 
ATOM     58  C   UNL     1     -13.117   4.473  -2.374  1.00  0.00     0.037 A 
BRANCH  45  59
ATOM     59  C   UNL     1     -10.754  -1.175  -3.229  1.00  0.00     0.058 A 
ATOM     60  C   UNL     1     -10.656  -2.167  -2.243  1.00  0.00     0.135 A 
ATOM     61  C   UNL     1     -11.135  -1.572  -4.522  1.00  0.00     0.135 A 
ATOM     62  F   UNL     1     -10.280  -1.844  -0.996  1.00  0.00    -0.206 F 
ATOM     63  C   UNL     1     -10.906  -3.506  -2.532  1.00  0.00     0.059 A 
ATOM     64  C   UNL     1     -11.410  -2.901  -4.829  1.00  0.00     0.059 A 
ATOM     65  F   UNL     1     -11.242  -0.663  -5.504  1.00  0.00    -0.206 F 
ATOM     66  C   UNL     1     -11.279  -3.864  -3.829  1.00  0.00     0.060 A 
BRANCH  66  67
ATOM     67  S   UNL     1     -11.601  -5.603  -4.194  1.00  0.00     0.124 S 
ATOM     68  O   UNL     1     -10.245  -6.136  -4.287  1.00  0.00    -0.237 OA
ATOM     69  O   UNL     1     -12.372  -6.033  -3.032  1.00  0.00    -0.237 OA
ATOM     70  O   UNL     1     -12.343  -5.554  -5.450  1.00  0.00    -0.744 OA
ENDBRANCH  66  67
ENDBRANCH  45  59
BRANCH  46  71
ATOM     71  C   UNL     1      -8.637   8.420  -1.339  1.00  0.00     0.058 A 
ATOM     72  C   UNL     1      -8.900   9.036  -0.108  1.00  0.00     0.135 A 
ATOM     73  C   UNL     1      -8.009   9.185  -2.334  1.00  0.00     0.135 A 
ATOM     74  F   UNL     1      -9.508   8.348   0.870  1.00  0.00    -0.206 F 
ATOM     75  C   UNL     1      -8.546  10.360   0.133  1.00  0.00     0.059 A 
ATOM     76  C   UNL     1      -7.624  10.502  -2.110  1.00  0.00     0.059 A 
ATOM     77  F   UNL     1      -7.723   8.635  -3.525  1.00  0.00    -0.206 F 
ATOM     78  C   UNL     1      -7.902  11.083  -0.873  1.00  0.00     0.060 A 
BRANCH  78  79
ATOM     79  S   UNL     1      -7.368  12.774  -0.528  1.00  0.00     0.124 S 
ATOM     80  O   UNL     1      -8.618  13.511  -0.672  1.00  0.00    -0.237 OA
ATOM     81  O   UNL     1      -6.844  12.664   0.830  1.00  0.00    -0.237 OA
ATOM     82  O   UNL     1      -6.365  13.023  -1.559  1.00  0.00    -0.744 OA
ENDBRANCH  78  79
ENDBRANCH  46  71
BRANCH  58  83
ATOM     83  C   UNL     1     -14.560   4.882  -2.394  1.00  0.00     0.058 A 
ATOM     84  C   UNL     1     -15.127   5.509  -3.513  1.00  0.00     0.135 A 
ATOM     85  C   UNL     1     -15.399   4.565  -1.315  1.00  0.00     0.135 A 
ATOM     86  F   UNL     1     -14.361   5.839  -4.564  1.00  0.00    -0.206 F 
ATOM     87  C   UNL     1     -16.484   5.809  -3.561  1.00  0.00     0.059 A 
ATOM     88  C   UNL     1     -16.761   4.841  -1.349  1.00  0.00     0.059 A 
ATOM     89  F   UNL     1     -14.900   3.960  -0.226  1.00  0.00    -0.206 F 
ATOM     90  C   UNL     1     -17.294   5.465  -2.476  1.00  0.00     0.060 A 
BRANCH  90  91
ATOM     91  S   UNL     1     -19.067   5.796  -2.577  1.00  0.00     0.124 S 
ATOM     92  O   UNL     1     -19.112   7.232  -2.322  1.00  0.00    -0.237 OA
ATOM     93  O   UNL     1     -19.387   5.384  -3.940  1.00  0.00    -0.237 OA
ATOM     94  O   UNL     1     -19.628   4.953  -1.526  1.00  0.00    -0.744 OA
ENDBRANCH  90  91
ENDBRANCH  58  83
ENDBRANCH  32  33
ENDBRANCH  25  27
ENDBRANCH  24  25
ENDBRANCH   1  24
TORSDOF 16
