REMARK SMILES COC(=O)c1c(NC(=O)[C@@H]2[C@H]3CC[C@H](CC3)[C@H]2C(=O)OCCOC(=O)c2ccc(-c3c4nc(c(-c5c(F)cc(S(=O)(=O)[O-])cc5F)c5ccc([nH]5)c(-c5c(F)cc(S(=O)(=O)[O-])cc5F)c5nc(c(-c6c(F)cc(S(=O)(=O)[O-])cc6F)c6ccc3[nH]6)C=C5)C=C4)cc2)sc(C)c1-c1ccc(C)cc1
REMARK SMILES IDX 21 1 20 2 18 3 19 4 17 5 10 6 11 7 12 8 16 9 14 10 13 11
REMARK SMILES IDX 15 12 8 13 7 14 9 16 6 17 5 18 95 19 92 20 93 21 94 22 3 23
REMARK SMILES IDX 4 24 2 25 1 26 96 27 97 28 102 29 98 30 101 31 99 32 100 33
REMARK SMILES IDX 22 34 23 35 24 36 25 37 26 38 27 39 91 40 28 41 90 42 29 43
REMARK SMILES IDX 30 44 31 45 84 46 32 47 89 48 83 49 85 50 33 51 88 52 82 53
REMARK SMILES IDX 81 54 34 56 68 57 47 58 67 59 48 60 51 61 66 62 86 63 49 64
REMARK SMILES IDX 50 65 65 67 87 68 52 69 35 70 36 71 45 72 37 73 38 74 44 75
REMARK SMILES IDX 46 76 39 77 40 78 41 79 42 80 43 81 69 82 70 83 79 84 71 85
REMARK SMILES IDX 72 86 78 87 80 88 73 89 74 90 75 91 76 92 77 93 53 94 54 95
REMARK SMILES IDX 63 96 55 97 56 98 62 99 64 100 57 101 58 102 59 103 60 104
REMARK SMILES IDX 61 105
REMARK H PARENT 7 15 85 55 51 66
REMARK Flexibility Score: inf
ROOT
ATOM      1  C   UNL     1       3.242  -3.744  -0.428  1.00  0.00     0.274 C 
ENDROOT
BRANCH   1   2
ATOM      2  O   UNL     1       3.198  -4.935  -1.238  1.00  0.00    -0.462 OA
BRANCH   2   3
ATOM      3  C   UNL     1       1.970  -5.484  -1.405  1.00  0.00     0.310 C 
ATOM      4  O   UNL     1       0.940  -5.033  -0.911  1.00  0.00    -0.252 OA
BRANCH   3   5
ATOM      5  C   UNL     1       1.968  -6.792  -2.190  1.00  0.00     0.115 C 
ATOM      6  C   UNL     1       2.892  -6.884  -3.413  1.00  0.00     0.096 C 
ATOM      7  C   UNL     1       3.880  -8.072  -3.208  1.00  0.00     0.002 C 
ATOM      8  C   UNL     1       4.633  -7.868  -1.866  1.00  0.00     0.005 C 
ATOM      9  C   UNL     1       3.119  -9.399  -3.098  1.00  0.00     0.005 C 
ATOM     10  C   UNL     1       2.215  -7.975  -1.216  1.00  0.00     0.004 C 
ATOM     11  C   UNL     1       3.653  -7.906  -0.682  1.00  0.00     0.005 C 
ATOM     12  C   UNL     1       2.114  -9.326  -1.946  1.00  0.00     0.005 C 
BRANCH   6  13
ATOM     13  C   UNL     1       2.357  -6.840  -4.880  1.00  0.00     0.229 C 
ATOM     14  N   UNL     1       1.422  -7.614  -5.502  1.00  0.00    -0.317 N 
ATOM     15  H   UNL     1       1.505  -7.579  -6.482  1.00  0.00     0.170 HD
ATOM     16  O   UNL     1       3.001  -6.127  -5.673  1.00  0.00    -0.274 OA
BRANCH  14  17
ATOM     17  C   UNL     1       0.391  -8.433  -5.097  1.00  0.00     0.111 A 
ATOM     18  C   UNL     1      -0.241  -9.478  -5.771  1.00  0.00     0.102 A 
ATOM     19  C   UNL     1      -1.099 -10.216  -4.846  1.00  0.00     0.012 A 
ATOM     20  S   UNL     1      -0.615  -7.973  -3.816  1.00  0.00    -0.122 S 
ATOM     21  C   UNL     1      -1.158  -9.574  -3.616  1.00  0.00     0.012 A 
ATOM     22  C   UNL     1      -1.631 -10.021  -2.272  1.00  0.00     0.057 C 
BRANCH  18  23
ATOM     23  C   UNL     1      -0.005  -9.787  -7.177  1.00  0.00     0.341 C 
ATOM     24  O   UNL     1       1.032  -9.493  -7.767  1.00  0.00    -0.246 OA
BRANCH  23  25
ATOM     25  O   UNL     1      -1.089 -10.364  -7.763  1.00  0.00    -0.465 OA
ATOM     26  C   UNL     1      -1.013 -10.561  -9.173  1.00  0.00     0.282 C 
ENDBRANCH  23  25
ENDBRANCH  18  23
BRANCH  19  27
ATOM     27  C   UNL     1      -1.828 -11.462  -5.067  1.00  0.00    -0.016 A 
ATOM     28  C   UNL     1      -1.215 -12.598  -5.604  1.00  0.00     0.009 A 
ATOM     29  C   UNL     1      -3.195 -11.506  -4.761  1.00  0.00     0.009 A 
ATOM     30  C   UNL     1      -1.970 -13.753  -5.843  1.00  0.00     0.004 A 
ATOM     31  C   UNL     1      -3.938 -12.664  -4.970  1.00  0.00     0.004 A 
ATOM     32  C   UNL     1      -3.334 -13.794  -5.525  1.00  0.00    -0.051 A 
ATOM     33  C   UNL     1      -4.160 -15.006  -5.835  1.00  0.00     0.044 C 
ENDBRANCH  19  27
ENDBRANCH  14  17
ENDBRANCH   6  13
ENDBRANCH   3   5
ENDBRANCH   2   3
ENDBRANCH   1   2
BRANCH   1  34
ATOM     34  C   UNL     1       3.277  -2.468  -1.274  1.00  0.00     0.275 C 
BRANCH  34  35
ATOM     35  O   UNL     1       2.054  -2.266  -2.005  1.00  0.00    -0.458 OA
BRANCH  35  36
ATOM     36  C   UNL     1       2.034  -2.850  -3.226  1.00  0.00     0.338 C 
ATOM     37  O   UNL     1       2.935  -3.483  -3.747  1.00  0.00    -0.246 OA
BRANCH  36  38
ATOM     38  C   UNL     1       0.704  -2.717  -3.832  1.00  0.00     0.060 A 
ATOM     39  C   UNL     1      -0.049  -3.874  -4.045  1.00  0.00     0.016 A 
ATOM     40  C   UNL     1       0.251  -1.480  -4.288  1.00  0.00     0.016 A 
ATOM     41  C   UNL     1      -1.254  -3.805  -4.737  1.00  0.00     0.010 A 
ATOM     42  C   UNL     1      -0.968  -1.409  -4.967  1.00  0.00     0.010 A 
ATOM     43  C   UNL     1      -1.720  -2.572  -5.211  1.00  0.00    -0.014 A 
BRANCH  43  44
ATOM     44  C   UNL     1      -2.978  -2.499  -5.994  1.00  0.00     0.031 A 
ATOM     45  C   UNL     1      -2.929  -2.158  -7.457  1.00  0.00     0.074 A 
ATOM     46  C   UNL     1      -4.158  -2.723  -5.385  1.00  0.00     0.049 A 
ATOM     47  N   UNL     1      -3.915  -1.920  -8.284  1.00  0.00    -0.248 NA
ATOM     48  C   UNL     1      -1.594  -2.062  -8.069  1.00  0.00     0.031 C 
ATOM     49  C   UNL     1      -4.323  -3.094  -3.978  1.00  0.00     0.029 A 
ATOM     50  N   UNL     1      -5.442  -2.656  -5.864  1.00  0.00    -0.354 N 
ATOM     51  C   UNL     1      -3.322  -1.622  -9.506  1.00  0.00     0.074 A 
ATOM     52  C   UNL     1      -1.890  -1.688  -9.307  1.00  0.00     0.031 C 
ATOM     53  C   UNL     1      -5.633  -3.215  -3.707  1.00  0.00     0.029 A 
ATOM     54  C   UNL     1      -6.399  -2.875  -4.902  1.00  0.00     0.049 A 
ATOM     55  H   UNL     1      -5.657  -2.469  -6.807  1.00  0.00     0.167 HD
ATOM     56  C   UNL     1      -3.922  -1.325 -10.684  1.00  0.00     0.037 A 
ATOM     57  C   UNL     1      -7.741  -2.775  -4.966  1.00  0.00     0.037 A 
ATOM     58  C   UNL     1      -5.351  -1.279 -10.867  1.00  0.00     0.049 A 
ATOM     59  C   UNL     1      -8.382  -2.387  -6.272  1.00  0.00     0.074 A 
ATOM     60  C   UNL     1      -6.061  -1.015 -12.025  1.00  0.00     0.029 A 
ATOM     61  N   UNL     1      -6.289  -1.497  -9.867  1.00  0.00    -0.354 N 
ATOM     62  N   UNL     1      -7.812  -2.121  -7.424  1.00  0.00    -0.248 NA
ATOM     63  C   UNL     1      -9.847  -2.284  -6.290  1.00  0.00     0.031 C 
ATOM     64  C   UNL     1      -7.425  -1.016 -11.713  1.00  0.00     0.029 A 
ATOM     65  C   UNL     1      -7.569  -1.347 -10.375  1.00  0.00     0.049 A 
ATOM     66  H   UNL     1      -6.075  -1.725  -8.933  1.00  0.00     0.167 HD
ATOM     67  C   UNL     1      -8.849  -1.849  -8.309  1.00  0.00     0.074 A 
ATOM     68  C   UNL     1     -10.082  -1.996  -7.562  1.00  0.00     0.031 C 
ATOM     69  C   UNL     1      -8.788  -1.509  -9.620  1.00  0.00     0.037 A 
BRANCH  56  70
ATOM     70  C   UNL     1      -3.044  -1.000 -11.862  1.00  0.00     0.058 A 
ATOM     71  C   UNL     1      -2.272  -1.978 -12.508  1.00  0.00     0.135 A 
ATOM     72  C   UNL     1      -3.018   0.303 -12.388  1.00  0.00     0.135 A 
ATOM     73  F   UNL     1      -2.246  -3.237 -12.042  1.00  0.00    -0.206 F 
ATOM     74  C   UNL     1      -1.490  -1.673 -13.620  1.00  0.00     0.059 A 
ATOM     75  C   UNL     1      -2.268   0.625 -13.516  1.00  0.00     0.059 A 
ATOM     76  F   UNL     1      -3.736   1.280 -11.811  1.00  0.00    -0.206 F 
ATOM     77  C   UNL     1      -1.499  -0.369 -14.119  1.00  0.00     0.060 A 
BRANCH  77  78
ATOM     78  S   UNL     1      -0.500   0.004 -15.577  1.00  0.00     0.124 S 
ATOM     79  O   UNL     1       0.852  -0.073 -15.033  1.00  0.00    -0.237 OA
ATOM     80  O   UNL     1      -0.876  -1.069 -16.493  1.00  0.00    -0.237 OA
ATOM     81  O   UNL     1      -0.945   1.339 -15.964  1.00  0.00    -0.744 OA
ENDBRANCH  77  78
ENDBRANCH  56  70
BRANCH  57  82
ATOM     82  C   UNL     1      -8.566  -3.021  -3.752  1.00  0.00     0.058 A 
ATOM     83  C   UNL     1      -9.427  -4.125  -3.671  1.00  0.00     0.135 A 
ATOM     84  C   UNL     1      -8.511  -2.156  -2.647  1.00  0.00     0.135 A 
ATOM     85  F   UNL     1      -9.523  -4.977  -4.703  1.00  0.00    -0.206 F 
ATOM     86  C   UNL     1     -10.220  -4.352  -2.551  1.00  0.00     0.059 A 
ATOM     87  C   UNL     1      -9.270  -2.379  -1.502  1.00  0.00     0.059 A 
ATOM     88  F   UNL     1      -7.695  -1.090  -2.665  1.00  0.00    -0.206 F 
ATOM     89  C   UNL     1     -10.132  -3.473  -1.469  1.00  0.00     0.060 A 
BRANCH  89  90
ATOM     90  S   UNL     1     -11.140  -3.798  -0.007  1.00  0.00     0.124 S 
ATOM     91  O   UNL     1     -12.476  -3.470  -0.492  1.00  0.00    -0.237 OA
ATOM     92  O   UNL     1     -10.879  -5.214   0.235  1.00  0.00    -0.237 OA
ATOM     93  O   UNL     1     -10.589  -2.887   0.991  1.00  0.00    -0.744 OA
ENDBRANCH  89  90
ENDBRANCH  57  82
BRANCH  69  94
ATOM     94  C   UNL     1     -10.091  -1.318 -10.349  1.00  0.00     0.058 A 
ATOM     95  C   UNL     1     -10.920  -0.211 -10.112  1.00  0.00     0.135 A 
ATOM     96  C   UNL     1     -10.488  -2.233 -11.339  1.00  0.00     0.135 A 
ATOM     97  F   UNL     1     -10.593   0.690  -9.172  1.00  0.00    -0.206 F 
ATOM     98  C   UNL     1     -12.109  -0.031 -10.812  1.00  0.00     0.059 A 
ATOM     99  C   UNL     1     -11.656  -2.055 -12.074  1.00  0.00     0.059 A 
ATOM    100  F   UNL     1      -9.728  -3.305 -11.614  1.00  0.00    -0.206 F 
ATOM    101  C   UNL     1     -12.466  -0.957 -11.794  1.00  0.00     0.060 A 
BRANCH 101 102
ATOM    102  S   UNL     1     -13.993  -0.690 -12.720  1.00  0.00     0.124 S 
ATOM    103  O   UNL     1     -15.005  -0.999 -11.714  1.00  0.00    -0.237 OA
ATOM    104  O   UNL     1     -13.886   0.715 -13.100  1.00  0.00    -0.237 OA
ATOM    105  O   UNL     1     -13.894  -1.642 -13.822  1.00  0.00    -0.744 OA
ENDBRANCH 101 102
ENDBRANCH  69  94
ENDBRANCH  43  44
ENDBRANCH  36  38
ENDBRANCH  35  36
ENDBRANCH  34  35
ENDBRANCH   1  34
TORSDOF 19
