REMARK SMILES C=CCn1nc(C(=O)OCCOC(=O)c2ccc(-c3c4nc(c(-c5c(F)cc(S(=O)(=O)[O-])cc5F)c5ccc([nH]5)c(-c5c(F)cc(S(=O)(=O)[O-])cc5F)c5nc(c(-c6c(F)cc(S(=O)(=O)[O-])cc6F)c6ccc3[nH]6)C=C5)C=C4)cc2)c2c1CC[C@@H]([NH+]1CCC(C(C)(C)O)CC1)C2
REMARK SMILES IDX 10 1 9 2 7 3 8 4 6 5 4 6 5 7 82 8 81 9 83 10 96 11 84 12
REMARK SMILES IDX 85 13 3 14 2 15 1 16 86 17 87 18 95 19 88 21 94 22 89 23
REMARK SMILES IDX 90 24 91 25 92 26 93 27 11 29 12 30 13 31 14 32 15 33 16 34
REMARK SMILES IDX 80 35 17 36 79 37 18 38 19 39 20 40 73 41 21 42 78 43 72 44
REMARK SMILES IDX 74 45 22 46 77 47 71 48 70 49 23 51 57 52 36 53 56 54 37 55
REMARK SMILES IDX 40 56 55 57 75 58 38 59 39 60 54 62 76 63 41 64 24 65 25 66
REMARK SMILES IDX 34 67 26 68 27 69 33 70 35 71 28 72 29 73 30 74 31 75 32 76
REMARK SMILES IDX 58 77 59 78 68 79 60 80 61 81 67 82 69 83 62 84 63 85 64 86
REMARK SMILES IDX 65 87 66 88 42 89 43 90 52 91 44 92 45 93 51 94 53 95 46 96
REMARK SMILES IDX 47 97 48 98 49 99 50 100
REMARK H PARENT 86 20 93 28 74 50 40 61
REMARK Flexibility Score: inf
ROOT
ATOM      1  C   UNL     1      -3.192  -7.042  -4.431  1.00  0.00     0.275 C 
ENDROOT
BRANCH   1   2
ATOM      2  O   UNL     1      -3.297  -5.750  -3.819  1.00  0.00    -0.457 OA
BRANCH   2   3
ATOM      3  C   UNL     1      -2.944  -5.605  -2.501  1.00  0.00     0.359 C 
ATOM      4  O   UNL     1      -2.814  -6.548  -1.722  1.00  0.00    -0.244 OA
BRANCH   3   5
ATOM      5  C   UNL     1      -2.732  -4.186  -2.167  1.00  0.00     0.174 A 
ATOM      6  N   UNL     1      -2.405  -2.368  -1.090  1.00  0.00    -0.265 N 
ATOM      7  N   UNL     1      -2.412  -3.719  -0.935  1.00  0.00    -0.165 NA
ATOM      8  C   UNL     1      -3.002  -2.009  -2.265  1.00  0.00     0.043 A 
ATOM      9  C   UNL     1      -2.852  -3.105  -3.076  1.00  0.00     0.014 A 
ATOM     10  C   UNL     1      -3.590  -0.721  -2.675  1.00  0.00     0.062 C 
ATOM     11  C   UNL     1      -2.982  -3.056  -4.558  1.00  0.00     0.105 C 
ATOM     12  C   UNL     1      -3.904  -0.746  -4.186  1.00  0.00     0.072 C 
ATOM     13  C   UNL     1      -2.961  -1.589  -5.090  1.00  0.00     0.189 C 
BRANCH   6  14
ATOM     14  C   UNL     1      -1.810  -1.495  -0.076  1.00  0.00     0.171 C 
BRANCH  14  15
ATOM     15  C   UNL     1      -0.301  -1.441  -0.145  1.00  0.00    -0.011 C 
ATOM     16  C   UNL     1       0.445  -0.325  -0.160  1.00  0.00     0.006 C 
ENDBRANCH  14  15
ENDBRANCH   6  14
BRANCH  13  17
ATOM     17  N   UNL     1      -1.606  -1.122  -5.452  1.00  0.00    -0.332 N 
ATOM     18  C   UNL     1      -0.577  -0.955  -4.440  1.00  0.00     0.262 C 
ATOM     19  C   UNL     1      -1.518  -0.042  -6.420  1.00  0.00     0.262 C 
ATOM     20  H   UNL     1      -1.366  -2.007  -5.899  1.00  0.00     0.348 HD
ATOM     21  C   UNL     1      -0.602   0.385  -3.704  1.00  0.00     0.068 C 
ATOM     22  C   UNL     1      -1.799   1.328  -5.825  1.00  0.00     0.068 C 
ATOM     23  C   UNL     1      -1.088   1.635  -4.484  1.00  0.00     0.031 C 
BRANCH  23  24
ATOM     24  C   UNL     1      -1.924   2.657  -3.619  1.00  0.00     0.062 C 
ATOM     25  C   UNL     1      -1.381   2.860  -2.199  1.00  0.00     0.042 C 
ATOM     26  C   UNL     1      -2.019   4.013  -4.329  1.00  0.00     0.042 C 
BRANCH  24  27
ATOM     27  O   UNL     1      -3.274   2.201  -3.474  1.00  0.00    -0.390 OA
ATOM     28  H   UNL     1      -3.278   1.340  -3.027  1.00  0.00     0.211 HD
ENDBRANCH  24  27
ENDBRANCH  23  24
ENDBRANCH  13  17
ENDBRANCH   3   5
ENDBRANCH   2   3
ENDBRANCH   1   2
BRANCH   1  29
ATOM     29  C   UNL     1      -1.782  -7.269  -4.958  1.00  0.00     0.275 C 
BRANCH  29  30
ATOM     30  O   UNL     1      -0.904  -7.435  -3.855  1.00  0.00    -0.458 OA
BRANCH  30  31
ATOM     31  C   UNL     1      -0.279  -6.324  -3.405  1.00  0.00     0.338 C 
ATOM     32  O   UNL     1      -0.384  -5.194  -3.846  1.00  0.00    -0.246 OA
BRANCH  31  33
ATOM     33  C   UNL     1       0.659  -6.727  -2.354  1.00  0.00     0.060 A 
ATOM     34  C   UNL     1       1.464  -5.732  -1.792  1.00  0.00     0.016 A 
ATOM     35  C   UNL     1       0.954  -8.090  -2.238  1.00  0.00     0.016 A 
ATOM     36  C   UNL     1       2.723  -6.090  -1.364  1.00  0.00     0.010 A 
ATOM     37  C   UNL     1       2.216  -8.437  -1.861  1.00  0.00     0.010 A 
ATOM     38  C   UNL     1       3.108  -7.420  -1.531  1.00  0.00    -0.014 A 
BRANCH  38  39
ATOM     39  C   UNL     1       4.496  -7.788  -1.393  1.00  0.00     0.031 A 
ATOM     40  C   UNL     1       4.862  -8.133  -0.004  1.00  0.00     0.074 A 
ATOM     41  C   UNL     1       5.242  -7.989  -2.497  1.00  0.00     0.049 A 
ATOM     42  N   UNL     1       5.617  -7.463   0.802  1.00  0.00    -0.248 NA
ATOM     43  C   UNL     1       4.112  -9.220   0.650  1.00  0.00     0.031 C 
ATOM     44  C   UNL     1       4.817  -7.965  -3.902  1.00  0.00     0.029 A 
ATOM     45  N   UNL     1       6.529  -8.412  -2.577  1.00  0.00    -0.354 N 
ATOM     46  C   UNL     1       5.614  -8.190   1.988  1.00  0.00     0.074 A 
ATOM     47  C   UNL     1       4.474  -9.058   1.921  1.00  0.00     0.031 C 
ATOM     48  C   UNL     1       5.750  -8.585  -4.661  1.00  0.00     0.029 A 
ATOM     49  C   UNL     1       6.875  -8.944  -3.818  1.00  0.00     0.049 A 
ATOM     50  H   UNL     1       7.162  -8.348  -1.825  1.00  0.00     0.167 HD
ATOM     51  C   UNL     1       6.707  -8.237   2.797  1.00  0.00     0.037 A 
ATOM     52  C   UNL     1       7.952  -9.746  -4.030  1.00  0.00     0.037 A 
ATOM     53  C   UNL     1       7.655  -7.215   2.429  1.00  0.00     0.049 A 
ATOM     54  C   UNL     1       8.877  -9.511  -2.875  1.00  0.00     0.074 A 
ATOM     55  C   UNL     1       7.609  -5.835   2.384  1.00  0.00     0.029 A 
ATOM     56  N   UNL     1       8.713  -7.590   1.633  1.00  0.00    -0.354 N 
ATOM     57  N   UNL     1       9.454  -8.358  -2.637  1.00  0.00    -0.248 NA
ATOM     58  C   UNL     1       8.724 -10.376  -1.710  1.00  0.00     0.031 C 
ATOM     59  C   UNL     1       8.322  -5.483   1.202  1.00  0.00     0.029 A 
ATOM     60  C   UNL     1       8.834  -6.653   0.637  1.00  0.00     0.049 A 
ATOM     61  H   UNL     1       9.281  -8.385   1.755  1.00  0.00     0.167 HD
ATOM     62  C   UNL     1       9.364  -8.184  -1.259  1.00  0.00     0.074 A 
ATOM     63  C   UNL     1       8.946  -9.484  -0.738  1.00  0.00     0.031 C 
ATOM     64  C   UNL     1       9.340  -6.941  -0.690  1.00  0.00     0.037 A 
BRANCH  51  65
ATOM     65  C   UNL     1       7.093  -9.421   3.654  1.00  0.00     0.058 A 
ATOM     66  C   UNL     1       8.183  -9.283   4.537  1.00  0.00     0.135 A 
ATOM     67  C   UNL     1       6.630 -10.744   3.465  1.00  0.00     0.135 A 
ATOM     68  F   UNL     1       8.696  -8.073   4.809  1.00  0.00    -0.206 F 
ATOM     69  C   UNL     1       8.828 -10.382   5.103  1.00  0.00     0.059 A 
ATOM     70  C   UNL     1       7.222 -11.846   4.067  1.00  0.00     0.059 A 
ATOM     71  F   UNL     1       5.649 -11.059   2.614  1.00  0.00    -0.206 F 
ATOM     72  C   UNL     1       8.352 -11.662   4.841  1.00  0.00     0.060 A 
BRANCH  72  73
ATOM     73  S   UNL     1       9.260 -13.088   5.454  1.00  0.00     0.124 S 
ATOM     74  O   UNL     1      10.478 -13.019   4.654  1.00  0.00    -0.237 OA
ATOM     75  O   UNL     1       9.403 -12.769   6.870  1.00  0.00    -0.237 OA
ATOM     76  O   UNL     1       8.371 -14.207   5.155  1.00  0.00    -0.744 OA
ENDBRANCH  72  73
ENDBRANCH  51  65
BRANCH  52  77
ATOM     77  C   UNL     1       7.986 -10.973  -4.880  1.00  0.00     0.058 A 
ATOM     78  C   UNL     1       9.194 -11.609  -5.220  1.00  0.00     0.135 A 
ATOM     79  C   UNL     1       6.810 -11.696  -5.177  1.00  0.00     0.135 A 
ATOM     80  F   UNL     1      10.366 -11.014  -4.952  1.00  0.00    -0.206 F 
ATOM     81  C   UNL     1       9.232 -12.892  -5.790  1.00  0.00     0.059 A 
ATOM     82  C   UNL     1       6.822 -12.964  -5.754  1.00  0.00     0.059 A 
ATOM     83  F   UNL     1       5.601 -11.229  -4.833  1.00  0.00    -0.206 F 
ATOM     84  C   UNL     1       8.037 -13.569  -6.039  1.00  0.00     0.060 A 
BRANCH  84  85
ATOM     85  S   UNL     1       8.071 -15.281  -6.625  1.00  0.00     0.124 S 
ATOM     86  O   UNL     1       8.588 -15.128  -7.981  1.00  0.00    -0.237 OA
ATOM     87  O   UNL     1       8.969 -15.918  -5.668  1.00  0.00    -0.237 OA
ATOM     88  O   UNL     1       6.673 -15.698  -6.536  1.00  0.00    -0.744 OA
ENDBRANCH  84  85
ENDBRANCH  52  77
BRANCH  64  89
ATOM     89  C   UNL     1       9.635  -5.735  -1.547  1.00  0.00     0.058 A 
ATOM     90  C   UNL     1       8.803  -5.283  -2.588  1.00  0.00     0.135 A 
ATOM     91  C   UNL     1      10.666  -4.877  -1.137  1.00  0.00     0.135 A 
ATOM     92  F   UNL     1       7.736  -5.995  -2.972  1.00  0.00    -0.206 F 
ATOM     93  C   UNL     1       8.997  -4.042  -3.202  1.00  0.00     0.059 A 
ATOM     94  C   UNL     1      10.859  -3.624  -1.711  1.00  0.00     0.059 A 
ATOM     95  F   UNL     1      11.454  -5.221  -0.104  1.00  0.00    -0.206 F 
ATOM     96  C   UNL     1      10.024  -3.214  -2.748  1.00  0.00     0.060 A 
BRANCH  96  97
ATOM     97  S   UNL     1      10.209  -1.564  -3.461  1.00  0.00     0.124 S 
ATOM     98  O   UNL     1      10.721  -1.863  -4.794  1.00  0.00    -0.237 OA
ATOM     99  O   UNL     1       8.847  -1.039  -3.407  1.00  0.00    -0.237 OA
ATOM    100  O   UNL     1      11.155  -0.907  -2.562  1.00  0.00    -0.744 OA
ENDBRANCH  96  97
ENDBRANCH  64  89
ENDBRANCH  38  39
ENDBRANCH  31  33
ENDBRANCH  30  31
ENDBRANCH  29  30
ENDBRANCH   1  29
TORSDOF 19
