REMARK SMILES CC1(C)CCC[C@@](C)(CCC(=O)OCCOC(=O)c2ccc(-c3c4nc(c(-c5c(F)cc(S(=O)(=O)[O-])cc5F)c5ccc([nH]5)c(-c5c(F)cc(S(=O)(=O)[O-])cc5F)c5nc(c(-c6c(F)cc(S(=O)(=O)[O-])cc6F)c6ccc3[nH]6)C=C5)C=C4)cc2)C1=O
REMARK SMILES IDX 15 1 14 2 13 3 11 4 12 5 10 6 9 7 7 8 1 9 2 10 3 11 4 12
REMARK SMILES IDX 85 13 5 14 86 15 6 16 8 17 16 18 17 19 18 20 19 21 20 22
REMARK SMILES IDX 84 23 21 24 83 25 22 26 23 27 24 28 77 29 25 30 82 31 76 32
REMARK SMILES IDX 78 33 26 34 81 35 75 36 74 37 27 39 61 40 40 41 60 42 41 43
REMARK SMILES IDX 44 44 59 45 79 46 42 47 43 48 58 50 80 51 45 52 28 53 29 54
REMARK SMILES IDX 38 55 30 56 31 57 37 58 39 59 32 60 33 61 34 62 35 63 36 64
REMARK SMILES IDX 62 65 63 66 72 67 64 68 65 69 71 70 73 71 66 72 67 73 68 74
REMARK SMILES IDX 69 75 70 76 46 77 47 78 56 79 48 80 49 81 55 82 57 83 50 84
REMARK SMILES IDX 51 85 52 86 53 87 54 88
REMARK H PARENT 78 38 44 49
REMARK Flexibility Score: inf
ROOT
ATOM      1  C   UNL     1       6.340   2.781  -2.916  1.00  0.00     0.275 C 
ENDROOT
BRANCH   1   2
ATOM      2  C   UNL     1       6.527   1.425  -3.597  1.00  0.00     0.274 C 
BRANCH   2   3
ATOM      3  O   UNL     1       5.592   0.459  -3.081  1.00  0.00    -0.462 OA
BRANCH   3   4
ATOM      4  C   UNL     1       6.054  -0.405  -2.149  1.00  0.00     0.305 C 
ATOM      5  O   UNL     1       7.217  -0.472  -1.774  1.00  0.00    -0.252 OA
BRANCH   4   6
ATOM      6  C   UNL     1       4.979  -1.346  -1.651  1.00  0.00     0.124 C 
BRANCH   6   7
ATOM      7  C   UNL     1       3.600  -0.732  -1.357  1.00  0.00     0.026 C 
BRANCH   7   8
ATOM      8  C   UNL     1       2.574  -0.557  -2.524  1.00  0.00     0.027 C 
ATOM      9  C   UNL     1       0.653  -0.084   0.232  1.00  0.00     0.019 C 
ATOM     10  C   UNL     1       0.262  -0.088  -1.253  1.00  0.00     0.024 C 
ATOM     11  C   UNL     1      -1.191  -0.593  -1.364  1.00  0.00     0.019 C 
ATOM     12  C   UNL     1       0.303   1.329  -1.845  1.00  0.00     0.014 C 
ATOM     13  C   UNL     1       1.187  -1.050  -2.028  1.00  0.00     0.144 C 
ATOM     14  C   UNL     1       1.718   1.833  -2.054  1.00  0.00     0.002 C 
ATOM     15  O   UNL     1       0.873  -2.240  -2.158  1.00  0.00    -0.298 OA
ATOM     16  C   UNL     1       2.457   0.906  -3.009  1.00  0.00     0.014 C 
ATOM     17  C   UNL     1       2.939  -1.421  -3.752  1.00  0.00     0.020 C 
ENDBRANCH   7   8
ENDBRANCH   6   7
ENDBRANCH   4   6
ENDBRANCH   3   4
ENDBRANCH   2   3
ENDBRANCH   1   2
BRANCH   1  18
ATOM     18  O   UNL     1       6.769   2.722  -1.545  1.00  0.00    -0.458 OA
BRANCH  18  19
ATOM     19  C   UNL     1       5.784   2.637  -0.622  1.00  0.00     0.338 C 
ATOM     20  O   UNL     1       4.583   2.673  -0.810  1.00  0.00    -0.246 OA
BRANCH  19  21
ATOM     21  C   UNL     1       6.392   2.392   0.690  1.00  0.00     0.060 A 
ATOM     22  C   UNL     1       6.393   1.092   1.202  1.00  0.00     0.016 A 
ATOM     23  C   UNL     1       6.938   3.451   1.415  1.00  0.00     0.016 A 
ATOM     24  C   UNL     1       6.977   0.838   2.440  1.00  0.00     0.010 A 
ATOM     25  C   UNL     1       7.532   3.191   2.651  1.00  0.00     0.010 A 
ATOM     26  C   UNL     1       7.566   1.883   3.163  1.00  0.00    -0.014 A 
BRANCH  26  27
ATOM     27  C   UNL     1       8.267   1.612   4.439  1.00  0.00     0.031 A 
ATOM     28  C   UNL     1       7.666   2.056   5.738  1.00  0.00     0.074 A 
ATOM     29  C   UNL     1       9.470   1.006   4.408  1.00  0.00     0.049 A 
ATOM     30  N   UNL     1       8.194   2.054   6.933  1.00  0.00    -0.248 NA
ATOM     31  C   UNL     1       6.291   2.576   5.684  1.00  0.00     0.031 C 
ATOM     32  C   UNL     1      10.130   0.506   3.200  1.00  0.00     0.029 A 
ATOM     33  N   UNL     1      10.359   0.727   5.414  1.00  0.00    -0.354 N 
ATOM     34  C   UNL     1       7.226   2.588   7.775  1.00  0.00     0.074 A 
ATOM     35  C   UNL     1       6.082   2.915   6.949  1.00  0.00     0.031 C 
ATOM     36  C   UNL     1      11.323  -0.009   3.534  1.00  0.00     0.029 A 
ATOM     37  C   UNL     1      11.536   0.176   4.966  1.00  0.00     0.049 A 
ATOM     38  H   UNL     1      10.172   0.904   6.364  1.00  0.00     0.167 HD
ATOM     39  C   UNL     1       7.295   2.786   9.113  1.00  0.00     0.037 A 
ATOM     40  C   UNL     1      12.675  -0.106   5.628  1.00  0.00     0.037 A 
ATOM     41  C   UNL     1       8.442   2.451   9.917  1.00  0.00     0.049 A 
ATOM     42  C   UNL     1      12.754   0.194   7.098  1.00  0.00     0.074 A 
ATOM     43  C   UNL     1       8.605   2.586  11.284  1.00  0.00     0.029 A 
ATOM     44  N   UNL     1       9.627   1.922   9.424  1.00  0.00    -0.354 N 
ATOM     45  N   UNL     1      11.831   0.694   7.886  1.00  0.00    -0.248 NA
ATOM     46  C   UNL     1      14.029  -0.091   7.768  1.00  0.00     0.031 C 
ATOM     47  C   UNL     1       9.904   2.181  11.611  1.00  0.00     0.029 A 
ATOM     48  C   UNL     1      10.537   1.753  10.454  1.00  0.00     0.049 A 
ATOM     49  H   UNL     1       9.796   1.699   8.480  1.00  0.00     0.167 HD
ATOM     50  C   UNL     1      12.411   0.777   9.146  1.00  0.00     0.074 A 
ATOM     51  C   UNL     1      13.759   0.260   9.019  1.00  0.00     0.031 C 
ATOM     52  C   UNL     1      11.877   1.243  10.302  1.00  0.00     0.037 A 
BRANCH  39  53
ATOM     53  C   UNL     1       6.110   3.422   9.784  1.00  0.00     0.058 A 
ATOM     54  C   UNL     1       4.912   2.721   9.990  1.00  0.00     0.135 A 
ATOM     55  C   UNL     1       6.184   4.744  10.253  1.00  0.00     0.135 A 
ATOM     56  F   UNL     1       4.782   1.460   9.548  1.00  0.00    -0.206 F 
ATOM     57  C   UNL     1       3.819   3.317  10.614  1.00  0.00     0.059 A 
ATOM     58  C   UNL     1       5.112   5.352  10.899  1.00  0.00     0.059 A 
ATOM     59  F   UNL     1       7.306   5.460  10.080  1.00  0.00    -0.206 F 
ATOM     60  C   UNL     1       3.928   4.635  11.062  1.00  0.00     0.060 A 
BRANCH  60  61
ATOM     61  S   UNL     1       2.499   5.397  11.861  1.00  0.00     0.124 S 
ATOM     62  O   UNL     1       1.621   5.636  10.719  1.00  0.00    -0.237 OA
ATOM     63  O   UNL     1       2.065   4.356  12.786  1.00  0.00    -0.237 OA
ATOM     64  O   UNL     1       3.056   6.594  12.484  1.00  0.00    -0.744 OA
ENDBRANCH  60  61
ENDBRANCH  39  53
BRANCH  40  65
ATOM     65  C   UNL     1      13.838  -0.665   4.890  1.00  0.00     0.058 A 
ATOM     66  C   UNL     1      14.239  -1.995   5.075  1.00  0.00     0.135 A 
ATOM     67  C   UNL     1      14.550   0.110   3.961  1.00  0.00     0.135 A 
ATOM     68  F   UNL     1      13.596  -2.772   5.960  1.00  0.00    -0.206 F 
ATOM     69  C   UNL     1      15.307  -2.538   4.368  1.00  0.00     0.059 A 
ATOM     70  C   UNL     1      15.606  -0.417   3.225  1.00  0.00     0.059 A 
ATOM     71  F   UNL     1      14.199   1.387   3.740  1.00  0.00    -0.206 F 
ATOM     72  C   UNL     1      15.981  -1.742   3.440  1.00  0.00     0.060 A 
BRANCH  72  73
ATOM     73  S   UNL     1      17.326  -2.474   2.481  1.00  0.00     0.124 S 
ATOM     74  O   UNL     1      18.394  -2.532   3.471  1.00  0.00    -0.237 OA
ATOM     75  O   UNL     1      16.756  -3.756   2.081  1.00  0.00    -0.237 OA
ATOM     76  O   UNL     1      17.521  -1.518   1.395  1.00  0.00    -0.744 OA
ENDBRANCH  72  73
ENDBRANCH  40  65
BRANCH  52  77
ATOM     77  C   UNL     1      12.750   1.210  11.524  1.00  0.00     0.058 A 
ATOM     78  C   UNL     1      13.779   2.145  11.711  1.00  0.00     0.135 A 
ATOM     79  C   UNL     1      12.514   0.276  12.545  1.00  0.00     0.135 A 
ATOM     80  F   UNL     1      14.051   3.051  10.758  1.00  0.00    -0.206 F 
ATOM     81  C   UNL     1      14.550   2.152  12.868  1.00  0.00     0.059 A 
ATOM     82  C   UNL     1      13.259   0.279  13.720  1.00  0.00     0.059 A 
ATOM     83  F   UNL     1      11.538  -0.636  12.415  1.00  0.00    -0.206 F 
ATOM     84  C   UNL     1      14.279   1.218  13.870  1.00  0.00     0.060 A 
BRANCH  84  85
ATOM     85  S   UNL     1      15.250   1.273  15.391  1.00  0.00     0.124 S 
ATOM     86  O   UNL     1      16.520   0.704  14.950  1.00  0.00    -0.237 OA
ATOM     87  O   UNL     1      15.268   2.699  15.700  1.00  0.00    -0.237 OA
ATOM     88  O   UNL     1      14.479   0.448  16.316  1.00  0.00    -0.744 OA
ENDBRANCH  84  85
ENDBRANCH  52  77
ENDBRANCH  26  27
ENDBRANCH  19  21
ENDBRANCH  18  19
ENDBRANCH   1  18
TORSDOF 16
