REMARK SMILES CCc1nc(COC)cc(OCC(=O)OCCOC(=O)c2ccc(-c3c4nc(c(-c5c(F)cc(S(=O)(=O)[O-])cc5F)c5ccc([nH]5)c(-c5c(F)cc(S(=O)(=O)[O-])cc5F)c5nc(c(-c6c(F)cc(S(=O)(=O)[O-])cc6F)c6ccc3[nH]6)C=C5)C=C4)cc2)n1
REMARK SMILES IDX 16 1 15 2 13 3 14 4 12 5 11 6 10 7 3 8 4 9 87 10 5 11 9 12
REMARK SMILES IDX 2 13 1 14 6 15 7 16 8 17 17 18 18 19 19 20 20 21 21 22 22 23
REMARK SMILES IDX 86 24 23 25 85 26 24 27 25 28 26 29 79 30 27 31 84 32 78 33
REMARK SMILES IDX 80 34 28 35 83 36 77 37 76 38 29 40 63 41 42 42 62 43 43 44
REMARK SMILES IDX 46 45 61 46 81 47 44 48 45 49 60 51 82 52 47 53 30 54 31 55
REMARK SMILES IDX 40 56 32 57 33 58 39 59 41 60 34 61 35 62 36 63 37 64 38 65
REMARK SMILES IDX 64 66 65 67 74 68 66 69 67 70 73 71 75 72 68 73 69 74 70 75
REMARK SMILES IDX 71 76 72 77 48 78 49 79 58 80 50 81 51 82 57 83 59 84 52 85
REMARK SMILES IDX 53 86 54 87 55 88 56 89
REMARK H PARENT 80 39 46 50
REMARK Flexibility Score: inf
ROOT
ATOM      1  C   UNL     1       3.910  -7.995  -0.489  1.00  0.00     0.274 C 
ENDROOT
BRANCH   1   2
ATOM      2  O   UNL     1       2.801  -7.082  -0.585  1.00  0.00    -0.460 OA
BRANCH   2   3
ATOM      3  C   UNL     1       1.627  -7.518  -0.053  1.00  0.00     0.344 C 
ATOM      4  O   UNL     1       1.483  -8.578   0.546  1.00  0.00    -0.248 OA
BRANCH   3   5
ATOM      5  C   UNL     1       0.474  -6.546  -0.276  1.00  0.00     0.353 C 
BRANCH   5   6
ATOM      6  O   UNL     1       0.772  -5.383  -1.026  1.00  0.00    -0.466 OA
BRANCH   6   7
ATOM      7  C   UNL     1       0.893  -4.208  -0.341  1.00  0.00     0.217 A 
ATOM      8  C   UNL     1       0.685  -1.935  -0.502  1.00  0.00     0.132 A 
ATOM      9  N   UNL     1       1.137  -1.740   0.745  1.00  0.00    -0.235 NA
ATOM     10  N   UNL     1       0.546  -3.141  -1.078  1.00  0.00    -0.198 NA
ATOM     11  C   UNL     1       1.510  -2.824   1.452  1.00  0.00     0.074 A 
ATOM     12  C   UNL     1       1.385  -4.100   0.940  1.00  0.00     0.094 A 
BRANCH   8  13
ATOM     13  C   UNL     1       0.302  -0.734  -1.324  1.00  0.00     0.074 C 
ATOM     14  C   UNL     1       0.718   0.599  -0.716  1.00  0.00     0.012 C 
ENDBRANCH   8  13
BRANCH  11  15
ATOM     15  C   UNL     1       2.094  -2.586   2.829  1.00  0.00     0.216 C 
BRANCH  15  16
ATOM     16  O   UNL     1       3.198  -1.675   2.816  1.00  0.00    -0.378 OA
ATOM     17  C   UNL     1       4.391  -2.257   2.311  1.00  0.00     0.195 C 
ENDBRANCH  15  16
ENDBRANCH  11  15
ENDBRANCH   6   7
ENDBRANCH   5   6
ENDBRANCH   3   5
ENDBRANCH   2   3
ENDBRANCH   1   2
BRANCH   1  18
ATOM     18  C   UNL     1       4.848  -7.630   0.658  1.00  0.00     0.275 C 
BRANCH  18  19
ATOM     19  O   UNL     1       4.138  -7.592   1.909  1.00  0.00    -0.458 OA
BRANCH  19  20
ATOM     20  C   UNL     1       3.990  -6.354   2.429  1.00  0.00     0.338 C 
ATOM     21  O   UNL     1       4.395  -5.307   1.953  1.00  0.00    -0.246 OA
BRANCH  20  22
ATOM     22  C   UNL     1       3.220  -6.378   3.682  1.00  0.00     0.060 A 
ATOM     23  C   UNL     1       1.899  -6.834   3.697  1.00  0.00     0.016 A 
ATOM     24  C   UNL     1       3.770  -5.760   4.808  1.00  0.00     0.016 A 
ATOM     25  C   UNL     1       1.116  -6.637   4.836  1.00  0.00     0.010 A 
ATOM     26  C   UNL     1       3.002  -5.615   5.964  1.00  0.00     0.010 A 
ATOM     27  C   UNL     1       1.664  -6.038   5.982  1.00  0.00    -0.014 A 
BRANCH  27  28
ATOM     28  C   UNL     1       0.876  -5.936   7.235  1.00  0.00     0.031 A 
ATOM     29  C   UNL     1       0.415  -4.607   7.766  1.00  0.00     0.074 A 
ATOM     30  C   UNL     1       0.621  -7.064   7.924  1.00  0.00     0.049 A 
ATOM     31  N   UNL     1      -0.188  -4.340   8.896  1.00  0.00    -0.248 NA
ATOM     32  C   UNL     1       0.662  -3.429   6.922  1.00  0.00     0.031 C 
ATOM     33  C   UNL     1       1.021  -8.410   7.511  1.00  0.00     0.029 A 
ATOM     34  N   UNL     1      -0.017  -7.256   9.122  1.00  0.00    -0.354 N 
ATOM     35  C   UNL     1      -0.386  -2.965   8.908  1.00  0.00     0.074 A 
ATOM     36  C   UNL     1       0.170  -2.450   7.673  1.00  0.00     0.031 C 
ATOM     37  C   UNL     1       0.623  -9.290   8.441  1.00  0.00     0.029 A 
ATOM     38  C   UNL     1      -0.017  -8.566   9.535  1.00  0.00     0.049 A 
ATOM     39  H   UNL     1      -0.433  -6.528   9.636  1.00  0.00     0.167 HD
ATOM     40  C   UNL     1      -0.979  -2.206   9.861  1.00  0.00     0.037 A 
ATOM     41  C   UNL     1      -0.449  -9.124  10.680  1.00  0.00     0.037 A 
ATOM     42  C   UNL     1      -1.536  -2.722  11.087  1.00  0.00     0.049 A 
ATOM     43  C   UNL     1      -1.058  -8.259  11.739  1.00  0.00     0.074 A 
ATOM     44  C   UNL     1      -2.193  -2.033  12.092  1.00  0.00     0.029 A 
ATOM     45  N   UNL     1      -1.494  -4.052  11.479  1.00  0.00    -0.354 N 
ATOM     46  N   UNL     1      -1.244  -6.962  11.729  1.00  0.00    -0.248 NA
ATOM     47  C   UNL     1      -1.504  -8.928  12.967  1.00  0.00     0.031 C 
ATOM     48  C   UNL     1      -2.524  -2.942  13.106  1.00  0.00     0.029 A 
ATOM     49  C   UNL     1      -2.094  -4.201  12.719  1.00  0.00     0.049 A 
ATOM     50  H   UNL     1      -1.095  -4.782  10.953  1.00  0.00     0.167 HD
ATOM     51  C   UNL     1      -1.831  -6.656  12.950  1.00  0.00     0.074 A 
ATOM     52  C   UNL     1      -1.980  -7.907  13.668  1.00  0.00     0.031 C 
ATOM     53  C   UNL     1      -2.213  -5.448  13.430  1.00  0.00     0.037 A 
BRANCH  40  54
ATOM     54  C   UNL     1      -1.052  -0.724   9.629  1.00  0.00     0.058 A 
ATOM     55  C   UNL     1      -2.028  -0.163   8.792  1.00  0.00     0.135 A 
ATOM     56  C   UNL     1      -0.182   0.147  10.303  1.00  0.00     0.135 A 
ATOM     57  F   UNL     1      -2.875  -0.955   8.117  1.00  0.00    -0.206 F 
ATOM     58  C   UNL     1      -2.136   1.215   8.626  1.00  0.00     0.059 A 
ATOM     59  C   UNL     1      -0.280   1.528  10.161  1.00  0.00     0.059 A 
ATOM     60  F   UNL     1       0.769  -0.342  11.113  1.00  0.00    -0.206 F 
ATOM     61  C   UNL     1      -1.257   2.053   9.315  1.00  0.00     0.060 A 
BRANCH  61  62
ATOM     62  S   UNL     1      -1.424   3.841   9.121  1.00  0.00     0.124 S 
ATOM     63  O   UNL     1      -0.760   4.059   7.840  1.00  0.00    -0.237 OA
ATOM     64  O   UNL     1      -2.872   4.027   9.124  1.00  0.00    -0.237 OA
ATOM     65  O   UNL     1      -0.728   4.373  10.289  1.00  0.00    -0.744 OA
ENDBRANCH  61  62
ENDBRANCH  40  54
BRANCH  41  66
ATOM     66  C   UNL     1      -0.284 -10.585  10.873  1.00  0.00     0.058 A 
ATOM     67  C   UNL     1      -1.363 -11.459  10.698  1.00  0.00     0.135 A 
ATOM     68  C   UNL     1       0.978 -11.135  11.143  1.00  0.00     0.135 A 
ATOM     69  F   UNL     1      -2.587 -10.972  10.441  1.00  0.00    -0.206 F 
ATOM     70  C   UNL     1      -1.196 -12.838  10.768  1.00  0.00     0.059 A 
ATOM     71  C   UNL     1       1.173 -12.510  11.202  1.00  0.00     0.059 A 
ATOM     72  F   UNL     1       2.042 -10.332  11.300  1.00  0.00    -0.206 F 
ATOM     73  C   UNL     1       0.079 -13.353  11.011  1.00  0.00     0.060 A 
BRANCH  73  74
ATOM     74  S   UNL     1       0.322 -15.143  10.981  1.00  0.00     0.124 S 
ATOM     75  O   UNL     1      -0.051 -15.511  12.341  1.00  0.00    -0.237 OA
ATOM     76  O   UNL     1      -0.596 -15.569   9.929  1.00  0.00    -0.237 OA
ATOM     77  O   UNL     1       1.739 -15.276  10.653  1.00  0.00    -0.744 OA
ENDBRANCH  73  74
ENDBRANCH  41  66
BRANCH  53  78
ATOM     78  C   UNL     1      -2.824  -5.429  14.799  1.00  0.00     0.058 A 
ATOM     79  C   UNL     1      -2.026  -5.490  15.951  1.00  0.00     0.135 A 
ATOM     80  C   UNL     1      -4.215  -5.344  14.961  1.00  0.00     0.135 A 
ATOM     81  F   UNL     1      -0.691  -5.582  15.843  1.00  0.00    -0.206 F 
ATOM     82  C   UNL     1      -2.589  -5.492  17.222  1.00  0.00     0.059 A 
ATOM     83  C   UNL     1      -4.799  -5.330  16.224  1.00  0.00     0.059 A 
ATOM     84  F   UNL     1      -5.018  -5.280  13.887  1.00  0.00    -0.206 F 
ATOM     85  C   UNL     1      -3.978  -5.420  17.348  1.00  0.00     0.060 A 
BRANCH  85  86
ATOM     86  S   UNL     1      -4.708  -5.419  19.000  1.00  0.00     0.124 S 
ATOM     87  O   UNL     1      -4.735  -6.845  19.307  1.00  0.00    -0.237 OA
ATOM     88  O   UNL     1      -3.759  -4.622  19.770  1.00  0.00    -0.237 OA
ATOM     89  O   UNL     1      -6.012  -4.796  18.788  1.00  0.00    -0.744 OA
ENDBRANCH  85  86
ENDBRANCH  53  78
ENDBRANCH  27  28
ENDBRANCH  20  22
ENDBRANCH  19  20
ENDBRANCH  18  19
ENDBRANCH   1  18
TORSDOF 19
