REMARK SMILES C[C@H](C(=O)OCCOC(=O)c1ccc(-c2c3nc(c(-c4c(F)cc(S(=O)(=O)[O-])cc4F)c4ccc([nH]4)c(-c4c(F)cc(S(=O)(=O)[O-])cc4F)c4nc(c(-c5c(F)cc(S(=O)(=O)[O-])cc5F)c5ccc2[nH]5)C=C4)C=C3)cc1)c1ccc2c3cc(Cl)ccc3n(C(=O)c3cocn3)c2c1
REMARK SMILES IDX 6 1 5 2 3 3 4 4 2 5 1 6 77 7 78 8 97 9 79 10 96 11 80 12
REMARK SMILES IDX 88 13 81 14 87 15 82 16 86 17 83 18 85 19 84 20 89 21 90 22
REMARK SMILES IDX 91 23 92 24 95 25 93 26 94 27 7 28 8 29 9 30 10 31 11 32
REMARK SMILES IDX 12 33 76 34 13 35 75 36 14 37 15 38 16 39 69 40 17 41 74 42
REMARK SMILES IDX 68 43 70 44 18 45 73 46 67 47 66 48 19 50 53 51 32 52 52 53
REMARK SMILES IDX 33 54 36 55 51 56 71 57 34 58 35 59 50 61 72 62 37 63 20 64
REMARK SMILES IDX 21 65 30 66 22 67 23 68 29 69 31 70 24 71 25 72 26 73 27 74
REMARK SMILES IDX 28 75 54 76 55 77 64 78 56 79 57 80 63 81 65 82 58 83 59 84
REMARK SMILES IDX 60 85 61 86 62 87 38 88 39 89 48 90 40 91 41 92 47 93 49 94
REMARK SMILES IDX 42 95 43 96 44 97 45 98 46 99
REMARK H PARENT 70 49 36 60
REMARK Flexibility Score: inf
ROOT
ATOM      1  C   UNL     1       1.204  -0.622  -2.084  1.00  0.00     0.274 C 
ENDROOT
BRANCH   1   2
ATOM      2  O   UNL     1       0.579  -0.906  -0.817  1.00  0.00    -0.462 OA
BRANCH   2   3
ATOM      3  C   UNL     1       1.368  -0.772   0.288  1.00  0.00     0.313 C 
ATOM      4  O   UNL     1       2.573  -0.547   0.246  1.00  0.00    -0.252 OA
BRANCH   3   5
ATOM      5  C   UNL     1       0.607  -1.026   1.585  1.00  0.00     0.126 C 
ATOM      6  C   UNL     1       1.198  -0.268   2.779  1.00  0.00     0.025 C 
BRANCH   5   7
ATOM      7  C   UNL     1      -0.897  -0.801   1.514  1.00  0.00    -0.032 A 
ATOM      8  C   UNL     1      -1.464   0.424   1.148  1.00  0.00     0.005 A 
ATOM      9  C   UNL     1      -1.738  -1.866   1.857  1.00  0.00     0.032 A 
ATOM     10  C   UNL     1      -2.855   0.582   1.066  1.00  0.00     0.011 A 
ATOM     11  C   UNL     1      -3.133  -1.691   1.814  1.00  0.00     0.058 A 
ATOM     12  C   UNL     1      -3.704  -0.499   1.385  1.00  0.00     0.008 A 
ATOM     13  N   UNL     1      -4.156  -2.587   2.126  1.00  0.00    -0.274 N 
ATOM     14  C   UNL     1      -5.117  -0.686   1.379  1.00  0.00     0.009 A 
ATOM     15  C   UNL     1      -5.385  -1.979   1.851  1.00  0.00     0.057 A 
ATOM     16  C   UNL     1      -6.193   0.161   1.028  1.00  0.00     0.031 A 
ATOM     17  C   UNL     1      -6.711  -2.414   2.048  1.00  0.00     0.029 A 
ATOM     18  C   UNL     1      -7.502  -0.293   1.180  1.00  0.00     0.041 A 
ATOM     19  C   UNL     1      -7.760  -1.558   1.692  1.00  0.00     0.023 A 
ATOM     20  Cl  UNL     1      -8.816   0.733   0.750  1.00  0.00    -0.084 Cl
BRANCH  13  21
ATOM     21  C   UNL     1      -3.920  -3.877   2.664  1.00  0.00     0.284 C 
ATOM     22  O   UNL     1      -2.988  -3.962   3.463  1.00  0.00    -0.266 OA
BRANCH  21  23
ATOM     23  C   UNL     1      -4.649  -5.078   2.272  1.00  0.00     0.167 A 
ATOM     24  C   UNL     1      -5.415  -5.300   1.147  1.00  0.00     0.231 A 
ATOM     25  N   UNL     1      -4.540  -6.273   2.970  1.00  0.00    -0.211 NA
ATOM     26  O   UNL     1      -5.798  -6.609   1.136  1.00  0.00    -0.451 OA
ATOM     27  C   UNL     1      -5.223  -7.131   2.252  1.00  0.00     0.308 A 
ENDBRANCH  21  23
ENDBRANCH  13  21
ENDBRANCH   5   7
ENDBRANCH   3   5
ENDBRANCH   2   3
ENDBRANCH   1   2
BRANCH   1  28
ATOM     28  C   UNL     1       0.906   0.815  -2.503  1.00  0.00     0.275 C 
BRANCH  28  29
ATOM     29  O   UNL     1       1.472   1.708  -1.531  1.00  0.00    -0.458 OA
BRANCH  29  30
ATOM     30  C   UNL     1       0.743   2.810  -1.240  1.00  0.00     0.338 C 
ATOM     31  O   UNL     1      -0.289   3.170  -1.779  1.00  0.00    -0.246 OA
BRANCH  30  32
ATOM     32  C   UNL     1       1.387   3.541  -0.127  1.00  0.00     0.060 A 
ATOM     33  C   UNL     1       1.899   2.855   0.975  1.00  0.00     0.016 A 
ATOM     34  C   UNL     1       1.416   4.934  -0.150  1.00  0.00     0.016 A 
ATOM     35  C   UNL     1       2.391   3.552   2.078  1.00  0.00     0.010 A 
ATOM     36  C   UNL     1       1.988   5.631   0.919  1.00  0.00     0.010 A 
ATOM     37  C   UNL     1       2.463   4.950   2.055  1.00  0.00    -0.014 A 
BRANCH  37  38
ATOM     38  C   UNL     1       3.002   5.711   3.216  1.00  0.00     0.031 A 
ATOM     39  C   UNL     1       2.138   6.733   3.907  1.00  0.00     0.074 A 
ATOM     40  C   UNL     1       4.267   5.514   3.642  1.00  0.00     0.049 A 
ATOM     41  N   UNL     1       2.477   7.664   4.761  1.00  0.00    -0.248 NA
ATOM     42  C   UNL     1       0.704   6.715   3.577  1.00  0.00     0.031 C 
ATOM     43  C   UNL     1       5.205   4.530   3.098  1.00  0.00     0.029 A 
ATOM     44  N   UNL     1       4.986   6.142   4.630  1.00  0.00    -0.354 N 
ATOM     45  C   UNL     1       1.315   8.382   5.021  1.00  0.00     0.074 A 
ATOM     46  C   UNL     1       0.260   7.775   4.237  1.00  0.00     0.031 C 
ATOM     47  C   UNL     1       6.364   4.607   3.769  1.00  0.00     0.029 A 
ATOM     48  C   UNL     1       6.283   5.698   4.734  1.00  0.00     0.049 A 
ATOM     49  H   UNL     1       4.608   6.844   5.208  1.00  0.00     0.167 HD
ATOM     50  C   UNL     1       1.147   9.451   5.835  1.00  0.00     0.037 A 
ATOM     51  C   UNL     1       7.309   6.146   5.484  1.00  0.00     0.037 A 
ATOM     52  C   UNL     1       2.188  10.014   6.657  1.00  0.00     0.049 A 
ATOM     53  C   UNL     1       7.102   7.334   6.380  1.00  0.00     0.074 A 
ATOM     54  C   UNL     1       2.117  11.094   7.519  1.00  0.00     0.029 A 
ATOM     55  N   UNL     1       3.484   9.525   6.735  1.00  0.00    -0.354 N 
ATOM     56  N   UNL     1       6.018   8.050   6.559  1.00  0.00    -0.248 NA
ATOM     57  C   UNL     1       8.261   7.790   7.159  1.00  0.00     0.031 C 
ATOM     58  C   UNL     1       3.377  11.272   8.104  1.00  0.00     0.029 A 
ATOM     59  C   UNL     1       4.222  10.282   7.631  1.00  0.00     0.049 A 
ATOM     60  H   UNL     1       3.829   8.755   6.229  1.00  0.00     0.167 HD
ATOM     61  C   UNL     1       6.363   9.038   7.474  1.00  0.00     0.074 A 
ATOM     62  C   UNL     1       7.750   8.815   7.827  1.00  0.00     0.031 C 
ATOM     63  C   UNL     1       5.601  10.043   7.972  1.00  0.00     0.037 A 
BRANCH  50  64
ATOM     64  C   UNL     1      -0.206  10.105   5.854  1.00  0.00     0.058 A 
ATOM     65  C   UNL     1      -1.308   9.518   6.495  1.00  0.00     0.135 A 
ATOM     66  C   UNL     1      -0.395  11.355   5.242  1.00  0.00     0.135 A 
ATOM     67  F   UNL     1      -1.187   8.315   7.080  1.00  0.00    -0.206 F 
ATOM     68  C   UNL     1      -2.556  10.134   6.506  1.00  0.00     0.059 A 
ATOM     69  C   UNL     1      -1.628  12.001   5.260  1.00  0.00     0.059 A 
ATOM     70  F   UNL     1       0.625  11.961   4.614  1.00  0.00    -0.206 F 
ATOM     71  C   UNL     1      -2.707  11.374   5.882  1.00  0.00     0.060 A 
BRANCH  71  72
ATOM     72  S   UNL     1      -4.330  12.163   5.900  1.00  0.00     0.124 S 
ATOM     73  O   UNL     1      -5.039  11.392   4.884  1.00  0.00    -0.237 OA
ATOM     74  O   UNL     1      -4.769  11.951   7.276  1.00  0.00    -0.237 OA
ATOM     75  O   UNL     1      -4.038  13.549   5.546  1.00  0.00    -0.744 OA
ENDBRANCH  71  72
ENDBRANCH  50  64
BRANCH  51  76
ATOM     76  C   UNL     1       8.639   5.488   5.382  1.00  0.00     0.058 A 
ATOM     77  C   UNL     1       9.137   4.699   6.428  1.00  0.00     0.135 A 
ATOM     78  C   UNL     1       9.424   5.613   4.225  1.00  0.00     0.135 A 
ATOM     79  F   UNL     1       8.429   4.561   7.559  1.00  0.00    -0.206 F 
ATOM     80  C   UNL     1      10.367   4.056   6.333  1.00  0.00     0.059 A 
ATOM     81  C   UNL     1      10.645   4.960   4.096  1.00  0.00     0.059 A 
ATOM     82  F   UNL     1       8.986   6.349   3.191  1.00  0.00    -0.206 F 
ATOM     83  C   UNL     1      11.112   4.189   5.159  1.00  0.00     0.060 A 
BRANCH  83  84
ATOM     84  S   UNL     1      12.674   3.295   5.011  1.00  0.00     0.124 S 
ATOM     85  O   UNL     1      13.570   4.139   5.793  1.00  0.00    -0.237 OA
ATOM     86  O   UNL     1      12.347   1.998   5.595  1.00  0.00    -0.237 OA
ATOM     87  O   UNL     1      12.914   3.281   3.571  1.00  0.00    -0.744 OA
ENDBRANCH  83  84
ENDBRANCH  51  76
BRANCH  63  88
ATOM     88  C   UNL     1       6.246  10.963   8.968  1.00  0.00     0.058 A 
ATOM     89  C   UNL     1       7.150  11.959   8.568  1.00  0.00     0.135 A 
ATOM     90  C   UNL     1       5.925  10.873  10.331  1.00  0.00     0.135 A 
ATOM     91  F   UNL     1       7.494  12.080   7.276  1.00  0.00    -0.206 F 
ATOM     92  C   UNL     1       7.731  12.823   9.491  1.00  0.00     0.059 A 
ATOM     93  C   UNL     1       6.479  11.739  11.268  1.00  0.00     0.059 A 
ATOM     94  F   UNL     1       5.059   9.942  10.762  1.00  0.00    -0.206 F 
ATOM     95  C   UNL     1       7.390  12.704  10.840  1.00  0.00     0.060 A 
BRANCH  95  96
ATOM     96  S   UNL     1       8.127  13.848  12.026  1.00  0.00     0.124 S 
ATOM     97  O   UNL     1       9.466  13.289  12.180  1.00  0.00    -0.237 OA
ATOM     98  O   UNL     1       8.050  15.125  11.323  1.00  0.00    -0.237 OA
ATOM     99  O   UNL     1       7.259  13.730  13.194  1.00  0.00    -0.744 OA
ENDBRANCH  95  96
ENDBRANCH  63  88
ENDBRANCH  37  38
ENDBRANCH  30  32
ENDBRANCH  29  30
ENDBRANCH  28  29
ENDBRANCH   1  28
TORSDOF 17
