REMARK SMILES COc1ccc(CCn2cc(C(=O)OCCOC(=O)c3ccc(-c4c5nc(c(-c6c(F)cc(S(=O)(=O)[O-])cc6F)c6ccc([nH]6)c(-c6c(F)cc(S(=O)(=O)[O-])cc6F)c6nc(c(-c7c(F)cc(S(=O)(=O)[O-])cc7F)c7ccc4[nH]7)C=C6)C=C5)cc3)ccc2=O)cc1OC
REMARK SMILES IDX 15 1 14 2 12 3 13 4 11 5 9 6 10 7 88 8 87 9 89 10 86 11 8 12
REMARK SMILES IDX 7 13 6 14 3 15 4 16 91 17 5 18 90 19 2 20 1 21 92 22 93 23
REMARK SMILES IDX 16 24 17 25 18 26 19 27 20 28 21 29 85 30 22 31 84 32 23 33
REMARK SMILES IDX 24 34 25 35 78 36 26 37 83 38 77 39 79 40 27 41 82 42 76 43
REMARK SMILES IDX 75 44 28 46 62 47 41 48 61 49 42 50 45 51 60 52 80 53 43 54
REMARK SMILES IDX 44 55 59 57 81 58 46 59 29 60 30 61 39 62 31 63 32 64 38 65
REMARK SMILES IDX 40 66 33 67 34 68 35 69 36 70 37 71 63 72 64 73 73 74 65 75
REMARK SMILES IDX 66 76 72 77 74 78 67 79 68 80 69 81 70 82 71 83 47 84 48 85
REMARK SMILES IDX 57 86 49 87 50 88 56 89 58 90 51 91 52 92 53 93 54 94 55 95
REMARK H PARENT 79 45 45 56
REMARK Flexibility Score: inf
ROOT
ATOM      1  C   UNL     1      -3.298  -0.819   6.098  1.00  0.00     0.275 C 
ENDROOT
BRANCH   1   2
ATOM      2  O   UNL     1      -2.538   0.180   6.805  1.00  0.00    -0.458 OA
BRANCH   2   3
ATOM      3  C   UNL     1      -2.358   1.333   6.115  1.00  0.00     0.339 C 
ATOM      4  O   UNL     1      -2.775   1.563   4.989  1.00  0.00    -0.246 OA
BRANCH   3   5
ATOM      5  C   UNL     1      -1.481   2.294   6.822  1.00  0.00     0.076 A 
ATOM      6  N   UNL     1       0.832   2.777   7.042  1.00  0.00    -0.314 N 
ATOM      7  C   UNL     1      -0.220   1.871   6.993  1.00  0.00     0.104 A 
ATOM      8  C   UNL     1       0.621   4.161   7.120  1.00  0.00     0.250 A 
ATOM      9  C   UNL     1      -0.795   4.605   7.048  1.00  0.00     0.072 A 
ATOM     10  O   UNL     1       1.509   5.003   7.213  1.00  0.00    -0.269 OA
ATOM     11  C   UNL     1      -1.774   3.707   6.887  1.00  0.00     0.023 A 
BRANCH   6  12
ATOM     12  C   UNL     1       2.213   2.318   6.890  1.00  0.00     0.130 C 
BRANCH  12  13
ATOM     13  C   UNL     1       2.475   1.113   5.962  1.00  0.00     0.057 C 
BRANCH  13  14
ATOM     14  C   UNL     1       2.199   1.229   4.473  1.00  0.00    -0.042 A 
ATOM     15  C   UNL     1       1.681   1.065   1.689  1.00  0.00     0.160 A 
ATOM     16  C   UNL     1       0.718   1.567   2.564  1.00  0.00     0.051 A 
ATOM     17  C   UNL     1       2.937   0.699   2.183  1.00  0.00     0.160 A 
ATOM     18  C   UNL     1       0.978   1.646   3.936  1.00  0.00     0.008 A 
ATOM     19  C   UNL     1       3.171   0.772   3.568  1.00  0.00     0.054 A 
BRANCH  15  20
ATOM     20  O   UNL     1       1.390   0.996   0.353  1.00  0.00    -0.493 OA
ATOM     21  C   UNL     1       0.309   0.101   0.084  1.00  0.00     0.278 C 
ENDBRANCH  15  20
BRANCH  17  22
ATOM     22  O   UNL     1       4.020   0.225   1.492  1.00  0.00    -0.493 OA
ATOM     23  C   UNL     1       3.918   0.119   0.080  1.00  0.00     0.278 C 
ENDBRANCH  17  22
ENDBRANCH  13  14
ENDBRANCH  12  13
ENDBRANCH   6  12
ENDBRANCH   3   5
ENDBRANCH   2   3
ENDBRANCH   1   2
BRANCH   1  24
ATOM     24  C   UNL     1      -4.771  -0.796   6.502  1.00  0.00     0.275 C 
BRANCH  24  25
ATOM     25  O   UNL     1      -5.376   0.466   6.169  1.00  0.00    -0.458 OA
BRANCH  25  26
ATOM     26  C   UNL     1      -5.562   1.305   7.210  1.00  0.00     0.338 C 
ATOM     27  O   UNL     1      -5.306   1.086   8.390  1.00  0.00    -0.246 OA
BRANCH  26  28
ATOM     28  C   UNL     1      -6.097   2.594   6.753  1.00  0.00     0.060 A 
ATOM     29  C   UNL     1      -5.307   3.426   5.964  1.00  0.00     0.016 A 
ATOM     30  C   UNL     1      -7.313   3.056   7.252  1.00  0.00     0.016 A 
ATOM     31  C   UNL     1      -5.663   4.758   5.777  1.00  0.00     0.010 A 
ATOM     32  C   UNL     1      -7.728   4.359   6.957  1.00  0.00     0.010 A 
ATOM     33  C   UNL     1      -6.888   5.241   6.253  1.00  0.00    -0.014 A 
BRANCH  33  34
ATOM     34  C   UNL     1      -7.270   6.666   6.043  1.00  0.00     0.031 A 
ATOM     35  C   UNL     1      -7.610   7.539   7.224  1.00  0.00     0.074 A 
ATOM     36  C   UNL     1      -7.304   7.186   4.800  1.00  0.00     0.049 A 
ATOM     37  N   UNL     1      -8.165   8.724   7.243  1.00  0.00    -0.248 NA
ATOM     38  C   UNL     1      -7.302   7.002   8.559  1.00  0.00     0.031 C 
ATOM     39  C   UNL     1      -6.951   6.474   3.569  1.00  0.00     0.029 A 
ATOM     40  N   UNL     1      -7.646   8.442   4.362  1.00  0.00    -0.354 N 
ATOM     41  C   UNL     1      -8.337   9.043   8.586  1.00  0.00     0.074 A 
ATOM     42  C   UNL     1      -7.820   7.929   9.353  1.00  0.00     0.031 C 
ATOM     43  C   UNL     1      -7.051   7.311   2.527  1.00  0.00     0.029 A 
ATOM     44  C   UNL     1      -7.574   8.588   2.997  1.00  0.00     0.049 A 
ATOM     45  H   UNL     1      -7.918   9.169   4.969  1.00  0.00     0.167 HD
ATOM     46  C   UNL     1      -8.884  10.159   9.126  1.00  0.00     0.037 A 
ATOM     47  C   UNL     1      -7.935   9.612   2.200  1.00  0.00     0.037 A 
ATOM     48  C   UNL     1      -9.334  11.290   8.355  1.00  0.00     0.049 A 
ATOM     49  C   UNL     1      -8.548  10.835   2.817  1.00  0.00     0.074 A 
ATOM     50  C   UNL     1      -9.890  12.475   8.805  1.00  0.00     0.029 A 
ATOM     51  N   UNL     1      -9.260  11.384   6.973  1.00  0.00    -0.354 N 
ATOM     52  N   UNL     1      -8.780  11.088   4.083  1.00  0.00    -0.248 NA
ATOM     53  C   UNL     1      -8.973  11.899   1.899  1.00  0.00     0.031 C 
ATOM     54  C   UNL     1     -10.177  13.274   7.693  1.00  0.00     0.029 A 
ATOM     55  C   UNL     1      -9.766  12.603   6.553  1.00  0.00     0.049 A 
ATOM     56  H   UNL     1      -8.900  10.687   6.378  1.00  0.00     0.167 HD
ATOM     57  C   UNL     1      -9.378  12.341   4.114  1.00  0.00     0.074 A 
ATOM     58  C   UNL     1      -9.451  12.804   2.743  1.00  0.00     0.031 C 
ATOM     59  C   UNL     1      -9.832  13.043   5.182  1.00  0.00     0.037 A 
BRANCH  46  60
ATOM     60  C   UNL     1      -9.065  10.195  10.619  1.00  0.00     0.058 A 
ATOM     61  C   UNL     1      -7.987  10.366  11.501  1.00  0.00     0.135 A 
ATOM     62  C   UNL     1     -10.351  10.078  11.174  1.00  0.00     0.135 A 
ATOM     63  F   UNL     1      -6.735  10.465  11.026  1.00  0.00    -0.206 F 
ATOM     64  C   UNL     1      -8.172  10.388  12.880  1.00  0.00     0.059 A 
ATOM     65  C   UNL     1     -10.563  10.122  12.549  1.00  0.00     0.059 A 
ATOM     66  F   UNL     1     -11.418   9.914  10.376  1.00  0.00    -0.206 F 
ATOM     67  C   UNL     1      -9.464  10.260  13.395  1.00  0.00     0.060 A 
BRANCH  67  68
ATOM     68  S   UNL     1      -9.693  10.280  15.186  1.00  0.00     0.124 S 
ATOM     69  O   UNL     1      -9.242   8.941  15.551  1.00  0.00    -0.237 OA
ATOM     70  O   UNL     1      -8.825  11.376  15.603  1.00  0.00    -0.237 OA
ATOM     71  O   UNL     1     -11.124  10.525  15.343  1.00  0.00    -0.744 OA
ENDBRANCH  67  68
ENDBRANCH  46  60
BRANCH  47  72
ATOM     72  C   UNL     1      -7.769   9.491   0.728  1.00  0.00     0.058 A 
ATOM     73  C   UNL     1      -6.794  10.232   0.047  1.00  0.00     0.135 A 
ATOM     74  C   UNL     1      -8.551   8.595  -0.020  1.00  0.00     0.135 A 
ATOM     75  F   UNL     1      -6.030  11.109   0.717  1.00  0.00    -0.206 F 
ATOM     76  C   UNL     1      -6.594  10.088  -1.322  1.00  0.00     0.059 A 
ATOM     77  C   UNL     1      -8.352   8.414  -1.384  1.00  0.00     0.059 A 
ATOM     78  F   UNL     1      -9.490   7.853   0.587  1.00  0.00    -0.206 F 
ATOM     79  C   UNL     1      -7.374   9.170  -2.028  1.00  0.00     0.060 A 
BRANCH  79  80
ATOM     80  S   UNL     1      -7.055   8.925  -3.789  1.00  0.00     0.124 S 
ATOM     81  O   UNL     1      -7.705  10.094  -4.370  1.00  0.00    -0.237 OA
ATOM     82  O   UNL     1      -5.596   8.912  -3.841  1.00  0.00    -0.237 OA
ATOM     83  O   UNL     1      -7.693   7.641  -4.067  1.00  0.00    -0.744 OA
ENDBRANCH  79  80
ENDBRANCH  47  72
BRANCH  59  84
ATOM     84  C   UNL     1     -10.431  14.391   4.905  1.00  0.00     0.058 A 
ATOM     85  C   UNL     1     -11.718  14.524   4.364  1.00  0.00     0.135 A 
ATOM     86  C   UNL     1      -9.721  15.562   5.217  1.00  0.00     0.135 A 
ATOM     87  F   UNL     1     -12.431  13.434   4.041  1.00  0.00    -0.206 F 
ATOM     88  C   UNL     1     -12.275  15.774   4.120  1.00  0.00     0.059 A 
ATOM     89  C   UNL     1     -10.268  16.822   5.001  1.00  0.00     0.059 A 
ATOM     90  F   UNL     1      -8.489  15.486   5.744  1.00  0.00    -0.206 F 
ATOM     91  C   UNL     1     -11.541  16.918   4.440  1.00  0.00     0.060 A 
BRANCH  91  92
ATOM     92  S   UNL     1     -12.283  18.537   4.143  1.00  0.00     0.124 S 
ATOM     93  O   UNL     1     -12.126  18.671   2.699  1.00  0.00    -0.237 OA
ATOM     94  O   UNL     1     -13.650  18.349   4.618  1.00  0.00    -0.237 OA
ATOM     95  O   UNL     1     -11.465  19.437   4.950  1.00  0.00    -0.744 OA
ENDBRANCH  91  92
ENDBRANCH  59  84
ENDBRANCH  33  34
ENDBRANCH  26  28
ENDBRANCH  25  26
ENDBRANCH  24  25
ENDBRANCH   1  24
TORSDOF 19
