REMARK SMILES O=C(OCCOC(=O)[C@H]1[C@@H]2C[C@H]3C[C@@H](C2)C[C@]1(n1ncc(N2CCN(c4ccc(F)cc4)CC2)c(Cl)c1=O)C3)c1ccc(-c2c3nc(c(-c4c(F)cc(S(=O)(=O)[O-])cc4F)c4ccc([nH]4)c(-c4c(F)cc(S(=O)(=O)[O-])cc4F)c4nc(c(-c5c(F)cc(S(=O)(=O)[O-])cc5F)c5ccc2[nH]5)C=C4)C=C3)cc1
REMARK SMILES IDX 4 1 3 2 2 3 1 4 40 5 41 6 105 7 42 8 104 9 43 10 44 11 45 12
REMARK SMILES IDX 98 13 46 14 103 15 97 16 99 17 47 18 102 19 96 20 95 21
REMARK SMILES IDX 48 23 82 24 61 25 81 26 62 27 65 28 80 29 100 30 63 31 64 32
REMARK SMILES IDX 79 34 101 35 66 36 49 37 50 38 59 39 51 40 52 41 58 42 60 43
REMARK SMILES IDX 53 44 54 45 55 46 56 47 57 48 83 49 84 50 93 51 85 52 86 53
REMARK SMILES IDX 92 54 94 55 87 56 88 57 89 58 90 59 91 60 67 61 68 62 77 63
REMARK SMILES IDX 69 64 70 65 76 66 78 67 71 68 72 69 73 70 74 71 75 72 5 73
REMARK SMILES IDX 6 74 7 75 8 76 9 77 10 78 17 79 15 80 11 81 39 82 16 83
REMARK SMILES IDX 14 84 12 85 13 86 18 87 19 88 37 89 20 90 35 91 38 92 21 93
REMARK SMILES IDX 36 94 22 95 23 96 34 97 24 98 33 99 25 100 26 101 27 102
REMARK SMILES IDX 32 103 28 104 31 105 29 106 30 107
REMARK H PARENT 99 22 65 33
REMARK Flexibility Score: inf
ROOT
ATOM      1  C   UNL     1      -1.703   2.351   1.061  1.00  0.00     0.275 C 
ENDROOT
BRANCH   1   2
ATOM      2  O   UNL     1      -1.109   3.517   1.671  1.00  0.00    -0.458 OA
BRANCH   2   3
ATOM      3  C   UNL     1      -0.015   3.588   2.474  1.00  0.00     0.338 C 
ATOM      4  O   UNL     1       0.183   4.617   3.118  1.00  0.00    -0.246 OA
BRANCH   3   5
ATOM      5  C   UNL     1       1.050   2.537   2.482  1.00  0.00     0.060 A 
ATOM      6  C   UNL     1       2.378   2.992   2.476  1.00  0.00     0.016 A 
ATOM      7  C   UNL     1       0.827   1.156   2.504  1.00  0.00     0.016 A 
ATOM      8  C   UNL     1       3.445   2.091   2.370  1.00  0.00     0.010 A 
ATOM      9  C   UNL     1       1.893   0.252   2.382  1.00  0.00     0.010 A 
ATOM     10  C   UNL     1       3.208   0.710   2.279  1.00  0.00    -0.014 A 
BRANCH  10  11
ATOM     11  C   UNL     1       4.349  -0.235   2.228  1.00  0.00     0.031 A 
ATOM     12  C   UNL     1       4.777  -0.924   0.965  1.00  0.00     0.074 A 
ATOM     13  C   UNL     1       5.035  -0.463   3.360  1.00  0.00     0.049 A 
ATOM     14  N   UNL     1       5.947  -1.432   0.673  1.00  0.00    -0.248 NA
ATOM     15  C   UNL     1       3.795  -1.034  -0.120  1.00  0.00     0.031 C 
ATOM     16  C   UNL     1       4.690   0.080   4.673  1.00  0.00     0.029 A 
ATOM     17  N   UNL     1       6.150  -1.223   3.588  1.00  0.00    -0.354 N 
ATOM     18  C   UNL     1       5.891  -1.764  -0.675  1.00  0.00     0.074 A 
ATOM     19  C   UNL     1       4.537  -1.513  -1.114  1.00  0.00     0.031 C 
ATOM     20  C   UNL     1       5.561  -0.388   5.578  1.00  0.00     0.029 A 
ATOM     21  C   UNL     1       6.525  -1.256   4.905  1.00  0.00     0.049 A 
ATOM     22  H   UNL     1       6.634  -1.700   2.875  1.00  0.00     0.167 HD
ATOM     23  C   UNL     1       6.900  -2.201  -1.466  1.00  0.00     0.037 A 
ATOM     24  C   UNL     1       7.530  -1.919   5.504  1.00  0.00     0.037 A 
ATOM     25  C   UNL     1       8.155  -2.680  -0.948  1.00  0.00     0.049 A 
ATOM     26  C   UNL     1       8.500  -2.686   4.655  1.00  0.00     0.074 A 
ATOM     27  C   UNL     1       9.251  -3.173  -1.634  1.00  0.00     0.029 A 
ATOM     28  N   UNL     1       8.430  -2.831   0.404  1.00  0.00    -0.354 N 
ATOM     29  N   UNL     1       8.568  -2.752   3.346  1.00  0.00    -0.248 NA
ATOM     30  C   UNL     1       9.531  -3.461   5.354  1.00  0.00     0.031 C 
ATOM     31  C   UNL     1      10.135  -3.724  -0.695  1.00  0.00     0.029 A 
ATOM     32  C   UNL     1       9.618  -3.519   0.576  1.00  0.00     0.049 A 
ATOM     33  H   UNL     1       7.862  -2.496   1.135  1.00  0.00     0.167 HD
ATOM     34  C   UNL     1       9.653  -3.571   3.061  1.00  0.00     0.074 A 
ATOM     35  C   UNL     1      10.217  -3.968   4.337  1.00  0.00     0.031 C 
ATOM     36  C   UNL     1      10.139  -3.951   1.851  1.00  0.00     0.037 A 
BRANCH  23  37
ATOM     37  C   UNL     1       6.686  -2.191  -2.954  1.00  0.00     0.058 A 
ATOM     38  C   UNL     1       6.769  -0.989  -3.677  1.00  0.00     0.135 A 
ATOM     39  C   UNL     1       6.481  -3.374  -3.679  1.00  0.00     0.135 A 
ATOM     40  F   UNL     1       6.979   0.173  -3.038  1.00  0.00    -0.206 F 
ATOM     41  C   UNL     1       6.641  -0.957  -5.063  1.00  0.00     0.059 A 
ATOM     42  C   UNL     1       6.363  -3.369  -5.068  1.00  0.00     0.059 A 
ATOM     43  F   UNL     1       6.398  -4.550  -3.038  1.00  0.00    -0.206 F 
ATOM     44  C   UNL     1       6.439  -2.154  -5.751  1.00  0.00     0.060 A 
BRANCH  44  45
ATOM     45  S   UNL     1       6.279  -2.093  -7.550  1.00  0.00     0.124 S 
ATOM     46  O   UNL     1       5.037  -1.343  -7.710  1.00  0.00    -0.237 OA
ATOM     47  O   UNL     1       7.497  -1.394  -7.945  1.00  0.00    -0.237 OA
ATOM     48  O   UNL     1       6.212  -3.499  -7.936  1.00  0.00    -0.744 OA
ENDBRANCH  44  45
ENDBRANCH  23  37
BRANCH  24  49
ATOM     49  C   UNL     1       7.629  -1.859   6.981  1.00  0.00     0.058 A 
ATOM     50  C   UNL     1       8.598  -1.071   7.613  1.00  0.00     0.135 A 
ATOM     51  C   UNL     1       6.658  -2.482   7.784  1.00  0.00     0.135 A 
ATOM     52  F   UNL     1       9.544  -0.459   6.886  1.00  0.00    -0.206 F 
ATOM     53  C   UNL     1       8.583  -0.875   8.990  1.00  0.00     0.059 A 
ATOM     54  C   UNL     1       6.612  -2.287   9.159  1.00  0.00     0.059 A 
ATOM     55  F   UNL     1       5.700  -3.234   7.218  1.00  0.00    -0.206 F 
ATOM     56  C   UNL     1       7.575  -1.473   9.752  1.00  0.00     0.060 A 
BRANCH  56  57
ATOM     57  S   UNL     1       7.491  -1.103  11.518  1.00  0.00     0.124 S 
ATOM     58  O   UNL     1       8.656  -1.819  12.024  1.00  0.00    -0.237 OA
ATOM     59  O   UNL     1       7.581   0.354  11.527  1.00  0.00    -0.237 OA
ATOM     60  O   UNL     1       6.195  -1.645  11.914  1.00  0.00    -0.744 OA
ENDBRANCH  56  57
ENDBRANCH  24  49
BRANCH  36  61
ATOM     61  C   UNL     1      11.306  -4.894   1.844  1.00  0.00     0.058 A 
ATOM     62  C   UNL     1      11.140  -6.250   2.167  1.00  0.00     0.135 A 
ATOM     63  C   UNL     1      12.581  -4.465   1.444  1.00  0.00     0.135 A 
ATOM     64  F   UNL     1       9.943  -6.708   2.567  1.00  0.00    -0.206 F 
ATOM     65  C   UNL     1      12.200  -7.147   2.099  1.00  0.00     0.059 A 
ATOM     66  C   UNL     1      13.650  -5.350   1.344  1.00  0.00     0.059 A 
ATOM     67  F   UNL     1      12.791  -3.179   1.119  1.00  0.00    -0.206 F 
ATOM     68  C   UNL     1      13.450  -6.689   1.679  1.00  0.00     0.060 A 
BRANCH  68  69
ATOM     69  S   UNL     1      14.800  -7.879   1.541  1.00  0.00     0.124 S 
ATOM     70  O   UNL     1      15.098  -8.149   2.944  1.00  0.00    -0.237 OA
ATOM     71  O   UNL     1      14.177  -8.973   0.803  1.00  0.00    -0.237 OA
ATOM     72  O   UNL     1      15.829  -7.143   0.812  1.00  0.00    -0.744 OA
ENDBRANCH  68  69
ENDBRANCH  36  61
ENDBRANCH  10  11
ENDBRANCH   3   5
ENDBRANCH   2   3
ENDBRANCH   1   2
BRANCH   1  73
ATOM     73  C   UNL     1      -1.119   1.984  -0.302  1.00  0.00     0.274 C 
BRANCH  73  74
ATOM     74  O   UNL     1       0.286   2.236  -0.302  1.00  0.00    -0.462 OA
BRANCH  74  75
ATOM     75  C   UNL     1       0.825   2.760  -1.443  1.00  0.00     0.311 C 
ATOM     76  O   UNL     1       0.237   2.829  -2.507  1.00  0.00    -0.252 OA
BRANCH  75  77
ATOM     77  C   UNL     1       2.293   3.064  -1.182  1.00  0.00     0.130 C 
ATOM     78  C   UNL     1       3.125   1.948  -1.856  1.00  0.00     0.006 C 
ATOM     79  C   UNL     1       2.881   4.467  -1.512  1.00  0.00     0.081 C 
ATOM     80  C   UNL     1       3.210   2.164  -3.376  1.00  0.00     0.008 C 
ATOM     81  C   UNL     1       4.549   1.975  -1.284  1.00  0.00     0.008 C 
ATOM     82  C   UNL     1       4.360   4.435  -0.947  1.00  0.00     0.035 C 
ATOM     83  C   UNL     1       3.013   4.644  -3.048  1.00  0.00     0.035 C 
ATOM     84  C   UNL     1       3.860   3.521  -3.677  1.00  0.00    -0.008 C 
ATOM     85  C   UNL     1       5.205   3.323  -1.571  1.00  0.00    -0.008 C 
ATOM     86  C   UNL     1       5.276   3.542  -3.084  1.00  0.00     0.007 C 
BRANCH  79  87
ATOM     87  N   UNL     1       2.151   5.630  -0.883  1.00  0.00    -0.222 N 
ATOM     88  N   UNL     1       2.865   6.335   0.069  1.00  0.00    -0.175 NA
ATOM     89  C   UNL     1       0.892   6.054  -1.308  1.00  0.00     0.288 A 
ATOM     90  C   UNL     1       2.379   7.446   0.510  1.00  0.00     0.161 A 
ATOM     91  C   UNL     1       0.359   7.305  -0.693  1.00  0.00     0.132 A 
ATOM     92  O   UNL     1       0.235   5.495  -2.181  1.00  0.00    -0.266 OA
ATOM     93  C   UNL     1       1.090   8.061   0.135  1.00  0.00     0.082 A 
ATOM     94  Cl  UNL     1      -1.214   7.804  -1.227  1.00  0.00    -0.076 Cl
BRANCH  93  95
ATOM     95  N   UNL     1       0.799   9.302   0.689  1.00  0.00    -0.365 N 
ATOM     96  C   UNL     1       1.353  10.556   0.134  1.00  0.00     0.138 C 
ATOM     97  C   UNL     1      -0.246   9.498   1.713  1.00  0.00     0.138 C 
ATOM     98  C   UNL     1       0.227  11.483  -0.394  1.00  0.00     0.138 C 
ATOM     99  C   UNL     1      -1.360  10.440   1.214  1.00  0.00     0.138 C 
ATOM    100  N   UNL     1      -0.782  11.675   0.657  1.00  0.00    -0.368 N 
BRANCH 100 101
ATOM    101  C   UNL     1      -1.299  12.902   0.992  1.00  0.00     0.037 A 
ATOM    102  C   UNL     1      -1.505  13.235   2.341  1.00  0.00     0.029 A 
ATOM    103  C   UNL     1      -1.635  13.860   0.025  1.00  0.00     0.029 A 
ATOM    104  C   UNL     1      -2.038  14.467   2.717  1.00  0.00     0.041 A 
ATOM    105  C   UNL     1      -2.184  15.093   0.393  1.00  0.00     0.041 A 
ATOM    106  C   UNL     1      -2.380  15.384   1.736  1.00  0.00     0.123 A 
ATOM    107  F   UNL     1      -2.906  16.564   2.090  1.00  0.00    -0.207 F 
ENDBRANCH 100 101
ENDBRANCH  93  95
ENDBRANCH  79  87
ENDBRANCH  75  77
ENDBRANCH  74  75
ENDBRANCH  73  74
ENDBRANCH   1  73
TORSDOF 17
