REMARK SMILES O=C(CCC(=O)OCCOC(=O)c1ccc(-c2c3nc(c(-c4c(F)cc(S(=O)(=O)[O-])cc4F)c4ccc([nH]4)c(-c4c(F)cc(S(=O)(=O)[O-])cc4F)c4nc(c(-c5c(F)cc(S(=O)(=O)[O-])cc5F)c5ccc2[nH]5)C=C4)C=C3)cc1)Nc1ccc(Oc2ccccc2Cl)cc1
REMARK SMILES IDX 8 1 7 2 5 3 6 4 4 5 3 6 2 7 1 8 79 9 80 11 81 12 93 13 82 14
REMARK SMILES IDX 92 15 83 16 84 17 85 18 86 19 90 20 87 21 89 22 91 23 88 24
REMARK SMILES IDX 9 25 10 26 11 27 12 28 13 29 14 30 78 31 15 32 77 33 16 34
REMARK SMILES IDX 17 35 18 36 71 37 19 38 76 39 70 40 72 41 20 42 75 43 69 44
REMARK SMILES IDX 68 45 21 47 55 48 34 49 54 50 35 51 38 52 53 53 73 54 36 55
REMARK SMILES IDX 37 56 52 58 74 59 39 60 22 61 23 62 32 63 24 64 25 65 31 66
REMARK SMILES IDX 33 67 26 68 27 69 28 70 29 71 30 72 56 73 57 74 66 75 58 76
REMARK SMILES IDX 59 77 65 78 67 79 60 80 61 81 62 82 63 83 64 84 40 85 41 86
REMARK SMILES IDX 50 87 42 88 43 89 49 90 51 91 44 92 45 93 46 94 47 95 48 96
REMARK H PARENT 79 10 72 46 38 57
REMARK Flexibility Score: inf
ROOT
ATOM      1  C   UNL     1       5.978   0.084  -2.410  1.00  0.00     0.274 C 
ENDROOT
BRANCH   1   2
ATOM      2  O   UNL     1       4.782  -0.352  -1.721  1.00  0.00    -0.462 OA
BRANCH   2   3
ATOM      3  C   UNL     1       4.771  -1.611  -1.203  1.00  0.00     0.306 C 
ATOM      4  O   UNL     1       5.702  -2.399  -1.288  1.00  0.00    -0.252 OA
BRANCH   3   5
ATOM      5  C   UNL     1       3.433  -1.963  -0.573  1.00  0.00     0.132 C 
BRANCH   5   6
ATOM      6  C   UNL     1       2.916  -0.995   0.494  1.00  0.00     0.112 C 
BRANCH   6   7
ATOM      7  C   UNL     1       1.945   0.031  -0.066  1.00  0.00     0.224 C 
ATOM      8  O   UNL     1       0.770   0.058   0.284  1.00  0.00    -0.275 OA
ATOM      9  N   UNL     1       2.528   0.830  -1.023  1.00  0.00    -0.326 N 
ATOM     10  H   UNL     1       3.505   0.756  -1.115  1.00  0.00     0.169 HD
BRANCH   9  11
ATOM     11  C   UNL     1       1.894   1.735  -1.879  1.00  0.00     0.041 A 
ATOM     12  C   UNL     1       2.516   1.974  -3.109  1.00  0.00     0.030 A 
ATOM     13  C   UNL     1       0.698   2.373  -1.574  1.00  0.00     0.030 A 
ATOM     14  C   UNL     1       1.931   2.825  -4.042  1.00  0.00     0.049 A 
ATOM     15  C   UNL     1       0.125   3.251  -2.498  1.00  0.00     0.049 A 
ATOM     16  C   UNL     1       0.740   3.479  -3.735  1.00  0.00     0.127 A 
BRANCH  16  17
ATOM     17  O   UNL     1       0.277   4.318  -4.726  1.00  0.00    -0.456 OA
BRANCH  17  18
ATOM     18  C   UNL     1      -0.834   5.071  -4.451  1.00  0.00     0.146 A 
ATOM     19  C   UNL     1      -2.047   4.644  -4.996  1.00  0.00     0.049 A 
ATOM     20  C   UNL     1      -0.770   6.245  -3.692  1.00  0.00     0.083 A 
ATOM     21  C   UNL     1      -3.213   5.360  -4.734  1.00  0.00     0.004 A 
ATOM     22  C   UNL     1      -1.943   6.949  -3.419  1.00  0.00     0.024 A 
ATOM     23  Cl  UNL     1       0.721   6.851  -3.070  1.00  0.00    -0.080 Cl
ATOM     24  C   UNL     1      -3.163   6.503  -3.935  1.00  0.00     0.002 A 
ENDBRANCH  17  18
ENDBRANCH  16  17
ENDBRANCH   9  11
ENDBRANCH   6   7
ENDBRANCH   5   6
ENDBRANCH   3   5
ENDBRANCH   2   3
ENDBRANCH   1   2
BRANCH   1  25
ATOM     25  C   UNL     1       6.759   1.104  -1.576  1.00  0.00     0.275 C 
BRANCH  25  26
ATOM     26  O   UNL     1       7.417   0.454  -0.477  1.00  0.00    -0.458 OA
BRANCH  26  27
ATOM     27  C   UNL     1       6.677   0.378   0.655  1.00  0.00     0.338 C 
ATOM     28  O   UNL     1       5.595   0.901   0.850  1.00  0.00    -0.246 OA
BRANCH  27  29
ATOM     29  C   UNL     1       7.284  -0.608   1.564  1.00  0.00     0.060 A 
ATOM     30  C   UNL     1       6.515  -1.712   1.940  1.00  0.00     0.016 A 
ATOM     31  C   UNL     1       8.575  -0.438   2.063  1.00  0.00     0.016 A 
ATOM     32  C   UNL     1       7.030  -2.650   2.827  1.00  0.00     0.010 A 
ATOM     33  C   UNL     1       9.096  -1.387   2.948  1.00  0.00     0.010 A 
ATOM     34  C   UNL     1       8.322  -2.492   3.344  1.00  0.00    -0.014 A 
BRANCH  34  35
ATOM     35  C   UNL     1       8.830  -3.484   4.321  1.00  0.00     0.031 A 
ATOM     36  C   UNL     1       8.951  -3.116   5.772  1.00  0.00     0.074 A 
ATOM     37  C   UNL     1       9.130  -4.728   3.903  1.00  0.00     0.049 A 
ATOM     38  N   UNL     1       9.334  -3.853   6.782  1.00  0.00    -0.248 NA
ATOM     39  C   UNL     1       8.600  -1.734   6.134  1.00  0.00     0.031 C 
ATOM     40  C   UNL     1       9.027  -5.200   2.521  1.00  0.00     0.029 A 
ATOM     41  N   UNL     1       9.564  -5.826   4.600  1.00  0.00    -0.354 N 
ATOM     42  C   UNL     1       9.287  -3.025   7.896  1.00  0.00     0.074 A 
ATOM     43  C   UNL     1       8.865  -1.720   7.433  1.00  0.00     0.031 C 
ATOM     44  C   UNL     1       9.361  -6.500   2.477  1.00  0.00     0.029 A 
ATOM     45  C   UNL     1       9.739  -6.941   3.816  1.00  0.00     0.049 A 
ATOM     46  H   UNL     1       9.735  -5.816   5.569  1.00  0.00     0.167 HD
ATOM     47  C   UNL     1       9.567  -3.329   9.187  1.00  0.00     0.037 A 
ATOM     48  C   UNL     1      10.161  -8.178   4.142  1.00  0.00     0.037 A 
ATOM     49  C   UNL     1       9.979  -4.636   9.636  1.00  0.00     0.049 A 
ATOM     50  C   UNL     1      10.494  -8.479   5.577  1.00  0.00     0.074 A 
ATOM     51  C   UNL     1      10.253  -5.057  10.926  1.00  0.00     0.029 A 
ATOM     52  N   UNL     1      10.187  -5.731   8.808  1.00  0.00    -0.354 N 
ATOM     53  N   UNL     1      10.418  -7.694   6.626  1.00  0.00    -0.248 NA
ATOM     54  C   UNL     1      10.965  -9.838   5.874  1.00  0.00     0.031 C 
ATOM     55  C   UNL     1      10.681  -6.389  10.871  1.00  0.00     0.029 A 
ATOM     56  C   UNL     1      10.615  -6.818   9.555  1.00  0.00     0.049 A 
ATOM     57  H   UNL     1      10.050  -5.735   7.833  1.00  0.00     0.167 HD
ATOM     58  C   UNL     1      10.807  -8.471   7.712  1.00  0.00     0.074 A 
ATOM     59  C   UNL     1      11.098  -9.793   7.191  1.00  0.00     0.031 C 
ATOM     60  C   UNL     1      10.913  -8.125   9.021  1.00  0.00     0.037 A 
BRANCH  47  61
ATOM     61  C   UNL     1       9.477  -2.216  10.199  1.00  0.00     0.058 A 
ATOM     62  C   UNL     1       8.251  -1.650  10.582  1.00  0.00     0.135 A 
ATOM     63  C   UNL     1      10.642  -1.718  10.805  1.00  0.00     0.135 A 
ATOM     64  F   UNL     1       7.105  -2.075  10.025  1.00  0.00    -0.206 F 
ATOM     65  C   UNL     1       8.185  -0.607  11.502  1.00  0.00     0.059 A 
ATOM     66  C   UNL     1      10.598  -0.696  11.749  1.00  0.00     0.059 A 
ATOM     67  F   UNL     1      11.843  -2.221  10.477  1.00  0.00    -0.206 F 
ATOM     68  C   UNL     1       9.366  -0.134  12.077  1.00  0.00     0.060 A 
BRANCH  68  69
ATOM     69  S   UNL     1       9.269   1.229  13.257  1.00  0.00     0.124 S 
ATOM     70  O   UNL     1       8.961   2.353  12.378  1.00  0.00    -0.237 OA
ATOM     71  O   UNL     1       8.189   0.802  14.140  1.00  0.00    -0.237 OA
ATOM     72  O   UNL     1      10.597   1.252  13.862  1.00  0.00    -0.744 OA
ENDBRANCH  68  69
ENDBRANCH  47  61
BRANCH  48  73
ATOM     73  C   UNL     1      10.271  -9.226   3.092  1.00  0.00     0.058 A 
ATOM     74  C   UNL     1       9.404 -10.328   3.076  1.00  0.00     0.135 A 
ATOM     75  C   UNL     1      11.236  -9.141   2.076  1.00  0.00     0.135 A 
ATOM     76  F   UNL     1       8.471 -10.461   4.032  1.00  0.00    -0.206 F 
ATOM     77  C   UNL     1       9.495 -11.315   2.100  1.00  0.00     0.059 A 
ATOM     78  C   UNL     1      11.328 -10.099   1.071  1.00  0.00     0.059 A 
ATOM     79  F   UNL     1      12.083  -8.100   2.038  1.00  0.00    -0.206 F 
ATOM     80  C   UNL     1      10.458 -11.188   1.097  1.00  0.00     0.060 A 
BRANCH  80  81
ATOM     81  S   UNL     1      10.530 -12.444  -0.198  1.00  0.00     0.124 S 
ATOM     82  O   UNL     1      11.090 -13.580   0.524  1.00  0.00    -0.237 OA
ATOM     83  O   UNL     1       9.129 -12.562  -0.588  1.00  0.00    -0.237 OA
ATOM     84  O   UNL     1      11.403 -11.841  -1.202  1.00  0.00    -0.744 OA
ENDBRANCH  80  81
ENDBRANCH  48  73
BRANCH  60  85
ATOM     85  C   UNL     1      11.332  -9.209   9.979  1.00  0.00     0.058 A 
ATOM     86  C   UNL     1      12.631  -9.743   9.976  1.00  0.00     0.135 A 
ATOM     87  C   UNL     1      10.415  -9.728  10.908  1.00  0.00     0.135 A 
ATOM     88  F   UNL     1      13.547  -9.285   9.107  1.00  0.00    -0.206 F 
ATOM     89  C   UNL     1      12.989 -10.790  10.819  1.00  0.00     0.059 A 
ATOM     90  C   UNL     1      10.762 -10.752  11.784  1.00  0.00     0.059 A 
ATOM     91  F   UNL     1       9.164  -9.245  10.969  1.00  0.00    -0.206 F 
ATOM     92  C   UNL     1      12.044 -11.294  11.714  1.00  0.00     0.060 A 
BRANCH  92  93
ATOM     93  S   UNL     1      12.511 -12.671  12.784  1.00  0.00     0.124 S 
ATOM     94  O   UNL     1      12.495 -13.789  11.847  1.00  0.00    -0.237 OA
ATOM     95  O   UNL     1      13.828 -12.263  13.264  1.00  0.00    -0.237 OA
ATOM     96  O   UNL     1      11.459 -12.684  13.797  1.00  0.00    -0.744 OA
ENDBRANCH  92  93
ENDBRANCH  60  85
ENDBRANCH  34  35
ENDBRANCH  27  29
ENDBRANCH  26  27
ENDBRANCH  25  26
ENDBRANCH   1  25
TORSDOF 19
