REMARK SMILES Cc1ccc(C(=O)N[C@@H](CC(=O)OCCOC(=O)c2ccc(-c3c4nc(c(-c5c(F)cc(S(=O)(=O)[O-])cc5F)c5ccc([nH]5)c(-c5c(F)cc(S(=O)(=O)[O-])cc5F)c5nc(c(-c6c(F)cc(S(=O)(=O)[O-])cc6F)c6ccc3[nH]6)C=C5)C=C4)cc2)c2cccs2)o1
REMARK SMILES IDX 14 1 13 2 11 3 12 4 10 5 9 6 8 7 6 8 7 9 5 11 1 12 2 13 3 14
REMARK SMILES IDX 90 15 4 16 85 17 86 18 89 19 87 20 88 21 15 22 16 23 17 24
REMARK SMILES IDX 18 25 19 26 20 27 84 28 21 29 83 30 22 31 23 32 24 33 77 34
REMARK SMILES IDX 25 35 82 36 76 37 78 38 26 39 81 40 75 41 74 42 27 44 61 45
REMARK SMILES IDX 40 46 60 47 41 48 44 49 59 50 79 51 42 52 43 53 58 55 80 56
REMARK SMILES IDX 45 57 28 58 29 59 38 60 30 61 31 62 37 63 39 64 32 65 33 66
REMARK SMILES IDX 34 67 35 68 36 69 62 70 63 71 72 72 64 73 65 74 71 75 73 76
REMARK SMILES IDX 66 77 67 78 68 79 69 80 70 81 46 82 47 83 56 84 48 85 49 86
REMARK SMILES IDX 55 87 57 88 50 89 51 90 52 91 53 92 54 93
REMARK H PARENT 8 10 78 43 44 54
REMARK Flexibility Score: inf
ROOT
ATOM      1  C   UNL     1      -7.332   2.359   1.331  1.00  0.00     0.274 C 
ENDROOT
BRANCH   1   2
ATOM      2  O   UNL     1      -6.091   1.672   1.061  1.00  0.00    -0.462 OA
BRANCH   2   3
ATOM      3  C   UNL     1      -5.875   0.593   1.852  1.00  0.00     0.308 C 
ATOM      4  O   UNL     1      -6.605   0.251   2.779  1.00  0.00    -0.252 OA
BRANCH   3   5
ATOM      5  C   UNL     1      -4.602  -0.152   1.576  1.00  0.00     0.153 C 
BRANCH   5   6
ATOM      6  C   UNL     1      -3.870   0.002   0.250  1.00  0.00     0.134 C 
BRANCH   6   7
ATOM      7  N   UNL     1      -3.224   1.291   0.100  1.00  0.00    -0.341 N 
ATOM      8  C   UNL     1      -1.903   1.627  -0.080  1.00  0.00     0.287 C 
ATOM      9  O   UNL     1      -1.660   2.837  -0.099  1.00  0.00    -0.266 OA
ATOM     10  H   UNL     1      -3.838   2.059   0.132  1.00  0.00     0.164 HD
BRANCH   8  11
ATOM     11  C   UNL     1      -0.866   0.616  -0.208  1.00  0.00     0.191 A 
ATOM     12  C   UNL     1       2.674   0.181   0.192  1.00  0.00     0.087 C 
ATOM     13  C   UNL     1       1.241  -0.055  -0.069  1.00  0.00     0.101 A 
ATOM     14  C   UNL     1       0.524  -1.143  -0.503  1.00  0.00     0.046 A 
ATOM     15  O   UNL     1       0.413   1.007   0.116  1.00  0.00    -0.456 OA
ATOM     16  C   UNL     1      -0.815  -0.701  -0.638  1.00  0.00     0.056 A 
ENDBRANCH   8  11
ENDBRANCH   6   7
BRANCH   6  17
ATOM     17  C   UNL     1      -4.637  -0.374  -0.999  1.00  0.00     0.028 A 
ATOM     18  C   UNL     1      -4.962  -1.652  -1.426  1.00  0.00     0.017 A 
ATOM     19  S   UNL     1      -5.136   0.793  -2.162  1.00  0.00    -0.147 S 
ATOM     20  C   UNL     1      -5.577  -1.669  -2.712  1.00  0.00     0.012 A 
ATOM     21  C   UNL     1      -5.710  -0.405  -3.234  1.00  0.00     0.065 A 
ENDBRANCH   6  17
ENDBRANCH   5   6
ENDBRANCH   3   5
ENDBRANCH   2   3
ENDBRANCH   1   2
BRANCH   1  22
ATOM     22  C   UNL     1      -8.471   1.815   0.469  1.00  0.00     0.275 C 
BRANCH  22  23
ATOM     23  O   UNL     1      -8.534   0.384   0.574  1.00  0.00    -0.458 OA
BRANCH  23  24
ATOM     24  C   UNL     1      -8.710  -0.277  -0.594  1.00  0.00     0.338 C 
ATOM     25  O   UNL     1      -8.890   0.220  -1.693  1.00  0.00    -0.246 OA
BRANCH  24  26
ATOM     26  C   UNL     1      -8.720  -1.736  -0.359  1.00  0.00     0.060 A 
ATOM     27  C   UNL     1      -7.784  -2.363   0.468  1.00  0.00     0.016 A 
ATOM     28  C   UNL     1      -9.662  -2.500  -1.049  1.00  0.00     0.016 A 
ATOM     29  C   UNL     1      -7.755  -3.757   0.561  1.00  0.00     0.010 A 
ATOM     30  C   UNL     1      -9.678  -3.887  -0.898  1.00  0.00     0.010 A 
ATOM     31  C   UNL     1      -8.712  -4.533  -0.110  1.00  0.00    -0.014 A 
BRANCH  31  32
ATOM     32  C   UNL     1      -8.737  -6.015   0.006  1.00  0.00     0.031 A 
ATOM     33  C   UNL     1      -8.534  -6.874  -1.214  1.00  0.00     0.074 A 
ATOM     34  C   UNL     1      -9.009  -6.589   1.194  1.00  0.00     0.049 A 
ATOM     35  N   UNL     1      -8.718  -8.161  -1.359  1.00  0.00    -0.248 NA
ATOM     36  C   UNL     1      -8.075  -6.191  -2.435  1.00  0.00     0.031 C 
ATOM     37  C   UNL     1      -9.211  -5.873   2.455  1.00  0.00     0.029 A 
ATOM     38  N   UNL     1      -9.186  -7.908   1.530  1.00  0.00    -0.354 N 
ATOM     39  C   UNL     1      -8.435  -8.439  -2.692  1.00  0.00     0.074 A 
ATOM     40  C   UNL     1      -8.070  -7.184  -3.315  1.00  0.00     0.031 C 
ATOM     41  C   UNL     1      -9.483  -6.758   3.426  1.00  0.00     0.029 A 
ATOM     42  C   UNL     1      -9.540  -8.096   2.846  1.00  0.00     0.049 A 
ATOM     43  H   UNL     1      -9.071  -8.649   0.891  1.00  0.00     0.167 HD
ATOM     44  C   UNL     1      -8.478  -9.631  -3.335  1.00  0.00     0.037 A 
ATOM     45  C   UNL     1      -9.914  -9.210   3.504  1.00  0.00     0.037 A 
ATOM     46  C   UNL     1      -8.820 -10.880  -2.704  1.00  0.00     0.049 A 
ATOM     47  C   UNL     1      -9.990 -10.514   2.762  1.00  0.00     0.074 A 
ATOM     48  C   UNL     1      -8.865 -12.145  -3.265  1.00  0.00     0.029 A 
ATOM     49  N   UNL     1      -9.173 -11.023  -1.370  1.00  0.00    -0.354 N 
ATOM     50  N   UNL     1      -9.732 -10.757   1.500  1.00  0.00    -0.248 NA
ATOM     51  C   UNL     1     -10.420 -11.690   3.530  1.00  0.00     0.031 C 
ATOM     52  C   UNL     1      -9.276 -13.049  -2.278  1.00  0.00     0.029 A 
ATOM     53  C   UNL     1      -9.452 -12.352  -1.093  1.00  0.00     0.049 A 
ATOM     54  H   UNL     1      -9.218 -10.289  -0.716  1.00  0.00     0.167 HD
ATOM     55  C   UNL     1      -9.961 -12.117   1.323  1.00  0.00     0.074 A 
ATOM     56  C   UNL     1     -10.362 -12.645   2.611  1.00  0.00     0.031 C 
ATOM     57  C   UNL     1      -9.853 -12.860   0.194  1.00  0.00     0.037 A 
BRANCH  44  58
ATOM     58  C   UNL     1      -8.168  -9.643  -4.806  1.00  0.00     0.058 A 
ATOM     59  C   UNL     1      -6.856  -9.511  -5.285  1.00  0.00     0.135 A 
ATOM     60  C   UNL     1      -9.194  -9.833  -5.746  1.00  0.00     0.135 A 
ATOM     61  F   UNL     1      -5.841  -9.311  -4.430  1.00  0.00    -0.206 F 
ATOM     62  C   UNL     1      -6.574  -9.546  -6.647  1.00  0.00     0.059 A 
ATOM     63  C   UNL     1      -8.932  -9.892  -7.112  1.00  0.00     0.059 A 
ATOM     64  F   UNL     1     -10.467  -9.964  -5.340  1.00  0.00    -0.206 F 
ATOM     65  C   UNL     1      -7.619  -9.734  -7.554  1.00  0.00     0.060 A 
BRANCH  65  66
ATOM     66  S   UNL     1      -7.239  -9.780  -9.318  1.00  0.00     0.124 S 
ATOM     67  O   UNL     1      -7.017  -8.366  -9.603  1.00  0.00    -0.237 OA
ATOM     68  O   UNL     1      -6.051 -10.628  -9.362  1.00  0.00    -0.237 OA
ATOM     69  O   UNL     1      -8.440 -10.360  -9.910  1.00  0.00    -0.744 OA
ENDBRANCH  65  66
ENDBRANCH  44  58
BRANCH  45  70
ATOM     70  C   UNL     1     -10.278  -9.127   4.942  1.00  0.00     0.058 A 
ATOM     71  C   UNL     1      -9.430  -9.647   5.929  1.00  0.00     0.135 A 
ATOM     72  C   UNL     1     -11.462  -8.498   5.357  1.00  0.00     0.135 A 
ATOM     73  F   UNL     1      -8.291 -10.264   5.578  1.00  0.00    -0.206 F 
ATOM     74  C   UNL     1      -9.744  -9.551   7.280  1.00  0.00     0.059 A 
ATOM     75  C   UNL     1     -11.787  -8.370   6.703  1.00  0.00     0.059 A 
ATOM     76  F   UNL     1     -12.299  -7.973   4.449  1.00  0.00    -0.206 F 
ATOM     77  C   UNL     1     -10.924  -8.907   7.658  1.00  0.00     0.060 A 
BRANCH  77  78
ATOM     78  S   UNL     1     -11.293  -8.726   9.416  1.00  0.00     0.124 S 
ATOM     79  O   UNL     1     -11.787 -10.056   9.750  1.00  0.00    -0.237 OA
ATOM     80  O   UNL     1      -9.991  -8.370   9.971  1.00  0.00    -0.237 OA
ATOM     81  O   UNL     1     -12.287  -7.656   9.439  1.00  0.00    -0.744 OA
ENDBRANCH  77  78
ENDBRANCH  45  70
BRANCH  57  82
ATOM     82  C   UNL     1     -10.153 -14.326   0.309  1.00  0.00     0.058 A 
ATOM     83  C   UNL     1     -11.472 -14.798   0.395  1.00  0.00     0.135 A 
ATOM     84  C   UNL     1      -9.114 -15.269   0.298  1.00  0.00     0.135 A 
ATOM     85  F   UNL     1     -12.499 -13.934   0.418  1.00  0.00    -0.206 F 
ATOM     86  C   UNL     1     -11.750 -16.158   0.485  1.00  0.00     0.059 A 
ATOM     87  C   UNL     1      -9.370 -16.635   0.368  1.00  0.00     0.059 A 
ATOM     88  F   UNL     1      -7.837 -14.867   0.211  1.00  0.00    -0.206 F 
ATOM     89  C   UNL     1     -10.691 -17.069   0.473  1.00  0.00     0.060 A 
BRANCH  89  90
ATOM     90  S   UNL     1     -11.062 -18.834   0.564  1.00  0.00     0.124 S 
ATOM     91  O   UNL     1     -11.350 -19.000   1.984  1.00  0.00    -0.237 OA
ATOM     92  O   UNL     1     -12.206 -18.963  -0.334  1.00  0.00    -0.237 OA
ATOM     93  O   UNL     1      -9.831 -19.462   0.093  1.00  0.00    -0.744 OA
ENDBRANCH  89  90
ENDBRANCH  57  82
ENDBRANCH  31  32
ENDBRANCH  24  26
ENDBRANCH  23  24
ENDBRANCH  22  23
ENDBRANCH   1  22
TORSDOF 18
