REMARK SMILES O=C(CCN1C(=O)c2ccc(NC(=O)c3cc4ccccc4o3)cc2C1=O)OCCOC(=O)c1ccc(-c2c3nc(c(-c4c(F)cc(S(=O)(=O)[O-])cc4F)c4ccc([nH]4)c(-c4c(F)cc(S(=O)(=O)[O-])cc4F)c4nc(c(-c5c(F)cc(S(=O)(=O)[O-])cc5F)c5ccc2[nH]5)C=C4)C=C3)cc1
REMARK SMILES IDX 29 1 28 2 2 3 1 4 3 5 4 6 5 7 6 8 26 9 7 10 8 11 25 12 27 13
REMARK SMILES IDX 9 14 24 15 10 16 11 17 12 18 13 19 14 21 15 22 16 23 23 24
REMARK SMILES IDX 17 25 22 26 18 27 21 28 19 29 20 30 30 31 31 32 32 33 33 34
REMARK SMILES IDX 34 35 35 36 99 37 36 38 98 39 37 40 38 41 39 42 92 43 40 44
REMARK SMILES IDX 97 45 91 46 93 47 41 48 96 49 90 50 89 51 42 53 76 54 55 55
REMARK SMILES IDX 75 56 56 57 59 58 74 59 94 60 57 61 58 62 73 64 95 65 60 66
REMARK SMILES IDX 43 67 44 68 53 69 45 70 46 71 52 72 54 73 47 74 48 75 49 76
REMARK SMILES IDX 50 77 51 78 77 79 78 80 87 81 79 82 80 83 86 84 88 85 81 86
REMARK SMILES IDX 82 87 83 88 84 89 85 90 61 91 62 92 71 93 63 94 64 95 70 96
REMARK SMILES IDX 72 97 65 98 66 99 67 100 68 101 69 102
REMARK H PARENT 12 20 93 52 59 63
REMARK Flexibility Score: inf
ROOT
ATOM      1  C   UNL     1       4.068  -0.967  -0.875  1.00  0.00     0.274 C 
ENDROOT
BRANCH   1   2
ATOM      2  O   UNL     1       2.742  -0.930  -0.303  1.00  0.00    -0.462 OA
BRANCH   2   3
ATOM      3  C   UNL     1       2.229   0.016   0.519  1.00  0.00     0.307 C 
ATOM      4  O   UNL     1       1.085  -0.100   0.954  1.00  0.00    -0.252 OA
BRANCH   3   5
ATOM      5  C   UNL     1       3.068   1.202   0.912  1.00  0.00     0.145 C 
BRANCH   5   6
ATOM      6  C   UNL     1       3.667   1.022   2.302  1.00  0.00     0.141 C 
BRANCH   6   7
ATOM      7  N   UNL     1       4.758   0.066   2.294  1.00  0.00    -0.274 N 
ATOM      8  C   UNL     1       4.646  -1.250   2.662  1.00  0.00     0.261 C 
ATOM      9  C   UNL     1       5.985   0.344   1.762  1.00  0.00     0.261 C 
ATOM     10  O   UNL     1       3.698  -1.850   3.117  1.00  0.00    -0.269 OA
ATOM     11  C   UNL     1       5.925  -1.877   2.333  1.00  0.00     0.053 A 
ATOM     12  C   UNL     1       6.729  -0.908   1.777  1.00  0.00     0.055 A 
ATOM     13  O   UNL     1       6.392   1.377   1.266  1.00  0.00    -0.269 OA
ATOM     14  C   UNL     1       6.347  -3.186   2.429  1.00  0.00     0.017 A 
ATOM     15  C   UNL     1       7.985  -1.184   1.286  1.00  0.00     0.040 A 
ATOM     16  C   UNL     1       7.662  -3.465   2.026  1.00  0.00     0.027 A 
ATOM     17  C   UNL     1       8.513  -2.453   1.515  1.00  0.00     0.042 A 
BRANCH  17  18
ATOM     18  N   UNL     1       9.857  -2.800   1.280  1.00  0.00    -0.319 N 
ATOM     19  C   UNL     1      11.000  -2.044   1.056  1.00  0.00     0.291 C 
ATOM     20  H   UNL     1      10.019  -3.771   1.273  1.00  0.00     0.170 HD
ATOM     21  O   UNL     1      12.012  -2.663   0.716  1.00  0.00    -0.265 OA
BRANCH  19  22
ATOM     22  C   UNL     1      10.992  -0.604   1.192  1.00  0.00     0.193 A 
ATOM     23  C   UNL     1      11.570   0.375   0.403  1.00  0.00     0.065 A 
ATOM     24  O   UNL     1      10.314  -0.009   2.226  1.00  0.00    -0.451 OA
ATOM     25  C   UNL     1      11.033   1.617   0.835  1.00  0.00     0.021 A 
ATOM     26  C   UNL     1      10.269   1.328   1.959  1.00  0.00     0.135 A 
ATOM     27  C   UNL     1      11.065   2.942   0.369  1.00  0.00     0.012 A 
ATOM     28  C   UNL     1       9.507   2.264   2.652  1.00  0.00     0.048 A 
ATOM     29  C   UNL     1      10.282   3.903   1.026  1.00  0.00     0.001 A 
ATOM     30  C   UNL     1       9.513   3.567   2.143  1.00  0.00     0.004 A 
ENDBRANCH  19  22
ENDBRANCH  17  18
ENDBRANCH   6   7
ENDBRANCH   5   6
ENDBRANCH   3   5
ENDBRANCH   2   3
ENDBRANCH   1   2
BRANCH   1  31
ATOM     31  C   UNL     1       4.079  -0.564  -2.345  1.00  0.00     0.275 C 
BRANCH  31  32
ATOM     32  O   UNL     1       3.754   0.828  -2.449  1.00  0.00    -0.458 OA
BRANCH  32  33
ATOM     33  C   UNL     1       2.441   1.084  -2.662  1.00  0.00     0.338 C 
ATOM     34  O   UNL     1       1.576   0.268  -2.929  1.00  0.00    -0.246 OA
BRANCH  33  35
ATOM     35  C   UNL     1       2.165   2.498  -2.341  1.00  0.00     0.060 A 
ATOM     36  C   UNL     1       0.935   2.798  -1.742  1.00  0.00     0.016 A 
ATOM     37  C   UNL     1       3.083   3.515  -2.624  1.00  0.00     0.016 A 
ATOM     38  C   UNL     1       0.595   4.123  -1.479  1.00  0.00     0.010 A 
ATOM     39  C   UNL     1       2.741   4.842  -2.361  1.00  0.00     0.010 A 
ATOM     40  C   UNL     1       1.480   5.152  -1.826  1.00  0.00    -0.014 A 
BRANCH  40  41
ATOM     41  C   UNL     1       1.015   6.556  -1.798  1.00  0.00     0.031 A 
ATOM     42  C   UNL     1       0.504   7.165  -3.075  1.00  0.00     0.074 A 
ATOM     43  C   UNL     1       1.035   7.268  -0.658  1.00  0.00     0.049 A 
ATOM     44  N   UNL     1       0.057   8.373  -3.296  1.00  0.00    -0.248 NA
ATOM     45  C   UNL     1       0.503   6.295  -4.264  1.00  0.00     0.031 C 
ATOM     46  C   UNL     1       1.494   6.775   0.639  1.00  0.00     0.029 A 
ATOM     47  N   UNL     1       0.666   8.566  -0.415  1.00  0.00    -0.354 N 
ATOM     48  C   UNL     1      -0.283   8.407  -4.643  1.00  0.00     0.074 A 
ATOM     49  C   UNL     1       0.044   7.112  -5.199  1.00  0.00     0.031 C 
ATOM     50  C   UNL     1       1.391   7.766   1.542  1.00  0.00     0.029 A 
ATOM     51  C   UNL     1       0.876   8.965   0.882  1.00  0.00     0.049 A 
ATOM     52  H   UNL     1       0.287   9.157  -1.106  1.00  0.00     0.167 HD
ATOM     53  C   UNL     1      -0.831   9.423  -5.349  1.00  0.00     0.037 A 
ATOM     54  C   UNL     1       0.685  10.166   1.462  1.00  0.00     0.037 A 
ATOM     55  C   UNL     1      -1.151  10.709  -4.792  1.00  0.00     0.049 A 
ATOM     56  C   UNL     1       0.119  11.297   0.643  1.00  0.00     0.074 A 
ATOM     57  C   UNL     1      -1.725  11.800  -5.418  1.00  0.00     0.029 A 
ATOM     58  N   UNL     1      -0.916  11.078  -3.476  1.00  0.00    -0.354 N 
ATOM     59  N   UNL     1      -0.236  11.305  -0.620  1.00  0.00    -0.248 NA
ATOM     60  C   UNL     1      -0.079  12.582   1.330  1.00  0.00     0.031 C 
ATOM     61  C   UNL     1      -1.802  12.844  -4.490  1.00  0.00     0.029 A 
ATOM     62  C   UNL     1      -1.316  12.388  -3.275  1.00  0.00     0.049 A 
ATOM     63  H   UNL     1      -0.524  10.495  -2.787  1.00  0.00     0.167 HD
ATOM     64  C   UNL     1      -0.727  12.582  -0.871  1.00  0.00     0.074 A 
ATOM     65  C   UNL     1      -0.628  13.318   0.373  1.00  0.00     0.031 C 
ATOM     66  C   UNL     1      -1.220  13.098  -2.024  1.00  0.00     0.037 A 
BRANCH  53  67
ATOM     67  C   UNL     1      -1.106   9.183  -6.806  1.00  0.00     0.058 A 
ATOM     68  C   UNL     1      -2.163   8.361  -7.228  1.00  0.00     0.135 A 
ATOM     69  C   UNL     1      -0.318   9.798  -7.791  1.00  0.00     0.135 A 
ATOM     70  F   UNL     1      -2.932   7.732  -6.326  1.00  0.00    -0.206 F 
ATOM     71  C   UNL     1      -2.416   8.140  -8.578  1.00  0.00     0.059 A 
ATOM     72  C   UNL     1      -0.568   9.609  -9.147  1.00  0.00     0.059 A 
ATOM     73  F   UNL     1       0.709  10.587  -7.440  1.00  0.00    -0.206 F 
ATOM     74  C   UNL     1      -1.611   8.768  -9.530  1.00  0.00     0.060 A 
BRANCH  74  75
ATOM     75  S   UNL     1      -1.954   8.476 -11.279  1.00  0.00     0.124 S 
ATOM     76  O   UNL     1      -1.440   7.120 -11.453  1.00  0.00    -0.237 OA
ATOM     77  O   UNL     1      -3.405   8.616 -11.342  1.00  0.00    -0.237 OA
ATOM     78  O   UNL     1      -1.196   9.525 -11.953  1.00  0.00    -0.744 OA
ENDBRANCH  74  75
ENDBRANCH  53  67
BRANCH  54  79
ATOM     79  C   UNL     1       1.031  10.364   2.894  1.00  0.00     0.058 A 
ATOM     80  C   UNL     1       0.033  10.534   3.864  1.00  0.00     0.135 A 
ATOM     81  C   UNL     1       2.368  10.394   3.318  1.00  0.00     0.135 A 
ATOM     82  F   UNL     1      -1.260  10.522   3.506  1.00  0.00    -0.206 F 
ATOM     83  C   UNL     1       0.347  10.746   5.203  1.00  0.00     0.059 A 
ATOM     84  C   UNL     1       2.707  10.582   4.654  1.00  0.00     0.059 A 
ATOM     85  F   UNL     1       3.360  10.224   2.430  1.00  0.00    -0.206 F 
ATOM     86  C   UNL     1       1.689  10.770   5.588  1.00  0.00     0.060 A 
BRANCH  86  87
ATOM     87  S   UNL     1       2.089  11.007   7.333  1.00  0.00     0.124 S 
ATOM     88  O   UNL     1       1.845  12.435   7.498  1.00  0.00    -0.237 OA
ATOM     89  O   UNL     1       1.139  10.116   7.992  1.00  0.00    -0.237 OA
ATOM     90  O   UNL     1       3.486  10.590   7.415  1.00  0.00    -0.744 OA
ENDBRANCH  86  87
ENDBRANCH  54  79
BRANCH  66  91
ATOM     91  C   UNL     1      -1.725  14.513  -1.991  1.00  0.00     0.058 A 
ATOM     92  C   UNL     1      -0.849  15.608  -1.957  1.00  0.00     0.135 A 
ATOM     93  C   UNL     1      -3.103  14.775  -2.062  1.00  0.00     0.135 A 
ATOM     94  F   UNL     1       0.477  15.410  -1.885  1.00  0.00    -0.206 F 
ATOM     95  C   UNL     1      -1.322  16.916  -1.977  1.00  0.00     0.059 A 
ATOM     96  C   UNL     1      -3.597  16.075  -2.107  1.00  0.00     0.059 A 
ATOM     97  F   UNL     1      -3.983  13.762  -2.108  1.00  0.00    -0.206 F 
ATOM     98  C   UNL     1      -2.698  17.139  -2.053  1.00  0.00     0.060 A 
BRANCH  98  99
ATOM     99  S   UNL     1      -3.299  18.840  -2.122  1.00  0.00     0.124 S 
ATOM    100  O   UNL     1      -3.156  19.258  -0.731  1.00  0.00    -0.237 OA
ATOM    101  O   UNL     1      -2.378  19.462  -3.068  1.00  0.00    -0.237 OA
ATOM    102  O   UNL     1      -4.672  18.696  -2.597  1.00  0.00    -0.744 OA
ENDBRANCH  98  99
ENDBRANCH  66  91
ENDBRANCH  40  41
ENDBRANCH  33  35
ENDBRANCH  32  33
ENDBRANCH  31  32
ENDBRANCH   1  31
TORSDOF 18
