REMARK SMILES CCCC[C@H](C(=O)OCCOC(=O)c1ccc(-c2c3nc(c(-c4c(F)cc(S(=O)(=O)[O-])cc4F)c4ccc([nH]4)c(-c4c(F)cc(S(=O)(=O)[O-])cc4F)c4nc(c(-c5c(F)cc(S(=O)(=O)[O-])cc5F)c5ccc2[nH]5)C=C4)C=C3)cc1)c1ccnn1C
REMARK SMILES IDX 9 1 8 2 6 3 7 4 5 5 4 6 3 7 2 8 1 9 80 10 81 11 84 12 82 13
REMARK SMILES IDX 83 14 85 15 10 16 11 17 12 18 13 19 14 20 15 21 79 22 16 23
REMARK SMILES IDX 78 24 17 25 18 26 19 27 72 28 20 29 77 30 71 31 73 32 21 33
REMARK SMILES IDX 76 34 70 35 69 36 22 38 56 39 35 40 55 41 36 42 39 43 54 44
REMARK SMILES IDX 74 45 37 46 38 47 53 49 75 50 40 51 23 52 24 53 33 54 25 55
REMARK SMILES IDX 26 56 32 57 34 58 27 59 28 60 29 61 30 62 31 63 57 64 58 65
REMARK SMILES IDX 67 66 59 67 60 68 66 69 68 70 61 71 62 72 63 73 64 74 65 75
REMARK SMILES IDX 41 76 42 77 51 78 43 79 44 80 50 81 52 82 45 83 46 84 47 85
REMARK SMILES IDX 48 86 49 87
REMARK H PARENT 73 37 39 48
REMARK Flexibility Score: inf
ROOT
ATOM      1  C   UNL     1       2.213  -0.336  -1.744  1.00  0.00     0.274 C 
ENDROOT
BRANCH   1   2
ATOM      2  O   UNL     1       0.793  -0.471  -1.946  1.00  0.00    -0.462 OA
BRANCH   2   3
ATOM      3  C   UNL     1       0.136   0.673  -2.300  1.00  0.00     0.315 C 
ATOM      4  O   UNL     1       0.667   1.778  -2.331  1.00  0.00    -0.251 OA
BRANCH   3   5
ATOM      5  C   UNL     1      -1.364   0.438  -2.564  1.00  0.00     0.148 C 
BRANCH   5   6
ATOM      6  C   UNL     1      -2.026   1.789  -2.880  1.00  0.00     0.022 C 
BRANCH   6   7
ATOM      7  C   UNL     1      -3.555   1.812  -2.848  1.00  0.00     0.001 C 
BRANCH   7   8
ATOM      8  C   UNL     1      -4.173   1.633  -1.459  1.00  0.00    -0.003 C 
ATOM      9  C   UNL     1      -3.725   2.683  -0.453  1.00  0.00     0.004 C 
ENDBRANCH   7   8
ENDBRANCH   6   7
ENDBRANCH   5   6
BRANCH   5  10
ATOM     10  C   UNL     1      -1.590  -0.726  -3.522  1.00  0.00     0.052 A 
ATOM     11  C   UNL     1      -1.378  -2.067  -3.209  1.00  0.00     0.046 A 
ATOM     12  N   UNL     1      -2.046  -0.756  -4.829  1.00  0.00    -0.272 N 
ATOM     13  C   UNL     1      -1.712  -2.798  -4.349  1.00  0.00     0.135 A 
ATOM     14  N   UNL     1      -2.148  -2.010  -5.322  1.00  0.00    -0.182 NA
ATOM     15  C   UNL     1      -2.481   0.277  -5.738  1.00  0.00     0.174 C 
ENDBRANCH   5  10
ENDBRANCH   3   5
ENDBRANCH   2   3
ENDBRANCH   1   2
BRANCH   1  16
ATOM     16  C   UNL     1       2.973  -0.678  -3.022  1.00  0.00     0.275 C 
BRANCH  16  17
ATOM     17  O   UNL     1       2.538   0.186  -4.083  1.00  0.00    -0.458 OA
BRANCH  17  18
ATOM     18  C   UNL     1       2.162  -0.428  -5.227  1.00  0.00     0.338 C 
ATOM     19  O   UNL     1       2.244  -1.622  -5.479  1.00  0.00    -0.246 OA
BRANCH  18  20
ATOM     20  C   UNL     1       1.675   0.576  -6.193  1.00  0.00     0.060 A 
ATOM     21  C   UNL     1       0.805   1.599  -5.808  1.00  0.00     0.016 A 
ATOM     22  C   UNL     1       2.052   0.453  -7.528  1.00  0.00     0.016 A 
ATOM     23  C   UNL     1       0.258   2.458  -6.765  1.00  0.00     0.010 A 
ATOM     24  C   UNL     1       1.572   1.365  -8.469  1.00  0.00     0.010 A 
ATOM     25  C   UNL     1       0.646   2.361  -8.106  1.00  0.00    -0.014 A 
BRANCH  25  26
ATOM     26  C   UNL     1       0.088   3.251  -9.161  1.00  0.00     0.031 A 
ATOM     27  C   UNL     1      -0.577   2.633 -10.363  1.00  0.00     0.074 A 
ATOM     28  C   UNL     1       0.230   4.589  -9.092  1.00  0.00     0.049 A 
ATOM     29  N   UNL     1      -0.809   3.151 -11.539  1.00  0.00    -0.248 NA
ATOM     30  C   UNL     1      -1.015   1.234 -10.223  1.00  0.00     0.031 C 
ATOM     31  C   UNL     1       0.787   5.334  -7.962  1.00  0.00     0.029 A 
ATOM     32  N   UNL     1      -0.059   5.563 -10.019  1.00  0.00    -0.354 N 
ATOM     33  C   UNL     1      -1.347   2.123 -12.306  1.00  0.00     0.074 A 
ATOM     34  C   UNL     1      -1.425   0.956 -11.454  1.00  0.00     0.031 C 
ATOM     35  C   UNL     1       0.800   6.643  -8.259  1.00  0.00     0.029 A 
ATOM     36  C   UNL     1       0.346   6.821  -9.634  1.00  0.00     0.049 A 
ATOM     37  H   UNL     1      -0.512   5.380 -10.873  1.00  0.00     0.167 HD
ATOM     38  C   UNL     1      -1.723   2.152 -13.606  1.00  0.00     0.037 A 
ATOM     39  C   UNL     1       0.416   7.974 -10.328  1.00  0.00     0.037 A 
ATOM     40  C   UNL     1      -1.690   3.337 -14.423  1.00  0.00     0.049 A 
ATOM     41  C   UNL     1       0.021   7.983 -11.778  1.00  0.00     0.074 A 
ATOM     42  C   UNL     1      -2.056   3.480 -15.750  1.00  0.00     0.029 A 
ATOM     43  N   UNL     1      -1.286   4.589 -13.982  1.00  0.00    -0.354 N 
ATOM     44  N   UNL     1      -0.410   6.990 -12.519  1.00  0.00    -0.248 NA
ATOM     45  C   UNL     1       0.145   9.260 -12.496  1.00  0.00     0.031 C 
ATOM     46  C   UNL     1      -1.849   4.813 -16.119  1.00  0.00     0.029 A 
ATOM     47  C   UNL     1      -1.393   5.509 -15.011  1.00  0.00     0.049 A 
ATOM     48  H   UNL     1      -0.971   4.793 -13.072  1.00  0.00     0.167 HD
ATOM     49  C   UNL     1      -0.628   7.527 -13.783  1.00  0.00     0.074 A 
ATOM     50  C   UNL     1      -0.285   8.932 -13.707  1.00  0.00     0.031 C 
ATOM     51  C   UNL     1      -1.072   6.910 -14.905  1.00  0.00     0.037 A 
BRANCH  38  52
ATOM     52  C   UNL     1      -2.161   0.862 -14.240  1.00  0.00     0.058 A 
ATOM     53  C   UNL     1      -3.403   0.275 -13.957  1.00  0.00     0.135 A 
ATOM     54  C   UNL     1      -1.332   0.220 -15.175  1.00  0.00     0.135 A 
ATOM     55  F   UNL     1      -4.226   0.838 -13.058  1.00  0.00    -0.206 F 
ATOM     56  C   UNL     1      -3.799  -0.914 -14.562  1.00  0.00     0.059 A 
ATOM     57  C   UNL     1      -1.717  -0.957 -15.810  1.00  0.00     0.059 A 
ATOM     58  F   UNL     1      -0.132   0.738 -15.482  1.00  0.00    -0.206 F 
ATOM     59  C   UNL     1      -2.948  -1.524 -15.486  1.00  0.00     0.060 A 
BRANCH  59  60
ATOM     60  S   UNL     1      -3.476  -3.063 -16.269  1.00  0.00     0.124 S 
ATOM     61  O   UNL     1      -3.264  -4.025 -15.193  1.00  0.00    -0.237 OA
ATOM     62  O   UNL     1      -4.869  -2.784 -16.603  1.00  0.00    -0.237 OA
ATOM     63  O   UNL     1      -2.576  -3.189 -17.411  1.00  0.00    -0.744 OA
ENDBRANCH  59  60
ENDBRANCH  38  52
BRANCH  39  64
ATOM     64  C   UNL     1       0.933   9.202  -9.668  1.00  0.00     0.058 A 
ATOM     65  C   UNL     1       0.075  10.266  -9.354  1.00  0.00     0.135 A 
ATOM     66  C   UNL     1       2.285   9.325  -9.309  1.00  0.00     0.135 A 
ATOM     67  F   UNL     1      -1.223  10.201  -9.688  1.00  0.00    -0.206 F 
ATOM     68  C   UNL     1       0.537  11.409  -8.709  1.00  0.00     0.059 A 
ATOM     69  C   UNL     1       2.766  10.446  -8.640  1.00  0.00     0.059 A 
ATOM     70  F   UNL     1       3.144   8.329  -9.577  1.00  0.00    -0.206 F 
ATOM     71  C   UNL     1       1.885  11.486  -8.351  1.00  0.00     0.060 A 
BRANCH  71  72
ATOM     72  S   UNL     1       2.463  12.942  -7.452  1.00  0.00     0.124 S 
ATOM     73  O   UNL     1       2.545  13.932  -8.519  1.00  0.00    -0.237 OA
ATOM     74  O   UNL     1       1.399  13.144  -6.473  1.00  0.00    -0.237 OA
ATOM     75  O   UNL     1       3.740  12.505  -6.895  1.00  0.00    -0.744 OA
ENDBRANCH  71  72
ENDBRANCH  39  64
BRANCH  51  76
ATOM     76  C   UNL     1      -1.271   7.752 -16.131  1.00  0.00     0.058 A 
ATOM     77  C   UNL     1      -0.194   8.139 -16.941  1.00  0.00     0.135 A 
ATOM     78  C   UNL     1      -2.568   8.090 -16.549  1.00  0.00     0.135 A 
ATOM     79  F   UNL     1       1.064   7.846 -16.578  1.00  0.00    -0.206 F 
ATOM     80  C   UNL     1      -0.397   8.832 -18.130  1.00  0.00     0.059 A 
ATOM     81  C   UNL     1      -2.795   8.766 -17.743  1.00  0.00     0.059 A 
ATOM     82  F   UNL     1      -3.631   7.736 -15.809  1.00  0.00    -0.206 F 
ATOM     83  C   UNL     1      -1.702   9.134 -18.526  1.00  0.00     0.060 A 
BRANCH  83  84
ATOM     84  S   UNL     1      -1.957   9.965 -20.109  1.00  0.00     0.124 S 
ATOM     85  O   UNL     1      -1.569  11.334 -19.788  1.00  0.00    -0.237 OA
ATOM     86  O   UNL     1      -1.051   9.240 -20.994  1.00  0.00    -0.237 OA
ATOM     87  O   UNL     1      -3.378   9.760 -20.374  1.00  0.00    -0.744 OA
ENDBRANCH  83  84
ENDBRANCH  51  76
ENDBRANCH  25  26
ENDBRANCH  18  20
ENDBRANCH  17  18
ENDBRANCH  16  17
ENDBRANCH   1  16
TORSDOF 18
