REMARK SMILES C[N@@H+]1[C@H]2CC[C@@H]1[C@@H](C(=O)OCCOC(=O)c1ccc(-c3c4nc(c(-c5c(F)cc(S(=O)(=O)[O-])cc5F)c5ccc([nH]5)c(-c5c(F)cc(S(=O)(=O)[O-])cc5F)c5nc(c(-c6c(F)cc(S(=O)(=O)[O-])cc6F)c6ccc3[nH]6)C=C5)C=C4)cc1)[C@@H](OC(=O)c1ccccc1)C2
REMARK SMILES IDX 11 1 10 2 8 3 9 4 7 5 1 6 2 7 3 8 6 9 4 11 92 12 5 13 82 14
REMARK SMILES IDX 83 15 84 16 85 17 86 18 87 19 91 20 88 21 90 22 89 23 12 24
REMARK SMILES IDX 13 25 14 26 15 27 16 28 17 29 81 30 18 31 80 32 19 33 20 34
REMARK SMILES IDX 21 35 74 36 22 37 79 38 73 39 75 40 23 41 78 42 72 43 71 44
REMARK SMILES IDX 24 46 58 47 37 48 57 49 38 50 41 51 56 52 76 53 39 54 40 55
REMARK SMILES IDX 55 57 77 58 42 59 25 60 26 61 35 62 27 63 28 64 34 65 36 66
REMARK SMILES IDX 29 67 30 68 31 69 32 70 33 71 59 72 60 73 69 74 61 75 62 76
REMARK SMILES IDX 68 77 70 78 63 79 64 80 65 81 66 82 67 83 43 84 44 85 53 86
REMARK SMILES IDX 45 87 46 88 52 89 54 90 47 91 48 92 49 93 50 94 51 95
REMARK H PARENT 2 10 75 45 41 56
REMARK Flexibility Score: inf
ROOT
ATOM      1  C   UNL     1      -2.897  -3.264   1.335  1.00  0.00     0.274 C 
ENDROOT
BRANCH   1   2
ATOM      2  O   UNL     1      -1.812  -2.584   0.663  1.00  0.00    -0.462 OA
BRANCH   2   3
ATOM      3  C   UNL     1      -1.154  -1.665   1.408  1.00  0.00     0.318 C 
ATOM      4  O   UNL     1      -1.463  -1.382   2.565  1.00  0.00    -0.252 OA
BRANCH   3   5
ATOM      5  C   UNL     1       0.008  -0.972   0.725  1.00  0.00     0.198 C 
ATOM      6  C   UNL     1      -2.419   0.466  -0.639  1.00  0.00     0.333 C 
ATOM      7  N   UNL     1      -1.066   0.971  -0.517  1.00  0.00    -0.332 N 
ATOM      8  C   UNL     1      -0.171   0.705  -1.644  1.00  0.00     0.188 C 
ATOM      9  C   UNL     1      -0.300   0.548   0.664  1.00  0.00     0.202 C 
ATOM     10  H   UNL     1      -1.307   1.960  -0.455  1.00  0.00     0.348 HD
ATOM     11  C   UNL     1       1.089   1.420  -1.133  1.00  0.00     0.071 C 
ATOM     12  C   UNL     1       0.044  -0.807  -1.855  1.00  0.00     0.111 C 
ATOM     13  C   UNL     1       0.984   1.352   0.399  1.00  0.00     0.072 C 
ATOM     14  C   UNL     1       0.607  -1.491  -0.601  1.00  0.00     0.203 C 
BRANCH  14  15
ATOM     15  O   UNL     1       0.847  -2.917  -0.631  1.00  0.00    -0.457 OA
BRANCH  15  16
ATOM     16  C   UNL     1       0.187  -3.789  -1.422  1.00  0.00     0.338 C 
ATOM     17  O   UNL     1      -0.644  -3.524  -2.278  1.00  0.00    -0.246 OA
BRANCH  16  18
ATOM     18  C   UNL     1       0.551  -5.194  -1.072  1.00  0.00     0.060 A 
ATOM     19  C   UNL     1      -0.346  -6.212  -1.425  1.00  0.00     0.015 A 
ATOM     20  C   UNL     1       1.699  -5.521  -0.334  1.00  0.00     0.015 A 
ATOM     21  C   UNL     1      -0.129  -7.525  -1.000  1.00  0.00     0.001 A 
ATOM     22  C   UNL     1       1.906  -6.833   0.102  1.00  0.00     0.001 A 
ATOM     23  C   UNL     1       0.989  -7.831  -0.225  1.00  0.00     0.000 A 
ENDBRANCH  16  18
ENDBRANCH  15  16
ENDBRANCH  14  15
ENDBRANCH   3   5
ENDBRANCH   2   3
ENDBRANCH   1   2
BRANCH   1  24
ATOM     24  C   UNL     1      -2.496  -4.627   1.925  1.00  0.00     0.275 C 
BRANCH  24  25
ATOM     25  O   UNL     1      -1.635  -4.541   3.080  1.00  0.00    -0.458 OA
BRANCH  25  26
ATOM     26  C   UNL     1      -0.334  -4.382   2.760  1.00  0.00     0.338 C 
ATOM     27  O   UNL     1       0.121  -4.262   1.638  1.00  0.00    -0.246 OA
BRANCH  26  28
ATOM     28  C   UNL     1       0.567  -4.274   3.900  1.00  0.00     0.060 A 
ATOM     29  C   UNL     1       1.314  -3.096   4.003  1.00  0.00     0.016 A 
ATOM     30  C   UNL     1       0.856  -5.384   4.693  1.00  0.00     0.016 A 
ATOM     31  C   UNL     1       2.364  -3.020   4.904  1.00  0.00     0.010 A 
ATOM     32  C   UNL     1       1.899  -5.298   5.617  1.00  0.00     0.010 A 
ATOM     33  C   UNL     1       2.655  -4.118   5.723  1.00  0.00    -0.014 A 
BRANCH  33  34
ATOM     34  C   UNL     1       3.699  -3.986   6.757  1.00  0.00     0.031 A 
ATOM     35  C   UNL     1       5.046  -4.614   6.579  1.00  0.00     0.074 A 
ATOM     36  C   UNL     1       3.400  -3.271   7.856  1.00  0.00     0.049 A 
ATOM     37  N   UNL     1       6.032  -4.692   7.434  1.00  0.00    -0.248 NA
ATOM     38  C   UNL     1       5.327  -5.230   5.273  1.00  0.00     0.031 C 
ATOM     39  C   UNL     1       2.128  -2.580   8.088  1.00  0.00     0.029 A 
ATOM     40  N   UNL     1       4.134  -3.009   8.980  1.00  0.00    -0.354 N 
ATOM     41  C   UNL     1       7.048  -5.377   6.780  1.00  0.00     0.074 A 
ATOM     42  C   UNL     1       6.558  -5.694   5.454  1.00  0.00     0.031 C 
ATOM     43  C   UNL     1       2.171  -1.973   9.283  1.00  0.00     0.029 A 
ATOM     44  C   UNL     1       3.448  -2.277   9.918  1.00  0.00     0.049 A 
ATOM     45  H   UNL     1       5.062  -3.313   9.104  1.00  0.00     0.167 HD
ATOM     46  C   UNL     1       8.272  -5.710   7.255  1.00  0.00     0.037 A 
ATOM     47  C   UNL     1       3.797  -1.925  11.168  1.00  0.00     0.037 A 
ATOM     48  C   UNL     1       8.732  -5.387   8.582  1.00  0.00     0.049 A 
ATOM     49  C   UNL     1       5.136  -2.354  11.688  1.00  0.00     0.074 A 
ATOM     50  C   UNL     1       9.938  -5.708   9.182  1.00  0.00     0.029 A 
ATOM     51  N   UNL     1       8.004  -4.662   9.516  1.00  0.00    -0.354 N 
ATOM     52  N   UNL     1       6.067  -3.050  11.079  1.00  0.00    -0.248 NA
ATOM     53  C   UNL     1       5.468  -1.964  13.063  1.00  0.00     0.031 C 
ATOM     54  C   UNL     1       9.928  -5.194  10.485  1.00  0.00     0.029 A 
ATOM     55  C   UNL     1       8.729  -4.529  10.687  1.00  0.00     0.049 A 
ATOM     56  H   UNL     1       7.102  -4.295   9.366  1.00  0.00     0.167 HD
ATOM     57  C   UNL     1       7.100  -3.179  11.996  1.00  0.00     0.074 A 
ATOM     58  C   UNL     1       6.685  -2.475  13.195  1.00  0.00     0.031 C 
ATOM     59  C   UNL     1       8.284  -3.826  11.863  1.00  0.00     0.037 A 
BRANCH  46  60
ATOM     60  C   UNL     1       9.183  -6.487   6.350  1.00  0.00     0.058 A 
ATOM     61  C   UNL     1       9.883  -5.867   5.303  1.00  0.00     0.135 A 
ATOM     62  C   UNL     1       9.388  -7.861   6.553  1.00  0.00     0.135 A 
ATOM     63  F   UNL     1       9.710  -4.559   5.056  1.00  0.00    -0.206 F 
ATOM     64  C   UNL     1      10.744  -6.587   4.479  1.00  0.00     0.059 A 
ATOM     65  C   UNL     1      10.255  -8.597   5.750  1.00  0.00     0.059 A 
ATOM     66  F   UNL     1       8.739  -8.502   7.537  1.00  0.00    -0.206 F 
ATOM     67  C   UNL     1      10.920  -7.953   4.707  1.00  0.00     0.060 A 
BRANCH  67  68
ATOM     68  S   UNL     1      12.038  -8.878   3.632  1.00  0.00     0.124 S 
ATOM     69  O   UNL     1      11.215  -9.050   2.438  1.00  0.00    -0.237 OA
ATOM     70  O   UNL     1      13.171  -7.969   3.495  1.00  0.00    -0.237 OA
ATOM     71  O   UNL     1      12.305 -10.097   4.390  1.00  0.00    -0.744 OA
ENDBRANCH  67  68
ENDBRANCH  46  60
BRANCH  47  72
ATOM     72  C   UNL     1       2.843  -1.160  12.006  1.00  0.00     0.058 A 
ATOM     73  C   UNL     1       3.049   0.199  12.275  1.00  0.00     0.135 A 
ATOM     74  C   UNL     1       1.681  -1.764  12.512  1.00  0.00     0.135 A 
ATOM     75  F   UNL     1       4.146   0.816  11.811  1.00  0.00    -0.206 F 
ATOM     76  C   UNL     1       2.136   0.937  13.022  1.00  0.00     0.059 A 
ATOM     77  C   UNL     1       0.745  -1.043  13.244  1.00  0.00     0.059 A 
ATOM     78  F   UNL     1       1.433  -3.059  12.263  1.00  0.00    -0.206 F 
ATOM     79  C   UNL     1       0.986   0.306  13.501  1.00  0.00     0.060 A 
BRANCH  79  80
ATOM     80  S   UNL     1      -0.231   1.278  14.416  1.00  0.00     0.124 S 
ATOM     81  O   UNL     1       0.350   1.288  15.753  1.00  0.00    -0.237 OA
ATOM     82  O   UNL     1      -0.215   2.552  13.703  1.00  0.00    -0.237 OA
ATOM     83  O   UNL     1      -1.457   0.500  14.263  1.00  0.00    -0.744 OA
ENDBRANCH  79  80
ENDBRANCH  47  72
BRANCH  59  84
ATOM     84  C   UNL     1       9.206  -3.781  13.043  1.00  0.00     0.058 A 
ATOM     85  C   UNL     1       9.007  -4.614  14.154  1.00  0.00     0.135 A 
ATOM     86  C   UNL     1      10.305  -2.909  13.056  1.00  0.00     0.135 A 
ATOM     87  F   UNL     1       7.963  -5.457  14.189  1.00  0.00    -0.206 F 
ATOM     88  C   UNL     1       9.858  -4.569  15.252  1.00  0.00     0.059 A 
ATOM     89  C   UNL     1      11.178  -2.859  14.136  1.00  0.00     0.059 A 
ATOM     90  F   UNL     1      10.535  -2.097  12.012  1.00  0.00    -0.206 F 
ATOM     91  C   UNL     1      10.938  -3.684  15.236  1.00  0.00     0.060 A 
BRANCH  91  92
ATOM     92  S   UNL     1      12.052  -3.641  16.656  1.00  0.00     0.124 S 
ATOM     93  O   UNL     1      11.305  -2.801  17.587  1.00  0.00    -0.237 OA
ATOM     94  O   UNL     1      12.158  -5.050  17.020  1.00  0.00    -0.237 OA
ATOM     95  O   UNL     1      13.269  -3.049  16.110  1.00  0.00    -0.744 OA
ENDBRANCH  91  92
ENDBRANCH  59  84
ENDBRANCH  33  34
ENDBRANCH  26  28
ENDBRANCH  25  26
ENDBRANCH  24  25
ENDBRANCH   1  24
TORSDOF 17
