REMARK SMILES C#Cc1cc(Cl)cc2c1O[C@H](C(F)(F)F)C(C(=O)OCCOC(=O)c1ccc(-c3c4nc(c(-c5c(F)cc(S(=O)(=O)[O-])cc5F)c5ccc([nH]5)c(-c5c(F)cc(S(=O)(=O)[O-])cc5F)c5nc(c(-c6c(F)cc(S(=O)(=O)[O-])cc6F)c6ccc3[nH]6)C=C5)C=C4)cc1)=C2
REMARK SMILES IDX 21 1 20 2 19 3 17 4 18 5 16 6 3 7 4 8 9 9 5 10 8 11 10 12
REMARK SMILES IDX 6 13 7 14 91 15 11 16 2 17 1 18 12 19 13 20 14 21 15 22
REMARK SMILES IDX 22 23 23 24 24 25 25 26 26 27 90 28 27 29 89 30 28 31 29 32
REMARK SMILES IDX 30 33 83 34 31 35 88 36 82 37 84 38 32 39 87 40 81 41 80 42
REMARK SMILES IDX 33 44 67 45 46 46 66 47 47 48 50 49 65 50 85 51 48 52 49 53
REMARK SMILES IDX 64 55 86 56 51 57 34 58 35 59 44 60 36 61 37 62 43 63 45 64
REMARK SMILES IDX 38 65 39 66 40 67 41 68 42 69 68 70 69 71 78 72 70 73 71 74
REMARK SMILES IDX 77 75 79 76 72 77 73 78 74 79 75 80 76 81 52 82 53 83 62 84
REMARK SMILES IDX 54 85 55 86 61 87 63 88 56 89 57 90 58 91 59 92 60 93
REMARK H PARENT 84 43 50 54
REMARK Flexibility Score: inf
ROOT
ATOM      1  C   UNL     1      -5.682  -7.343   1.138  1.00  0.00     0.275 C 
ENDROOT
BRANCH   1   2
ATOM      2  C   UNL     1      -4.664  -7.141   0.013  1.00  0.00     0.275 C 
BRANCH   2   3
ATOM      3  O   UNL     1      -3.936  -5.903   0.173  1.00  0.00    -0.459 OA
BRANCH   3   4
ATOM      4  C   UNL     1      -4.331  -4.889  -0.632  1.00  0.00     0.338 C 
ATOM      5  O   UNL     1      -5.187  -4.946  -1.500  1.00  0.00    -0.246 OA
BRANCH   4   6
ATOM      6  C   UNL     1      -3.578  -3.655  -0.335  1.00  0.00     0.087 C 
ATOM      7  C   UNL     1      -1.452  -0.057  -0.052  1.00  0.00     0.068 A 
ATOM      8  C   UNL     1      -2.159   1.153  -0.030  1.00  0.00     0.041 A 
ATOM      9  C   UNL     1      -2.143  -1.277  -0.085  1.00  0.00     0.143 A 
ATOM     10  C   UNL     1      -3.550   1.146  -0.020  1.00  0.00     0.043 A 
ATOM     11  C   UNL     1      -3.538  -1.267  -0.083  1.00  0.00     0.020 A 
ATOM     12  O   UNL     1      -1.414  -2.439  -0.101  1.00  0.00    -0.474 OA
ATOM     13  Cl  UNL     1      -4.417   2.631  -0.007  1.00  0.00    -0.084 Cl
ATOM     14  C   UNL     1      -4.245  -0.058  -0.038  1.00  0.00     0.032 A 
ATOM     15  C   UNL     1      -4.261  -2.517  -0.180  1.00  0.00     0.027 C 
ATOM     16  C   UNL     1      -2.082  -3.699  -0.390  1.00  0.00     0.316 C 
BRANCH   7  17
ATOM     17  C   UNL     1      -0.022  -0.018  -0.064  1.00  0.00    -0.067 C 
ATOM     18  C   UNL     1       1.180   0.009  -0.079  1.00  0.00     0.010 C 
ENDBRANCH   7  17
BRANCH  16  19
ATOM     19  C   UNL     1      -1.593  -4.228  -1.748  1.00  0.00     0.430 C 
ATOM     20  F   UNL     1      -0.240  -4.261  -1.808  1.00  0.00    -0.167 F 
ATOM     21  F   UNL     1      -2.014  -5.498  -1.969  1.00  0.00    -0.167 F 
ATOM     22  F   UNL     1      -2.028  -3.472  -2.780  1.00  0.00    -0.167 F 
ENDBRANCH  16  19
ENDBRANCH   4   6
ENDBRANCH   3   4
ENDBRANCH   2   3
ENDBRANCH   1   2
BRANCH   1  23
ATOM     23  O   UNL     1      -6.764  -6.400   1.030  1.00  0.00    -0.458 OA
BRANCH  23  24
ATOM     24  C   UNL     1      -6.622  -5.296   1.796  1.00  0.00     0.338 C 
ATOM     25  O   UNL     1      -5.706  -5.042   2.562  1.00  0.00    -0.246 OA
BRANCH  24  26
ATOM     26  C   UNL     1      -7.684  -4.325   1.507  1.00  0.00     0.060 A 
ATOM     27  C   UNL     1      -7.531  -3.519   0.389  1.00  0.00     0.016 A 
ATOM     28  C   UNL     1      -8.665  -4.033   2.448  1.00  0.00     0.016 A 
ATOM     29  C   UNL     1      -8.199  -2.305   0.312  1.00  0.00     0.010 A 
ATOM     30  C   UNL     1      -9.476  -2.906   2.261  1.00  0.00     0.010 A 
ATOM     31  C   UNL     1      -9.213  -1.993   1.223  1.00  0.00    -0.014 A 
BRANCH  31  32
ATOM     32  C   UNL     1      -9.976  -0.718   1.082  1.00  0.00     0.031 A 
ATOM     33  C   UNL     1     -10.106   0.228   2.252  1.00  0.00     0.074 A 
ATOM     34  C   UNL     1     -10.535  -0.394  -0.105  1.00  0.00     0.049 A 
ATOM     35  N   UNL     1     -10.875   1.279   2.380  1.00  0.00    -0.248 NA
ATOM     36  C   UNL     1      -9.278  -0.049   3.438  1.00  0.00     0.031 C 
ATOM     37  C   UNL     1     -10.438  -1.186  -1.337  1.00  0.00     0.029 A 
ATOM     38  N   UNL     1     -11.288   0.690  -0.483  1.00  0.00    -0.354 N 
ATOM     39  C   UNL     1     -10.658   1.760   3.667  1.00  0.00     0.074 A 
ATOM     40  C   UNL     1      -9.705   0.871   4.294  1.00  0.00     0.031 C 
ATOM     41  C   UNL     1     -11.048  -0.537  -2.337  1.00  0.00     0.029 A 
ATOM     42  C   UNL     1     -11.693   0.650  -1.799  1.00  0.00     0.049 A 
ATOM     43  H   UNL     1     -11.517   1.427   0.129  1.00  0.00     0.167 HD
ATOM     44  C   UNL     1     -11.198   2.849   4.264  1.00  0.00     0.037 A 
ATOM     45  C   UNL     1     -12.536   1.440  -2.490  1.00  0.00     0.037 A 
ATOM     46  C   UNL     1     -12.111   3.752   3.610  1.00  0.00     0.049 A 
ATOM     47  C   UNL     1     -13.191   2.587  -1.776  1.00  0.00     0.074 A 
ATOM     48  C   UNL     1     -12.717   4.883   4.127  1.00  0.00     0.029 A 
ATOM     49  N   UNL     1     -12.534   3.638   2.293  1.00  0.00    -0.354 N 
ATOM     50  N   UNL     1     -13.017   2.995  -0.541  1.00  0.00    -0.248 NA
ATOM     51  C   UNL     1     -14.171   3.371  -2.538  1.00  0.00     0.031 C 
ATOM     52  C   UNL     1     -13.550   5.421   3.143  1.00  0.00     0.029 A 
ATOM     53  C   UNL     1     -13.413   4.665   1.990  1.00  0.00     0.049 A 
ATOM     54  H   UNL     1     -12.252   2.932   1.668  1.00  0.00     0.167 HD
ATOM     55  C   UNL     1     -13.845   4.099  -0.387  1.00  0.00     0.074 A 
ATOM     56  C   UNL     1     -14.505   4.307  -1.660  1.00  0.00     0.031 C 
ATOM     57  C   UNL     1     -14.048   4.866   0.711  1.00  0.00     0.037 A 
BRANCH  44  58
ATOM     58  C   UNL     1     -10.836   3.136   5.698  1.00  0.00     0.058 A 
ATOM     59  C   UNL     1      -9.564   3.603   6.063  1.00  0.00     0.135 A 
ATOM     60  C   UNL     1     -11.808   3.033   6.710  1.00  0.00     0.135 A 
ATOM     61  F   UNL     1      -8.591   3.703   5.144  1.00  0.00    -0.206 F 
ATOM     62  C   UNL     1      -9.266   3.953   7.377  1.00  0.00     0.059 A 
ATOM     63  C   UNL     1     -11.541   3.406   8.024  1.00  0.00     0.059 A 
ATOM     64  F   UNL     1     -13.041   2.589   6.419  1.00  0.00    -0.206 F 
ATOM     65  C   UNL     1     -10.265   3.862   8.349  1.00  0.00     0.060 A 
BRANCH  65  66
ATOM     66  S   UNL     1      -9.870   4.364  10.037  1.00  0.00     0.124 S 
ATOM     67  O   UNL     1      -8.894   3.349  10.424  1.00  0.00    -0.237 OA
ATOM     68  O   UNL     1      -9.341   5.710   9.843  1.00  0.00    -0.237 OA
ATOM     69  O   UNL     1     -11.154   4.290  10.727  1.00  0.00    -0.744 OA
ENDBRANCH  65  66
ENDBRANCH  44  58
BRANCH  45  70
ATOM     70  C   UNL     1     -12.840   1.148  -3.919  1.00  0.00     0.058 A 
ATOM     71  C   UNL     1     -12.468   2.044  -4.932  1.00  0.00     0.135 A 
ATOM     72  C   UNL     1     -13.501  -0.032  -4.306  1.00  0.00     0.135 A 
ATOM     73  F   UNL     1     -11.841   3.188  -4.617  1.00  0.00    -0.206 F 
ATOM     74  C   UNL     1     -12.757   1.795  -6.269  1.00  0.00     0.059 A 
ATOM     75  C   UNL     1     -13.766  -0.321  -5.640  1.00  0.00     0.059 A 
ATOM     76  F   UNL     1     -13.868  -0.933  -3.381  1.00  0.00    -0.206 F 
ATOM     77  C   UNL     1     -13.404   0.606  -6.614  1.00  0.00     0.060 A 
BRANCH  77  78
ATOM     78  S   UNL     1     -13.754   0.288  -8.356  1.00  0.00     0.124 S 
ATOM     79  O   UNL     1     -14.755   1.308  -8.645  1.00  0.00    -0.237 OA
ATOM     80  O   UNL     1     -12.444   0.485  -8.969  1.00  0.00    -0.237 OA
ATOM     81  O   UNL     1     -14.239  -1.089  -8.356  1.00  0.00    -0.744 OA
ENDBRANCH  77  78
ENDBRANCH  45  70
BRANCH  57  82
ATOM     82  C   UNL     1     -14.993   6.028   0.582  1.00  0.00     0.058 A 
ATOM     83  C   UNL     1     -16.378   5.840   0.464  1.00  0.00     0.135 A 
ATOM     84  C   UNL     1     -14.511   7.346   0.649  1.00  0.00     0.135 A 
ATOM     85  F   UNL     1     -16.889   4.601   0.386  1.00  0.00    -0.206 F 
ATOM     86  C   UNL     1     -17.252   6.919   0.399  1.00  0.00     0.059 A 
ATOM     87  C   UNL     1     -15.370   8.439   0.623  1.00  0.00     0.059 A 
ATOM     88  F   UNL     1     -13.195   7.580   0.772  1.00  0.00    -0.206 F 
ATOM     89  C   UNL     1     -16.739   8.215   0.489  1.00  0.00     0.060 A 
BRANCH  89  90
ATOM     90  S   UNL     1     -17.895   9.600   0.450  1.00  0.00     0.124 S 
ATOM     91  O   UNL     1     -18.389   9.534  -0.921  1.00  0.00    -0.237 OA
ATOM     92  O   UNL     1     -18.853   9.230   1.487  1.00  0.00    -0.237 OA
ATOM     93  O   UNL     1     -17.056  10.754   0.759  1.00  0.00    -0.744 OA
ENDBRANCH  89  90
ENDBRANCH  57  82
ENDBRANCH  31  32
ENDBRANCH  24  26
ENDBRANCH  23  24
ENDBRANCH   1  23
TORSDOF 16
