REMARK SMILES CC[C@@](C)(NC(=O)Nc1cccc(C[NH2+]C)c1)C(=O)OCCOC(=O)c1ccc(-c2c3nc(c(-c4c(F)cc(S(=O)(=O)[O-])cc4F)c4ccc([nH]4)c(-c4c(F)cc(S(=O)(=O)[O-])cc4F)c4nc(c(-c5c(F)cc(S(=O)(=O)[O-])cc5F)c5ccc2[nH]5)C=C4)C=C3)cc1
REMARK SMILES IDX 21 1 20 2 18 3 19 4 3 5 4 6 2 7 1 8 5 9 6 10 7 12 8 13 9 15
REMARK SMILES IDX 10 16 17 17 11 18 13 19 12 20 14 21 15 22 16 23 22 26 23 27
REMARK SMILES IDX 24 28 25 29 26 30 27 31 91 32 28 33 90 34 29 35 30 36 31 37
REMARK SMILES IDX 84 38 32 39 89 40 83 41 85 42 33 43 88 44 82 45 81 46 34 48
REMARK SMILES IDX 68 49 47 50 67 51 48 52 51 53 66 54 86 55 49 56 50 57 65 59
REMARK SMILES IDX 87 60 52 61 35 62 36 63 45 64 37 65 38 66 44 67 46 68 39 69
REMARK SMILES IDX 40 70 41 71 42 72 43 73 69 74 70 75 79 76 71 77 72 78 78 79
REMARK SMILES IDX 80 80 73 81 74 82 75 83 76 84 77 85 53 86 54 87 63 88 55 89
REMARK SMILES IDX 56 90 62 91 64 92 57 93 58 94 59 95 60 96 61 97
REMARK H PARENT 5 11 8 14 15 24 15 25 85 47 51 58
REMARK Flexibility Score: inf
ROOT
ATOM      1  C   UNL     1       3.865  -0.503  -4.574  1.00  0.00     0.274 C 
ENDROOT
BRANCH   1   2
ATOM      2  O   UNL     1       2.424  -0.867  -4.606  1.00  0.00    -0.460 OA
BRANCH   2   3
ATOM      3  C   UNL     1       1.834  -1.851  -3.784  1.00  0.00     0.331 C 
ATOM      4  O   UNL     1       2.302  -2.981  -3.681  1.00  0.00    -0.249 OA
BRANCH   3   5
ATOM      5  C   UNL     1       0.384  -1.346  -3.050  1.00  0.00     0.136 C 
ATOM      6  C   UNL     1      -0.747  -2.152  -3.703  1.00  0.00     0.047 C 
BRANCH   5   7
ATOM      7  C   UNL     1      -0.120  -0.990  -1.571  1.00  0.00     0.037 C 
ATOM      8  C   UNL     1       0.088  -1.771  -0.291  1.00  0.00     0.007 C 
ENDBRANCH   5   7
BRANCH   5   9
ATOM      9  N   UNL     1       0.425  -0.023  -3.564  1.00  0.00    -0.322 N 
ATOM     10  C   UNL     1       1.387   0.821  -3.196  1.00  0.00     0.320 C 
ATOM     11  H   UNL     1      -0.266   0.274  -4.199  1.00  0.00     0.166 HD
ATOM     12  O   UNL     1       1.409   1.841  -3.895  1.00  0.00    -0.248 OA
ATOM     13  N   UNL     1       2.364   0.580  -2.261  1.00  0.00    -0.308 N 
ATOM     14  H   UNL     1       2.766   1.466  -2.110  1.00  0.00     0.171 HD
BRANCH  13  15
ATOM     15  C   UNL     1       3.109  -0.287  -1.384  1.00  0.00     0.043 A 
ATOM     16  C   UNL     1       4.215   0.318  -0.745  1.00  0.00     0.026 A 
ATOM     17  C   UNL     1       2.996  -1.653  -1.149  1.00  0.00     0.035 A 
ATOM     18  C   UNL     1       5.138  -0.391   0.040  1.00  0.00     0.003 A 
ATOM     19  C   UNL     1       3.877  -2.388  -0.316  1.00  0.00     0.008 A 
ATOM     20  C   UNL     1       4.973  -1.749   0.252  1.00  0.00     0.010 A 
BRANCH  19  21
ATOM     21  C   UNL     1       3.581  -3.843  -0.022  1.00  0.00     0.297 C 
BRANCH  21  22
ATOM     22  N   UNL     1       4.227  -4.754  -0.967  1.00  0.00    -0.345 N 
ATOM     23  C   UNL     1       3.586  -6.064  -0.904  1.00  0.00     0.331 C 
ATOM     24  H   UNL     1       5.214  -4.848  -0.726  1.00  0.00     0.346 HD
ATOM     25  H   UNL     1       4.138  -4.379  -1.911  1.00  0.00     0.346 HD
ENDBRANCH  21  22
ENDBRANCH  19  21
ENDBRANCH  13  15
ENDBRANCH   5   9
ENDBRANCH   3   5
ENDBRANCH   2   3
ENDBRANCH   1   2
BRANCH   1  26
ATOM     26  C   UNL     1       4.211   1.097  -4.638  1.00  0.00     0.275 C 
BRANCH  26  27
ATOM     27  O   UNL     1       4.071   1.877  -3.365  1.00  0.00    -0.458 OA
BRANCH  27  28
ATOM     28  C   UNL     1       4.005   3.261  -3.306  1.00  0.00     0.338 C 
ATOM     29  O   UNL     1       4.392   4.006  -4.185  1.00  0.00    -0.246 OA
BRANCH  28  30
ATOM     30  C   UNL     1       3.406   3.751  -1.960  1.00  0.00     0.060 A 
ATOM     31  C   UNL     1       2.087   3.448  -1.587  1.00  0.00     0.016 A 
ATOM     32  C   UNL     1       4.095   4.559  -1.054  1.00  0.00     0.016 A 
ATOM     33  C   UNL     1       1.523   3.720  -0.336  1.00  0.00     0.010 A 
ATOM     34  C   UNL     1       3.487   4.963   0.182  1.00  0.00     0.010 A 
ATOM     35  C   UNL     1       2.198   4.527   0.563  1.00  0.00    -0.014 A 
BRANCH  35  36
ATOM     36  C   UNL     1       1.367   5.116   1.665  1.00  0.00     0.031 A 
ATOM     37  C   UNL     1       0.691   6.444   1.400  1.00  0.00     0.074 A 
ATOM     38  C   UNL     1       0.996   4.435   2.773  1.00  0.00     0.049 A 
ATOM     39  N   UNL     1      -0.058   7.176   2.185  1.00  0.00    -0.248 NA
ATOM     40  C   UNL     1       0.867   6.999   0.048  1.00  0.00     0.031 C 
ATOM     41  C   UNL     1       1.387   3.067   3.108  1.00  0.00     0.029 A 
ATOM     42  N   UNL     1       0.175   4.805   3.821  1.00  0.00    -0.354 N 
ATOM     43  C   UNL     1      -0.418   8.289   1.433  1.00  0.00     0.074 A 
ATOM     44  C   UNL     1       0.192   8.135   0.131  1.00  0.00     0.031 C 
ATOM     45  C   UNL     1       0.830   2.725   4.287  1.00  0.00     0.029 A 
ATOM     46  C   UNL     1       0.067   3.857   4.816  1.00  0.00     0.049 A 
ATOM     47  H   UNL     1      -0.293   5.671   3.855  1.00  0.00     0.167 HD
ATOM     48  C   UNL     1      -1.185   9.350   1.783  1.00  0.00     0.037 A 
ATOM     49  C   UNL     1      -0.543   3.902   6.024  1.00  0.00     0.037 A 
ATOM     50  C   UNL     1      -1.822   9.517   3.062  1.00  0.00     0.049 A 
ATOM     51  C   UNL     1      -1.298   5.144   6.446  1.00  0.00     0.074 A 
ATOM     52  C   UNL     1      -2.554  10.598   3.524  1.00  0.00     0.029 A 
ATOM     53  N   UNL     1      -1.823   8.574   4.077  1.00  0.00    -0.354 N 
ATOM     54  N   UNL     1      -1.528   6.244   5.769  1.00  0.00    -0.248 NA
ATOM     55  C   UNL     1      -1.871   5.154   7.804  1.00  0.00     0.031 C 
ATOM     56  C   UNL     1      -2.970  10.322   4.831  1.00  0.00     0.029 A 
ATOM     57  C   UNL     1      -2.536   9.051   5.165  1.00  0.00     0.049 A 
ATOM     58  H   UNL     1      -1.381   7.695   4.031  1.00  0.00     0.167 HD
ATOM     59  C   UNL     1      -2.281   7.063   6.610  1.00  0.00     0.074 A 
ATOM     60  C   UNL     1      -2.490   6.326   7.836  1.00  0.00     0.031 C 
ATOM     61  C   UNL     1      -2.751   8.316   6.386  1.00  0.00     0.037 A 
BRANCH  48  62
ATOM     62  C   UNL     1      -1.325  10.452   0.773  1.00  0.00     0.058 A 
ATOM     63  C   UNL     1      -2.140  10.323  -0.362  1.00  0.00     0.135 A 
ATOM     64  C   UNL     1      -0.629  11.659   0.951  1.00  0.00     0.135 A 
ATOM     65  F   UNL     1      -2.803   9.179  -0.592  1.00  0.00    -0.206 F 
ATOM     66  C   UNL     1      -2.242  11.346  -1.299  1.00  0.00     0.059 A 
ATOM     67  C   UNL     1      -0.737  12.704   0.041  1.00  0.00     0.059 A 
ATOM     68  F   UNL     1       0.169  11.827   2.017  1.00  0.00    -0.206 F 
ATOM     69  C   UNL     1      -1.535  12.532  -1.089  1.00  0.00     0.060 A 
BRANCH  69  70
ATOM     70  S   UNL     1      -1.677  13.852  -2.311  1.00  0.00     0.124 S 
ATOM     71  O   UNL     1      -0.873  13.321  -3.408  1.00  0.00    -0.237 OA
ATOM     72  O   UNL     1      -3.116  13.906  -2.548  1.00  0.00    -0.237 OA
ATOM     73  O   UNL     1      -1.115  15.012  -1.625  1.00  0.00    -0.744 OA
ENDBRANCH  69  70
ENDBRANCH  48  62
BRANCH  49  74
ATOM     74  C   UNL     1      -0.408   2.767   6.986  1.00  0.00     0.058 A 
ATOM     75  C   UNL     1      -1.513   2.002   7.394  1.00  0.00     0.135 A 
ATOM     76  C   UNL     1       0.832   2.475   7.577  1.00  0.00     0.135 A 
ATOM     77  F   UNL     1      -2.729   2.259   6.888  1.00  0.00    -0.206 F 
ATOM     78  C   UNL     1      -1.398   1.004   8.360  1.00  0.00     0.059 A 
ATOM     79  C   UNL     1       0.978   1.463   8.522  1.00  0.00     0.059 A 
ATOM     80  F   UNL     1       1.922   3.180   7.235  1.00  0.00    -0.206 F 
ATOM     81  C   UNL     1      -0.146   0.741   8.918  1.00  0.00     0.060 A 
BRANCH  81  82
ATOM     82  S   UNL     1       0.011  -0.584  10.137  1.00  0.00     0.124 S 
ATOM     83  O   UNL     1      -0.561   0.039  11.325  1.00  0.00    -0.237 OA
ATOM     84  O   UNL     1      -0.779  -1.653   9.534  1.00  0.00    -0.237 OA
ATOM     85  O   UNL     1       1.449  -0.829  10.181  1.00  0.00    -0.744 OA
ENDBRANCH  81  82
ENDBRANCH  49  74
BRANCH  61  86
ATOM     86  C   UNL     1      -3.565   8.967   7.473  1.00  0.00     0.058 A 
ATOM     87  C   UNL     1      -2.978   9.426   8.663  1.00  0.00     0.135 A 
ATOM     88  C   UNL     1      -4.947   9.164   7.311  1.00  0.00     0.135 A 
ATOM     89  F   UNL     1      -1.662   9.267   8.872  1.00  0.00    -0.206 F 
ATOM     90  C   UNL     1      -3.736  10.023   9.668  1.00  0.00     0.059 A 
ATOM     91  C   UNL     1      -5.720   9.781   8.292  1.00  0.00     0.059 A 
ATOM     92  F   UNL     1      -5.560   8.761   6.187  1.00  0.00    -0.206 F 
ATOM     93  C   UNL     1      -5.108  10.190   9.476  1.00  0.00     0.060 A 
BRANCH  93  94
ATOM     94  S   UNL     1      -6.083  10.964  10.785  1.00  0.00     0.124 S 
ATOM     95  O   UNL     1      -6.189   9.878  11.753  1.00  0.00    -0.237 OA
ATOM     96  O   UNL     1      -5.241  12.088  11.184  1.00  0.00    -0.237 OA
ATOM     97  O   UNL     1      -7.326  11.329  10.112  1.00  0.00    -0.744 OA
ENDBRANCH  93  94
ENDBRANCH  61  86
ENDBRANCH  35  36
ENDBRANCH  28  30
ENDBRANCH  27  28
ENDBRANCH  26  27
ENDBRANCH   1  26
TORSDOF 19
