REMARK SMILES CC[C@H](C)C[C@H](CC)[N@@H+]1CCO[C@H](CC(=O)OCCOC(=O)c2ccc(-c3c4nc(c(-c5c(F)cc(S(=O)(=O)[O-])cc5F)c5ccc([nH]5)c(-c5c(F)cc(S(=O)(=O)[O-])cc5F)c5nc(c(-c6c(F)cc(S(=O)(=O)[O-])cc6F)c6ccc3[nH]6)C=C5)C=C4)cc2)C1
REMARK SMILES IDX 18 1 17 2 15 3 16 4 14 5 13 6 9 7 10 8 89 9 11 11 12 12 6 13
REMARK SMILES IDX 5 14 3 15 4 16 2 17 1 18 7 19 8 20 19 21 20 22 21 23 22 24
REMARK SMILES IDX 23 25 24 26 88 27 25 28 87 29 26 30 27 31 28 32 81 33 29 34
REMARK SMILES IDX 86 35 80 36 82 37 30 38 85 39 79 40 78 41 31 43 65 44 44 45
REMARK SMILES IDX 64 46 45 47 48 48 63 49 83 50 46 51 47 52 62 54 84 55 49 56
REMARK SMILES IDX 32 57 33 58 42 59 34 60 35 61 41 62 43 63 36 64 37 65 38 66
REMARK SMILES IDX 39 67 40 68 66 69 67 70 76 71 68 72 69 73 75 74 77 75 70 76
REMARK SMILES IDX 71 77 72 78 73 79 74 80 50 81 51 82 60 83 52 84 53 85 59 86
REMARK SMILES IDX 61 87 54 88 55 89 56 90 57 91 58 92
REMARK H PARENT 9 10 82 42 48 53
REMARK Flexibility Score: inf
ROOT
ATOM      1  C   UNL     1       3.104  -4.140   2.665  1.00  0.00     0.274 C 
ENDROOT
BRANCH   1   2
ATOM      2  O   UNL     1       2.683  -2.813   1.592  1.00  0.00    -0.462 OA
BRANCH   2   3
ATOM      3  C   UNL     1       2.134  -2.163   0.409  1.00  0.00     0.308 C 
ATOM      4  O   UNL     1       2.768  -1.151   0.059  1.00  0.00    -0.252 OA
BRANCH   3   5
ATOM      5  C   UNL     1       0.718  -2.559  -0.678  1.00  0.00     0.160 C 
BRANCH   5   6
ATOM      6  C   UNL     1      -0.532  -3.799  -0.785  1.00  0.00     0.184 C 
ATOM      7  N   UNL     1      -0.351  -5.179   1.310  1.00  0.00    -0.328 N 
ATOM      8  C   UNL     1      -0.124  -6.411   0.513  1.00  0.00     0.291 C 
ATOM      9  C   UNL     1      -1.303  -4.371   0.482  1.00  0.00     0.295 C 
ATOM     10  H   UNL     1      -0.654  -5.473   2.239  1.00  0.00     0.348 HD
ATOM     11  C   UNL     1      -0.375  -6.242  -1.017  1.00  0.00     0.222 C 
ATOM     12  O   UNL     1      -0.028  -4.936  -1.548  1.00  0.00    -0.366 OA
BRANCH   7  13
ATOM     13  C   UNL     1       0.844  -4.285   1.510  1.00  0.00     0.184 C 
BRANCH  13  14
ATOM     14  C   UNL     1       0.285  -2.977   2.572  1.00  0.00     0.068 C 
BRANCH  14  15
ATOM     15  C   UNL     1       0.552  -1.356   2.634  1.00  0.00    -0.009 C 
ATOM     16  C   UNL     1       0.167  -0.385   1.476  1.00  0.00     0.008 C 
BRANCH  15  17
ATOM     17  C   UNL     1      -0.236  -0.775   3.861  1.00  0.00    -0.000 C 
ATOM     18  C   UNL     1      -1.642  -0.227   3.563  1.00  0.00     0.004 C 
ENDBRANCH  15  17
ENDBRANCH  14  15
ENDBRANCH  13  14
BRANCH  13  19
ATOM     19  C   UNL     1       2.222  -4.634   0.317  1.00  0.00     0.061 C 
ATOM     20  C   UNL     1       3.866  -4.188   0.113  1.00  0.00     0.010 C 
ENDBRANCH  13  19
ENDBRANCH   7  13
ENDBRANCH   5   6
ENDBRANCH   3   5
ENDBRANCH   2   3
ENDBRANCH   1   2
BRANCH   1  21
ATOM     21  C   UNL     1       3.242  -5.887   2.348  1.00  0.00     0.275 C 
BRANCH  21  22
ATOM     22  O   UNL     1       4.000  -6.433   1.117  1.00  0.00    -0.458 OA
BRANCH  22  23
ATOM     23  C   UNL     1       3.563  -7.473   0.291  1.00  0.00     0.338 C 
ATOM     24  O   UNL     1       2.870  -8.399   0.695  1.00  0.00    -0.246 OA
BRANCH  23  25
ATOM     25  C   UNL     1       3.817  -7.284  -1.244  1.00  0.00     0.060 A 
ATOM     26  C   UNL     1       3.002  -6.446  -2.031  1.00  0.00     0.016 A 
ATOM     27  C   UNL     1       4.705  -8.047  -2.001  1.00  0.00     0.016 A 
ATOM     28  C   UNL     1       3.159  -6.183  -3.407  1.00  0.00     0.010 A 
ATOM     29  C   UNL     1       4.830  -7.857  -3.426  1.00  0.00     0.010 A 
ATOM     30  C   UNL     1       4.089  -6.890  -4.143  1.00  0.00    -0.014 A 
BRANCH  30  31
ATOM     31  C   UNL     1       4.142  -6.704  -5.636  1.00  0.00     0.031 A 
ATOM     32  C   UNL     1       3.462  -7.704  -6.541  1.00  0.00     0.074 A 
ATOM     33  C   UNL     1       4.675  -5.610  -6.227  1.00  0.00     0.049 A 
ATOM     34  N   UNL     1       3.565  -7.865  -7.837  1.00  0.00    -0.248 NA
ATOM     35  C   UNL     1       2.519  -8.628  -5.895  1.00  0.00     0.031 C 
ATOM     36  C   UNL     1       5.190  -4.430  -5.535  1.00  0.00     0.029 A 
ATOM     37  N   UNL     1       4.876  -5.316  -7.564  1.00  0.00    -0.354 N 
ATOM     38  C   UNL     1       2.750  -8.945  -8.157  1.00  0.00     0.074 A 
ATOM     39  C   UNL     1       2.130  -9.377  -6.920  1.00  0.00     0.031 C 
ATOM     40  C   UNL     1       5.683  -3.566  -6.442  1.00  0.00     0.029 A 
ATOM     41  C   UNL     1       5.581  -4.151  -7.780  1.00  0.00     0.049 A 
ATOM     42  H   UNL     1       4.546  -5.888  -8.295  1.00  0.00     0.167 HD
ATOM     43  C   UNL     1       2.551  -9.539  -9.361  1.00  0.00     0.037 A 
ATOM     44  C   UNL     1       6.136  -3.638  -8.902  1.00  0.00     0.037 A 
ATOM     45  C   UNL     1       3.132  -9.098 -10.604  1.00  0.00     0.049 A 
ATOM     46  C   UNL     1       6.023  -4.380 -10.215  1.00  0.00     0.074 A 
ATOM     47  C   UNL     1       3.025  -9.678 -11.859  1.00  0.00     0.029 A 
ATOM     48  N   UNL     1       3.914  -7.965 -10.760  1.00  0.00    -0.354 N 
ATOM     49  N   UNL     1       5.370  -5.485 -10.485  1.00  0.00    -0.248 NA
ATOM     50  C   UNL     1       6.744  -3.819 -11.371  1.00  0.00     0.031 C 
ATOM     51  C   UNL     1       3.774  -8.918 -12.764  1.00  0.00     0.029 A 
ATOM     52  C   UNL     1       4.311  -7.839 -12.083  1.00  0.00     0.049 A 
ATOM     53  H   UNL     1       4.154  -7.342 -10.037  1.00  0.00     0.167 HD
ATOM     54  C   UNL     1       5.587  -5.738 -11.838  1.00  0.00     0.074 A 
ATOM     55  C   UNL     1       6.422  -4.669 -12.338  1.00  0.00     0.031 C 
ATOM     56  C   UNL     1       5.133  -6.770 -12.592  1.00  0.00     0.037 A 
BRANCH  43  57
ATOM     57  C   UNL     1       1.728 -10.797  -9.383  1.00  0.00     0.058 A 
ATOM     58  C   UNL     1       0.330 -10.784  -9.282  1.00  0.00     0.135 A 
ATOM     59  C   UNL     1       2.362 -12.041  -9.543  1.00  0.00     0.135 A 
ATOM     60  F   UNL     1      -0.325  -9.624  -9.113  1.00  0.00    -0.206 F 
ATOM     61  C   UNL     1      -0.410 -11.963  -9.311  1.00  0.00     0.059 A 
ATOM     62  C   UNL     1       1.642 -13.229  -9.598  1.00  0.00     0.059 A 
ATOM     63  F   UNL     1       3.699 -12.108  -9.649  1.00  0.00    -0.206 F 
ATOM     64  C   UNL     1       0.256 -13.181  -9.464  1.00  0.00     0.060 A 
BRANCH  64  65
ATOM     65  S   UNL     1      -0.712 -14.706  -9.483  1.00  0.00     0.124 S 
ATOM     66  O   UNL     1      -1.057 -14.846  -8.071  1.00  0.00    -0.237 OA
ATOM     67  O   UNL     1      -1.816 -14.366 -10.374  1.00  0.00    -0.237 OA
ATOM     68  O   UNL     1       0.226 -15.697 -10.001  1.00  0.00    -0.744 OA
ENDBRANCH  64  65
ENDBRANCH  43  57
BRANCH  44  69
ATOM     69  C   UNL     1       6.947  -2.385  -8.835  1.00  0.00     0.058 A 
ATOM     70  C   UNL     1       6.533  -1.204  -9.469  1.00  0.00     0.135 A 
ATOM     71  C   UNL     1       8.181  -2.361  -8.163  1.00  0.00     0.135 A 
ATOM     72  F   UNL     1       5.382  -1.180 -10.159  1.00  0.00    -0.206 F 
ATOM     73  C   UNL     1       7.308  -0.045  -9.436  1.00  0.00     0.059 A 
ATOM     74  C   UNL     1       8.959  -1.210  -8.093  1.00  0.00     0.059 A 
ATOM     75  F   UNL     1       8.635  -3.468  -7.554  1.00  0.00    -0.206 F 
ATOM     76  C   UNL     1       8.517  -0.057  -8.739  1.00  0.00     0.060 A 
BRANCH  76  77
ATOM     77  S   UNL     1       9.485   1.467  -8.644  1.00  0.00     0.124 S 
ATOM     78  O   UNL     1      10.080   1.523  -9.972  1.00  0.00    -0.237 OA
ATOM     79  O   UNL     1       8.463   2.466  -8.356  1.00  0.00    -0.237 OA
ATOM     80  O   UNL     1      10.416   1.201  -7.545  1.00  0.00    -0.744 OA
ENDBRANCH  76  77
ENDBRANCH  44  69
BRANCH  56  81
ATOM     81  C   UNL     1       5.488  -6.787 -14.056  1.00  0.00     0.058 A 
ATOM     82  C   UNL     1       6.773  -7.134 -14.501  1.00  0.00     0.135 A 
ATOM     83  C   UNL     1       4.514  -6.508 -15.030  1.00  0.00     0.135 A 
ATOM     84  F   UNL     1       7.744  -7.406 -13.615  1.00  0.00    -0.206 F 
ATOM     85  C   UNL     1       7.085  -7.189 -15.858  1.00  0.00     0.059 A 
ATOM     86  C   UNL     1       4.798  -6.577 -16.392  1.00  0.00     0.059 A 
ATOM     87  F   UNL     1       3.265  -6.181 -14.662  1.00  0.00    -0.206 F 
ATOM     88  C   UNL     1       6.090  -6.909 -16.797  1.00  0.00     0.060 A 
BRANCH  88  89
ATOM     89  S   UNL     1       6.495  -7.018 -18.555  1.00  0.00     0.124 S 
ATOM     90  O   UNL     1       7.258  -5.791 -18.759  1.00  0.00    -0.237 OA
ATOM     91  O   UNL     1       7.260  -8.259 -18.626  1.00  0.00    -0.237 OA
ATOM     92  O   UNL     1       5.187  -7.059 -19.203  1.00  0.00    -0.744 OA
ENDBRANCH  88  89
ENDBRANCH  56  81
ENDBRANCH  30  31
ENDBRANCH  23  25
ENDBRANCH  22  23
ENDBRANCH  21  22
ENDBRANCH   1  21
TORSDOF 20
