REMARK SMILES O=C(OCCOC(=O)[C@@H]1C=C[C@@H](NS(=O)(=O)c2ccc(F)c(F)c2F)C1)c1ccc(-c2c3nc(c(-c4c(F)cc(S(=O)(=O)[O-])cc4F)c4ccc([nH]4)c(-c4c(F)cc(S(=O)(=O)[O-])cc4F)c4nc(c(-c5c(F)cc(S(=O)(=O)[O-])cc5F)c5ccc2[nH]5)C=C4)C=C3)cc1
REMARK SMILES IDX 4 1 3 2 2 3 1 4 27 5 28 6 92 7 29 8 91 9 30 10 31 11 32 12
REMARK SMILES IDX 85 13 33 14 90 15 84 16 86 17 34 18 89 19 83 20 82 21 35 23
REMARK SMILES IDX 69 24 48 25 68 26 49 27 52 28 67 29 87 30 50 31 51 32 66 34
REMARK SMILES IDX 88 35 53 36 36 37 37 38 46 39 38 40 39 41 45 42 47 43 40 44
REMARK SMILES IDX 41 45 42 46 43 47 44 48 70 49 71 50 80 51 72 52 73 53 79 54
REMARK SMILES IDX 81 55 74 56 75 57 76 58 77 59 78 60 54 61 55 62 64 63 56 64
REMARK SMILES IDX 57 65 63 66 65 67 58 68 59 69 60 70 61 71 62 72 5 73 6 74
REMARK SMILES IDX 7 75 8 76 9 77 10 78 26 79 11 80 12 81 13 82 14 84 15 85
REMARK SMILES IDX 16 86 17 87 18 88 24 89 19 90 22 91 25 92 20 93 23 94 21 95
REMARK H PARENT 86 22 52 33 13 83
REMARK Flexibility Score: inf
ROOT
ATOM      1  C   UNL     1      -1.254  -0.149   2.186  1.00  0.00     0.275 C 
ENDROOT
BRANCH   1   2
ATOM      2  O   UNL     1      -1.283  -1.295   1.320  1.00  0.00    -0.458 OA
BRANCH   2   3
ATOM      3  C   UNL     1      -0.735  -1.399   0.083  1.00  0.00     0.338 C 
ATOM      4  O   UNL     1      -1.286  -2.115  -0.750  1.00  0.00    -0.246 OA
BRANCH   3   5
ATOM      5  C   UNL     1       0.631  -0.865  -0.232  1.00  0.00     0.060 A 
ATOM      6  C   UNL     1       1.235   0.259   0.340  1.00  0.00     0.016 A 
ATOM      7  C   UNL     1       1.386  -1.606  -1.162  1.00  0.00     0.016 A 
ATOM      8  C   UNL     1       2.569   0.582   0.078  1.00  0.00     0.010 A 
ATOM      9  C   UNL     1       2.732  -1.301  -1.411  1.00  0.00     0.010 A 
ATOM     10  C   UNL     1       3.339  -0.209  -0.774  1.00  0.00    -0.014 A 
BRANCH  10  11
ATOM     11  C   UNL     1       4.727   0.205  -1.093  1.00  0.00     0.031 A 
ATOM     12  C   UNL     1       4.990   0.755  -2.462  1.00  0.00     0.074 A 
ATOM     13  C   UNL     1       5.707   0.155  -0.167  1.00  0.00     0.049 A 
ATOM     14  N   UNL     1       6.101   1.215  -2.969  1.00  0.00    -0.248 NA
ATOM     15  C   UNL     1       3.845   0.784  -3.389  1.00  0.00     0.031 C 
ATOM     16  C   UNL     1       5.557  -0.347   1.199  1.00  0.00     0.029 A 
ATOM     17  N   UNL     1       7.024   0.544  -0.224  1.00  0.00    -0.354 N 
ATOM     18  C   UNL     1       5.788   1.581  -4.270  1.00  0.00     0.074 A 
ATOM     19  C   UNL     1       4.406   1.229  -4.499  1.00  0.00     0.031 C 
ATOM     20  C   UNL     1       6.724  -0.224   1.855  1.00  0.00     0.029 A 
ATOM     21  C   UNL     1       7.716   0.352   0.953  1.00  0.00     0.049 A 
ATOM     22  H   UNL     1       7.436   0.925  -1.033  1.00  0.00     0.167 HD
ATOM     23  C   UNL     1       6.572   2.192  -5.185  1.00  0.00     0.037 A 
ATOM     24  C   UNL     1       9.003   0.619   1.260  1.00  0.00     0.037 A 
ATOM     25  C   UNL     1       7.939   2.552  -4.944  1.00  0.00     0.049 A 
ATOM     26  C   UNL     1       9.871   1.259   0.205  1.00  0.00     0.074 A 
ATOM     27  C   UNL     1       8.833   3.165  -5.799  1.00  0.00     0.029 A 
ATOM     28  N   UNL     1       8.608   2.327  -3.748  1.00  0.00    -0.354 N 
ATOM     29  N   UNL     1       9.548   1.629  -1.013  1.00  0.00    -0.248 NA
ATOM     30  C   UNL     1      11.271   1.527   0.562  1.00  0.00     0.031 C 
ATOM     31  C   UNL     1      10.056   3.284  -5.130  1.00  0.00     0.029 A 
ATOM     32  C   UNL     1       9.910   2.782  -3.845  1.00  0.00     0.049 A 
ATOM     33  H   UNL     1       8.214   1.906  -2.950  1.00  0.00     0.167 HD
ATOM     34  C   UNL     1      10.694   2.199  -1.556  1.00  0.00     0.074 A 
ATOM     35  C   UNL     1      11.715   2.137  -0.529  1.00  0.00     0.031 C 
ATOM     36  C   UNL     1      10.891   2.724  -2.791  1.00  0.00     0.037 A 
BRANCH  23  37
ATOM     37  C   UNL     1       5.946   2.486  -6.516  1.00  0.00     0.058 A 
ATOM     38  C   UNL     1       4.956   3.473  -6.658  1.00  0.00     0.135 A 
ATOM     39  C   UNL     1       6.291   1.732  -7.648  1.00  0.00     0.135 A 
ATOM     40  F   UNL     1       4.565   4.196  -5.596  1.00  0.00    -0.206 F 
ATOM     41  C   UNL     1       4.300   3.674  -7.866  1.00  0.00     0.059 A 
ATOM     42  C   UNL     1       5.666   1.936  -8.874  1.00  0.00     0.059 A 
ATOM     43  F   UNL     1       7.220   0.768  -7.561  1.00  0.00    -0.206 F 
ATOM     44  C   UNL     1       4.657   2.895  -8.967  1.00  0.00     0.060 A 
BRANCH  44  45
ATOM     45  S   UNL     1       3.778   3.148 -10.522  1.00  0.00     0.124 S 
ATOM     46  O   UNL     1       2.490   2.526 -10.231  1.00  0.00    -0.237 OA
ATOM     47  O   UNL     1       3.765   4.603 -10.639  1.00  0.00    -0.237 OA
ATOM     48  O   UNL     1       4.607   2.450 -11.499  1.00  0.00    -0.744 OA
ENDBRANCH  44  45
ENDBRANCH  23  37
BRANCH  24  49
ATOM     49  C   UNL     1       9.556   0.304   2.611  1.00  0.00     0.058 A 
ATOM     50  C   UNL     1       9.955   1.323   3.491  1.00  0.00     0.135 A 
ATOM     51  C   UNL     1       9.737  -1.022   3.036  1.00  0.00     0.135 A 
ATOM     52  F   UNL     1       9.811   2.609   3.136  1.00  0.00    -0.206 F 
ATOM     53  C   UNL     1      10.537   1.043   4.725  1.00  0.00     0.059 A 
ATOM     54  C   UNL     1      10.296  -1.328   4.276  1.00  0.00     0.059 A 
ATOM     55  F   UNL     1       9.362  -2.038   2.245  1.00  0.00    -0.206 F 
ATOM     56  C   UNL     1      10.707  -0.288   5.108  1.00  0.00     0.060 A 
BRANCH  56  57
ATOM     57  S   UNL     1      11.445  -0.643   6.720  1.00  0.00     0.124 S 
ATOM     58  O   UNL     1      12.842  -0.296   6.487  1.00  0.00    -0.237 OA
ATOM     59  O   UNL     1      10.701   0.253   7.600  1.00  0.00    -0.237 OA
ATOM     60  O   UNL     1      11.169  -2.064   6.909  1.00  0.00    -0.744 OA
ENDBRANCH  56  57
ENDBRANCH  24  49
BRANCH  36  61
ATOM     61  C   UNL     1      12.242   3.308  -3.086  1.00  0.00     0.058 A 
ATOM     62  C   UNL     1      13.359   2.494  -3.319  1.00  0.00     0.135 A 
ATOM     63  C   UNL     1      12.396   4.697  -3.221  1.00  0.00     0.135 A 
ATOM     64  F   UNL     1      13.262   1.160  -3.197  1.00  0.00    -0.206 F 
ATOM     65  C   UNL     1      14.591   3.038  -3.665  1.00  0.00     0.059 A 
ATOM     66  C   UNL     1      13.611   5.261  -3.592  1.00  0.00     0.059 A 
ATOM     67  F   UNL     1      11.351   5.517  -3.019  1.00  0.00    -0.206 F 
ATOM     68  C   UNL     1      14.704   4.423  -3.804  1.00  0.00     0.060 A 
BRANCH  68  69
ATOM     69  S   UNL     1      16.293   5.114  -4.310  1.00  0.00     0.124 S 
ATOM     70  O   UNL     1      17.066   5.004  -3.077  1.00  0.00    -0.237 OA
ATOM     71  O   UNL     1      16.693   4.220  -5.392  1.00  0.00    -0.237 OA
ATOM     72  O   UNL     1      15.956   6.473  -4.721  1.00  0.00    -0.744 OA
ENDBRANCH  68  69
ENDBRANCH  36  61
ENDBRANCH  10  11
ENDBRANCH   3   5
ENDBRANCH   2   3
ENDBRANCH   1   2
BRANCH   1  73
ATOM     73  C   UNL     1      -0.366  -0.383   3.411  1.00  0.00     0.274 C 
BRANCH  73  74
ATOM     74  O   UNL     1       0.944  -0.876   3.069  1.00  0.00    -0.462 OA
BRANCH  74  75
ATOM     75  C   UNL     1       1.246  -2.146   3.478  1.00  0.00     0.312 C 
ATOM     76  O   UNL     1       0.483  -2.886   4.086  1.00  0.00    -0.252 OA
BRANCH  75  77
ATOM     77  C   UNL     1       2.670  -2.529   3.066  1.00  0.00     0.123 C 
ATOM     78  C   UNL     1       2.671  -3.067   1.678  1.00  0.00    -0.015 C 
ATOM     79  C   UNL     1       3.212  -3.758   3.814  1.00  0.00     0.043 C 
ATOM     80  C   UNL     1       2.647  -4.399   1.643  1.00  0.00    -0.011 C 
ATOM     81  C   UNL     1       2.681  -4.968   3.015  1.00  0.00     0.093 C 
BRANCH  81  82
ATOM     82  N   UNL     1       3.565  -6.122   3.107  1.00  0.00    -0.204 NA
ATOM     83  H   UNL     1       3.567  -6.400   4.089  1.00  0.00     0.142 HD
BRANCH  82  84
ATOM     84  S   UNL     1       3.312  -7.534   2.223  1.00  0.00     0.244 S 
ATOM     85  O   UNL     1       3.105  -7.242   0.819  1.00  0.00    -0.207 OA
ATOM     86  O   UNL     1       4.393  -8.404   2.622  1.00  0.00    -0.207 OA
BRANCH  84  87
ATOM     87  C   UNL     1       1.826  -8.263   2.834  1.00  0.00     0.121 A 
ATOM     88  C   UNL     1       1.855  -9.567   3.351  1.00  0.00     0.028 A 
ATOM     89  C   UNL     1       0.614  -7.591   2.727  1.00  0.00     0.181 A 
ATOM     90  C   UNL     1       0.677 -10.153   3.820  1.00  0.00     0.044 A 
ATOM     91  C   UNL     1      -0.542  -8.150   3.254  1.00  0.00     0.195 A 
ATOM     92  F   UNL     1       0.513  -6.420   2.088  1.00  0.00    -0.202 F 
ATOM     93  C   UNL     1      -0.509  -9.425   3.798  1.00  0.00     0.161 A 
ATOM     94  F   UNL     1      -1.693  -7.462   3.226  1.00  0.00    -0.200 F 
ATOM     95  F   UNL     1      -1.628  -9.978   4.286  1.00  0.00    -0.204 F 
ENDBRANCH  84  87
ENDBRANCH  82  84
ENDBRANCH  81  82
ENDBRANCH  75  77
ENDBRANCH  74  75
ENDBRANCH  73  74
ENDBRANCH   1  73
TORSDOF 17
