REMARK SMILES CN1C(=O)/C(=C\c2ccc(C(=O)Nc3ccc(O)cc3C(=O)OCCOC(=O)c3ccc(-c4c5nc(c(-c6c(F)cc(S(=O)(=O)[O-])cc6F)c6ccc([nH]6)c(-c6c(F)cc(S(=O)(=O)[O-])cc6F)c6nc(c(-c7c(F)cc(S(=O)(=O)[O-])cc7F)c7ccc4[nH]7)C=C6)C=C5)cc3)cc2)SC1=S
REMARK SMILES IDX 24 1 23 2 21 3 22 4 20 5 14 6 15 7 16 8 19 9 17 10 13 11
REMARK SMILES IDX 11 12 12 13 10 15 7 16 8 17 96 18 9 19 95 20 6 21 1 22 2 23
REMARK SMILES IDX 3 24 98 25 4 26 5 27 97 28 99 29 18 30 25 32 26 33 27 34
REMARK SMILES IDX 28 35 29 36 30 37 94 38 31 39 93 40 32 41 33 42 34 43 87 44
REMARK SMILES IDX 35 45 92 46 86 47 88 48 36 49 91 50 85 51 84 52 37 54 71 55
REMARK SMILES IDX 50 56 70 57 51 58 54 59 69 60 89 61 52 62 53 63 68 65 90 66
REMARK SMILES IDX 55 67 38 68 39 69 48 70 40 71 41 72 47 73 49 74 42 75 43 76
REMARK SMILES IDX 44 77 45 78 46 79 72 80 73 81 82 82 74 83 75 84 81 85 83 86
REMARK SMILES IDX 76 87 77 88 78 89 79 90 80 91 56 92 57 93 66 94 58 95 59 96
REMARK SMILES IDX 65 97 67 98 60 99 61 100 62 101 63 102 64 103
REMARK H PARENT 13 14 18 31 88 53 54 64
REMARK Flexibility Score: inf
ROOT
ATOM      1  C   UNL     1       1.520  -8.088  -5.304  1.00  0.00     0.275 C 
ENDROOT
BRANCH   1   2
ATOM      2  O   UNL     1       0.543  -8.433  -4.298  1.00  0.00    -0.458 OA
BRANCH   2   3
ATOM      3  C   UNL     1      -0.257  -7.404  -3.934  1.00  0.00     0.340 C 
ATOM      4  O   UNL     1      -0.275  -6.304  -4.465  1.00  0.00    -0.246 OA
BRANCH   3   5
ATOM      5  C   UNL     1      -1.135  -7.715  -2.785  1.00  0.00     0.087 A 
ATOM      6  C   UNL     1      -0.672  -8.217  -1.556  1.00  0.00     0.056 A 
ATOM      7  C   UNL     1      -1.608  -8.483  -0.541  1.00  0.00     0.031 A 
ATOM      8  C   UNL     1      -2.947  -8.111  -0.684  1.00  0.00     0.048 A 
ATOM      9  C   UNL     1      -2.490  -7.361  -2.920  1.00  0.00     0.064 A 
ATOM     10  C   UNL     1      -3.373  -7.524  -1.863  1.00  0.00     0.116 A 
BRANCH   6  11
ATOM     11  N   UNL     1       0.677  -8.388  -1.179  1.00  0.00    -0.321 N 
ATOM     12  C   UNL     1       1.799  -7.623  -1.443  1.00  0.00     0.255 C 
ATOM     13  O   UNL     1       2.913  -8.083  -1.191  1.00  0.00    -0.269 OA
ATOM     14  H   UNL     1       0.850  -9.189  -0.634  1.00  0.00     0.170 HD
BRANCH  12  15
ATOM     15  C   UNL     1       1.694  -6.224  -1.942  1.00  0.00     0.040 A 
ATOM     16  C   UNL     1       1.419  -3.703  -3.150  1.00  0.00    -0.024 A 
ATOM     17  C   UNL     1       2.567  -4.471  -3.377  1.00  0.00     0.009 A 
ATOM     18  C   UNL     1       0.428  -4.199  -2.298  1.00  0.00     0.009 A 
ATOM     19  C   UNL     1       2.704  -5.728  -2.777  1.00  0.00     0.014 A 
ATOM     20  C   UNL     1       0.602  -5.410  -1.634  1.00  0.00     0.014 A 
BRANCH  16  21
ATOM     21  C   UNL     1       1.260  -2.401  -3.803  1.00  0.00     0.029 C 
ATOM     22  C   UNL     1       0.695   0.740  -0.039  1.00  0.00     0.155 C 
ATOM     23  N   UNL     1       0.767   0.336  -1.432  1.00  0.00    -0.296 N 
ATOM     24  C   UNL     1       0.852  -1.018  -1.701  1.00  0.00     0.265 C 
ATOM     25  C   UNL     1       0.853   1.194  -2.504  1.00  0.00     0.148 C 
ATOM     26  O   UNL     1       0.848  -1.881  -0.846  1.00  0.00    -0.268 OA
ATOM     27  C   UNL     1       1.006  -1.244  -3.173  1.00  0.00     0.081 C 
ATOM     28  S   UNL     1       0.913   0.269  -4.000  1.00  0.00    -0.054 SA
ATOM     29  S   UNL     1       0.963   2.856  -2.466  1.00  0.00    -0.052 S 
ENDBRANCH  16  21
ENDBRANCH  12  15
ENDBRANCH   6  11
BRANCH  10  30
ATOM     30  O   UNL     1      -4.664  -7.098  -1.935  1.00  0.00    -0.508 OA
ATOM     31  H   UNL     1      -5.239  -7.221  -1.206  1.00  0.00     0.293 HD
ENDBRANCH  10  30
ENDBRANCH   3   5
ENDBRANCH   2   3
ENDBRANCH   1   2
BRANCH   1  32
ATOM     32  C   UNL     1       1.049  -8.351  -6.737  1.00  0.00     0.275 C 
BRANCH  32  33
ATOM     33  O   UNL     1      -0.006  -7.455  -7.136  1.00  0.00    -0.458 OA
BRANCH  33  34
ATOM     34  C   UNL     1      -1.249  -7.978  -7.052  1.00  0.00     0.338 C 
ATOM     35  O   UNL     1      -1.550  -9.109  -6.705  1.00  0.00    -0.246 OA
BRANCH  34  36
ATOM     36  C   UNL     1      -2.273  -6.975  -7.379  1.00  0.00     0.060 A 
ATOM     37  C   UNL     1      -2.678  -6.091  -6.385  1.00  0.00     0.016 A 
ATOM     38  C   UNL     1      -3.001  -7.066  -8.562  1.00  0.00     0.016 A 
ATOM     39  C   UNL     1      -3.879  -5.411  -6.488  1.00  0.00     0.010 A 
ATOM     40  C   UNL     1      -4.144  -6.274  -8.724  1.00  0.00     0.010 A 
ATOM     41  C   UNL     1      -4.622  -5.475  -7.667  1.00  0.00    -0.014 A 
BRANCH  41  42
ATOM     42  C   UNL     1      -5.913  -4.747  -7.761  1.00  0.00     0.031 A 
ATOM     43  C   UNL     1      -7.172  -5.504  -8.080  1.00  0.00     0.074 A 
ATOM     44  C   UNL     1      -5.959  -3.418  -7.532  1.00  0.00     0.049 A 
ATOM     45  N   UNL     1      -8.343  -5.047  -8.436  1.00  0.00    -0.248 NA
ATOM     46  C   UNL     1      -7.101  -6.974  -8.004  1.00  0.00     0.031 C 
ATOM     47  C   UNL     1      -4.821  -2.581  -7.139  1.00  0.00     0.029 A 
ATOM     48  N   UNL     1      -7.006  -2.533  -7.595  1.00  0.00    -0.354 N 
ATOM     49  C   UNL     1      -9.122  -6.166  -8.704  1.00  0.00     0.074 A 
ATOM     50  C   UNL     1      -8.297  -7.328  -8.454  1.00  0.00     0.031 C 
ATOM     51  C   UNL     1      -5.235  -1.318  -6.970  1.00  0.00     0.029 A 
ATOM     52  C   UNL     1      -6.636  -1.230  -7.356  1.00  0.00     0.049 A 
ATOM     53  H   UNL     1      -7.932  -2.805  -7.792  1.00  0.00     0.167 HD
ATOM     54  C   UNL     1     -10.405  -6.210  -9.134  1.00  0.00     0.037 A 
ATOM     55  C   UNL     1      -7.323  -0.082  -7.503  1.00  0.00     0.037 A 
ATOM     56  C   UNL     1     -11.223  -5.038  -9.315  1.00  0.00     0.049 A 
ATOM     57  C   UNL     1      -8.734  -0.151  -8.009  1.00  0.00     0.074 A 
ATOM     58  C   UNL     1     -12.541  -4.961  -9.727  1.00  0.00     0.029 A 
ATOM     59  N   UNL     1     -10.802  -3.736  -9.079  1.00  0.00    -0.354 N 
ATOM     60  N   UNL     1      -9.440  -1.210  -8.329  1.00  0.00    -0.248 NA
ATOM     61  C   UNL     1      -9.434   1.124  -8.199  1.00  0.00     0.031 C 
ATOM     62  C   UNL     1     -12.904  -3.611  -9.779  1.00  0.00     0.029 A 
ATOM     63  C   UNL     1     -11.828  -2.849  -9.351  1.00  0.00     0.049 A 
ATOM     64  H   UNL     1      -9.904  -3.482  -8.764  1.00  0.00     0.167 HD
ATOM     65  C   UNL     1     -10.673  -0.729  -8.751  1.00  0.00     0.074 A 
ATOM     66  C   UNL     1     -10.622   0.714  -8.623  1.00  0.00     0.031 C 
ATOM     67  C   UNL     1     -11.748  -1.416  -9.209  1.00  0.00     0.037 A 
BRANCH  54  68
ATOM     68  C   UNL     1     -10.986  -7.552  -9.488  1.00  0.00     0.058 A 
ATOM     69  C   UNL     1     -11.325  -8.506  -8.518  1.00  0.00     0.135 A 
ATOM     70  C   UNL     1     -11.238  -7.872 -10.834  1.00  0.00     0.135 A 
ATOM     71  F   UNL     1     -11.087  -8.264  -7.219  1.00  0.00    -0.206 F 
ATOM     72  C   UNL     1     -11.872  -9.738  -8.868  1.00  0.00     0.059 A 
ATOM     73  C   UNL     1     -11.809  -9.086 -11.205  1.00  0.00     0.059 A 
ATOM     74  F   UNL     1     -10.929  -6.998 -11.805  1.00  0.00    -0.206 F 
ATOM     75  C   UNL     1     -12.110 -10.018 -10.216  1.00  0.00     0.060 A 
BRANCH  75  76
ATOM     76  S   UNL     1     -12.830 -11.615 -10.655  1.00  0.00     0.124 S 
ATOM     77  O   UNL     1     -11.700 -12.514 -10.437  1.00  0.00    -0.237 OA
ATOM     78  O   UNL     1     -13.928 -11.736  -9.702  1.00  0.00    -0.237 OA
ATOM     79  O   UNL     1     -13.229 -11.437 -12.047  1.00  0.00    -0.744 OA
ENDBRANCH  75  76
ENDBRANCH  54  68
BRANCH  55  80
ATOM     80  C   UNL     1      -6.655   1.222  -7.240  1.00  0.00     0.058 A 
ATOM     81  C   UNL     1      -7.037   2.028  -6.160  1.00  0.00     0.135 A 
ATOM     82  C   UNL     1      -5.600   1.673  -8.051  1.00  0.00     0.135 A 
ATOM     83  F   UNL     1      -8.043   1.645  -5.359  1.00  0.00    -0.206 F 
ATOM     84  C   UNL     1      -6.404   3.240  -5.896  1.00  0.00     0.059 A 
ATOM     85  C   UNL     1      -4.931   2.864  -7.790  1.00  0.00     0.059 A 
ATOM     86  F   UNL     1      -5.184   0.931  -9.090  1.00  0.00    -0.206 F 
ATOM     87  C   UNL     1      -5.349   3.646  -6.716  1.00  0.00     0.060 A 
BRANCH  87  88
ATOM     88  S   UNL     1      -4.499   5.193  -6.335  1.00  0.00     0.124 S 
ATOM     89  O   UNL     1      -5.472   6.180  -6.789  1.00  0.00    -0.237 OA
ATOM     90  O   UNL     1      -4.317   5.094  -4.890  1.00  0.00    -0.237 OA
ATOM     91  O   UNL     1      -3.273   5.103  -7.122  1.00  0.00    -0.744 OA
ENDBRANCH  87  88
ENDBRANCH  55  80
BRANCH  67  92
ATOM     92  C   UNL     1     -12.964  -0.613  -9.570  1.00  0.00     0.058 A 
ATOM     93  C   UNL     1     -13.015   0.158 -10.742  1.00  0.00     0.135 A 
ATOM     94  C   UNL     1     -14.105  -0.651  -8.754  1.00  0.00     0.135 A 
ATOM     95  F   UNL     1     -11.945   0.233 -11.548  1.00  0.00    -0.206 F 
ATOM     96  C   UNL     1     -14.151   0.883 -11.081  1.00  0.00     0.059 A 
ATOM     97  C   UNL     1     -15.261   0.045  -9.088  1.00  0.00     0.059 A 
ATOM     98  F   UNL     1     -14.107  -1.381  -7.627  1.00  0.00    -0.206 F 
ATOM     99  C   UNL     1     -15.270   0.819 -10.247  1.00  0.00     0.060 A 
BRANCH  99 100
ATOM    100  S   UNL     1     -16.750   1.740 -10.714  1.00  0.00     0.124 S 
ATOM    101  O   UNL     1     -16.357   3.108 -10.395  1.00  0.00    -0.237 OA
ATOM    102  O   UNL     1     -16.876   1.431 -12.135  1.00  0.00    -0.237 OA
ATOM    103  O   UNL     1     -17.788   1.169  -9.861  1.00  0.00    -0.744 OA
ENDBRANCH  99 100
ENDBRANCH  67  92
ENDBRANCH  41  42
ENDBRANCH  34  36
ENDBRANCH  33  34
ENDBRANCH  32  33
ENDBRANCH   1  32
TORSDOF 18
