REMARK SMILES Cn1cc(C(=O)NCCc2ccccc2)c(C(=O)OCCOC(=O)c2ccc(-c3c4nc(c(-c5c(F)cc(S(=O)(=O)[O-])cc5F)c5ccc([nH]5)c(-c5c(F)cc(S(=O)(=O)[O-])cc5F)c5nc(c(-c6c(F)cc(S(=O)(=O)[O-])cc6F)c6ccc3[nH]6)C=C5)C=C4)cc2)n1
REMARK SMILES IDX 20 1 19 2 17 3 18 4 16 5 1 6 2 7 3 8 91 9 4 10 5 11 6 12
REMARK SMILES IDX 7 13 8 15 9 16 10 17 11 18 15 19 12 20 14 21 13 22 21 23
REMARK SMILES IDX 22 24 23 25 24 26 25 27 26 28 90 29 27 30 89 31 28 32 29 33
REMARK SMILES IDX 30 34 83 35 31 36 88 37 82 38 84 39 32 40 87 41 81 42 80 43
REMARK SMILES IDX 33 45 67 46 46 47 66 48 47 49 50 50 65 51 85 52 48 53 49 54
REMARK SMILES IDX 64 56 86 57 51 58 34 59 35 60 44 61 36 62 37 63 43 64 45 65
REMARK SMILES IDX 38 66 39 67 40 68 41 69 42 70 68 71 69 72 78 73 70 74 71 75
REMARK SMILES IDX 77 76 79 77 72 78 73 79 74 80 75 81 76 82 52 83 53 84 62 85
REMARK SMILES IDX 54 86 55 87 61 88 63 89 56 90 57 91 58 92 59 93 60 94
REMARK H PARENT 7 14 84 44 50 55
REMARK Flexibility Score: inf
ROOT
ATOM      1  C   UNL     1       4.602   2.159  -0.011  1.00  0.00     0.275 C 
ENDROOT
BRANCH   1   2
ATOM      2  O   UNL     1       3.544   1.187  -0.046  1.00  0.00    -0.457 OA
BRANCH   2   3
ATOM      3  C   UNL     1       2.622   1.228   0.964  1.00  0.00     0.359 C 
ATOM      4  O   UNL     1       2.673   1.997   1.913  1.00  0.00    -0.244 OA
BRANCH   3   5
ATOM      5  C   UNL     1       1.484   0.331   0.694  1.00  0.00     0.183 A 
ATOM      6  C   UNL     1      -1.934   0.043   0.020  1.00  0.00     0.173 C 
ATOM      7  N   UNL     1      -0.522  -0.176   0.228  1.00  0.00    -0.274 N 
ATOM      8  C   UNL     1       0.199  -1.284  -0.103  1.00  0.00     0.123 A 
ATOM      9  N   UNL     1       0.218   0.786   0.781  1.00  0.00    -0.165 NA
ATOM     10  C   UNL     1       1.499  -1.050   0.311  1.00  0.00     0.092 A 
BRANCH  10  11
ATOM     11  C   UNL     1       2.655  -1.927   0.362  1.00  0.00     0.255 C 
ATOM     12  O   UNL     1       3.800  -1.492   0.488  1.00  0.00    -0.269 OA
ATOM     13  N   UNL     1       2.526  -3.288   0.376  1.00  0.00    -0.352 N 
ATOM     14  H   UNL     1       3.380  -3.759   0.506  1.00  0.00     0.163 HD
BRANCH  13  15
ATOM     15  C   UNL     1       1.391  -4.185   0.237  1.00  0.00     0.121 C 
BRANCH  15  16
ATOM     16  C   UNL     1       1.299  -4.752  -1.187  1.00  0.00     0.057 C 
BRANCH  16  17
ATOM     17  C   UNL     1       2.358  -5.811  -1.402  1.00  0.00    -0.046 A 
ATOM     18  C   UNL     1       2.043  -7.166  -1.233  1.00  0.00     0.004 A 
ATOM     19  C   UNL     1       3.687  -5.450  -1.669  1.00  0.00     0.004 A 
ATOM     20  C   UNL     1       3.044  -8.136  -1.295  1.00  0.00     0.000 A 
ATOM     21  C   UNL     1       4.688  -6.420  -1.713  1.00  0.00     0.000 A 
ATOM     22  C   UNL     1       4.367  -7.762  -1.521  1.00  0.00     0.000 A 
ENDBRANCH  16  17
ENDBRANCH  15  16
ENDBRANCH  13  15
ENDBRANCH  10  11
ENDBRANCH   3   5
ENDBRANCH   2   3
ENDBRANCH   1   2
BRANCH   1  23
ATOM     23  C   UNL     1       4.593   2.984  -1.300  1.00  0.00     0.275 C 
BRANCH  23  24
ATOM     24  O   UNL     1       3.423   3.824  -1.360  1.00  0.00    -0.458 OA
BRANCH  24  25
ATOM     25  C   UNL     1       2.380   3.307  -2.051  1.00  0.00     0.338 C 
ATOM     26  O   UNL     1       2.350   2.261  -2.679  1.00  0.00    -0.246 OA
BRANCH  25  27
ATOM     27  C   UNL     1       1.190   4.143  -1.830  1.00  0.00     0.060 A 
ATOM     28  C   UNL     1       0.158   3.596  -1.071  1.00  0.00     0.016 A 
ATOM     29  C   UNL     1       1.043   5.400  -2.413  1.00  0.00     0.016 A 
ATOM     30  C   UNL     1      -1.035   4.285  -0.893  1.00  0.00     0.010 A 
ATOM     31  C   UNL     1      -0.156   6.102  -2.228  1.00  0.00     0.010 A 
ATOM     32  C   UNL     1      -1.208   5.543  -1.478  1.00  0.00    -0.014 A 
BRANCH  32  33
ATOM     33  C   UNL     1      -2.514   6.235  -1.343  1.00  0.00     0.031 A 
ATOM     34  C   UNL     1      -3.426   6.344  -2.533  1.00  0.00     0.074 A 
ATOM     35  C   UNL     1      -2.897   6.723  -0.148  1.00  0.00     0.049 A 
ATOM     36  N   UNL     1      -4.565   6.976  -2.646  1.00  0.00    -0.248 NA
ATOM     37  C   UNL     1      -3.002   5.647  -3.758  1.00  0.00     0.031 C 
ATOM     38  C   UNL     1      -2.123   6.627   1.092  1.00  0.00     0.029 A 
ATOM     39  N   UNL     1      -4.035   7.394   0.222  1.00  0.00    -0.354 N 
ATOM     40  C   UNL     1      -4.979   6.782  -3.958  1.00  0.00     0.074 A 
ATOM     41  C   UNL     1      -3.966   5.976  -4.606  1.00  0.00     0.031 C 
ATOM     42  C   UNL     1      -2.810   7.215   2.085  1.00  0.00     0.029 A 
ATOM     43  C   UNL     1      -4.047   7.772   1.544  1.00  0.00     0.049 A 
ATOM     44  H   UNL     1      -4.774   7.587  -0.400  1.00  0.00     0.167 HD
ATOM     45  C   UNL     1      -6.102   7.236  -4.564  1.00  0.00     0.037 A 
ATOM     46  C   UNL     1      -4.938   8.510   2.234  1.00  0.00     0.037 A 
ATOM     47  C   UNL     1      -7.118   8.014  -3.904  1.00  0.00     0.049 A 
ATOM     48  C   UNL     1      -6.157   9.037   1.527  1.00  0.00     0.074 A 
ATOM     49  C   UNL     1      -8.296   8.516  -4.431  1.00  0.00     0.029 A 
ATOM     50  N   UNL     1      -7.082   8.396  -2.571  1.00  0.00    -0.354 N 
ATOM     51  N   UNL     1      -6.523   8.867   0.278  1.00  0.00    -0.248 NA
ATOM     52  C   UNL     1      -7.080   9.864   2.317  1.00  0.00     0.031 C 
ATOM     53  C   UNL     1      -8.956   9.229  -3.424  1.00  0.00     0.029 A 
ATOM     54  C   UNL     1      -8.209   9.139  -2.261  1.00  0.00     0.049 A 
ATOM     55  H   UNL     1      -6.361   8.173  -1.939  1.00  0.00     0.167 HD
ATOM     56  C   UNL     1      -7.725   9.551   0.138  1.00  0.00     0.074 A 
ATOM     57  C   UNL     1      -8.033  10.125   1.432  1.00  0.00     0.031 C 
ATOM     58  C   UNL     1      -8.502   9.694  -0.963  1.00  0.00     0.037 A 
BRANCH  45  59
ATOM     59  C   UNL     1      -6.280   6.929  -6.023  1.00  0.00     0.058 A 
ATOM     60  C   UNL     1      -6.648   5.651  -6.471  1.00  0.00     0.135 A 
ATOM     61  C   UNL     1      -6.122   7.941  -6.984  1.00  0.00     0.135 A 
ATOM     62  F   UNL     1      -6.794   4.644  -5.596  1.00  0.00    -0.206 F 
ATOM     63  C   UNL     1      -6.838   5.383  -7.824  1.00  0.00     0.059 A 
ATOM     64  C   UNL     1      -6.326   7.700  -8.339  1.00  0.00     0.059 A 
ATOM     65  F   UNL     1      -5.767   9.180  -6.608  1.00  0.00    -0.206 F 
ATOM     66  C   UNL     1      -6.674   6.415  -8.750  1.00  0.00     0.060 A 
BRANCH  66  67
ATOM     67  S   UNL     1      -6.936   6.056 -10.501  1.00  0.00     0.124 S 
ATOM     68  O   UNL     1      -5.723   5.314 -10.830  1.00  0.00    -0.237 OA
ATOM     69  O   UNL     1      -8.169   5.275 -10.480  1.00  0.00    -0.237 OA
ATOM     70  O   UNL     1      -7.047   7.380 -11.106  1.00  0.00    -0.744 OA
ENDBRANCH  66  67
ENDBRANCH  45  59
BRANCH  46  71
ATOM     71  C   UNL     1      -4.694   8.825   3.667  1.00  0.00     0.058 A 
ATOM     72  C   UNL     1      -5.488   8.265   4.678  1.00  0.00     0.135 A 
ATOM     73  C   UNL     1      -3.664   9.697   4.051  1.00  0.00     0.135 A 
ATOM     74  F   UNL     1      -6.492   7.434   4.361  1.00  0.00    -0.206 F 
ATOM     75  C   UNL     1      -5.280   8.571   6.020  1.00  0.00     0.059 A 
ATOM     76  C   UNL     1      -3.421   9.999   5.387  1.00  0.00     0.059 A 
ATOM     77  F   UNL     1      -2.871  10.252   3.121  1.00  0.00    -0.206 F 
ATOM     78  C   UNL     1      -4.244   9.441   6.364  1.00  0.00     0.060 A 
BRANCH  78  79
ATOM     79  S   UNL     1      -3.957   9.809   8.109  1.00  0.00     0.124 S 
ATOM     80  O   UNL     1      -5.021  10.767   8.384  1.00  0.00    -0.237 OA
ATOM     81  O   UNL     1      -4.102   8.497   8.732  1.00  0.00    -0.237 OA
ATOM     82  O   UNL     1      -2.601  10.350   8.117  1.00  0.00    -0.744 OA
ENDBRANCH  78  79
ENDBRANCH  46  71
BRANCH  58  83
ATOM     83  C   UNL     1      -9.776  10.475  -0.810  1.00  0.00     0.058 A 
ATOM     84  C   UNL     1      -9.772  11.875  -0.724  1.00  0.00     0.135 A 
ATOM     85  C   UNL     1     -11.016   9.817  -0.798  1.00  0.00     0.135 A 
ATOM     86  F   UNL     1      -8.612  12.549  -0.725  1.00  0.00    -0.206 F 
ATOM     87  C   UNL     1     -10.956  12.597  -0.612  1.00  0.00     0.059 A 
ATOM     88  C   UNL     1     -12.213  10.520  -0.709  1.00  0.00     0.059 A 
ATOM     89  F   UNL     1     -11.072   8.479  -0.887  1.00  0.00    -0.206 F 
ATOM     90  C   UNL     1     -12.172  11.910  -0.605  1.00  0.00     0.060 A 
BRANCH  90  91
ATOM     91  S   UNL     1     -13.705  12.858  -0.495  1.00  0.00     0.124 S 
ATOM     92  O   UNL     1     -13.738  13.198   0.923  1.00  0.00    -0.237 OA
ATOM     93  O   UNL     1     -13.455  13.969  -1.408  1.00  0.00    -0.237 OA
ATOM     94  O   UNL     1     -14.722  11.909  -0.939  1.00  0.00    -0.744 OA
ENDBRANCH  90  91
ENDBRANCH  58  83
ENDBRANCH  32  33
ENDBRANCH  25  27
ENDBRANCH  24  25
ENDBRANCH  23  24
ENDBRANCH   1  23
TORSDOF 18
