REMARK SMILES COc1ccc(-c2cccc(Cl)c2C(=O)OCCOC(=O)c2ccc(-c3c4nc(c(-c5c(F)cc(S(=O)(=O)[O-])cc5F)c5ccc([nH]5)c(-c5c(F)cc(S(=O)(=O)[O-])cc5F)c5nc(c(-c6c(F)cc(S(=O)(=O)[O-])cc6F)c6ccc3[nH]6)C=C5)C=C4)cc2)c(F)c1
REMARK SMILES IDX 18 1 17 2 16 3 14 4 15 5 13 6 7 7 8 8 9 9 11 10 10 11 12 12
REMARK SMILES IDX 6 13 3 14 4 15 90 16 5 17 88 18 89 19 2 20 1 21 19 22 20 23
REMARK SMILES IDX 21 24 22 25 23 26 87 27 24 28 86 29 25 30 26 31 27 32 80 33
REMARK SMILES IDX 28 34 85 35 79 36 81 37 29 38 84 39 78 40 77 41 30 43 64 44
REMARK SMILES IDX 43 45 63 46 44 47 47 48 62 49 82 50 45 51 46 52 61 54 83 55
REMARK SMILES IDX 48 56 31 57 32 58 41 59 33 60 34 61 40 62 42 63 35 64 36 65
REMARK SMILES IDX 37 66 38 67 39 68 65 69 66 70 75 71 67 72 68 73 74 74 76 75
REMARK SMILES IDX 69 76 70 77 71 78 72 79 73 80 49 81 50 82 59 83 51 84 52 85
REMARK SMILES IDX 58 86 60 87 53 88 54 89 55 90 56 91 57 92
REMARK H PARENT 81 42 47 53
REMARK Flexibility Score: inf
ROOT
ATOM      1  C   UNL     1       5.921   0.741   6.577  1.00  0.00     0.275 C 
ENDROOT
BRANCH   1   2
ATOM      2  C   UNL     1       4.980   0.351   7.711  1.00  0.00     0.275 C 
BRANCH   2   3
ATOM      3  O   UNL     1       4.475  -0.987   7.499  1.00  0.00    -0.458 OA
BRANCH   3   4
ATOM      4  C   UNL     1       3.127  -1.095   7.392  1.00  0.00     0.340 C 
ATOM      5  O   UNL     1       2.325  -0.178   7.447  1.00  0.00    -0.246 OA
BRANCH   4   6
ATOM      6  C   UNL     1       2.722  -2.512   7.268  1.00  0.00     0.086 A 
ATOM      7  C   UNL     1       2.097  -3.012   6.090  1.00  0.00     0.001 A 
ATOM      8  C   UNL     1       1.550  -4.303   6.127  1.00  0.00     0.010 A 
ATOM      9  C   UNL     1       1.611  -5.076   7.291  1.00  0.00     0.002 A 
ATOM     10  C   UNL     1       2.797  -3.303   8.426  1.00  0.00     0.056 A 
ATOM     11  C   UNL     1       2.239  -4.581   8.433  1.00  0.00     0.021 A 
ATOM     12  Cl  UNL     1       3.488  -2.738   9.912  1.00  0.00    -0.083 Cl
BRANCH   7  13
ATOM     13  C   UNL     1       1.834  -2.162   4.921  1.00  0.00     0.019 A 
ATOM     14  C   UNL     1       1.339   0.691   2.582  1.00  0.00     0.121 A 
ATOM     15  C   UNL     1       2.624  -0.493   2.203  1.00  0.00     0.047 A 
ATOM     16  C   UNL     1       0.381   0.456   4.022  1.00  0.00     0.086 A 
ATOM     17  C   UNL     1       2.878  -2.081   3.437  1.00  0.00     0.015 A 
ATOM     18  C   UNL     1       0.613  -0.896   5.132  1.00  0.00     0.134 A 
ATOM     19  F   UNL     1      -0.209  -0.981   6.190  1.00  0.00    -0.206 F 
BRANCH  14  20
ATOM     20  O   UNL     1       0.973   1.715   1.759  1.00  0.00    -0.497 OA
ATOM     21  C   UNL     1       1.339   1.515   0.397  1.00  0.00     0.278 C 
ENDBRANCH  14  20
ENDBRANCH   7  13
ENDBRANCH   4   6
ENDBRANCH   3   4
ENDBRANCH   2   3
ENDBRANCH   1   2
BRANCH   1  22
ATOM     22  O   UNL     1       5.164   0.772   5.355  1.00  0.00    -0.458 OA
BRANCH  22  23
ATOM     23  C   UNL     1       5.305  -0.343   4.615  1.00  0.00     0.338 C 
ATOM     24  O   UNL     1       6.113  -1.245   4.772  1.00  0.00    -0.246 OA
BRANCH  23  25
ATOM     25  C   UNL     1       4.256  -0.447   3.603  1.00  0.00     0.060 A 
ATOM     26  C   UNL     1       2.527  -0.335   4.079  1.00  0.00     0.016 A 
ATOM     27  C   UNL     1       4.673  -1.430   2.212  1.00  0.00     0.016 A 
ATOM     28  C   UNL     1       1.181  -1.406   3.010  1.00  0.00     0.010 A 
ATOM     29  C   UNL     1       3.474  -2.303   1.239  1.00  0.00     0.010 A 
ATOM     30  C   UNL     1       1.728  -2.329   1.562  1.00  0.00    -0.014 A 
BRANCH  30  31
ATOM     31  C   UNL     1       0.782  -2.700   0.411  1.00  0.00     0.031 A 
ATOM     32  C   UNL     1       1.253  -3.649  -0.686  1.00  0.00     0.074 A 
ATOM     33  C   UNL     1      -0.375  -2.024   0.174  1.00  0.00     0.049 A 
ATOM     34  N   UNL     1       0.849  -3.761  -1.931  1.00  0.00    -0.248 NA
ATOM     35  C   UNL     1       2.338  -4.582  -0.343  1.00  0.00     0.031 C 
ATOM     36  C   UNL     1      -1.101  -1.148   1.085  1.00  0.00     0.029 A 
ATOM     37  N   UNL     1      -1.118  -1.894  -0.990  1.00  0.00    -0.354 N 
ATOM     38  C   UNL     1       1.644  -4.750  -2.510  1.00  0.00     0.074 A 
ATOM     39  C   UNL     1       2.642  -5.104  -1.525  1.00  0.00     0.031 C 
ATOM     40  C   UNL     1      -2.043  -0.456   0.445  1.00  0.00     0.029 A 
ATOM     41  C   UNL     1      -2.065  -0.886  -0.931  1.00  0.00     0.049 A 
ATOM     42  H   UNL     1      -0.986  -2.464  -1.781  1.00  0.00     0.167 HD
ATOM     43  C   UNL     1       1.507  -5.377  -3.708  1.00  0.00     0.037 A 
ATOM     44  C   UNL     1      -2.909  -0.347  -1.830  1.00  0.00     0.037 A 
ATOM     45  C   UNL     1       0.434  -5.118  -4.636  1.00  0.00     0.049 A 
ATOM     46  C   UNL     1      -3.033  -1.006  -3.157  1.00  0.00     0.074 A 
ATOM     47  C   UNL     1       0.129  -5.791  -5.809  1.00  0.00     0.029 A 
ATOM     48  N   UNL     1      -0.530  -4.133  -4.484  1.00  0.00    -0.354 N 
ATOM     49  N   UNL     1      -2.301  -1.971  -3.651  1.00  0.00    -0.248 NA
ATOM     50  C   UNL     1      -4.146  -0.578  -4.011  1.00  0.00     0.031 C 
ATOM     51  C   UNL     1      -1.002  -5.196  -6.377  1.00  0.00     0.029 A 
ATOM     52  C   UNL     1      -1.424  -4.176  -5.542  1.00  0.00     0.049 A 
ATOM     53  H   UNL     1      -0.574  -3.497  -3.733  1.00  0.00     0.167 HD
ATOM     54  C   UNL     1      -2.911  -2.323  -4.843  1.00  0.00     0.074 A 
ATOM     55  C   UNL     1      -4.057  -1.450  -5.006  1.00  0.00     0.031 C 
ATOM     56  C   UNL     1      -2.562  -3.306  -5.703  1.00  0.00     0.037 A 
BRANCH  43  57
ATOM     57  C   UNL     1       2.474  -6.491  -4.047  1.00  0.00     0.058 A 
ATOM     58  C   UNL     1       3.340  -6.399  -5.150  1.00  0.00     0.135 A 
ATOM     59  C   UNL     1       2.483  -7.694  -3.318  1.00  0.00     0.135 A 
ATOM     60  F   UNL     1       3.369  -5.284  -5.897  1.00  0.00    -0.206 F 
ATOM     61  C   UNL     1       4.179  -7.452  -5.512  1.00  0.00     0.059 A 
ATOM     62  C   UNL     1       3.338  -8.744  -3.640  1.00  0.00     0.059 A 
ATOM     63  F   UNL     1       1.679  -7.845  -2.254  1.00  0.00    -0.206 F 
ATOM     64  C   UNL     1       4.174  -8.619  -4.747  1.00  0.00     0.060 A 
BRANCH  64  65
ATOM     65  S   UNL     1       5.299  -9.960  -5.195  1.00  0.00     0.124 S 
ATOM     66  O   UNL     1       4.720 -10.434  -6.447  1.00  0.00    -0.237 OA
ATOM     67  O   UNL     1       6.576  -9.263  -5.305  1.00  0.00    -0.237 OA
ATOM     68  O   UNL     1       5.194 -10.880  -4.065  1.00  0.00    -0.744 OA
ENDBRANCH  64  65
ENDBRANCH  43  57
BRANCH  44  69
ATOM     69  C   UNL     1      -3.811   0.765  -1.415  1.00  0.00     0.058 A 
ATOM     70  C   UNL     1      -3.339   2.079  -1.261  1.00  0.00     0.135 A 
ATOM     71  C   UNL     1      -5.145   0.506  -1.065  1.00  0.00     0.135 A 
ATOM     72  F   UNL     1      -2.060   2.373  -1.544  1.00  0.00    -0.206 F 
ATOM     73  C   UNL     1      -4.161   3.096  -0.778  1.00  0.00     0.059 A 
ATOM     74  C   UNL     1      -5.989   1.508  -0.596  1.00  0.00     0.059 A 
ATOM     75  F   UNL     1      -5.633  -0.739  -1.173  1.00  0.00    -0.206 F 
ATOM     76  C   UNL     1      -5.486   2.800  -0.449  1.00  0.00     0.060 A 
BRANCH  76  77
ATOM     77  S   UNL     1      -6.541   4.128   0.176  1.00  0.00     0.124 S 
ATOM     78  O   UNL     1      -5.894   4.448   1.444  1.00  0.00    -0.237 OA
ATOM     79  O   UNL     1      -6.415   5.133  -0.874  1.00  0.00    -0.237 OA
ATOM     80  O   UNL     1      -7.852   3.496   0.284  1.00  0.00    -0.744 OA
ENDBRANCH  76  77
ENDBRANCH  44  69
BRANCH  56  81
ATOM     81  C   UNL     1      -3.440  -3.512  -6.898  1.00  0.00     0.058 A 
ATOM     82  C   UNL     1      -4.242  -4.659  -7.000  1.00  0.00     0.135 A 
ATOM     83  C   UNL     1      -3.439  -2.606  -7.968  1.00  0.00     0.135 A 
ATOM     84  F   UNL     1      -4.284  -5.551  -5.997  1.00  0.00    -0.206 F 
ATOM     85  C   UNL     1      -4.990  -4.917  -8.141  1.00  0.00     0.059 A 
ATOM     86  C   UNL     1      -4.202  -2.829  -9.107  1.00  0.00     0.059 A 
ATOM     87  F   UNL     1      -2.707  -1.482  -7.901  1.00  0.00    -0.206 F 
ATOM     88  C   UNL     1      -4.956  -4.000  -9.193  1.00  0.00     0.060 A 
BRANCH  88  89
ATOM     89  S   UNL     1      -5.913  -4.361 -10.678  1.00  0.00     0.124 S 
ATOM     90  O   UNL     1      -5.173  -5.486 -11.241  1.00  0.00    -0.237 OA
ATOM     91  O   UNL     1      -7.228  -4.676 -10.128  1.00  0.00    -0.237 OA
ATOM     92  O   UNL     1      -5.840  -3.118 -11.439  1.00  0.00    -0.744 OA
ENDBRANCH  88  89
ENDBRANCH  56  81
ENDBRANCH  30  31
ENDBRANCH  23  25
ENDBRANCH  22  23
ENDBRANCH   1  22
TORSDOF 16
