REMARK SMILES O=C(Cc1c[nH]c(=S)n(-c2ccc(Cl)c(C(F)(F)F)c2)c1=O)OCCOC(=O)c1ccc(-c2c3nc(c(-c4c(F)cc(S(=O)(=O)[O-])cc4F)c4ccc([nH]4)c(-c4c(F)cc(S(=O)(=O)[O-])cc4F)c4nc(c(-c5c(F)cc(S(=O)(=O)[O-])cc5F)c5ccc2[nH]5)C=C4)C=C3)cc1
REMARK SMILES IDX 24 1 23 2 2 3 1 4 3 5 4 6 5 7 21 8 6 9 9 10 22 11 7 12 8 14
REMARK SMILES IDX 10 15 11 16 20 17 12 18 15 19 13 20 14 21 16 22 17 23 18 24
REMARK SMILES IDX 19 25 25 26 26 27 27 28 28 29 29 30 30 31 94 32 31 33 93 34
REMARK SMILES IDX 32 35 33 36 34 37 87 38 35 39 92 40 86 41 88 42 36 43 91 44
REMARK SMILES IDX 85 45 84 46 37 48 71 49 50 50 70 51 51 52 54 53 69 54 89 55
REMARK SMILES IDX 52 56 53 57 68 59 90 60 55 61 38 62 39 63 48 64 40 65 41 66
REMARK SMILES IDX 47 67 49 68 42 69 43 70 44 71 45 72 46 73 72 74 73 75 82 76
REMARK SMILES IDX 74 77 75 78 81 79 83 80 76 81 77 82 78 83 79 84 80 85 56 86
REMARK SMILES IDX 57 87 66 88 58 89 59 90 65 91 67 92 60 93 61 94 62 95 63 96
REMARK SMILES IDX 64 97
REMARK H PARENT 6 13 88 47 54 58
REMARK Flexibility Score: inf
ROOT
ATOM      1  C   UNL     1       4.112   1.283  -0.601  1.00  0.00     0.274 C 
ENDROOT
BRANCH   1   2
ATOM      2  O   UNL     1       2.798   0.725  -0.793  1.00  0.00    -0.462 OA
BRANCH   2   3
ATOM      3  C   UNL     1       2.534  -0.586  -0.550  1.00  0.00     0.310 C 
ATOM      4  O   UNL     1       1.758  -1.201  -1.274  1.00  0.00    -0.252 OA
BRANCH   3   5
ATOM      5  C   UNL     1       3.180  -1.203   0.676  1.00  0.00     0.165 C 
BRANCH   5   6
ATOM      6  C   UNL     1       4.070  -2.345   0.322  1.00  0.00     0.045 A 
ATOM      7  C   UNL     1       5.400  -2.259   0.240  1.00  0.00     0.095 A 
ATOM      8  C   UNL     1       3.433  -3.676   0.192  1.00  0.00     0.262 A 
ATOM      9  N   UNL     1       6.160  -3.341  -0.066  1.00  0.00    -0.338 N 
ATOM     10  N   UNL     1       4.274  -4.742  -0.152  1.00  0.00    -0.253 N 
ATOM     11  O   UNL     1       2.239  -3.773   0.479  1.00  0.00    -0.269 OA
ATOM     12  C   UNL     1       5.660  -4.597  -0.313  1.00  0.00     0.184 A 
ATOM     13  H   UNL     1       7.136  -3.217  -0.115  1.00  0.00     0.168 HD
ATOM     14  S   UNL     1       6.779  -5.736  -0.833  1.00  0.00    -0.040 S 
BRANCH  10  15
ATOM     15  C   UNL     1       3.643  -6.023  -0.186  1.00  0.00     0.052 A 
ATOM     16  C   UNL     1       2.504  -6.228  -0.971  1.00  0.00     0.028 A 
ATOM     17  C   UNL     1       4.051  -7.025   0.700  1.00  0.00     0.041 A 
ATOM     18  C   UNL     1       1.792  -7.421  -0.876  1.00  0.00     0.023 A 
ATOM     19  C   UNL     1       3.328  -8.227   0.820  1.00  0.00     0.076 A 
ATOM     20  C   UNL     1       2.196  -8.415   0.020  1.00  0.00     0.053 A 
ATOM     21  Cl  UNL     1       1.221  -9.831   0.108  1.00  0.00    -0.084 Cl
BRANCH  19  22
ATOM     22  C   UNL     1       3.728  -9.215   1.883  1.00  0.00     0.417 C 
ATOM     23  F   UNL     1       2.838  -9.233   2.899  1.00  0.00    -0.166 F 
ATOM     24  F   UNL     1       3.897 -10.476   1.417  1.00  0.00    -0.166 F 
ATOM     25  F   UNL     1       4.924  -8.884   2.461  1.00  0.00    -0.166 F 
ENDBRANCH  19  22
ENDBRANCH  10  15
ENDBRANCH   5   6
ENDBRANCH   3   5
ENDBRANCH   2   3
ENDBRANCH   1   2
BRANCH   1  26
ATOM     26  C   UNL     1       4.134   2.341   0.504  1.00  0.00     0.275 C 
BRANCH  26  27
ATOM     27  O   UNL     1       3.857   1.753   1.788  1.00  0.00    -0.458 OA
BRANCH  27  28
ATOM     28  C   UNL     1       2.555   1.787   2.184  1.00  0.00     0.338 C 
ATOM     29  O   UNL     1       1.652   2.381   1.621  1.00  0.00    -0.246 OA
BRANCH  28  30
ATOM     30  C   UNL     1       2.343   0.826   3.300  1.00  0.00     0.060 A 
ATOM     31  C   UNL     1       3.361   0.487   4.198  1.00  0.00     0.016 A 
ATOM     32  C   UNL     1       1.090   0.205   3.408  1.00  0.00     0.016 A 
ATOM     33  C   UNL     1       3.116  -0.452   5.208  1.00  0.00     0.010 A 
ATOM     34  C   UNL     1       0.845  -0.728   4.423  1.00  0.00     0.010 A 
ATOM     35  C   UNL     1       1.850  -1.053   5.342  1.00  0.00    -0.014 A 
BRANCH  35  36
ATOM     36  C   UNL     1       1.546  -1.869   6.547  1.00  0.00     0.031 A 
ATOM     37  C   UNL     1       1.470  -3.369   6.511  1.00  0.00     0.074 A 
ATOM     38  C   UNL     1       1.335  -1.220   7.710  1.00  0.00     0.049 A 
ATOM     39  N   UNL     1       1.345  -4.200   7.516  1.00  0.00    -0.248 NA
ATOM     40  C   UNL     1       1.540  -4.021   5.196  1.00  0.00     0.031 C 
ATOM     41  C   UNL     1       1.332   0.236   7.865  1.00  0.00     0.029 A 
ATOM     42  N   UNL     1       1.097  -1.691   8.976  1.00  0.00    -0.354 N 
ATOM     43  C   UNL     1       1.336  -5.474   6.963  1.00  0.00     0.074 A 
ATOM     44  C   UNL     1       1.439  -5.305   5.527  1.00  0.00     0.031 C 
ATOM     45  C   UNL     1       1.141   0.539   9.158  1.00  0.00     0.029 A 
ATOM     46  C   UNL     1       0.988  -0.698   9.921  1.00  0.00     0.049 A 
ATOM     47  H   UNL     1       1.012  -2.648   9.189  1.00  0.00     0.167 HD
ATOM     48  C   UNL     1       1.263  -6.668   7.598  1.00  0.00     0.037 A 
ATOM     49  C   UNL     1       0.802  -0.765  11.253  1.00  0.00     0.037 A 
ATOM     50  C   UNL     1       1.156  -6.836   9.027  1.00  0.00     0.049 A 
ATOM     51  C   UNL     1       0.710  -2.103  11.928  1.00  0.00     0.074 A 
ATOM     52  C   UNL     1       1.155  -8.017   9.752  1.00  0.00     0.029 A 
ATOM     53  N   UNL     1       1.010  -5.808   9.945  1.00  0.00    -0.354 N 
ATOM     54  N   UNL     1       0.813  -3.297  11.398  1.00  0.00    -0.248 NA
ATOM     55  C   UNL     1       0.483  -2.104  13.380  1.00  0.00     0.031 C 
ATOM     56  C   UNL     1       0.965  -7.706  11.102  1.00  0.00     0.029 A 
ATOM     57  C   UNL     1       0.887  -6.329  11.225  1.00  0.00     0.049 A 
ATOM     58  H   UNL     1       0.997  -4.849   9.723  1.00  0.00     0.167 HD
ATOM     59  C   UNL     1       0.676  -4.192  12.453  1.00  0.00     0.074 A 
ATOM     60  C   UNL     1       0.497  -3.403  13.654  1.00  0.00     0.031 C 
ATOM     61  C   UNL     1       0.700  -5.546  12.421  1.00  0.00     0.037 A 
BRANCH  48  62
ATOM     62  C   UNL     1       1.323  -7.921   6.771  1.00  0.00     0.058 A 
ATOM     63  C   UNL     1       2.550  -8.416   6.306  1.00  0.00     0.135 A 
ATOM     64  C   UNL     1       0.176  -8.703   6.563  1.00  0.00     0.135 A 
ATOM     65  F   UNL     1       3.674  -7.700   6.471  1.00  0.00    -0.206 F 
ATOM     66  C   UNL     1       2.638  -9.650   5.670  1.00  0.00     0.059 A 
ATOM     67  C   UNL     1       0.241  -9.938   5.924  1.00  0.00     0.059 A 
ATOM     68  F   UNL     1      -1.018  -8.280   7.007  1.00  0.00    -0.206 F 
ATOM     69  C   UNL     1       1.477 -10.401   5.473  1.00  0.00     0.060 A 
BRANCH  69  70
ATOM     70  S   UNL     1       1.593 -12.017   4.669  1.00  0.00     0.124 S 
ATOM     71  O   UNL     1       1.471 -11.663   3.259  1.00  0.00    -0.237 OA
ATOM     72  O   UNL     1       2.908 -12.494   5.089  1.00  0.00    -0.237 OA
ATOM     73  O   UNL     1       0.461 -12.747   5.231  1.00  0.00    -0.744 OA
ENDBRANCH  69  70
ENDBRANCH  48  62
BRANCH  49  74
ATOM     74  C   UNL     1       0.745   0.493  12.040  1.00  0.00     0.058 A 
ATOM     75  C   UNL     1       1.827   0.886  12.838  1.00  0.00     0.135 A 
ATOM     76  C   UNL     1      -0.362   1.352  11.958  1.00  0.00     0.135 A 
ATOM     77  F   UNL     1       2.904   0.093  12.947  1.00  0.00    -0.206 F 
ATOM     78  C   UNL     1       1.820   2.094  13.525  1.00  0.00     0.059 A 
ATOM     79  C   UNL     1      -0.384   2.575  12.621  1.00  0.00     0.059 A 
ATOM     80  F   UNL     1      -1.414   1.023  11.193  1.00  0.00    -0.206 F 
ATOM     81  C   UNL     1       0.713   2.936  13.402  1.00  0.00     0.060 A 
BRANCH  81  82
ATOM     82  S   UNL     1       0.756   4.541  14.229  1.00  0.00     0.124 S 
ATOM     83  O   UNL     1       0.614   4.155  15.628  1.00  0.00    -0.237 OA
ATOM     84  O   UNL     1       2.066   5.050  13.836  1.00  0.00    -0.237 OA
ATOM     85  O   UNL     1      -0.382   5.248  13.649  1.00  0.00    -0.744 OA
ENDBRANCH  81  82
ENDBRANCH  49  74
BRANCH  61  86
ATOM     86  C   UNL     1       0.522  -6.284  13.719  1.00  0.00     0.058 A 
ATOM     87  C   UNL     1      -0.737  -6.393  14.329  1.00  0.00     0.135 A 
ATOM     88  C   UNL     1       1.599  -6.962  14.312  1.00  0.00     0.135 A 
ATOM     89  F   UNL     1      -1.797  -5.755  13.809  1.00  0.00    -0.206 F 
ATOM     90  C   UNL     1      -0.922  -7.149  15.483  1.00  0.00     0.059 A 
ATOM     91  C   UNL     1       1.432  -7.741  15.454  1.00  0.00     0.059 A 
ATOM     92  F   UNL     1       2.824  -6.894  13.766  1.00  0.00    -0.206 F 
ATOM     93  C   UNL     1       0.167  -7.827  16.033  1.00  0.00     0.060 A 
BRANCH  93  94
ATOM     94  S   UNL     1      -0.105  -8.855  17.493  1.00  0.00     0.124 S 
ATOM     95  O   UNL     1      -0.320  -7.848  18.527  1.00  0.00    -0.237 OA
ATOM     96  O   UNL     1      -1.280  -9.632  17.112  1.00  0.00    -0.237 OA
ATOM     97  O   UNL     1       1.134  -9.618  17.609  1.00  0.00    -0.744 OA
ENDBRANCH  93  94
ENDBRANCH  61  86
ENDBRANCH  35  36
ENDBRANCH  28  30
ENDBRANCH  27  28
ENDBRANCH  26  27
ENDBRANCH   1  26
TORSDOF 17
