REMARK SMILES O=C(C[C@@H](C(=O)N(c1ccccc1)c1ccccc1)[NH+]1CCOCC1)OCCOC(=O)c1ccc(-c2c3nc(c(-c4c(F)cc(S(=O)(=O)[O-])cc4F)c4ccc([nH]4)c(-c4c(F)cc(S(=O)(=O)[O-])cc4F)c4nc(c(-c5c(F)cc(S(=O)(=O)[O-])cc5F)c5ccc2[nH]5)C=C4)C=C3)cc1
REMARK SMILES IDX 27 1 26 2 2 3 1 4 3 5 4 6 5 7 6 8 7 9 8 10 9 11 13 12 10 13
REMARK SMILES IDX 12 14 11 15 14 16 15 17 19 18 16 19 18 20 17 21 20 22 21 23
REMARK SMILES IDX 25 24 22 26 24 27 23 28 28 29 29 30 30 31 31 32 32 33 33 34
REMARK SMILES IDX 97 35 34 36 96 37 35 38 36 39 37 40 90 41 38 42 95 43 89 44
REMARK SMILES IDX 91 45 39 46 94 47 88 48 87 49 40 51 74 52 53 53 73 54 54 55
REMARK SMILES IDX 57 56 72 57 92 58 55 59 56 60 71 62 93 63 58 64 41 65 42 66
REMARK SMILES IDX 51 67 43 68 44 69 50 70 52 71 45 72 46 73 47 74 48 75 49 76
REMARK SMILES IDX 75 77 76 78 85 79 77 80 78 81 84 82 86 83 79 84 80 85 81 86
REMARK SMILES IDX 82 87 83 88 59 89 60 90 69 91 61 92 62 93 68 94 70 95 63 96
REMARK SMILES IDX 64 97 65 98 66 99 67 100
REMARK H PARENT 20 25 91 50 57 61
REMARK Flexibility Score: inf
ROOT
ATOM      1  C   UNL     1       4.727  -1.623  -0.486  1.00  0.00     0.274 C 
ENDROOT
BRANCH   1   2
ATOM      2  O   UNL     1       3.445  -1.370   0.122  1.00  0.00    -0.462 OA
BRANCH   2   3
ATOM      3  C   UNL     1       2.671  -0.324  -0.226  1.00  0.00     0.312 C 
ATOM      4  O   UNL     1       1.445  -0.414  -0.167  1.00  0.00    -0.252 OA
BRANCH   3   5
ATOM      5  C   UNL     1       3.313   0.954  -0.703  1.00  0.00     0.198 C 
BRANCH   5   6
ATOM      6  C   UNL     1       3.823   2.019   0.288  1.00  0.00     0.286 C 
BRANCH   6   7
ATOM      7  C   UNL     1       4.702   1.330   1.343  1.00  0.00     0.290 C 
ATOM      8  O   UNL     1       5.911   1.210   1.072  1.00  0.00    -0.267 OA
ATOM      9  N   UNL     1       4.160   0.771   2.528  1.00  0.00    -0.276 N 
BRANCH   9  10
ATOM     10  C   UNL     1       2.776   0.692   3.017  1.00  0.00     0.049 A 
ATOM     11  C   UNL     1       2.504   0.173   4.305  1.00  0.00     0.027 A 
ATOM     12  C   UNL     1       1.631   1.042   2.296  1.00  0.00     0.027 A 
ATOM     13  C   UNL     1       1.218  -0.201   4.724  1.00  0.00     0.002 A 
ATOM     14  C   UNL     1       0.336   0.665   2.697  1.00  0.00     0.002 A 
ATOM     15  C   UNL     1       0.133   0.001   3.892  1.00  0.00     0.000 A 
ENDBRANCH   9  10
BRANCH   9  16
ATOM     16  C   UNL     1       5.117  -0.021   3.282  1.00  0.00     0.049 A 
ATOM     17  C   UNL     1       4.895  -1.394   3.495  1.00  0.00     0.027 A 
ATOM     18  C   UNL     1       6.324   0.537   3.726  1.00  0.00     0.027 A 
ATOM     19  C   UNL     1       5.828  -2.172   4.183  1.00  0.00     0.002 A 
ATOM     20  C   UNL     1       7.268  -0.248   4.394  1.00  0.00     0.002 A 
ATOM     21  C   UNL     1       7.014  -1.597   4.632  1.00  0.00     0.000 A 
ENDBRANCH   9  16
ENDBRANCH   6   7
BRANCH   6  22
ATOM     22  N   UNL     1       4.606   3.034  -0.524  1.00  0.00    -0.320 N 
ATOM     23  C   UNL     1       5.125   4.182   0.259  1.00  0.00     0.291 C 
ATOM     24  C   UNL     1       3.820   3.627  -1.633  1.00  0.00     0.291 C 
ATOM     25  H   UNL     1       5.381   2.472  -0.875  1.00  0.00     0.348 HD
ATOM     26  C   UNL     1       4.067   5.237   0.652  1.00  0.00     0.221 C 
ATOM     27  C   UNL     1       2.676   4.510  -1.112  1.00  0.00     0.221 C 
ATOM     28  O   UNL     1       3.228   5.638  -0.436  1.00  0.00    -0.370 OA
ENDBRANCH   6  22
ENDBRANCH   5   6
ENDBRANCH   3   5
ENDBRANCH   2   3
ENDBRANCH   1   2
BRANCH   1  29
ATOM     29  C   UNL     1       4.585  -2.222  -1.890  1.00  0.00     0.275 C 
BRANCH  29  30
ATOM     30  O   UNL     1       4.124  -1.231  -2.831  1.00  0.00    -0.458 OA
BRANCH  30  31
ATOM     31  C   UNL     1       2.827  -1.309  -3.225  1.00  0.00     0.338 C 
ATOM     32  O   UNL     1       2.029  -2.183  -2.935  1.00  0.00    -0.246 OA
BRANCH  31  33
ATOM     33  C   UNL     1       2.468  -0.051  -3.925  1.00  0.00     0.060 A 
ATOM     34  C   UNL     1       1.263   0.587  -3.596  1.00  0.00     0.016 A 
ATOM     35  C   UNL     1       3.322   0.519  -4.874  1.00  0.00     0.016 A 
ATOM     36  C   UNL     1       0.917   1.796  -4.212  1.00  0.00     0.010 A 
ATOM     37  C   UNL     1       2.959   1.709  -5.513  1.00  0.00     0.010 A 
ATOM     38  C   UNL     1       1.750   2.349  -5.197  1.00  0.00    -0.014 A 
BRANCH  38  39
ATOM     39  C   UNL     1       1.300   3.515  -6.005  1.00  0.00     0.031 A 
ATOM     40  C   UNL     1       0.510   3.252  -7.246  1.00  0.00     0.074 A 
ATOM     41  C   UNL     1       1.626   4.778  -5.672  1.00  0.00     0.049 A 
ATOM     42  N   UNL     1       0.146   4.095  -8.172  1.00  0.00    -0.248 NA
ATOM     43  C   UNL     1       0.119   1.857  -7.500  1.00  0.00     0.031 C 
ATOM     44  C   UNL     1       2.435   5.122  -4.519  1.00  0.00     0.029 A 
ATOM     45  N   UNL     1       1.343   5.995  -6.240  1.00  0.00    -0.354 N 
ATOM     46  C   UNL     1      -0.463   3.326  -9.152  1.00  0.00     0.074 A 
ATOM     47  C   UNL     1      -0.454   1.955  -8.691  1.00  0.00     0.031 C 
ATOM     48  C   UNL     1       2.527   6.455  -4.401  1.00  0.00     0.029 A 
ATOM     49  C   UNL     1       1.882   7.067  -5.555  1.00  0.00     0.049 A 
ATOM     50  H   UNL     1       0.806   6.095  -7.059  1.00  0.00     0.167 HD
ATOM     51  C   UNL     1      -0.945   3.736 -10.345  1.00  0.00     0.037 A 
ATOM     52  C   UNL     1       1.912   8.381  -5.859  1.00  0.00     0.037 A 
ATOM     53  C   UNL     1      -0.938   5.106 -10.783  1.00  0.00     0.049 A 
ATOM     54  C   UNL     1       1.340   8.806  -7.188  1.00  0.00     0.074 A 
ATOM     55  C   UNL     1      -1.431   5.628 -11.965  1.00  0.00     0.029 A 
ATOM     56  N   UNL     1      -0.403   6.167 -10.066  1.00  0.00    -0.354 N 
ATOM     57  N   UNL     1       0.748   8.068  -8.098  1.00  0.00    -0.248 NA
ATOM     58  C   UNL     1       1.488  10.219  -7.562  1.00  0.00     0.031 C 
ATOM     59  C   UNL     1      -1.151   6.997 -11.985  1.00  0.00     0.029 A 
ATOM     60  C   UNL     1      -0.529   7.338 -10.793  1.00  0.00     0.049 A 
ATOM     61  H   UNL     1       0.006   6.097  -9.174  1.00  0.00     0.167 HD
ATOM     62  C   UNL     1       0.473   8.921  -9.159  1.00  0.00     0.074 A 
ATOM     63  C   UNL     1       0.918  10.241  -8.760  1.00  0.00     0.031 C 
ATOM     64  C   UNL     1      -0.075   8.637 -10.365  1.00  0.00     0.037 A 
BRANCH  51  65
ATOM     65  C   UNL     1      -1.456   2.686 -11.283  1.00  0.00     0.058 A 
ATOM     66  C   UNL     1      -2.687   2.047 -11.083  1.00  0.00     0.135 A 
ATOM     67  C   UNL     1      -0.715   2.350 -12.428  1.00  0.00     0.135 A 
ATOM     68  F   UNL     1      -3.416   2.308  -9.986  1.00  0.00    -0.206 F 
ATOM     69  C   UNL     1      -3.170   1.109 -11.989  1.00  0.00     0.059 A 
ATOM     70  C   UNL     1      -1.189   1.433 -13.359  1.00  0.00     0.059 A 
ATOM     71  F   UNL     1       0.479   2.920 -12.651  1.00  0.00    -0.206 F 
ATOM     72  C   UNL     1      -2.417   0.817 -13.129  1.00  0.00     0.060 A 
BRANCH  72  73
ATOM     73  S   UNL     1      -3.085  -0.361 -14.322  1.00  0.00     0.124 S 
ATOM     74  O   UNL     1      -2.937  -1.622 -13.602  1.00  0.00    -0.237 OA
ATOM     75  O   UNL     1      -4.454   0.114 -14.494  1.00  0.00    -0.237 OA
ATOM     76  O   UNL     1      -2.217  -0.197 -15.484  1.00  0.00    -0.744 OA
ENDBRANCH  72  73
ENDBRANCH  51  65
BRANCH  52  77
ATOM     77  C   UNL     1       2.587   9.373  -4.968  1.00  0.00     0.058 A 
ATOM     78  C   UNL     1       1.872  10.425  -4.372  1.00  0.00     0.135 A 
ATOM     79  C   UNL     1       3.970   9.321  -4.728  1.00  0.00     0.135 A 
ATOM     80  F   UNL     1       0.551  10.541  -4.581  1.00  0.00    -0.206 F 
ATOM     81  C   UNL     1       2.502  11.397  -3.595  1.00  0.00     0.059 A 
ATOM     82  C   UNL     1       4.617  10.257  -3.925  1.00  0.00     0.059 A 
ATOM     83  F   UNL     1       4.711   8.342  -5.269  1.00  0.00    -0.206 F 
ATOM     84  C   UNL     1       3.878  11.305  -3.379  1.00  0.00     0.060 A 
BRANCH  84  85
ATOM     85  S   UNL     1       4.694  12.556  -2.363  1.00  0.00     0.124 S 
ATOM     86  O   UNL     1       4.771  13.680  -3.289  1.00  0.00    -0.237 OA
ATOM     87  O   UNL     1       3.763  12.711  -1.249  1.00  0.00    -0.237 OA
ATOM     88  O   UNL     1       5.968  11.931  -2.021  1.00  0.00    -0.744 OA
ENDBRANCH  84  85
ENDBRANCH  52  77
BRANCH  64  89
ATOM     89  C   UNL     1      -0.227   9.773 -11.335  1.00  0.00     0.058 A 
ATOM     90  C   UNL     1       0.876  10.294 -12.028  1.00  0.00     0.135 A 
ATOM     91  C   UNL     1      -1.497  10.291 -11.629  1.00  0.00     0.135 A 
ATOM     92  F   UNL     1       2.113   9.837 -11.774  1.00  0.00    -0.206 F 
ATOM     93  C   UNL     1       0.725  11.298 -12.977  1.00  0.00     0.059 A 
ATOM     94  C   UNL     1      -1.675  11.276 -12.592  1.00  0.00     0.059 A 
ATOM     95  F   UNL     1      -2.583   9.818 -10.996  1.00  0.00    -0.206 F 
ATOM     96  C   UNL     1      -0.556  11.778 -13.257  1.00  0.00     0.060 A 
BRANCH  96  97
ATOM     97  S   UNL     1      -0.746  13.040 -14.533  1.00  0.00     0.124 S 
ATOM     98  O   UNL     1      -0.223  14.222 -13.857  1.00  0.00    -0.237 OA
ATOM     99  O   UNL     1       0.075  12.513 -15.618  1.00  0.00    -0.237 OA
ATOM    100  O   UNL     1      -2.183  13.049 -14.791  1.00  0.00    -0.744 OA
ENDBRANCH  96  97
ENDBRANCH  64  89
ENDBRANCH  38  39
ENDBRANCH  31  33
ENDBRANCH  30  31
ENDBRANCH  29  30
ENDBRANCH   1  29
TORSDOF 19
