REMARK SMILES CC(C)C[C@@H](NS(=O)(=O)/C=C/c1ccc(Cl)cc1)C(=O)OCCOC(=O)c1ccc(-c2c3nc(c(-c4c(F)cc(S(=O)(=O)[O-])cc4F)c4ccc([nH]4)c(-c4c(F)cc(S(=O)(=O)[O-])cc4F)c4nc(c(-c5c(F)cc(S(=O)(=O)[O-])cc5F)c5ccc2[nH]5)C=C4)C=C3)cc1
REMARK SMILES IDX 22 1 21 2 19 3 20 4 5 5 4 6 2 7 1 8 3 9 6 10 7 12 8 13 9 14
REMARK SMILES IDX 10 15 11 16 12 17 13 18 18 19 14 20 17 21 15 22 16 23 23 24
REMARK SMILES IDX 24 25 25 26 26 27 27 28 28 29 92 30 29 31 91 32 30 33 31 34
REMARK SMILES IDX 32 35 85 36 33 37 90 38 84 39 86 40 34 41 89 42 83 43 82 44
REMARK SMILES IDX 35 46 69 47 48 48 68 49 49 50 52 51 67 52 87 53 50 54 51 55
REMARK SMILES IDX 66 57 88 58 53 59 36 60 37 61 46 62 38 63 39 64 45 65 47 66
REMARK SMILES IDX 40 67 41 68 42 69 43 70 44 71 70 72 71 73 80 74 72 75 73 76
REMARK SMILES IDX 79 77 81 78 74 79 75 80 76 81 77 82 78 83 54 84 55 85 64 86
REMARK SMILES IDX 56 87 57 88 63 89 65 90 58 91 59 92 60 93 61 94 62 95
REMARK H PARENT 6 11 86 45 52 56
REMARK Flexibility Score: inf
ROOT
ATOM      1  C   UNL     1      -4.880  -1.587  -1.377  1.00  0.00     0.274 C 
ENDROOT
BRANCH   1   2
ATOM      2  O   UNL     1      -3.458  -1.464  -1.546  1.00  0.00    -0.461 OA
BRANCH   2   3
ATOM      3  C   UNL     1      -2.961  -0.198  -1.556  1.00  0.00     0.324 C 
ATOM      4  O   UNL     1      -3.626   0.810  -1.355  1.00  0.00    -0.250 OA
BRANCH   3   5
ATOM      5  C   UNL     1      -1.488  -0.115  -1.915  1.00  0.00     0.180 C 
BRANCH   5   6
ATOM      6  C   UNL     1      -0.737  -1.342  -1.370  1.00  0.00     0.035 C 
BRANCH   6   7
ATOM      7  C   UNL     1       0.774  -1.187  -1.093  1.00  0.00    -0.015 C 
ATOM      8  C   UNL     1       1.127   0.021  -0.222  1.00  0.00     0.007 C 
ATOM      9  C   UNL     1       1.274  -2.458  -0.387  1.00  0.00     0.007 C 
ENDBRANCH   6   7
ENDBRANCH   5   6
BRANCH   5  10
ATOM     10  N   UNL     1      -1.357   0.045  -3.397  1.00  0.00    -0.197 NA
ATOM     11  H   UNL     1      -1.988  -0.623  -3.840  1.00  0.00     0.142 HD
BRANCH  10  12
ATOM     12  S   UNL     1      -1.722   1.609  -4.021  1.00  0.00     0.234 S 
ATOM     13  O   UNL     1      -0.964   2.524  -3.202  1.00  0.00    -0.208 OA
ATOM     14  O   UNL     1      -1.420   1.492  -5.437  1.00  0.00    -0.208 OA
BRANCH  12  15
ATOM     15  C   UNL     1      -3.411   1.970  -3.849  1.00  0.00     0.123 C 
ATOM     16  C   UNL     1      -4.346   1.105  -4.266  1.00  0.00     0.021 C 
BRANCH  16  17
ATOM     17  C   UNL     1      -5.794   1.267  -4.036  1.00  0.00    -0.025 A 
ATOM     18  C   UNL     1      -6.672   1.096  -5.111  1.00  0.00     0.009 A 
ATOM     19  C   UNL     1      -6.337   1.430  -2.751  1.00  0.00     0.009 A 
ATOM     20  C   UNL     1      -8.055   1.030  -4.898  1.00  0.00     0.021 A 
ATOM     21  C   UNL     1      -7.714   1.317  -2.528  1.00  0.00     0.021 A 
ATOM     22  C   UNL     1      -8.567   1.107  -3.604  1.00  0.00     0.041 A 
ATOM     23  Cl  UNL     1     -10.254   0.911  -3.335  1.00  0.00    -0.084 Cl
ENDBRANCH  16  17
ENDBRANCH  12  15
ENDBRANCH  10  12
ENDBRANCH   5  10
ENDBRANCH   3   5
ENDBRANCH   2   3
ENDBRANCH   1   2
BRANCH   1  24
ATOM     24  C   UNL     1      -5.402  -1.448   0.063  1.00  0.00     0.275 C 
BRANCH  24  25
ATOM     25  O   UNL     1      -5.134  -0.175   0.684  1.00  0.00    -0.458 OA
BRANCH  25  26
ATOM     26  C   UNL     1      -3.933  -0.114   1.312  1.00  0.00     0.338 C 
ATOM     27  O   UNL     1      -3.126  -1.028   1.407  1.00  0.00    -0.246 OA
BRANCH  26  28
ATOM     28  C   UNL     1      -3.587   1.259   1.730  1.00  0.00     0.060 A 
ATOM     29  C   UNL     1      -2.355   1.760   1.293  1.00  0.00     0.016 A 
ATOM     30  C   UNL     1      -4.343   1.971   2.659  1.00  0.00     0.016 A 
ATOM     31  C   UNL     1      -1.833   2.931   1.820  1.00  0.00     0.010 A 
ATOM     32  C   UNL     1      -3.809   3.147   3.208  1.00  0.00     0.010 A 
ATOM     33  C   UNL     1      -2.528   3.598   2.830  1.00  0.00    -0.014 A 
BRANCH  33  34
ATOM     34  C   UNL     1      -1.794   4.612   3.626  1.00  0.00     0.031 A 
ATOM     35  C   UNL     1      -1.302   4.230   4.999  1.00  0.00     0.074 A 
ATOM     36  C   UNL     1      -1.471   5.807   3.098  1.00  0.00     0.049 A 
ATOM     37  N   UNL     1      -0.664   4.949   5.884  1.00  0.00    -0.248 NA
ATOM     38  C   UNL     1      -1.566   2.846   5.430  1.00  0.00     0.031 C 
ATOM     39  C   UNL     1      -1.806   6.250   1.744  1.00  0.00     0.029 A 
ATOM     40  N   UNL     1      -0.776   6.860   3.634  1.00  0.00    -0.354 N 
ATOM     41  C   UNL     1      -0.483   4.121   6.987  1.00  0.00     0.074 A 
ATOM     42  C   UNL     1      -1.095   2.850   6.667  1.00  0.00     0.031 C 
ATOM     43  C   UNL     1      -1.313   7.486   1.556  1.00  0.00     0.029 A 
ATOM     44  C   UNL     1      -0.669   7.937   2.788  1.00  0.00     0.049 A 
ATOM     45  H   UNL     1      -0.390   6.846   4.540  1.00  0.00     0.167 HD
ATOM     46  C   UNL     1       0.141   4.395   8.157  1.00  0.00     0.037 A 
ATOM     47  C   UNL     1      -0.132   9.156   2.994  1.00  0.00     0.037 A 
ATOM     48  C   UNL     1       0.774   5.654   8.451  1.00  0.00     0.049 A 
ATOM     49  C   UNL     1       0.503   9.458   4.327  1.00  0.00     0.074 A 
ATOM     50  C   UNL     1       1.440   6.035   9.602  1.00  0.00     0.029 A 
ATOM     51  N   UNL     1       0.821   6.738   7.585  1.00  0.00    -0.354 N 
ATOM     52  N   UNL     1       0.644   8.677   5.373  1.00  0.00    -0.248 NA
ATOM     53  C   UNL     1       1.057  10.807   4.506  1.00  0.00     0.031 C 
ATOM     54  C   UNL     1       1.840   7.368   9.454  1.00  0.00     0.029 A 
ATOM     55  C   UNL     1       1.485   7.795   8.184  1.00  0.00     0.049 A 
ATOM     56  H   UNL     1       0.437   6.753   6.678  1.00  0.00     0.167 HD
ATOM     57  C   UNL     1       1.341   9.425   6.317  1.00  0.00     0.074 A 
ATOM     58  C   UNL     1       1.594  10.718   5.715  1.00  0.00     0.031 C 
ATOM     59  C   UNL     1       1.743   9.072   7.564  1.00  0.00     0.037 A 
BRANCH  46  60
ATOM     60  C   UNL     1       0.123   3.332   9.224  1.00  0.00     0.058 A 
ATOM     61  C   UNL     1       0.853   2.138   9.111  1.00  0.00     0.135 A 
ATOM     62  C   UNL     1      -0.632   3.525  10.393  1.00  0.00     0.135 A 
ATOM     63  F   UNL     1       1.576   1.889   8.007  1.00  0.00    -0.206 F 
ATOM     64  C   UNL     1       0.809   1.161  10.101  1.00  0.00     0.059 A 
ATOM     65  C   UNL     1      -0.665   2.577  11.411  1.00  0.00     0.059 A 
ATOM     66  F   UNL     1      -1.353   4.646  10.555  1.00  0.00    -0.206 F 
ATOM     67  C   UNL     1       0.046   1.389  11.248  1.00  0.00     0.060 A 
BRANCH  67  68
ATOM     68  S   UNL     1      -0.006   0.112  12.523  1.00  0.00     0.124 S 
ATOM     69  O   UNL     1      -0.818  -0.913  11.875  1.00  0.00    -0.237 OA
ATOM     70  O   UNL     1       1.407  -0.214  12.694  1.00  0.00    -0.237 OA
ATOM     71  O   UNL     1      -0.633   0.785  13.655  1.00  0.00    -0.744 OA
ENDBRANCH  67  68
ENDBRANCH  46  60
BRANCH  47  72
ATOM     72  C   UNL     1      -0.177  10.184   1.918  1.00  0.00     0.058 A 
ATOM     73  C   UNL     1       0.995  10.629   1.288  1.00  0.00     0.135 A 
ATOM     74  C   UNL     1      -1.394  10.748   1.503  1.00  0.00     0.135 A 
ATOM     75  F   UNL     1       2.185  10.131   1.656  1.00  0.00    -0.206 F 
ATOM     76  C   UNL     1       0.965  11.608   0.300  1.00  0.00     0.059 A 
ATOM     77  C   UNL     1      -1.453  11.706   0.496  1.00  0.00     0.059 A 
ATOM     78  F   UNL     1      -2.546  10.352   2.067  1.00  0.00    -0.206 F 
ATOM     79  C   UNL     1      -0.265  12.139  -0.092  1.00  0.00     0.060 A 
BRANCH  79  80
ATOM     80  S   UNL     1      -0.296  13.381  -1.402  1.00  0.00     0.124 S 
ATOM     81  O   UNL     1       0.276  14.538  -0.723  1.00  0.00    -0.237 OA
ATOM     82  O   UNL     1       0.539  12.764  -2.428  1.00  0.00    -0.237 OA
ATOM     83  O   UNL     1      -1.714  13.482  -1.736  1.00  0.00    -0.744 OA
ENDBRANCH  79  80
ENDBRANCH  47  72
BRANCH  59  84
ATOM     84  C   UNL     1       2.563  10.071   8.336  1.00  0.00     0.058 A 
ATOM     85  C   UNL     1       2.015  11.260   8.843  1.00  0.00     0.135 A 
ATOM     86  C   UNL     1       3.921   9.815   8.595  1.00  0.00     0.135 A 
ATOM     87  F   UNL     1       0.724  11.556   8.625  1.00  0.00    -0.206 F 
ATOM     88  C   UNL     1       2.793  12.179   9.541  1.00  0.00     0.059 A 
ATOM     89  C   UNL     1       4.708  10.703   9.321  1.00  0.00     0.059 A 
ATOM     90  F   UNL     1       4.494   8.686   8.148  1.00  0.00    -0.206 F 
ATOM     91  C   UNL     1       4.140  11.892   9.773  1.00  0.00     0.060 A 
BRANCH  91  92
ATOM     92  S   UNL     1       5.138  13.089  10.682  1.00  0.00     0.124 S 
ATOM     93  O   UNL     1       5.310  14.143   9.688  1.00  0.00    -0.237 OA
ATOM     94  O   UNL     1       4.277  13.419  11.814  1.00  0.00    -0.237 OA
ATOM     95  O   UNL     1       6.345  12.340  11.019  1.00  0.00    -0.744 OA
ENDBRANCH  91  92
ENDBRANCH  59  84
ENDBRANCH  33  34
ENDBRANCH  26  28
ENDBRANCH  25  26
ENDBRANCH  24  25
ENDBRANCH   1  24
TORSDOF 20
