REMARK SMILES C[C@@H](C(=O)OCCOC(=O)c1ccc(-c2c3nc(c(-c4c(F)cc(S(=O)(=O)[O-])cc4F)c4ccc([nH]4)c(-c4c(F)cc(S(=O)(=O)[O-])cc4F)c4nc(c(-c5c(F)cc(S(=O)(=O)[O-])cc5F)c5ccc2[nH]5)C=C4)C=C3)cc1)c1ccc(C[C@@H]2CCC[C@@H]2O)cc1
REMARK SMILES IDX 6 1 5 2 3 3 4 4 2 5 1 6 77 7 78 8 89 9 79 10 88 11 80 12
REMARK SMILES IDX 81 13 82 14 83 15 86 16 84 17 85 18 87 19 7 21 8 22 9 23
REMARK SMILES IDX 10 24 11 25 12 26 76 27 13 28 75 29 14 30 15 31 16 32 69 33
REMARK SMILES IDX 17 34 74 35 68 36 70 37 18 38 73 39 67 40 66 41 19 43 53 44
REMARK SMILES IDX 32 45 52 46 33 47 36 48 51 49 71 50 34 51 35 52 50 54 72 55
REMARK SMILES IDX 37 56 20 57 21 58 30 59 22 60 23 61 29 62 31 63 24 64 25 65
REMARK SMILES IDX 26 66 27 67 28 68 54 69 55 70 64 71 56 72 57 73 63 74 65 75
REMARK SMILES IDX 58 76 59 77 60 78 61 79 62 80 38 81 39 82 48 83 40 84 41 85
REMARK SMILES IDX 47 86 49 87 42 88 43 89 44 90 45 91 46 92
REMARK H PARENT 87 20 70 42 36 53
REMARK Flexibility Score: inf
ROOT
ATOM      1  C   UNL     1      -7.947   3.062  10.447  1.00  0.00     0.274 C 
ENDROOT
BRANCH   1   2
ATOM      2  O   UNL     1      -9.110   2.711   9.667  1.00  0.00    -0.462 OA
BRANCH   2   3
ATOM      3  C   UNL     1      -8.963   2.781   8.312  1.00  0.00     0.313 C 
ATOM      4  O   UNL     1      -7.922   3.121   7.764  1.00  0.00    -0.252 OA
BRANCH   3   5
ATOM      5  C   UNL     1     -10.284   2.492   7.575  1.00  0.00     0.126 C 
ATOM      6  C   UNL     1     -11.185   1.509   8.324  1.00  0.00     0.025 C 
BRANCH   5   7
ATOM      7  C   UNL     1     -10.004   2.076   6.134  1.00  0.00    -0.034 A 
ATOM      8  C   UNL     1      -9.715   0.756   5.766  1.00  0.00     0.005 A 
ATOM      9  C   UNL     1      -9.881   3.074   5.159  1.00  0.00     0.005 A 
ATOM     10  C   UNL     1      -9.174   0.470   4.503  1.00  0.00     0.004 A 
ATOM     11  C   UNL     1      -9.377   2.777   3.892  1.00  0.00     0.004 A 
ATOM     12  C   UNL     1      -8.929   1.493   3.579  1.00  0.00    -0.048 A 
BRANCH  12  13
ATOM     13  C   UNL     1      -8.207   1.228   2.278  1.00  0.00     0.041 C 
BRANCH  13  14
ATOM     14  C   UNL     1      -6.765   1.763   2.067  1.00  0.00     0.022 C 
ATOM     15  C   UNL     1      -5.736   1.244   3.058  1.00  0.00     0.007 C 
ATOM     16  C   UNL     1      -6.477   3.265   2.137  1.00  0.00     0.117 C 
ATOM     17  C   UNL     1      -5.711   2.246   4.208  1.00  0.00     0.003 C 
ATOM     18  C   UNL     1      -6.156   3.573   3.601  1.00  0.00     0.032 C 
BRANCH  16  19
ATOM     19  O   UNL     1      -7.510   4.069   1.610  1.00  0.00    -0.393 OA
ATOM     20  H   UNL     1      -8.324   3.922   2.116  1.00  0.00     0.210 HD
ENDBRANCH  16  19
ENDBRANCH  13  14
ENDBRANCH  12  13
ENDBRANCH   5   7
ENDBRANCH   3   5
ENDBRANCH   2   3
ENDBRANCH   1   2
BRANCH   1  21
ATOM     21  C   UNL     1      -7.224   1.813  10.947  1.00  0.00     0.275 C 
BRANCH  21  22
ATOM     22  O   UNL     1      -6.524   1.180   9.861  1.00  0.00    -0.458 OA
BRANCH  22  23
ATOM     23  C   UNL     1      -6.778  -0.135   9.670  1.00  0.00     0.338 C 
ATOM     24  O   UNL     1      -7.506  -0.854  10.331  1.00  0.00    -0.246 OA
BRANCH  23  25
ATOM     25  C   UNL     1      -6.071  -0.592   8.461  1.00  0.00     0.060 A 
ATOM     26  C   UNL     1      -6.614  -0.255   7.229  1.00  0.00     0.016 A 
ATOM     27  C   UNL     1      -4.962  -1.440   8.529  1.00  0.00     0.016 A 
ATOM     28  C   UNL     1      -6.072  -0.797   6.066  1.00  0.00     0.010 A 
ATOM     29  C   UNL     1      -4.385  -1.940   7.346  1.00  0.00     0.010 A 
ATOM     30  C   UNL     1      -4.945  -1.628   6.099  1.00  0.00    -0.014 A 
BRANCH  30  31
ATOM     31  C   UNL     1      -4.450  -2.187   4.810  1.00  0.00     0.031 A 
ATOM     32  C   UNL     1      -5.065  -3.445   4.263  1.00  0.00     0.074 A 
ATOM     33  C   UNL     1      -3.587  -1.490   4.041  1.00  0.00     0.049 A 
ATOM     34  N   UNL     1      -4.853  -4.036   3.115  1.00  0.00    -0.248 NA
ATOM     35  C   UNL     1      -6.042  -4.130   5.123  1.00  0.00     0.031 C 
ATOM     36  C   UNL     1      -2.978  -0.216   4.410  1.00  0.00     0.029 A 
ATOM     37  N   UNL     1      -3.170  -1.696   2.743  1.00  0.00    -0.354 N 
ATOM     38  C   UNL     1      -5.585  -5.215   3.157  1.00  0.00     0.074 A 
ATOM     39  C   UNL     1      -6.327  -5.205   4.401  1.00  0.00     0.031 C 
ATOM     40  C   UNL     1      -2.400   0.321   3.319  1.00  0.00     0.029 A 
ATOM     41  C   UNL     1      -2.564  -0.589   2.186  1.00  0.00     0.049 A 
ATOM     42  H   UNL     1      -3.292  -2.547   2.263  1.00  0.00     0.167 HD
ATOM     43  C   UNL     1      -5.572  -6.243   2.275  1.00  0.00     0.037 A 
ATOM     44  C   UNL     1      -2.245  -0.322   0.900  1.00  0.00     0.037 A 
ATOM     45  C   UNL     1      -4.838  -6.247   1.037  1.00  0.00     0.049 A 
ATOM     46  C   UNL     1      -2.365  -1.419  -0.130  1.00  0.00     0.074 A 
ATOM     47  C   UNL     1      -4.634  -7.293   0.152  1.00  0.00     0.029 A 
ATOM     48  N   UNL     1      -4.202  -5.141   0.497  1.00  0.00    -0.354 N 
ATOM     49  N   UNL     1      -2.929  -2.597  -0.024  1.00  0.00    -0.248 NA
ATOM     50  C   UNL     1      -1.734  -1.172  -1.439  1.00  0.00     0.031 C 
ATOM     51  C   UNL     1      -3.851  -6.824  -0.911  1.00  0.00     0.029 A 
ATOM     52  C   UNL     1      -3.604  -5.477  -0.707  1.00  0.00     0.049 A 
ATOM     53  H   UNL     1      -4.179  -4.247   0.908  1.00  0.00     0.167 HD
ATOM     54  C   UNL     1      -2.653  -3.256  -1.219  1.00  0.00     0.074 A 
ATOM     55  C   UNL     1      -1.966  -2.313  -2.074  1.00  0.00     0.031 C 
ATOM     56  C   UNL     1      -2.892  -4.550  -1.548  1.00  0.00     0.037 A 
BRANCH  43  57
ATOM     57  C   UNL     1      -6.245  -7.511   2.708  1.00  0.00     0.058 A 
ATOM     58  C   UNL     1      -7.633  -7.694   2.656  1.00  0.00     0.135 A 
ATOM     59  C   UNL     1      -5.457  -8.566   3.201  1.00  0.00     0.135 A 
ATOM     60  F   UNL     1      -8.429  -6.706   2.219  1.00  0.00    -0.206 F 
ATOM     61  C   UNL     1      -8.221  -8.875   3.101  1.00  0.00     0.059 A 
ATOM     62  C   UNL     1      -6.021  -9.759   3.632  1.00  0.00     0.059 A 
ATOM     63  F   UNL     1      -4.123  -8.434   3.278  1.00  0.00    -0.206 F 
ATOM     64  C   UNL     1      -7.406  -9.898   3.594  1.00  0.00     0.060 A 
BRANCH  64  65
ATOM     65  S   UNL     1      -8.176 -11.416   4.194  1.00  0.00     0.124 S 
ATOM     66  O   UNL     1      -8.705 -10.983   5.483  1.00  0.00    -0.237 OA
ATOM     67  O   UNL     1      -9.170 -11.694   3.162  1.00  0.00    -0.237 OA
ATOM     68  O   UNL     1      -7.064 -12.359   4.257  1.00  0.00    -0.744 OA
ENDBRANCH  64  65
ENDBRANCH  43  57
BRANCH  44  69
ATOM     69  C   UNL     1      -1.806   1.037   0.468  1.00  0.00     0.058 A 
ATOM     70  C   UNL     1      -2.584   1.767  -0.450  1.00  0.00     0.135 A 
ATOM     71  C   UNL     1      -0.605   1.617   0.898  1.00  0.00     0.135 A 
ATOM     72  F   UNL     1      -3.739   1.255  -0.905  1.00  0.00    -0.206 F 
ATOM     73  C   UNL     1      -2.179   3.005  -0.940  1.00  0.00     0.059 A 
ATOM     74  C   UNL     1      -0.195   2.871   0.450  1.00  0.00     0.059 A 
ATOM     75  F   UNL     1       0.183   0.968   1.769  1.00  0.00    -0.206 F 
ATOM     76  C   UNL     1      -0.980   3.549  -0.485  1.00  0.00     0.060 A 
BRANCH  76  77
ATOM     77  S   UNL     1      -0.458   5.174  -1.078  1.00  0.00     0.124 S 
ATOM     78  O   UNL     1       0.323   4.817  -2.256  1.00  0.00    -0.237 OA
ATOM     79  O   UNL     1      -1.728   5.845  -1.336  1.00  0.00    -0.237 OA
ATOM     80  O   UNL     1       0.301   5.701   0.052  1.00  0.00    -0.744 OA
ENDBRANCH  76  77
ENDBRANCH  44  69
BRANCH  56  81
ATOM     81  C   UNL     1      -2.321  -5.058  -2.843  1.00  0.00     0.058 A 
ATOM     82  C   UNL     1      -0.938  -5.273  -2.979  1.00  0.00     0.135 A 
ATOM     83  C   UNL     1      -3.145  -5.399  -3.925  1.00  0.00     0.135 A 
ATOM     84  F   UNL     1      -0.104  -4.966  -1.973  1.00  0.00    -0.206 F 
ATOM     85  C   UNL     1      -0.392  -5.791  -4.149  1.00  0.00     0.059 A 
ATOM     86  C   UNL     1      -2.620  -5.938  -5.099  1.00  0.00     0.059 A 
ATOM     87  F   UNL     1      -4.473  -5.225  -3.845  1.00  0.00    -0.206 F 
ATOM     88  C   UNL     1      -1.241  -6.121  -5.204  1.00  0.00     0.060 A 
BRANCH  88  89
ATOM     89  S   UNL     1      -0.521  -6.831  -6.701  1.00  0.00     0.124 S 
ATOM     90  O   UNL     1       0.081  -5.657  -7.324  1.00  0.00    -0.237 OA
ATOM     91  O   UNL     1       0.415  -7.814  -6.165  1.00  0.00    -0.237 OA
ATOM     92  O   UNL     1      -1.674  -7.391  -7.400  1.00  0.00    -0.744 OA
ENDBRANCH  88  89
ENDBRANCH  56  81
ENDBRANCH  30  31
ENDBRANCH  23  25
ENDBRANCH  22  23
ENDBRANCH  21  22
ENDBRANCH   1  21
TORSDOF 18
