REMARK SMILES CC(C)(C)c1cc(Nc2ccccc2C(=O)OCCOC(=O)c2ccc(-c3c4nc(c(-c5c(F)cc(S(=O)(=O)[O-])cc5F)c5ccc([nH]5)c(-c5c(F)cc(S(=O)(=O)[O-])cc5F)c5nc(c(-c6c(F)cc(S(=O)(=O)[O-])cc6F)c6ccc3[nH]6)C=C5)C=C4)cc2)cc2c1OCC2(C)C
REMARK SMILES IDX 18 1 17 2 15 3 16 4 14 5 9 6 10 7 11 8 13 9 12 10 8 11 7 13
REMARK SMILES IDX 5 14 6 15 91 16 90 17 92 18 89 19 94 20 93 21 95 22 96 23
REMARK SMILES IDX 2 24 1 25 3 26 4 27 19 28 20 29 21 30 22 31 23 32 24 33
REMARK SMILES IDX 88 34 25 35 87 36 26 37 27 38 28 39 81 40 29 41 86 42 80 43
REMARK SMILES IDX 82 44 30 45 85 46 79 47 78 48 31 50 65 51 44 52 64 53 45 54
REMARK SMILES IDX 48 55 63 56 83 57 46 58 47 59 62 61 84 62 49 63 32 64 33 65
REMARK SMILES IDX 42 66 34 67 35 68 41 69 43 70 36 71 37 72 38 73 39 74 40 75
REMARK SMILES IDX 66 76 67 77 76 78 68 79 69 80 75 81 77 82 70 83 71 84 72 85
REMARK SMILES IDX 73 86 74 87 50 88 51 89 60 90 52 91 53 92 59 93 61 94 54 95
REMARK SMILES IDX 55 96 56 97 57 98 58 99
REMARK H PARENT 8 12 82 49 48 60
REMARK Flexibility Score: inf
ROOT
ATOM      1  C   UNL     1       5.543   0.982  -4.076  1.00  0.00     0.275 C 
ENDROOT
BRANCH   1   2
ATOM      2  O   UNL     1       4.486   0.334  -4.811  1.00  0.00    -0.458 OA
BRANCH   2   3
ATOM      3  C   UNL     1       4.453   0.512  -6.157  1.00  0.00     0.340 C 
ATOM      4  O   UNL     1       5.228   1.196  -6.800  1.00  0.00    -0.246 OA
BRANCH   3   5
ATOM      5  C   UNL     1       3.381  -0.313  -6.794  1.00  0.00     0.083 A 
ATOM      6  C   UNL     1       2.228  -0.762  -6.127  1.00  0.00     0.053 A 
ATOM      7  C   UNL     1       1.327  -1.587  -6.835  1.00  0.00     0.027 A 
ATOM      8  C   UNL     1       1.590  -2.018  -8.135  1.00  0.00     0.002 A 
ATOM      9  C   UNL     1       3.597  -0.693  -8.134  1.00  0.00     0.018 A 
ATOM     10  C   UNL     1       2.733  -1.576  -8.784  1.00  0.00     0.001 A 
BRANCH   6  11
ATOM     11  N   UNL     1       2.009  -0.528  -4.750  1.00  0.00    -0.355 N 
ATOM     12  H   UNL     1       2.063   0.408  -4.452  1.00  0.00     0.167 HD
BRANCH  11  13
ATOM     13  C   UNL     1       1.722  -1.486  -3.756  1.00  0.00     0.039 A 
ATOM     14  C   UNL     1       0.882  -1.977  -1.476  1.00  0.00     0.002 A 
ATOM     15  C   UNL     1       1.288  -1.067  -2.482  1.00  0.00     0.034 A 
ATOM     16  C   UNL     1       0.866  -3.322  -1.855  1.00  0.00     0.127 A 
ATOM     17  C   UNL     1       1.317  -3.749  -3.092  1.00  0.00     0.006 A 
ATOM     18  O   UNL     1       0.358  -4.353  -1.106  1.00  0.00    -0.492 OA
ATOM     19  C   UNL     1       1.777  -2.851  -4.030  1.00  0.00     0.034 A 
ATOM     20  C   UNL     1       1.132  -5.215  -3.266  1.00  0.00     0.028 C 
ATOM     21  C   UNL     1       0.672  -5.564  -1.840  1.00  0.00     0.240 C 
ATOM     22  C   UNL     1       0.043  -5.491  -4.312  1.00  0.00     0.020 C 
ATOM     23  C   UNL     1       2.426  -5.938  -3.647  1.00  0.00     0.020 C 
BRANCH  14  24
ATOM     24  C   UNL     1       0.435  -1.495  -0.087  1.00  0.00    -0.009 C 
ATOM     25  C   UNL     1       0.912  -0.057   0.240  1.00  0.00     0.016 C 
ATOM     26  C   UNL     1       0.998  -2.388   1.043  1.00  0.00     0.016 C 
ATOM     27  C   UNL     1      -1.103  -1.506  -0.033  1.00  0.00     0.016 C 
ENDBRANCH  14  24
ENDBRANCH  11  13
ENDBRANCH   6  11
ENDBRANCH   3   5
ENDBRANCH   2   3
ENDBRANCH   1   2
BRANCH   1  28
ATOM     28  C   UNL     1       6.550  -0.041  -3.545  1.00  0.00     0.275 C 
BRANCH  28  29
ATOM     29  O   UNL     1       7.381  -0.525  -4.614  1.00  0.00    -0.458 OA
BRANCH  29  30
ATOM     30  C   UNL     1       7.062  -1.743  -5.105  1.00  0.00     0.338 C 
ATOM     31  O   UNL     1       6.218  -2.521  -4.689  1.00  0.00    -0.246 OA
BRANCH  30  32
ATOM     32  C   UNL     1       7.792  -1.927  -6.365  1.00  0.00     0.060 A 
ATOM     33  C   UNL     1       9.123  -2.332  -6.401  1.00  0.00     0.016 A 
ATOM     34  C   UNL     1       7.090  -1.699  -7.546  1.00  0.00     0.016 A 
ATOM     35  C   UNL     1       9.757  -2.466  -7.643  1.00  0.00     0.010 A 
ATOM     36  C   UNL     1       7.709  -1.861  -8.781  1.00  0.00     0.010 A 
ATOM     37  C   UNL     1       9.057  -2.226  -8.844  1.00  0.00    -0.014 A 
BRANCH  37  38
ATOM     38  C   UNL     1       9.717  -2.385 -10.166  1.00  0.00     0.031 A 
ATOM     39  C   UNL     1       9.908  -1.206 -11.085  1.00  0.00     0.074 A 
ATOM     40  C   UNL     1      10.103  -3.614 -10.561  1.00  0.00     0.049 A 
ATOM     41  N   UNL     1      10.501  -1.159 -12.252  1.00  0.00    -0.248 NA
ATOM     42  C   UNL     1       9.333   0.080 -10.657  1.00  0.00     0.031 C 
ATOM     43  C   UNL     1       9.883  -4.847  -9.803  1.00  0.00     0.029 A 
ATOM     44  N   UNL     1      10.764  -4.029 -11.689  1.00  0.00    -0.354 N 
ATOM     45  C   UNL     1      10.369   0.153 -12.695  1.00  0.00     0.074 A 
ATOM     46  C   UNL     1       9.584   0.854 -11.703  1.00  0.00     0.031 C 
ATOM     47  C   UNL     1      10.448  -5.872 -10.460  1.00  0.00     0.029 A 
ATOM     48  C   UNL     1      11.045  -5.375 -11.697  1.00  0.00     0.049 A 
ATOM     49  H   UNL     1      11.013  -3.422 -12.423  1.00  0.00     0.167 HD
ATOM     50  C   UNL     1      10.883   0.727 -13.810  1.00  0.00     0.037 A 
ATOM     51  C   UNL     1      11.723  -6.123 -12.588  1.00  0.00     0.037 A 
ATOM     52  C   UNL     1      11.688   0.026 -14.778  1.00  0.00     0.049 A 
ATOM     53  C   UNL     1      12.322  -5.460 -13.796  1.00  0.00     0.074 A 
ATOM     54  C   UNL     1      12.326   0.533 -15.896  1.00  0.00     0.029 A 
ATOM     55  N   UNL     1      11.964  -1.334 -14.743  1.00  0.00    -0.354 N 
ATOM     56  N   UNL     1      12.270  -4.199 -14.152  1.00  0.00    -0.248 NA
ATOM     57  C   UNL     1      13.078  -6.317 -14.720  1.00  0.00     0.031 C 
ATOM     58  C   UNL     1      12.953  -0.527 -16.561  1.00  0.00     0.029 A 
ATOM     59  C   UNL     1      12.745  -1.687 -15.832  1.00  0.00     0.049 A 
ATOM     60  H   UNL     1      11.651  -1.956 -14.047  1.00  0.00     0.167 HD
ATOM     61  C   UNL     1      12.995  -4.107 -15.335  1.00  0.00     0.074 A 
ATOM     62  C   UNL     1      13.492  -5.437 -15.623  1.00  0.00     0.031 C 
ATOM     63  C   UNL     1      13.224  -3.019 -16.112  1.00  0.00     0.037 A 
BRANCH  50  64
ATOM     64  C   UNL     1      10.617   2.193 -14.034  1.00  0.00     0.058 A 
ATOM     65  C   UNL     1      11.200   3.177 -13.218  1.00  0.00     0.135 A 
ATOM     66  C   UNL     1       9.814   2.626 -15.102  1.00  0.00     0.135 A 
ATOM     67  F   UNL     1      11.970   2.823 -12.177  1.00  0.00    -0.206 F 
ATOM     68  C   UNL     1      10.972   4.533 -13.432  1.00  0.00     0.059 A 
ATOM     69  C   UNL     1       9.596   3.979 -15.354  1.00  0.00     0.059 A 
ATOM     70  F   UNL     1       9.236   1.732 -15.919  1.00  0.00    -0.206 F 
ATOM     71  C   UNL     1      10.169   4.925 -14.504  1.00  0.00     0.060 A 
BRANCH  71  72
ATOM     72  S   UNL     1       9.894   6.689 -14.771  1.00  0.00     0.124 S 
ATOM     73  O   UNL     1       9.028   7.024 -13.644  1.00  0.00    -0.237 OA
ATOM     74  O   UNL     1      11.249   7.228 -14.709  1.00  0.00    -0.237 OA
ATOM     75  O   UNL     1       9.261   6.742 -16.084  1.00  0.00    -0.744 OA
ENDBRANCH  71  72
ENDBRANCH  50  64
BRANCH  51  76
ATOM     76  C   UNL     1      11.919  -7.572 -12.321  1.00  0.00     0.058 A 
ATOM     77  C   UNL     1      13.168  -8.063 -11.912  1.00  0.00     0.135 A 
ATOM     78  C   UNL     1      10.851  -8.479 -12.394  1.00  0.00     0.135 A 
ATOM     79  F   UNL     1      14.220  -7.235 -11.833  1.00  0.00    -0.206 F 
ATOM     80  C   UNL     1      13.351  -9.400 -11.579  1.00  0.00     0.059 A 
ATOM     81  C   UNL     1      11.003  -9.817 -12.043  1.00  0.00     0.059 A 
ATOM     82  F   UNL     1       9.632  -8.055 -12.763  1.00  0.00    -0.206 F 
ATOM     83  C   UNL     1      12.258 -10.268 -11.636  1.00  0.00     0.060 A 
BRANCH  83  84
ATOM     84  S   UNL     1      12.489 -11.981 -11.110  1.00  0.00     0.124 S 
ATOM     85  O   UNL     1      13.311 -12.513 -12.191  1.00  0.00    -0.237 OA
ATOM     86  O   UNL     1      13.156 -11.816  -9.822  1.00  0.00    -0.237 OA
ATOM     87  O   UNL     1      11.126 -12.498 -11.040  1.00  0.00    -0.744 OA
ENDBRANCH  83  84
ENDBRANCH  51  76
BRANCH  63  88
ATOM     88  C   UNL     1      14.047  -3.215 -17.355  1.00  0.00     0.058 A 
ATOM     89  C   UNL     1      13.523  -3.863 -18.484  1.00  0.00     0.135 A 
ATOM     90  C   UNL     1      15.344  -2.685 -17.445  1.00  0.00     0.135 A 
ATOM     91  F   UNL     1      12.290  -4.392 -18.448  1.00  0.00    -0.206 F 
ATOM     92  C   UNL     1      14.262  -3.991 -19.655  1.00  0.00     0.059 A 
ATOM     93  C   UNL     1      16.092  -2.780 -18.614  1.00  0.00     0.059 A 
ATOM     94  F   UNL     1      15.889  -2.047 -16.396  1.00  0.00    -0.206 F 
ATOM     95  C   UNL     1      15.544  -3.441 -19.713  1.00  0.00     0.060 A 
BRANCH  95  96
ATOM     96  S   UNL     1      16.472  -3.579 -21.255  1.00  0.00     0.124 S 
ATOM     97  O   UNL     1      16.801  -5.000 -21.275  1.00  0.00    -0.237 OA
ATOM     98  O   UNL     1      15.495  -3.140 -22.246  1.00  0.00    -0.237 OA
ATOM     99  O   UNL     1      17.602  -2.676 -21.055  1.00  0.00    -0.744 OA
ENDBRANCH  95  96
ENDBRANCH  63  88
ENDBRANCH  37  38
ENDBRANCH  30  32
ENDBRANCH  29  30
ENDBRANCH  28  29
ENDBRANCH   1  28
TORSDOF 17
