REMARK SMILES Cc1cc(C(=O)Nc2cccc(C(=O)NCC(=O)OCCOC(=O)c3ccc(-c4c5nc(c(-c6c(F)cc(S(=O)(=O)[O-])cc6F)c6ccc([nH]6)c(-c6c(F)cc(S(=O)(=O)[O-])cc6F)c6nc(c(-c7c(F)cc(S(=O)(=O)[O-])cc7F)c7ccc4[nH]7)C=C6)C=C5)cc3)c2)no1
REMARK SMILES IDX 20 1 19 2 17 3 18 4 16 5 15 6 13 7 14 8 12 10 8 11 9 12
REMARK SMILES IDX 91 13 10 14 11 15 7 16 5 17 6 18 4 20 1 21 2 22 3 23 93 24
REMARK SMILES IDX 92 25 21 26 22 27 23 28 24 29 25 30 26 31 90 32 27 33 89 34
REMARK SMILES IDX 28 35 29 36 30 37 83 38 31 39 88 40 82 41 84 42 32 43 87 44
REMARK SMILES IDX 81 45 80 46 33 48 67 49 46 50 66 51 47 52 50 53 65 54 85 55
REMARK SMILES IDX 48 56 49 57 64 59 86 60 51 61 34 62 35 63 44 64 36 65 37 66
REMARK SMILES IDX 43 67 45 68 38 69 39 70 40 71 41 72 42 73 68 74 69 75 78 76
REMARK SMILES IDX 70 77 71 78 77 79 79 80 72 81 73 82 74 83 75 84 76 85 52 86
REMARK SMILES IDX 53 87 62 88 54 89 55 90 61 91 63 92 56 93 57 94 58 95 59 96
REMARK SMILES IDX 60 97
REMARK H PARENT 15 9 7 19 84 47 50 58
REMARK Flexibility Score: inf
ROOT
ATOM      1  C   UNL     1      -1.208  -2.629   5.881  1.00  0.00     0.274 C 
ENDROOT
BRANCH   1   2
ATOM      2  O   UNL     1      -0.270  -2.837   4.811  1.00  0.00    -0.461 OA
BRANCH   2   3
ATOM      3  C   UNL     1      -0.344  -1.948   3.782  1.00  0.00     0.325 C 
ATOM      4  O   UNL     1      -1.233  -1.118   3.649  1.00  0.00    -0.250 OA
BRANCH   3   5
ATOM      5  C   UNL     1       0.906  -1.979   2.901  1.00  0.00     0.239 C 
BRANCH   5   6
ATOM      6  N   UNL     1       1.626  -3.236   2.932  1.00  0.00    -0.341 N 
ATOM      7  C   UNL     1       1.568  -4.350   2.143  1.00  0.00     0.251 C 
ATOM      8  O   UNL     1       2.346  -5.268   2.408  1.00  0.00    -0.269 OA
ATOM      9  H   UNL     1       2.284  -3.300   3.662  1.00  0.00     0.164 HD
BRANCH   7  10
ATOM     10  C   UNL     1       0.645  -4.509   0.975  1.00  0.00     0.041 A 
ATOM     11  C   UNL     1      -1.295  -3.980  -0.404  1.00  0.00     0.042 A 
ATOM     12  C   UNL     1      -1.003  -5.048  -1.248  1.00  0.00     0.026 A 
ATOM     13  C   UNL     1      -0.514  -3.763   0.740  1.00  0.00     0.040 A 
ATOM     14  C   UNL     1       0.136  -5.817  -1.022  1.00  0.00     0.003 A 
ATOM     15  C   UNL     1       0.962  -5.534   0.068  1.00  0.00     0.014 A 
BRANCH  11  16
ATOM     16  N   UNL     1      -2.392  -3.166  -0.728  1.00  0.00    -0.321 N 
ATOM     17  C   UNL     1      -2.592  -1.814  -0.491  1.00  0.00     0.277 C 
ATOM     18  O   UNL     1      -3.744  -1.384  -0.573  1.00  0.00    -0.267 OA
ATOM     19  H   UNL     1      -3.129  -3.623  -1.193  1.00  0.00     0.170 HD
BRANCH  17  20
ATOM     20  C   UNL     1      -1.426  -0.941  -0.297  1.00  0.00     0.171 A 
ATOM     21  C   UNL     1       1.992   0.428  -0.425  1.00  0.00     0.091 C 
ATOM     22  C   UNL     1       0.586  -0.007  -0.335  1.00  0.00     0.134 A 
ATOM     23  C   UNL     1      -0.134  -1.034  -0.892  1.00  0.00     0.082 A 
ATOM     24  O   UNL     1      -0.226   0.705   0.487  1.00  0.00    -0.361 OA
ATOM     25  N   UNL     1      -1.484   0.135   0.505  1.00  0.00    -0.074 NA
ENDBRANCH  17  20
ENDBRANCH  11  16
ENDBRANCH   7  10
ENDBRANCH   5   6
ENDBRANCH   3   5
ENDBRANCH   2   3
ENDBRANCH   1   2
BRANCH   1  26
ATOM     26  C   UNL     1      -0.582  -1.787   6.998  1.00  0.00     0.275 C 
BRANCH  26  27
ATOM     27  O   UNL     1      -0.397  -0.412   6.605  1.00  0.00    -0.458 OA
BRANCH  27  28
ATOM     28  C   UNL     1       0.796  -0.124   6.042  1.00  0.00     0.338 C 
ATOM     29  O   UNL     1       1.724  -0.899   5.838  1.00  0.00    -0.246 OA
BRANCH  28  30
ATOM     30  C   UNL     1       0.826   1.272   5.594  1.00  0.00     0.060 A 
ATOM     31  C   UNL     1       0.682   1.556   4.232  1.00  0.00     0.016 A 
ATOM     32  C   UNL     1       1.131   2.285   6.503  1.00  0.00     0.016 A 
ATOM     33  C   UNL     1       0.888   2.850   3.764  1.00  0.00     0.010 A 
ATOM     34  C   UNL     1       1.303   3.589   6.035  1.00  0.00     0.010 A 
ATOM     35  C   UNL     1       1.208   3.876   4.661  1.00  0.00    -0.014 A 
BRANCH  35  36
ATOM     36  C   UNL     1       1.490   5.245   4.168  1.00  0.00     0.031 A 
ATOM     37  C   UNL     1       2.883   5.799   4.276  1.00  0.00     0.074 A 
ATOM     38  C   UNL     1       0.501   5.990   3.641  1.00  0.00     0.049 A 
ATOM     39  N   UNL     1       3.304   7.022   4.089  1.00  0.00    -0.248 NA
ATOM     40  C   UNL     1       3.942   4.849   4.653  1.00  0.00     0.031 C 
ATOM     41  C   UNL     1      -0.877   5.541   3.432  1.00  0.00     0.029 A 
ATOM     42  N   UNL     1       0.501   7.288   3.198  1.00  0.00    -0.354 N 
ATOM     43  C   UNL     1       4.665   7.001   4.367  1.00  0.00     0.074 A 
ATOM     44  C   UNL     1       5.002   5.642   4.733  1.00  0.00     0.031 C 
ATOM     45  C   UNL     1      -1.590   6.550   2.906  1.00  0.00     0.029 A 
ATOM     46  C   UNL     1      -0.738   7.729   2.799  1.00  0.00     0.049 A 
ATOM     47  H   UNL     1       1.310   7.849   3.168  1.00  0.00     0.167 HD
ATOM     48  C   UNL     1       5.549   8.026   4.324  1.00  0.00     0.037 A 
ATOM     49  C   UNL     1      -1.149   8.958   2.431  1.00  0.00     0.037 A 
ATOM     50  C   UNL     1       5.207   9.368   3.930  1.00  0.00     0.049 A 
ATOM     51  C   UNL     1      -0.158  10.088   2.423  1.00  0.00     0.074 A 
ATOM     52  C   UNL     1       6.025  10.481   3.854  1.00  0.00     0.029 A 
ATOM     53  N   UNL     1       3.940   9.774   3.533  1.00  0.00    -0.354 N 
ATOM     54  N   UNL     1       1.116  10.068   2.735  1.00  0.00    -0.248 NA
ATOM     55  C   UNL     1      -0.662  11.410   2.026  1.00  0.00     0.031 C 
ATOM     56  C   UNL     1       5.247  11.567   3.435  1.00  0.00     0.029 A 
ATOM     57  C   UNL     1       3.953  11.122   3.217  1.00  0.00     0.049 A 
ATOM     58  H   UNL     1       3.149   9.190   3.484  1.00  0.00     0.167 HD
ATOM     59  C   UNL     1       1.571  11.369   2.557  1.00  0.00     0.074 A 
ATOM     60  C   UNL     1       0.437  12.149   2.102  1.00  0.00     0.031 C 
ATOM     61  C   UNL     1       2.813  11.874   2.755  1.00  0.00     0.037 A 
BRANCH  48  62
ATOM     62  C   UNL     1       6.962   7.742   4.749  1.00  0.00     0.058 A 
ATOM     63  C   UNL     1       7.852   7.030   3.932  1.00  0.00     0.135 A 
ATOM     64  C   UNL     1       7.435   8.205   5.988  1.00  0.00     0.135 A 
ATOM     65  F   UNL     1       7.445   6.548   2.747  1.00  0.00    -0.206 F 
ATOM     66  C   UNL     1       9.157   6.763   4.339  1.00  0.00     0.059 A 
ATOM     67  C   UNL     1       8.742   7.969   6.406  1.00  0.00     0.059 A 
ATOM     68  F   UNL     1       6.623   8.889   6.809  1.00  0.00    -0.206 F 
ATOM     69  C   UNL     1       9.590   7.232   5.580  1.00  0.00     0.060 A 
BRANCH  69  70
ATOM     70  S   UNL     1      11.281   6.873   6.103  1.00  0.00     0.124 S 
ATOM     71  O   UNL     1      11.168   5.475   6.507  1.00  0.00    -0.237 OA
ATOM     72  O   UNL     1      12.047   7.120   4.885  1.00  0.00    -0.237 OA
ATOM     73  O   UNL     1      11.510   7.824   7.186  1.00  0.00    -0.744 OA
ENDBRANCH  69  70
ENDBRANCH  48  62
BRANCH  49  74
ATOM     74  C   UNL     1      -2.574   9.182   2.076  1.00  0.00     0.058 A 
ATOM     75  C   UNL     1      -2.960   9.408   0.748  1.00  0.00     0.135 A 
ATOM     76  C   UNL     1      -3.579   9.149   3.055  1.00  0.00     0.135 A 
ATOM     77  F   UNL     1      -2.033   9.458  -0.220  1.00  0.00    -0.206 F 
ATOM     78  C   UNL     1      -4.293   9.601   0.401  1.00  0.00     0.059 A 
ATOM     79  C   UNL     1      -4.921   9.316   2.731  1.00  0.00     0.059 A 
ATOM     80  F   UNL     1      -3.260   8.925   4.340  1.00  0.00    -0.206 F 
ATOM     81  C   UNL     1      -5.268   9.551   1.400  1.00  0.00     0.060 A 
BRANCH  81  82
ATOM     82  S   UNL     1      -7.002   9.749   0.938  1.00  0.00     0.124 S 
ATOM     83  O   UNL     1      -7.095  11.194   0.764  1.00  0.00    -0.237 OA
ATOM     84  O   UNL     1      -7.092   8.954  -0.283  1.00  0.00    -0.237 OA
ATOM     85  O   UNL     1      -7.718   9.203   2.087  1.00  0.00    -0.744 OA
ENDBRANCH  81  82
ENDBRANCH  49  74
BRANCH  61  86
ATOM     86  C   UNL     1       3.019  13.328   2.446  1.00  0.00     0.058 A 
ATOM     87  C   UNL     1       2.585  14.333   3.323  1.00  0.00     0.135 A 
ATOM     88  C   UNL     1       3.703  13.716   1.284  1.00  0.00     0.135 A 
ATOM     89  F   UNL     1       1.920  14.011   4.444  1.00  0.00    -0.206 F 
ATOM     90  C   UNL     1       2.809  15.678   3.050  1.00  0.00     0.059 A 
ATOM     91  C   UNL     1       3.954  15.054   1.000  1.00  0.00     0.059 A 
ATOM     92  F   UNL     1       4.144  12.789   0.418  1.00  0.00    -0.206 F 
ATOM     93  C   UNL     1       3.495  16.029   1.885  1.00  0.00     0.060 A 
BRANCH  93  94
ATOM     94  S   UNL     1       3.816  17.775   1.556  1.00  0.00     0.124 S 
ATOM     95  O   UNL     1       2.520  18.223   1.057  1.00  0.00    -0.237 OA
ATOM     96  O   UNL     1       4.198  18.279   2.871  1.00  0.00    -0.237 OA
ATOM     97  O   UNL     1       4.892  17.740   0.570  1.00  0.00    -0.744 OA
ENDBRANCH  93  94
ENDBRANCH  61  86
ENDBRANCH  35  36
ENDBRANCH  28  30
ENDBRANCH  27  28
ENDBRANCH  26  27
ENDBRANCH   1  26
TORSDOF 18
