REMARK SMILES COCCCC(=O)N[C@H]1CC[C@@H](C(=O)OCCOC(=O)c2ccc(-c3c4nc(c(-c5c(F)cc(S(=O)(=O)[O-])cc5F)c5ccc([nH]5)c(-c5c(F)cc(S(=O)(=O)[O-])cc5F)c5nc(c(-c6c(F)cc(S(=O)(=O)[O-])cc6F)c6ccc3[nH]6)C=C5)C=C4)cc2)CC1
REMARK SMILES IDX 16 1 15 2 13 3 14 4 12 5 9 6 10 7 88 8 11 9 87 10 8 11 6 12
REMARK SMILES IDX 7 13 5 15 4 16 3 17 2 18 1 19 17 20 18 21 19 22 20 23 21 24
REMARK SMILES IDX 22 25 86 26 23 27 85 28 24 29 25 30 26 31 79 32 27 33 84 34
REMARK SMILES IDX 78 35 80 36 28 37 83 38 77 39 76 40 29 42 63 43 42 44 62 45
REMARK SMILES IDX 43 46 46 47 61 48 81 49 44 50 45 51 60 53 82 54 47 55 30 56
REMARK SMILES IDX 31 57 40 58 32 59 33 60 39 61 41 62 34 63 35 64 36 65 37 66
REMARK SMILES IDX 38 67 64 68 65 69 74 70 66 71 67 72 73 73 75 74 68 75 69 76
REMARK SMILES IDX 70 77 71 78 72 79 48 80 49 81 58 82 50 83 51 84 57 85 59 86
REMARK SMILES IDX 52 87 53 88 54 89 55 90 56 91
REMARK H PARENT 8 14 80 41 46 52
REMARK Flexibility Score: inf
ROOT
ATOM      1  C   UNL     1       6.776  -1.162   3.359  1.00  0.00     0.274 C 
ENDROOT
BRANCH   1   2
ATOM      2  O   UNL     1       5.428  -1.114   2.860  1.00  0.00    -0.462 OA
BRANCH   2   3
ATOM      3  C   UNL     1       4.487  -1.779   3.575  1.00  0.00     0.309 C 
ATOM      4  O   UNL     1       4.717  -2.479   4.551  1.00  0.00    -0.252 OA
BRANCH   3   5
ATOM      5  C   UNL     1       3.092  -1.615   2.989  1.00  0.00     0.099 C 
ATOM      6  C   UNL     1       2.974  -1.346   0.054  1.00  0.00     0.082 C 
ATOM      7  C   UNL     1       3.368  -2.671   0.710  1.00  0.00     0.026 C 
ATOM      8  C   UNL     1       3.402  -0.146   0.887  1.00  0.00     0.026 C 
ATOM      9  C   UNL     1       2.756  -2.805   2.096  1.00  0.00     0.017 C 
ATOM     10  C   UNL     1       2.831  -0.262   2.305  1.00  0.00     0.017 C 
BRANCH   6  11
ATOM     11  N   UNL     1       3.475  -1.327  -1.304  1.00  0.00    -0.353 N 
ATOM     12  C   UNL     1       2.750  -1.434  -2.454  1.00  0.00     0.220 C 
ATOM     13  O   UNL     1       3.322  -1.790  -3.485  1.00  0.00    -0.275 OA
ATOM     14  H   UNL     1       4.449  -1.225  -1.409  1.00  0.00     0.163 HD
BRANCH  12  15
ATOM     15  C   UNL     1       1.292  -1.012  -2.468  1.00  0.00     0.102 C 
BRANCH  15  16
ATOM     16  C   UNL     1       0.231  -2.073  -2.167  1.00  0.00     0.038 C 
BRANCH  16  17
ATOM     17  C   UNL     1      -0.156  -2.413  -0.722  1.00  0.00     0.160 C 
BRANCH  17  18
ATOM     18  O   UNL     1      -0.645  -1.435   0.189  1.00  0.00    -0.385 OA
ATOM     19  C   UNL     1      -0.692  -0.072  -0.174  1.00  0.00     0.194 C 
ENDBRANCH  17  18
ENDBRANCH  16  17
ENDBRANCH  15  16
ENDBRANCH  12  15
ENDBRANCH   6  11
ENDBRANCH   3   5
ENDBRANCH   2   3
ENDBRANCH   1   2
BRANCH   1  20
ATOM     20  C   UNL     1       7.117   0.119   4.121  1.00  0.00     0.275 C 
BRANCH  20  21
ATOM     21  O   UNL     1       6.375   0.197   5.351  1.00  0.00    -0.458 OA
BRANCH  21  22
ATOM     22  C   UNL     1       5.250   0.946   5.308  1.00  0.00     0.338 C 
ATOM     23  O   UNL     1       4.847   1.622   4.371  1.00  0.00    -0.246 OA
BRANCH  22  24
ATOM     24  C   UNL     1       4.474   0.726   6.535  1.00  0.00     0.060 A 
ATOM     25  C   UNL     1       3.227   0.102   6.435  1.00  0.00     0.016 A 
ATOM     26  C   UNL     1       4.947   1.175   7.768  1.00  0.00     0.016 A 
ATOM     27  C   UNL     1       2.449  -0.093   7.571  1.00  0.00     0.010 A 
ATOM     28  C   UNL     1       4.160   0.988   8.907  1.00  0.00     0.010 A 
ATOM     29  C   UNL     1       2.906   0.358   8.814  1.00  0.00    -0.014 A 
BRANCH  29  30
ATOM     30  C   UNL     1       2.045   0.231  10.012  1.00  0.00     0.031 A 
ATOM     31  C   UNL     1       1.348   1.446  10.548  1.00  0.00     0.074 A 
ATOM     32  C   UNL     1       1.898  -0.964  10.613  1.00  0.00     0.049 A 
ATOM     33  N   UNL     1       0.662   1.588  11.652  1.00  0.00    -0.248 NA
ATOM     34  C   UNL     1       1.439   2.668   9.732  1.00  0.00     0.031 C 
ATOM     35  C   UNL     1       2.487  -2.220  10.149  1.00  0.00     0.029 A 
ATOM     36  N   UNL     1       1.216  -1.313  11.751  1.00  0.00    -0.354 N 
ATOM     37  C   UNL     1       0.262   2.918  11.680  1.00  0.00     0.074 A 
ATOM     38  C   UNL     1       0.789   3.544  10.486  1.00  0.00     0.031 C 
ATOM     39  C   UNL     1       2.152  -3.202  11.003  1.00  0.00     0.029 A 
ATOM     40  C   UNL     1       1.366  -2.635  12.096  1.00  0.00     0.049 A 
ATOM     41  H   UNL     1       0.673  -0.677  12.270  1.00  0.00     0.167 HD
ATOM     42  C   UNL     1      -0.474   3.555  12.620  1.00  0.00     0.037 A 
ATOM     43  C   UNL     1       0.946  -3.302  13.188  1.00  0.00     0.037 A 
ATOM     44  C   UNL     1      -1.003   2.915  13.797  1.00  0.00     0.049 A 
ATOM     45  C   UNL     1       0.169  -2.562  14.243  1.00  0.00     0.074 A 
ATOM     46  C   UNL     1      -1.769   3.468  14.808  1.00  0.00     0.029 A 
ATOM     47  N   UNL     1      -0.822   1.578  14.119  1.00  0.00    -0.354 N 
ATOM     48  N   UNL     1      -0.188  -1.299  14.270  1.00  0.00    -0.248 NA
ATOM     49  C   UNL     1      -0.255  -3.332  15.420  1.00  0.00     0.031 C 
ATOM     50  C   UNL     1      -2.020   2.473  15.760  1.00  0.00     0.029 A 
ATOM     51  C   UNL     1      -1.447   1.290  15.320  1.00  0.00     0.049 A 
ATOM     52  H   UNL     1      -0.322   0.928  13.573  1.00  0.00     0.167 HD
ATOM     53  C   UNL     1      -0.894  -1.128  15.455  1.00  0.00     0.074 A 
ATOM     54  C   UNL     1      -0.924  -2.419  16.113  1.00  0.00     0.031 C 
ATOM     55  C   UNL     1      -1.467  -0.005  15.955  1.00  0.00     0.037 A 
BRANCH  42  56
ATOM     56  C   UNL     1      -0.719   5.025  12.431  1.00  0.00     0.058 A 
ATOM     57  C   UNL     1      -1.614   5.510  11.465  1.00  0.00     0.135 A 
ATOM     58  C   UNL     1      -0.059   5.963  13.242  1.00  0.00     0.135 A 
ATOM     59  F   UNL     1      -2.256   4.657  10.650  1.00  0.00    -0.206 F 
ATOM     60  C   UNL     1      -1.829   6.874  11.292  1.00  0.00     0.059 A 
ATOM     61  C   UNL     1      -0.276   7.330  13.103  1.00  0.00     0.059 A 
ATOM     62  F   UNL     1       0.811   5.553  14.178  1.00  0.00    -0.206 F 
ATOM     63  C   UNL     1      -1.152   7.777  12.114  1.00  0.00     0.060 A 
BRANCH  63  64
ATOM     64  S   UNL     1      -1.435   9.544  11.877  1.00  0.00     0.124 S 
ATOM     65  O   UNL     1      -0.680   9.797  10.654  1.00  0.00    -0.237 OA
ATOM     66  O   UNL     1      -2.887   9.615  11.750  1.00  0.00    -0.237 OA
ATOM     67  O   UNL     1      -0.885  10.142  13.089  1.00  0.00    -0.744 OA
ENDBRANCH  63  64
ENDBRANCH  42  56
BRANCH  43  68
ATOM     68  C   UNL     1       1.277  -4.742  13.349  1.00  0.00     0.058 A 
ATOM     69  C   UNL     1       0.287  -5.729  13.242  1.00  0.00     0.135 A 
ATOM     70  C   UNL     1       2.595  -5.161  13.594  1.00  0.00     0.135 A 
ATOM     71  F   UNL     1      -0.988  -5.378  13.020  1.00  0.00    -0.206 F 
ATOM     72  C   UNL     1       0.589  -7.081  13.378  1.00  0.00     0.059 A 
ATOM     73  C   UNL     1       2.925  -6.507  13.711  1.00  0.00     0.059 A 
ATOM     74  F   UNL     1       3.580  -4.255  13.696  1.00  0.00    -0.206 F 
ATOM     75  C   UNL     1       1.913  -7.460  13.609  1.00  0.00     0.060 A 
BRANCH  75  76
ATOM     76  S   UNL     1       2.305  -9.219  13.726  1.00  0.00     0.124 S 
ATOM     77  O   UNL     1       1.808  -9.543  15.058  1.00  0.00    -0.237 OA
ATOM     78  O   UNL     1       1.550  -9.779  12.609  1.00  0.00    -0.237 OA
ATOM     79  O   UNL     1       3.756  -9.249  13.567  1.00  0.00    -0.744 OA
ENDBRANCH  75  76
ENDBRANCH  43  68
BRANCH  55  80
ATOM     80  C   UNL     1      -2.199  -0.128  17.261  1.00  0.00     0.058 A 
ATOM     81  C   UNL     1      -1.514  -0.238  18.481  1.00  0.00     0.135 A 
ATOM     82  C   UNL     1      -3.602  -0.082  17.296  1.00  0.00     0.135 A 
ATOM     83  F   UNL     1      -0.173  -0.292  18.500  1.00  0.00    -0.206 F 
ATOM     84  C   UNL     1      -2.196  -0.317  19.690  1.00  0.00     0.059 A 
ATOM     85  C   UNL     1      -4.303  -0.137  18.495  1.00  0.00     0.059 A 
ATOM     86  F   UNL     1      -4.303   0.033  16.157  1.00  0.00    -0.206 F 
ATOM     87  C   UNL     1      -3.591  -0.266  19.688  1.00  0.00     0.060 A 
BRANCH  87  88
ATOM     88  S   UNL     1      -4.466  -0.334  21.265  1.00  0.00     0.124 S 
ATOM     89  O   UNL     1      -4.370  -1.752  21.593  1.00  0.00    -0.237 OA
ATOM     90  O   UNL     1      -3.677   0.565  22.102  1.00  0.00    -0.237 OA
ATOM     91  O   UNL     1      -5.804   0.145  20.932  1.00  0.00    -0.744 OA
ENDBRANCH  87  88
ENDBRANCH  55  80
ENDBRANCH  29  30
ENDBRANCH  22  24
ENDBRANCH  21  22
ENDBRANCH  20  21
ENDBRANCH   1  20
TORSDOF 19
