REMARK SMILES CC(=O)N/C(=C\c1ccccc1)C(=O)N[C@H](C(=O)OCCOC(=O)c1ccc(-c2c3nc(c(-c4c(F)cc(S(=O)(=O)[O-])cc4F)c4ccc([nH]4)c(-c4c(F)cc(S(=O)(=O)[O-])cc4F)c4nc(c(-c5c(F)cc(S(=O)(=O)[O-])cc5F)c5ccc2[nH]5)C=C4)C=C3)cc1)C(C)C
REMARK SMILES IDX 20 1 19 2 17 3 18 4 16 5 15 6 13 7 14 8 5 10 6 11 4 12 1 13
REMARK SMILES IDX 2 14 3 15 7 17 8 18 12 19 9 20 11 21 10 22 91 23 92 24 93 25
REMARK SMILES IDX 21 26 22 27 23 28 24 29 25 30 26 31 90 32 27 33 89 34 28 35
REMARK SMILES IDX 29 36 30 37 83 38 31 39 88 40 82 41 84 42 32 43 87 44 81 45
REMARK SMILES IDX 80 46 33 48 67 49 46 50 66 51 47 52 50 53 65 54 85 55 48 56
REMARK SMILES IDX 49 57 64 59 86 60 51 61 34 62 35 63 44 64 36 65 37 66 43 67
REMARK SMILES IDX 45 68 38 69 39 70 40 71 41 72 42 73 68 74 69 75 78 76 70 77
REMARK SMILES IDX 71 78 77 79 79 80 72 81 73 82 74 83 75 84 76 85 52 86 53 87
REMARK SMILES IDX 62 88 54 89 55 90 61 91 63 92 56 93 57 94 58 95 59 96 60 97
REMARK H PARENT 15 9 4 16 84 47 50 58
REMARK Flexibility Score: inf
ROOT
ATOM      1  C   UNL     1       3.334   1.561  -0.915  1.00  0.00     0.274 C 
ENDROOT
BRANCH   1   2
ATOM      2  O   UNL     1       4.075   1.170  -2.090  1.00  0.00    -0.461 OA
BRANCH   2   3
ATOM      3  C   UNL     1       3.388   0.564  -3.096  1.00  0.00     0.329 C 
ATOM      4  O   UNL     1       2.198   0.273  -3.033  1.00  0.00    -0.250 OA
BRANCH   3   5
ATOM      5  C   UNL     1       4.245   0.336  -4.375  1.00  0.00     0.195 C 
BRANCH   5   6
ATOM      6  N   UNL     1       3.624   1.134  -5.458  1.00  0.00    -0.337 N 
ATOM      7  C   UNL     1       3.052   0.823  -6.669  1.00  0.00     0.268 C 
ATOM      8  O   UNL     1       2.134   1.539  -7.058  1.00  0.00    -0.268 OA
ATOM      9  H   UNL     1       3.621   2.100  -5.269  1.00  0.00     0.164 HD
BRANCH   7  10
ATOM     10  C   UNL     1       3.635  -0.234  -7.574  1.00  0.00     0.107 C 
ATOM     11  C   UNL     1       3.949  -1.423  -7.026  1.00  0.00     0.040 C 
BRANCH  10  12
ATOM     12  N   UNL     1       3.829  -0.045  -8.933  1.00  0.00    -0.322 N 
ATOM     13  C   UNL     1       2.823   2.175  -9.597  1.00  0.00     0.114 C 
ATOM     14  C   UNL     1       3.571   0.907  -9.867  1.00  0.00     0.221 C 
ATOM     15  O   UNL     1       3.977   0.666 -11.012  1.00  0.00    -0.275 OA
ATOM     16  H   UNL     1       4.282  -0.821  -9.335  1.00  0.00     0.170 HD
ENDBRANCH  10  12
BRANCH  11  17
ATOM     17  C   UNL     1       4.875  -2.460  -7.523  1.00  0.00    -0.023 A 
ATOM     18  C   UNL     1       4.735  -3.771  -7.051  1.00  0.00     0.008 A 
ATOM     19  C   UNL     1       6.026  -2.136  -8.261  1.00  0.00     0.008 A 
ATOM     20  C   UNL     1       5.712  -4.733  -7.322  1.00  0.00     0.001 A 
ATOM     21  C   UNL     1       6.991  -3.102  -8.550  1.00  0.00     0.001 A 
ATOM     22  C   UNL     1       6.837  -4.399  -8.073  1.00  0.00     0.000 A 
ENDBRANCH  11  17
ENDBRANCH   7  10
ENDBRANCH   5   6
BRANCH   5  23
ATOM     23  C   UNL     1       5.756   0.594  -4.193  1.00  0.00     0.017 C 
ATOM     24  C   UNL     1       6.370  -0.500  -3.301  1.00  0.00     0.010 C 
ATOM     25  C   UNL     1       6.522   0.611  -5.518  1.00  0.00     0.010 C 
ENDBRANCH   5  23
ENDBRANCH   3   5
ENDBRANCH   2   3
ENDBRANCH   1   2
BRANCH   1  26
ATOM     26  C   UNL     1       3.141   3.081  -0.869  1.00  0.00     0.275 C 
BRANCH  26  27
ATOM     27  O   UNL     1       2.043   3.506  -1.696  1.00  0.00    -0.458 OA
BRANCH  27  28
ATOM     28  C   UNL     1       2.337   3.664  -3.002  1.00  0.00     0.338 C 
ATOM     29  O   UNL     1       3.428   3.515  -3.542  1.00  0.00    -0.246 OA
BRANCH  28  30
ATOM     30  C   UNL     1       1.114   3.893  -3.772  1.00  0.00     0.060 A 
ATOM     31  C   UNL     1       0.733   2.895  -4.665  1.00  0.00     0.016 A 
ATOM     32  C   UNL     1       0.434   5.110  -3.734  1.00  0.00     0.016 A 
ATOM     33  C   UNL     1      -0.255   3.141  -5.603  1.00  0.00     0.010 A 
ATOM     34  C   UNL     1      -0.618   5.327  -4.631  1.00  0.00     0.010 A 
ATOM     35  C   UNL     1      -0.948   4.354  -5.593  1.00  0.00    -0.014 A 
BRANCH  35  36
ATOM     36  C   UNL     1      -2.000   4.586  -6.609  1.00  0.00     0.031 A 
ATOM     37  C   UNL     1      -1.817   5.641  -7.661  1.00  0.00     0.074 A 
ATOM     38  C   UNL     1      -3.098   3.807  -6.609  1.00  0.00     0.049 A 
ATOM     39  N   UNL     1      -2.669   6.069  -8.556  1.00  0.00    -0.248 NA
ATOM     40  C   UNL     1      -0.508   6.310  -7.705  1.00  0.00     0.031 C 
ATOM     41  C   UNL     1      -3.354   2.712  -5.669  1.00  0.00     0.029 A 
ATOM     42  N   UNL     1      -4.196   3.806  -7.428  1.00  0.00    -0.354 N 
ATOM     43  C   UNL     1      -2.018   7.086  -9.243  1.00  0.00     0.074 A 
ATOM     44  C   UNL     1      -0.700   7.214  -8.657  1.00  0.00     0.031 C 
ATOM     45  C   UNL     1      -4.524   2.134  -5.977  1.00  0.00     0.029 A 
ATOM     46  C   UNL     1      -5.130   2.857  -7.089  1.00  0.00     0.049 A 
ATOM     47  H   UNL     1      -4.305   4.425  -8.186  1.00  0.00     0.167 HD
ATOM     48  C   UNL     1      -2.483   7.843 -10.266  1.00  0.00     0.037 A 
ATOM     49  C   UNL     1      -6.355   2.619  -7.592  1.00  0.00     0.037 A 
ATOM     50  C   UNL     1      -3.784   7.676 -10.861  1.00  0.00     0.049 A 
ATOM     51  C   UNL     1      -6.856   3.474  -8.717  1.00  0.00     0.074 A 
ATOM     52  C   UNL     1      -4.359   8.391 -11.897  1.00  0.00     0.029 A 
ATOM     53  N   UNL     1      -4.709   6.712 -10.480  1.00  0.00    -0.354 N 
ATOM     54  N   UNL     1      -6.255   4.475  -9.316  1.00  0.00    -0.248 NA
ATOM     55  C   UNL     1      -8.200   3.182  -9.226  1.00  0.00     0.031 C 
ATOM     56  C   UNL     1      -5.642   7.877 -12.124  1.00  0.00     0.029 A 
ATOM     57  C   UNL     1      -5.854   6.820 -11.253  1.00  0.00     0.049 A 
ATOM     58  H   UNL     1      -4.571   6.050  -9.765  1.00  0.00     0.167 HD
ATOM     59  C   UNL     1      -7.149   4.936 -10.273  1.00  0.00     0.074 A 
ATOM     60  C   UNL     1      -8.324   4.089 -10.186  1.00  0.00     0.031 C 
ATOM     61  C   UNL     1      -7.014   5.971 -11.139  1.00  0.00     0.037 A 
BRANCH  48  62
ATOM     62  C   UNL     1      -1.592   8.945 -10.764  1.00  0.00     0.058 A 
ATOM     63  C   UNL     1      -0.451   8.688 -11.540  1.00  0.00     0.135 A 
ATOM     64  C   UNL     1      -1.878  10.283 -10.445  1.00  0.00     0.135 A 
ATOM     65  F   UNL     1      -0.121   7.427 -11.859  1.00  0.00    -0.206 F 
ATOM     66  C   UNL     1       0.399   9.714 -11.947  1.00  0.00     0.059 A 
ATOM     67  C   UNL     1      -1.056  11.326 -10.860  1.00  0.00     0.059 A 
ATOM     68  F   UNL     1      -2.957  10.586  -9.706  1.00  0.00    -0.206 F 
ATOM     69  C   UNL     1       0.093  11.029 -11.592  1.00  0.00     0.060 A 
BRANCH  69  70
ATOM     70  S   UNL     1       1.218  12.352 -12.089  1.00  0.00     0.124 S 
ATOM     71  O   UNL     1       2.281  12.217 -11.098  1.00  0.00    -0.237 OA
ATOM     72  O   UNL     1       1.573  11.973 -13.453  1.00  0.00    -0.237 OA
ATOM     73  O   UNL     1       0.399  13.555 -11.971  1.00  0.00    -0.744 OA
ENDBRANCH  69  70
ENDBRANCH  48  62
BRANCH  49  74
ATOM     74  C   UNL     1      -7.185   1.544  -6.992  1.00  0.00     0.058 A 
ATOM     75  C   UNL     1      -7.385   0.326  -7.655  1.00  0.00     0.135 A 
ATOM     76  C   UNL     1      -7.722   1.686  -5.702  1.00  0.00     0.135 A 
ATOM     77  F   UNL     1      -6.897   0.147  -8.892  1.00  0.00    -0.206 F 
ATOM     78  C   UNL     1      -8.077  -0.722  -7.056  1.00  0.00     0.059 A 
ATOM     79  C   UNL     1      -8.399   0.646  -5.074  1.00  0.00     0.059 A 
ATOM     80  F   UNL     1      -7.543   2.829  -5.021  1.00  0.00    -0.206 F 
ATOM     81  C   UNL     1      -8.571  -0.555  -5.760  1.00  0.00     0.060 A 
BRANCH  81  82
ATOM     82  S   UNL     1      -9.375  -1.953  -4.945  1.00  0.00     0.124 S 
ATOM     83  O   UNL     1     -10.700  -1.925  -5.553  1.00  0.00    -0.237 OA
ATOM     84  O   UNL     1      -8.520  -3.072  -5.329  1.00  0.00    -0.237 OA
ATOM     85  O   UNL     1      -9.319  -1.591  -3.531  1.00  0.00    -0.744 OA
ENDBRANCH  81  82
ENDBRANCH  49  74
BRANCH  61  86
ATOM     86  C   UNL     1      -8.169   6.238 -12.059  1.00  0.00     0.058 A 
ATOM     87  C   UNL     1      -9.329   6.883 -11.604  1.00  0.00     0.135 A 
ATOM     88  C   UNL     1      -8.101   5.879 -13.413  1.00  0.00     0.135 A 
ATOM     89  F   UNL     1      -9.444   7.238 -10.314  1.00  0.00    -0.206 F 
ATOM     90  C   UNL     1     -10.394   7.146 -12.458  1.00  0.00     0.059 A 
ATOM     91  C   UNL     1      -9.146   6.149 -14.290  1.00  0.00     0.059 A 
ATOM     92  F   UNL     1      -7.009   5.266 -13.896  1.00  0.00    -0.206 F 
ATOM     93  C   UNL     1     -10.294   6.772 -13.800  1.00  0.00     0.060 A 
BRANCH  93  94
ATOM     94  S   UNL     1     -11.670   7.141 -14.909  1.00  0.00     0.124 S 
ATOM     95  O   UNL     1     -12.614   6.082 -14.568  1.00  0.00    -0.237 OA
ATOM     96  O   UNL     1     -12.054   8.489 -14.500  1.00  0.00    -0.237 OA
ATOM     97  O   UNL     1     -11.069   7.045 -16.236  1.00  0.00    -0.744 OA
ENDBRANCH  93  94
ENDBRANCH  61  86
ENDBRANCH  35  36
ENDBRANCH  28  30
ENDBRANCH  27  28
ENDBRANCH  26  27
ENDBRANCH   1  26
TORSDOF 19
