REMARK SMILES [NH3+][C@@H](Cc1c[nH]c2ccccc12)C(=O)N[C@@H](CS)C(=O)N[C@@H](CO)C(=O)OCCOC(=O)c1ccc(-c2c3nc(c(-c4c(F)cc(S(=O)(=O)[O-])cc4F)c4ccc([nH]4)c(-c4c(F)cc(S(=O)(=O)[O-])cc4F)c4nc(c(-c5c(F)cc(S(=O)(=O)[O-])cc5F)c5ccc2[nH]5)C=C4)C=C3)cc1
REMARK SMILES IDX 27 1 25 2 26 3 22 4 21 5 19 6 20 7 16 9 15 10 13 11 14 12
REMARK SMILES IDX 2 14 1 15 3 19 4 20 5 21 12 22 6 23 7 24 11 25 8 27 10 28
REMARK SMILES IDX 9 29 17 30 18 31 23 33 24 34 28 36 29 37 30 38 31 39 32 40
REMARK SMILES IDX 33 41 34 42 98 43 35 44 97 45 36 46 37 47 38 48 91 49 39 50
REMARK SMILES IDX 96 51 90 52 92 53 40 54 95 55 89 56 88 57 41 59 75 60 54 61
REMARK SMILES IDX 74 62 55 63 58 64 73 65 93 66 56 67 57 68 72 70 94 71 59 72
REMARK SMILES IDX 42 73 43 74 52 75 44 76 45 77 51 78 53 79 46 80 47 81 48 82
REMARK SMILES IDX 49 83 50 84 76 85 77 86 86 87 78 88 79 89 85 90 87 91 80 92
REMARK SMILES IDX 81 93 82 94 83 95 84 96 60 97 61 98 70 99 62 100 63 101
REMARK SMILES IDX 69 102 71 103 64 104 65 105 66 106 67 107 68 108
REMARK H PARENT 21 8 15 13 1 16 1 17 1 18 6 26 18 32 24 35 92 58 58 69
REMARK Flexibility Score: inf
ROOT
ATOM      1  O   UNL     1      -5.103  -5.206  -0.248  1.00  0.00    -0.460 OA
ENDROOT
BRANCH   1   2
ATOM      2  C   UNL     1      -5.677  -4.023  -0.628  1.00  0.00     0.331 C 
ATOM      3  O   UNL     1      -6.704  -3.582  -0.118  1.00  0.00    -0.250 OA
BRANCH   2   4
ATOM      4  C   UNL     1      -4.856  -3.207  -1.680  1.00  0.00     0.218 C 
BRANCH   4   5
ATOM      5  N   UNL     1      -3.668  -3.818  -2.324  1.00  0.00    -0.339 N 
ATOM      6  C   UNL     1      -2.312  -3.674  -2.312  1.00  0.00     0.244 C 
ATOM      7  O   UNL     1      -1.783  -4.311  -3.248  1.00  0.00    -0.273 OA
ATOM      8  H   UNL     1      -3.936  -4.538  -2.940  1.00  0.00     0.164 HD
BRANCH   6   9
ATOM      9  C   UNL     1      -1.247  -2.686  -1.300  1.00  0.00     0.181 C 
BRANCH   9  10
ATOM     10  N   UNL     1      -1.334  -1.284  -2.315  1.00  0.00    -0.338 N 
ATOM     11  C   UNL     1      -0.569  -0.194  -2.687  1.00  0.00     0.279 C 
ATOM     12  O   UNL     1      -1.212   0.652  -3.339  1.00  0.00    -0.268 OA
ATOM     13  H   UNL     1      -2.205  -1.254  -2.772  1.00  0.00     0.164 HD
BRANCH  11  14
ATOM     14  C   UNL     1       0.959   0.153  -2.342  1.00  0.00     0.275 C 
BRANCH  14  15
ATOM     15  N   UNL     1       1.143   1.048  -1.156  1.00  0.00    -0.347 N 
ATOM     16  H   UNL     1       2.139   1.216  -1.008  1.00  0.00     0.345 HD
ATOM     17  H   UNL     1       0.748   0.602  -0.329  1.00  0.00     0.345 HD
ATOM     18  H   UNL     1       0.670   1.935  -1.323  1.00  0.00     0.345 HD
ENDBRANCH  14  15
BRANCH  14  19
ATOM     19  C   UNL     1       1.990  -0.970  -2.352  1.00  0.00     0.113 C 
BRANCH  19  20
ATOM     20  C   UNL     1       1.766  -2.021  -1.327  1.00  0.00    -0.016 A 
ATOM     21  C   UNL     1       2.412  -3.257  -1.309  1.00  0.00     0.087 A 
ATOM     22  C   UNL     1       0.619  -2.086  -0.497  1.00  0.00     0.003 A 
ATOM     23  N   UNL     1       1.674  -4.271  -0.718  1.00  0.00    -0.361 N 
ATOM     24  C   UNL     1       0.410  -3.824  -0.436  1.00  0.00     0.046 A 
ATOM     25  C   UNL     1      -0.806  -1.012  -0.135  1.00  0.00     0.010 A 
ATOM     26  H   UNL     1       2.008  -5.178  -0.530  1.00  0.00     0.166 HD
ATOM     27  C   UNL     1      -1.187  -4.543  -0.185  1.00  0.00     0.026 A 
ATOM     28  C   UNL     1      -2.451  -1.725   0.051  1.00  0.00     0.001 A 
ATOM     29  C   UNL     1      -2.591  -3.484   0.135  1.00  0.00     0.002 A 
ENDBRANCH  19  20
ENDBRANCH  14  19
ENDBRANCH  11  14
ENDBRANCH   9  10
BRANCH   9  30
ATOM     30  C   UNL     1      -0.845  -2.743   0.854  1.00  0.00     0.101 C 
BRANCH  30  31
ATOM     31  S   UNL     1      -1.631  -1.653   2.493  1.00  0.00    -0.177 SA
ATOM     32  H   UNL     1      -1.095  -0.403   2.505  1.00  0.00     0.102 HD
ENDBRANCH  30  31
ENDBRANCH   9  30
ENDBRANCH   6   9
ENDBRANCH   4   5
BRANCH   4  33
ATOM     33  C   UNL     1      -5.836  -2.748  -2.770  1.00  0.00     0.193 C 
BRANCH  33  34
ATOM     34  O   UNL     1      -6.162  -3.828  -3.648  1.00  0.00    -0.394 OA
ATOM     35  H   UNL     1      -5.355  -4.148  -4.080  1.00  0.00     0.210 HD
ENDBRANCH  33  34
ENDBRANCH   4  33
ENDBRANCH   2   4
ENDBRANCH   1   2
BRANCH   1  36
ATOM     36  C   UNL     1      -5.755  -5.925   0.836  1.00  0.00     0.274 C 
BRANCH  36  37
ATOM     37  C   UNL     1      -4.771  -6.349   1.944  1.00  0.00     0.275 C 
BRANCH  37  38
ATOM     38  O   UNL     1      -4.364  -5.263   2.821  1.00  0.00    -0.458 OA
BRANCH  38  39
ATOM     39  C   UNL     1      -3.213  -5.535   3.517  1.00  0.00     0.338 C 
ATOM     40  O   UNL     1      -2.533  -6.539   3.341  1.00  0.00    -0.246 OA
BRANCH  39  41
ATOM     41  C   UNL     1      -2.765  -4.452   4.451  1.00  0.00     0.060 A 
ATOM     42  C   UNL     1      -3.521  -3.341   4.810  1.00  0.00     0.016 A 
ATOM     43  C   UNL     1      -1.459  -4.516   4.949  1.00  0.00     0.016 A 
ATOM     44  C   UNL     1      -2.884  -2.221   5.409  1.00  0.00     0.010 A 
ATOM     45  C   UNL     1      -0.848  -3.393   5.541  1.00  0.00     0.010 A 
ATOM     46  C   UNL     1      -1.480  -2.142   5.566  1.00  0.00    -0.014 A 
BRANCH  46  47
ATOM     47  C   UNL     1      -0.644  -0.832   5.582  1.00  0.00     0.031 A 
ATOM     48  C   UNL     1       0.885  -0.854   5.354  1.00  0.00     0.074 A 
ATOM     49  C   UNL     1      -1.128   0.439   5.518  1.00  0.00     0.049 A 
ATOM     50  N   UNL     1       1.823  -0.059   5.819  1.00  0.00    -0.248 NA
ATOM     51  C   UNL     1       1.423  -1.885   4.445  1.00  0.00     0.031 C 
ATOM     52  C   UNL     1      -2.490   0.868   5.201  1.00  0.00     0.029 A 
ATOM     53  N   UNL     1      -0.481   1.645   5.750  1.00  0.00    -0.354 N 
ATOM     54  C   UNL     1       3.045  -0.591   5.391  1.00  0.00     0.074 A 
ATOM     55  C   UNL     1       2.734  -1.752   4.591  1.00  0.00     0.031 C 
ATOM     56  C   UNL     1      -2.619   2.184   5.424  1.00  0.00     0.029 A 
ATOM     57  C   UNL     1      -1.351   2.705   5.909  1.00  0.00     0.049 A 
ATOM     58  H   UNL     1       0.499   1.736   5.795  1.00  0.00     0.167 HD
ATOM     59  C   UNL     1       4.306  -0.156   5.648  1.00  0.00     0.037 A 
ATOM     60  C   UNL     1      -1.191   3.933   6.446  1.00  0.00     0.037 A 
ATOM     61  C   UNL     1       4.604   1.117   6.263  1.00  0.00     0.049 A 
ATOM     62  C   UNL     1       0.166   4.374   6.913  1.00  0.00     0.074 A 
ATOM     63  C   UNL     1       5.837   1.644   6.615  1.00  0.00     0.029 A 
ATOM     64  N   UNL     1       3.663   2.092   6.550  1.00  0.00    -0.354 N 
ATOM     65  N   UNL     1       1.310   3.740   6.827  1.00  0.00    -0.248 NA
ATOM     66  C   UNL     1       0.259   5.696   7.549  1.00  0.00     0.031 C 
ATOM     67  C   UNL     1       5.633   2.913   7.168  1.00  0.00     0.029 A 
ATOM     68  C   UNL     1       4.283   3.206   7.096  1.00  0.00     0.049 A 
ATOM     69  H   UNL     1       2.695   2.007   6.391  1.00  0.00     0.167 HD
ATOM     70  C   UNL     1       2.262   4.602   7.360  1.00  0.00     0.074 A 
ATOM     71  C   UNL     1       1.562   5.802   7.766  1.00  0.00     0.031 C 
ATOM     72  C   UNL     1       3.598   4.411   7.489  1.00  0.00     0.037 A 
BRANCH  59  73
ATOM     73  C   UNL     1       5.472  -1.083   5.374  1.00  0.00     0.058 A 
ATOM     74  C   UNL     1       5.955  -1.389   4.094  1.00  0.00     0.135 A 
ATOM     75  C   UNL     1       6.172  -1.627   6.471  1.00  0.00     0.135 A 
ATOM     76  F   UNL     1       5.336  -0.909   3.004  1.00  0.00    -0.206 F 
ATOM     77  C   UNL     1       7.063  -2.220   3.909  1.00  0.00     0.059 A 
ATOM     78  C   UNL     1       7.299  -2.429   6.312  1.00  0.00     0.059 A 
ATOM     79  F   UNL     1       5.771  -1.362   7.725  1.00  0.00    -0.206 F 
ATOM     80  C   UNL     1       7.728  -2.736   5.025  1.00  0.00     0.060 A 
BRANCH  80  81
ATOM     81  S   UNL     1       9.153  -3.820   4.774  1.00  0.00     0.124 S 
ATOM     82  O   UNL     1       8.514  -5.026   4.254  1.00  0.00    -0.237 OA
ATOM     83  O   UNL     1       9.955  -3.067   3.817  1.00  0.00    -0.237 OA
ATOM     84  O   UNL     1       9.729  -3.945   6.110  1.00  0.00    -0.744 OA
ENDBRANCH  80  81
ENDBRANCH  59  73
BRANCH  60  85
ATOM     85  C   UNL     1      -2.389   4.795   6.678  1.00  0.00     0.058 A 
ATOM     86  C   UNL     1      -2.572   6.013   6.009  1.00  0.00     0.135 A 
ATOM     87  C   UNL     1      -3.381   4.402   7.595  1.00  0.00     0.135 A 
ATOM     88  F   UNL     1      -1.644   6.451   5.146  1.00  0.00    -0.206 F 
ATOM     89  C   UNL     1      -3.694   6.808   6.237  1.00  0.00     0.059 A 
ATOM     90  C   UNL     1      -4.524   5.162   7.815  1.00  0.00     0.059 A 
ATOM     91  F   UNL     1      -3.253   3.250   8.273  1.00  0.00    -0.206 F 
ATOM     92  C   UNL     1      -4.669   6.369   7.135  1.00  0.00     0.060 A 
BRANCH  92  93
ATOM     93  S   UNL     1      -6.153   7.371   7.371  1.00  0.00     0.124 S 
ATOM     94  O   UNL     1      -5.628   8.505   8.123  1.00  0.00    -0.237 OA
ATOM     95  O   UNL     1      -6.558   7.647   5.997  1.00  0.00    -0.237 OA
ATOM     96  O   UNL     1      -7.045   6.483   8.112  1.00  0.00    -0.744 OA
ENDBRANCH  92  93
ENDBRANCH  60  85
BRANCH  72  97
ATOM     97  C   UNL     1       4.415   5.552   8.031  1.00  0.00     0.058 A 
ATOM     98  C   UNL     1       4.345   5.947   9.376  1.00  0.00     0.135 A 
ATOM     99  C   UNL     1       5.296   6.252   7.190  1.00  0.00     0.135 A 
ATOM    100  F   UNL     1       3.514   5.318  10.223  1.00  0.00    -0.206 F 
ATOM    101  C   UNL     1       5.093   7.017   9.860  1.00  0.00     0.059 A 
ATOM    102  C   UNL     1       6.076   7.304   7.659  1.00  0.00     0.059 A 
ATOM    103  F   UNL     1       5.411   5.911   5.896  1.00  0.00    -0.206 F 
ATOM    104  C   UNL     1       5.955   7.690   8.992  1.00  0.00     0.060 A 
BRANCH 104 105
ATOM    105  S   UNL     1       6.929   9.067   9.636  1.00  0.00     0.124 S 
ATOM    106  O   UNL     1       5.908  10.096   9.805  1.00  0.00    -0.237 OA
ATOM    107  O   UNL     1       7.479   8.511  10.868  1.00  0.00    -0.237 OA
ATOM    108  O   UNL     1       7.904   9.318   8.579  1.00  0.00    -0.744 OA
ENDBRANCH 104 105
ENDBRANCH  72  97
ENDBRANCH  46  47
ENDBRANCH  39  41
ENDBRANCH  38  39
ENDBRANCH  37  38
ENDBRANCH  36  37
ENDBRANCH   1  36
TORSDOF 25
