REMARK SMILES CC[C@@](C)(NC(=O)c1c(C)cc(C)[nH]c1=O)C(=O)OCCOC(=O)c1ccc(-c2c3nc(c(-c4c(F)cc(S(=O)(=O)[O-])cc4F)c4ccc([nH]4)c(-c4c(F)cc(S(=O)(=O)[O-])cc4F)c4nc(c(-c5c(F)cc(S(=O)(=O)[O-])cc5F)c5ccc2[nH]5)C=C4)C=C3)cc1
REMARK SMILES IDX 21 1 20 2 19 3 17 4 18 5 3 6 4 7 2 8 1 9 5 10 6 11 7 13 8 14
REMARK SMILES IDX 9 15 15 16 10 17 11 18 14 19 16 20 12 21 13 23 22 24 23 25
REMARK SMILES IDX 24 26 25 27 26 28 90 29 27 30 89 31 28 32 29 33 30 34 83 35
REMARK SMILES IDX 31 36 88 37 82 38 84 39 32 40 87 41 81 42 80 43 33 45 67 46
REMARK SMILES IDX 46 47 66 48 47 49 50 50 65 51 85 52 48 53 49 54 64 56 86 57
REMARK SMILES IDX 51 58 34 59 35 60 44 61 36 62 37 63 43 64 45 65 38 66 39 67
REMARK SMILES IDX 40 68 41 69 42 70 68 71 69 72 78 73 70 74 71 75 77 76 79 77
REMARK SMILES IDX 72 78 73 79 74 80 75 81 76 82 52 83 53 84 62 85 54 86 55 87
REMARK SMILES IDX 61 88 63 89 56 90 57 91 58 92 59 93 60 94
REMARK H PARENT 5 12 14 22 84 44 50 55
REMARK Flexibility Score: inf
ROOT
ATOM      1  C   UNL     1       5.619   1.188  -1.616  1.00  0.00     0.275 C 
ENDROOT
BRANCH   1   2
ATOM      2  C   UNL     1       4.701   0.359  -2.501  1.00  0.00     0.274 C 
BRANCH   2   3
ATOM      3  O   UNL     1       3.446   1.051  -2.700  1.00  0.00    -0.460 OA
BRANCH   3   4
ATOM      4  C   UNL     1       2.334   0.386  -2.309  1.00  0.00     0.331 C 
ATOM      5  O   UNL     1       2.379  -0.701  -1.738  1.00  0.00    -0.249 OA
BRANCH   4   6
ATOM      6  C   UNL     1       0.994   1.036  -2.773  1.00  0.00     0.135 C 
ATOM      7  C   UNL     1       0.464   0.098  -3.874  1.00  0.00     0.047 C 
BRANCH   6   8
ATOM      8  C   UNL     1      -0.012   1.042  -1.562  1.00  0.00     0.037 C 
ATOM      9  C   UNL     1      -0.261  -0.243  -0.779  1.00  0.00     0.007 C 
ENDBRANCH   6   8
BRANCH   6  10
ATOM     10  N   UNL     1       0.912   2.453  -3.284  1.00  0.00    -0.336 N 
ATOM     11  C   UNL     1       1.486   3.132  -4.317  1.00  0.00     0.258 C 
ATOM     12  H   UNL     1       0.306   3.016  -2.749  1.00  0.00     0.165 HD
ATOM     13  O   UNL     1       0.762   3.849  -5.013  1.00  0.00    -0.269 OA
BRANCH  11  14
ATOM     14  C   UNL     1       2.949   3.269  -4.399  1.00  0.00     0.107 A 
ATOM     15  C   UNL     1       3.551   4.346  -3.842  1.00  0.00    -0.031 A 
ATOM     16  C   UNL     1       3.763   2.317  -5.200  1.00  0.00     0.261 A 
ATOM     17  C   UNL     1       2.865   5.479  -3.122  1.00  0.00     0.045 C 
ATOM     18  C   UNL     1       5.005   4.452  -3.875  1.00  0.00     0.025 A 
ATOM     19  N   UNL     1       5.127   2.520  -5.189  1.00  0.00    -0.326 N 
ATOM     20  O   UNL     1       3.271   1.373  -5.813  1.00  0.00    -0.269 OA
ATOM     21  C   UNL     1       5.752   3.539  -4.511  1.00  0.00     0.015 A 
ATOM     22  H   UNL     1       5.690   1.894  -5.700  1.00  0.00     0.169 HD
ATOM     23  C   UNL     1       7.247   3.515  -4.436  1.00  0.00     0.064 C 
ENDBRANCH  11  14
ENDBRANCH   6  10
ENDBRANCH   4   6
ENDBRANCH   3   4
ENDBRANCH   2   3
ENDBRANCH   1   2
BRANCH   1  24
ATOM     24  O   UNL     1       4.944   1.440  -0.380  1.00  0.00    -0.458 OA
BRANCH  24  25
ATOM     25  C   UNL     1       4.499   2.705  -0.216  1.00  0.00     0.338 C 
ATOM     26  O   UNL     1       4.737   3.687  -0.891  1.00  0.00    -0.246 OA
BRANCH  25  27
ATOM     27  C   UNL     1       3.673   2.734   0.989  1.00  0.00     0.060 A 
ATOM     28  C   UNL     1       2.515   1.959   1.058  1.00  0.00     0.016 A 
ATOM     29  C   UNL     1       4.069   3.548   2.046  1.00  0.00     0.016 A 
ATOM     30  C   UNL     1       1.730   2.004   2.200  1.00  0.00     0.010 A 
ATOM     31  C   UNL     1       3.328   3.529   3.221  1.00  0.00     0.010 A 
ATOM     32  C   UNL     1       2.162   2.750   3.304  1.00  0.00    -0.014 A 
BRANCH  32  33
ATOM     33  C   UNL     1       1.443   2.647   4.589  1.00  0.00     0.031 A 
ATOM     34  C   UNL     1       0.721   3.836   5.139  1.00  0.00     0.074 A 
ATOM     35  C   UNL     1       1.484   1.473   5.247  1.00  0.00     0.049 A 
ATOM     36  N   UNL     1       0.165   3.988   6.309  1.00  0.00    -0.248 NA
ATOM     37  C   UNL     1       0.618   5.014   4.262  1.00  0.00     0.031 C 
ATOM     38  C   UNL     1       2.144   0.256   4.759  1.00  0.00     0.029 A 
ATOM     39  N   UNL     1       0.962   1.101   6.456  1.00  0.00    -0.354 N 
ATOM     40  C   UNL     1      -0.336   5.283   6.323  1.00  0.00     0.074 A 
ATOM     41  C   UNL     1      -0.008   5.881   5.047  1.00  0.00     0.031 C 
ATOM     42  C   UNL     1       1.952  -0.735   5.641  1.00  0.00     0.029 A 
ATOM     43  C   UNL     1       1.230  -0.206   6.790  1.00  0.00     0.049 A 
ATOM     44  H   UNL     1       0.445   1.710   7.031  1.00  0.00     0.167 HD
ATOM     45  C   UNL     1      -1.004   5.906   7.322  1.00  0.00     0.037 A 
ATOM     46  C   UNL     1       0.951  -0.889   7.915  1.00  0.00     0.037 A 
ATOM     47  C   UNL     1      -1.310   5.276   8.580  1.00  0.00     0.049 A 
ATOM     48  C   UNL     1       0.252  -0.159   9.024  1.00  0.00     0.074 A 
ATOM     49  C   UNL     1      -1.949   5.811   9.682  1.00  0.00     0.029 A 
ATOM     50  N   UNL     1      -0.997   3.959   8.897  1.00  0.00    -0.354 N 
ATOM     51  N   UNL     1      -0.171   1.084   9.048  1.00  0.00    -0.248 NA
ATOM     52  C   UNL     1       0.015  -0.904  10.265  1.00  0.00     0.031 C 
ATOM     53  C   UNL     1      -1.996   4.827  10.677  1.00  0.00     0.029 A 
ATOM     54  C   UNL     1      -1.421   3.666  10.181  1.00  0.00     0.049 A 
ATOM     55  H   UNL     1      -0.541   3.327   8.295  1.00  0.00     0.167 HD
ATOM     56  C   UNL     1      -0.724   1.273  10.306  1.00  0.00     0.074 A 
ATOM     57  C   UNL     1      -0.602   0.007  11.005  1.00  0.00     0.031 C 
ATOM     58  C   UNL     1      -1.272   2.392  10.841  1.00  0.00     0.037 A 
BRANCH  45  59
ATOM     59  C   UNL     1      -1.410   7.335   7.101  1.00  0.00     0.058 A 
ATOM     60  C   UNL     1      -2.463   7.679   6.238  1.00  0.00     0.135 A 
ATOM     61  C   UNL     1      -0.745   8.377   7.768  1.00  0.00     0.135 A 
ATOM     62  F   UNL     1      -3.117   6.725   5.558  1.00  0.00    -0.206 F 
ATOM     63  C   UNL     1      -2.827   9.006   6.027  1.00  0.00     0.059 A 
ATOM     64  C   UNL     1      -1.107   9.710   7.588  1.00  0.00     0.059 A 
ATOM     65  F   UNL     1       0.274   8.106   8.598  1.00  0.00    -0.206 F 
ATOM     66  C   UNL     1      -2.141  10.015   6.704  1.00  0.00     0.060 A 
BRANCH  66  67
ATOM     67  S   UNL     1      -2.620  11.732   6.412  1.00  0.00     0.124 S 
ATOM     68  O   UNL     1      -2.116  11.948   5.059  1.00  0.00    -0.237 OA
ATOM     69  O   UNL     1      -4.072  11.678   6.545  1.00  0.00    -0.237 OA
ATOM     70  O   UNL     1      -1.922  12.464   7.464  1.00  0.00    -0.744 OA
ENDBRANCH  66  67
ENDBRANCH  45  59
BRANCH  46  71
ATOM     71  C   UNL     1       1.355  -2.314   8.037  1.00  0.00     0.058 A 
ATOM     72  C   UNL     1       0.396  -3.337   8.024  1.00  0.00     0.135 A 
ATOM     73  C   UNL     1       2.707  -2.688   8.103  1.00  0.00     0.135 A 
ATOM     74  F   UNL     1      -0.909  -3.032   7.966  1.00  0.00    -0.206 F 
ATOM     75  C   UNL     1       0.762  -4.679   8.070  1.00  0.00     0.059 A 
ATOM     76  C   UNL     1       3.099  -4.023   8.124  1.00  0.00     0.059 A 
ATOM     77  F   UNL     1       3.666  -1.748   8.101  1.00  0.00    -0.206 F 
ATOM     78  C   UNL     1       2.117  -5.013   8.112  1.00  0.00     0.060 A 
BRANCH  78  79
ATOM     79  S   UNL     1       2.583  -6.758   8.097  1.00  0.00     0.124 S 
ATOM     80  O   UNL     1       2.218  -7.170   9.447  1.00  0.00    -0.237 OA
ATOM     81  O   UNL     1       1.752  -7.288   7.021  1.00  0.00    -0.237 OA
ATOM     82  O   UNL     1       4.015  -6.721   7.813  1.00  0.00    -0.744 OA
ENDBRANCH  78  79
ENDBRANCH  46  71
BRANCH  58  83
ATOM     83  C   UNL     1      -1.780   2.287  12.247  1.00  0.00     0.058 A 
ATOM     84  C   UNL     1      -0.900   2.301  13.340  1.00  0.00     0.135 A 
ATOM     85  C   UNL     1      -3.158   2.239  12.504  1.00  0.00     0.135 A 
ATOM     86  F   UNL     1       0.427   2.335  13.139  1.00  0.00    -0.206 F 
ATOM     87  C   UNL     1      -1.372   2.263  14.646  1.00  0.00     0.059 A 
ATOM     88  C   UNL     1      -3.653   2.222  13.803  1.00  0.00     0.059 A 
ATOM     89  F   UNL     1      -4.036   2.230  11.489  1.00  0.00    -0.206 F 
ATOM     90  C   UNL     1      -2.750   2.228  14.867  1.00  0.00     0.060 A 
BRANCH  90  91
ATOM     91  S   UNL     1      -3.350   2.233  16.569  1.00  0.00     0.124 S 
ATOM     92  O   UNL     1      -3.047   0.869  16.989  1.00  0.00    -0.237 OA
ATOM     93  O   UNL     1      -2.540   3.280  17.182  1.00  0.00    -0.237 OA
ATOM     94  O   UNL     1      -4.769   2.547  16.428  1.00  0.00    -0.744 OA
ENDBRANCH  90  91
ENDBRANCH  58  83
ENDBRANCH  32  33
ENDBRANCH  25  27
ENDBRANCH  24  25
ENDBRANCH   1  24
TORSDOF 17
