REMARK SMILES COc1ccccc1NC(=O)N[C@@](C)(C(=O)OCCOC(=O)c1ccc(-c2c3nc(c(-c4c(F)cc(S(=O)(=O)[O-])cc4F)c4ccc([nH]4)c(-c4c(F)cc(S(=O)(=O)[O-])cc4F)c4nc(c(-c5c(F)cc(S(=O)(=O)[O-])cc5F)c5ccc2[nH]5)C=C4)C=C3)cc1)C(F)(F)F
REMARK SMILES IDX 18 1 17 2 15 3 16 4 13 5 14 6 12 7 9 8 10 9 11 11 8 13 3 14
REMARK SMILES IDX 4 15 5 16 7 17 6 18 2 19 1 20 89 21 90 22 91 23 92 24 19 25
REMARK SMILES IDX 20 26 21 27 22 28 23 29 24 30 88 31 25 32 87 33 26 34 27 35
REMARK SMILES IDX 28 36 81 37 29 38 86 39 80 40 82 41 30 42 85 43 79 44 78 45
REMARK SMILES IDX 31 47 65 48 44 49 64 50 45 51 48 52 63 53 83 54 46 55 47 56
REMARK SMILES IDX 62 58 84 59 49 60 32 61 33 62 42 63 34 64 35 65 41 66 43 67
REMARK SMILES IDX 36 68 37 69 38 70 39 71 40 72 66 73 67 74 76 75 68 76 69 77
REMARK SMILES IDX 75 78 77 79 70 80 71 81 72 82 73 83 74 84 50 85 51 86 60 87
REMARK SMILES IDX 52 88 53 89 59 90 61 91 54 92 55 93 56 94 57 95 58 96
REMARK H PARENT 9 10 12 12 82 46 48 57
REMARK Flexibility Score: inf
ROOT
ATOM      1  C   UNL     1       6.703   6.044   1.599  1.00  0.00     0.274 C 
ENDROOT
BRANCH   1   2
ATOM      2  O   UNL     1       6.083   4.778   1.910  1.00  0.00    -0.460 OA
BRANCH   2   3
ATOM      3  C   UNL     1       5.758   4.661   3.233  1.00  0.00     0.341 C 
ATOM      4  O   UNL     1       6.248   5.371   4.107  1.00  0.00    -0.249 OA
BRANCH   3   5
ATOM      5  C   UNL     1       4.588   3.688   3.471  1.00  0.00     0.232 C 
ATOM      6  C   UNL     1       4.504   3.468   4.987  1.00  0.00     0.058 C 
BRANCH   5   7
ATOM      7  N   UNL     1       4.928   2.381   2.829  1.00  0.00    -0.314 N 
ATOM      8  N   UNL     1       3.073   1.159   1.942  1.00  0.00    -0.305 N 
ATOM      9  C   UNL     1       4.352   1.320   2.271  1.00  0.00     0.320 C 
ATOM     10  H   UNL     1       2.985   0.482   1.231  1.00  0.00     0.172 HD
ATOM     11  O   UNL     1       5.144   0.445   1.896  1.00  0.00    -0.248 OA
ATOM     12  H   UNL     1       5.906   2.268   2.816  1.00  0.00     0.166 HD
BRANCH   8  13
ATOM     13  C   UNL     1       1.815   1.657   2.297  1.00  0.00     0.085 A 
ATOM     14  C   UNL     1       0.836   1.694   1.286  1.00  0.00     0.142 A 
ATOM     15  C   UNL     1      -0.405   2.293   1.496  1.00  0.00     0.048 A 
ATOM     16  C   UNL     1      -0.715   2.781   2.762  1.00  0.00     0.004 A 
ATOM     17  C   UNL     1       1.455   2.046   3.578  1.00  0.00     0.030 A 
ATOM     18  C   UNL     1       0.197   2.623   3.808  1.00  0.00     0.002 A 
BRANCH  14  19
ATOM     19  O   UNL     1       1.141   1.218   0.034  1.00  0.00    -0.495 OA
ATOM     20  C   UNL     1       0.721  -0.145  -0.093  1.00  0.00     0.278 C 
ENDBRANCH  14  19
ENDBRANCH   8  13
ENDBRANCH   5   7
BRANCH   5  21
ATOM     21  C   UNL     1       3.410   4.515   2.931  1.00  0.00     0.422 C 
ATOM     22  F   UNL     1       2.994   4.057   1.736  1.00  0.00    -0.168 F 
ATOM     23  F   UNL     1       2.358   4.513   3.778  1.00  0.00    -0.168 F 
ATOM     24  F   UNL     1       3.704   5.829   2.751  1.00  0.00    -0.168 F 
ENDBRANCH   5  21
ENDBRANCH   3   5
ENDBRANCH   2   3
ENDBRANCH   1   2
BRANCH   1  25
ATOM     25  C   UNL     1       6.596   6.342   0.107  1.00  0.00     0.275 C 
BRANCH  25  26
ATOM     26  O   UNL     1       5.217   6.260  -0.297  1.00  0.00    -0.458 OA
BRANCH  26  27
ATOM     27  C   UNL     1       4.978   5.518  -1.409  1.00  0.00     0.338 C 
ATOM     28  O   UNL     1       5.823   5.008  -2.126  1.00  0.00    -0.246 OA
BRANCH  27  29
ATOM     29  C   UNL     1       3.521   5.374  -1.655  1.00  0.00     0.060 A 
ATOM     30  C   UNL     1       2.599   5.421  -0.615  1.00  0.00     0.016 A 
ATOM     31  C   UNL     1       3.074   5.063  -2.938  1.00  0.00     0.016 A 
ATOM     32  C   UNL     1       1.281   4.998  -0.817  1.00  0.00     0.010 A 
ATOM     33  C   UNL     1       1.718   4.781  -3.163  1.00  0.00     0.010 A 
ATOM     34  C   UNL     1       0.803   4.684  -2.097  1.00  0.00    -0.014 A 
BRANCH  34  35
ATOM     35  C   UNL     1      -0.601   4.206  -2.340  1.00  0.00     0.031 A 
ATOM     36  C   UNL     1      -0.842   3.000  -3.224  1.00  0.00     0.074 A 
ATOM     37  C   UNL     1      -1.682   4.809  -1.797  1.00  0.00     0.049 A 
ATOM     38  N   UNL     1      -1.927   2.646  -3.868  1.00  0.00    -0.248 NA
ATOM     39  C   UNL     1       0.295   2.089  -3.433  1.00  0.00     0.031 C 
ATOM     40  C   UNL     1      -1.665   5.933  -0.860  1.00  0.00     0.029 A 
ATOM     41  N   UNL     1      -3.026   4.551  -1.963  1.00  0.00    -0.354 N 
ATOM     42  C   UNL     1      -1.574   1.538  -4.633  1.00  0.00     0.074 A 
ATOM     43  C   UNL     1      -0.180   1.263  -4.356  1.00  0.00     0.031 C 
ATOM     44  C   UNL     1      -2.921   6.225  -0.489  1.00  0.00     0.029 A 
ATOM     45  C   UNL     1      -3.846   5.406  -1.262  1.00  0.00     0.049 A 
ATOM     46  H   UNL     1      -3.368   3.822  -2.531  1.00  0.00     0.167 HD
ATOM     47  C   UNL     1      -2.340   0.822  -5.493  1.00  0.00     0.037 A 
ATOM     48  C   UNL     1      -5.184   5.575  -1.284  1.00  0.00     0.037 A 
ATOM     49  C   UNL     1      -3.754   1.028  -5.688  1.00  0.00     0.049 A 
ATOM     50  C   UNL     1      -6.020   4.780  -2.249  1.00  0.00     0.074 A 
ATOM     51  C   UNL     1      -4.611   0.376  -6.560  1.00  0.00     0.029 A 
ATOM     52  N   UNL     1      -4.530   1.917  -4.961  1.00  0.00    -0.354 N 
ATOM     53  N   UNL     1      -5.644   3.854  -3.097  1.00  0.00    -0.248 NA
ATOM     54  C   UNL     1      -7.458   5.085  -2.289  1.00  0.00     0.031 C 
ATOM     55  C   UNL     1      -5.904   0.874  -6.363  1.00  0.00     0.029 A 
ATOM     56  C   UNL     1      -5.856   1.815  -5.349  1.00  0.00     0.049 A 
ATOM     57  H   UNL     1      -4.189   2.531  -4.271  1.00  0.00     0.167 HD
ATOM     58  C   UNL     1      -6.798   3.467  -3.769  1.00  0.00     0.074 A 
ATOM     59  C   UNL     1      -7.890   4.236  -3.211  1.00  0.00     0.031 C 
ATOM     60  C   UNL     1      -6.938   2.568  -4.773  1.00  0.00     0.037 A 
BRANCH  47  61
ATOM     61  C   UNL     1      -1.674  -0.245  -6.318  1.00  0.00     0.058 A 
ATOM     62  C   UNL     1      -1.302  -1.483  -5.775  1.00  0.00     0.135 A 
ATOM     63  C   UNL     1      -1.477  -0.048  -7.696  1.00  0.00     0.135 A 
ATOM     64  F   UNL     1      -1.452  -1.717  -4.462  1.00  0.00    -0.206 F 
ATOM     65  C   UNL     1      -0.749  -2.486  -6.567  1.00  0.00     0.059 A 
ATOM     66  C   UNL     1      -0.948  -1.044  -8.511  1.00  0.00     0.059 A 
ATOM     67  F   UNL     1      -1.818   1.118  -8.268  1.00  0.00    -0.206 F 
ATOM     68  C   UNL     1      -0.579  -2.258  -7.934  1.00  0.00     0.060 A 
BRANCH  68  69
ATOM     69  S   UNL     1       0.106  -3.581  -8.955  1.00  0.00     0.124 S 
ATOM     70  O   UNL     1       1.518  -3.529  -8.589  1.00  0.00    -0.237 OA
ATOM     71  O   UNL     1      -0.628  -4.752  -8.485  1.00  0.00    -0.237 OA
ATOM     72  O   UNL     1      -0.206  -3.156 -10.316  1.00  0.00    -0.744 OA
ENDBRANCH  68  69
ENDBRANCH  47  61
BRANCH  48  73
ATOM     73  C   UNL     1      -5.824   6.607  -0.422  1.00  0.00     0.058 A 
ATOM     74  C   UNL     1      -6.672   6.240   0.633  1.00  0.00     0.135 A 
ATOM     75  C   UNL     1      -5.625   7.978  -0.653  1.00  0.00     0.135 A 
ATOM     76  F   UNL     1      -6.908   4.942   0.883  1.00  0.00    -0.206 F 
ATOM     77  C   UNL     1      -7.314   7.192   1.417  1.00  0.00     0.059 A 
ATOM     78  C   UNL     1      -6.229   8.948   0.137  1.00  0.00     0.059 A 
ATOM     79  F   UNL     1      -4.817   8.383  -1.646  1.00  0.00    -0.206 F 
ATOM     80  C   UNL     1      -7.087   8.545   1.160  1.00  0.00     0.060 A 
BRANCH  80  81
ATOM     81  S   UNL     1      -7.892   9.785   2.197  1.00  0.00     0.124 S 
ATOM     82  O   UNL     1      -9.214   9.861   1.587  1.00  0.00    -0.237 OA
ATOM     83  O   UNL     1      -7.833   9.172   3.521  1.00  0.00    -0.237 OA
ATOM     84  O   UNL     1      -7.044  10.961   2.023  1.00  0.00    -0.744 OA
ENDBRANCH  80  81
ENDBRANCH  48  73
BRANCH  60  85
ATOM     85  C   UNL     1      -8.323   2.334  -5.301  1.00  0.00     0.058 A 
ATOM     86  C   UNL     1      -8.949   3.254  -6.155  1.00  0.00     0.135 A 
ATOM     87  C   UNL     1      -9.021   1.161  -4.971  1.00  0.00     0.135 A 
ATOM     88  F   UNL     1      -8.326   4.394  -6.492  1.00  0.00    -0.206 F 
ATOM     89  C   UNL     1     -10.230   3.030  -6.649  1.00  0.00     0.059 A 
ATOM     90  C   UNL     1     -10.296   0.908  -5.469  1.00  0.00     0.059 A 
ATOM     91  F   UNL     1      -8.463   0.247  -4.162  1.00  0.00    -0.206 F 
ATOM     92  C   UNL     1     -10.897   1.855  -6.298  1.00  0.00     0.060 A 
BRANCH  92  93
ATOM     93  S   UNL     1     -12.550   1.562  -6.962  1.00  0.00     0.124 S 
ATOM     94  O   UNL     1     -13.362   2.442  -6.128  1.00  0.00    -0.237 OA
ATOM     95  O   UNL     1     -12.406   1.967  -8.357  1.00  0.00    -0.237 OA
ATOM     96  O   UNL     1     -12.752   0.132  -6.750  1.00  0.00    -0.744 OA
ENDBRANCH  92  93
ENDBRANCH  60  85
ENDBRANCH  34  35
ENDBRANCH  27  29
ENDBRANCH  26  27
ENDBRANCH  25  26
ENDBRANCH   1  25
TORSDOF 18
