REMARK SMILES COc1cc(OC)cc(-c2ccc(C(=O)OCCOC(=O)c3ccc(-c4c5nc(c(-c6c(F)cc(S(=O)(=O)[O-])cc6F)c6ccc([nH]6)c(-c6c(F)cc(S(=O)(=O)[O-])cc6F)c6nc(c(-c7c(F)cc(S(=O)(=O)[O-])cc7F)c7ccc4[nH]7)C=C6)C=C5)cc3)o2)c1
REMARK SMILES IDX 18 1 17 2 16 3 14 4 15 5 13 6 10 7 11 8 88 9 12 10 9 11 3 12
REMARK SMILES IDX 4 13 89 14 5 15 8 16 2 17 1 18 6 19 7 20 19 21 20 22 21 23
REMARK SMILES IDX 22 24 23 25 87 26 24 27 86 28 25 29 26 30 27 31 80 32 28 33
REMARK SMILES IDX 85 34 79 35 81 36 29 37 84 38 78 39 77 40 30 42 64 43 43 44
REMARK SMILES IDX 63 45 44 46 47 47 62 48 82 49 45 50 46 51 61 53 83 54 48 55
REMARK SMILES IDX 31 56 32 57 41 58 33 59 34 60 40 61 42 62 35 63 36 64 37 65
REMARK SMILES IDX 38 66 39 67 65 68 66 69 75 70 67 71 68 72 74 73 76 74 69 75
REMARK SMILES IDX 70 76 71 77 72 78 73 79 49 80 50 81 59 82 51 83 52 84 58 85
REMARK SMILES IDX 60 86 53 87 54 88 55 89 56 90 57 91
REMARK H PARENT 81 41 47 52
REMARK Flexibility Score: inf
ROOT
ATOM      1  C   UNL     1       8.848   7.425  -1.496  1.00  0.00     0.275 C 
ENDROOT
BRANCH   1   2
ATOM      2  C   UNL     1       9.098   6.092  -0.780  1.00  0.00     0.275 C 
BRANCH   2   3
ATOM      3  O   UNL     1       8.345   5.022  -1.381  1.00  0.00    -0.456 OA
BRANCH   3   4
ATOM      4  C   UNL     1       7.157   4.714  -0.772  1.00  0.00     0.374 C 
ATOM      5  O   UNL     1       6.789   5.183   0.291  1.00  0.00    -0.242 OA
BRANCH   4   6
ATOM      6  C   UNL     1       6.388   3.831  -1.623  1.00  0.00     0.212 A 
ATOM      7  C   UNL     1       4.504   2.955  -2.362  1.00  0.00     0.135 A 
ATOM      8  C   UNL     1       5.487   2.540  -3.231  1.00  0.00     0.052 A 
ATOM      9  O   UNL     1       5.049   3.687  -1.353  1.00  0.00    -0.449 OA
ATOM     10  C   UNL     1       6.698   3.107  -2.760  1.00  0.00     0.059 A 
BRANCH   7  11
ATOM     11  C   UNL     1       3.061   2.815  -2.338  1.00  0.00     0.025 A 
ATOM     12  C   UNL     1       1.086   1.561  -1.725  1.00  0.00     0.123 A 
ATOM     13  C   UNL     1       0.299   2.472  -2.431  1.00  0.00     0.092 A 
ATOM     14  C   UNL     1       2.470   1.727  -1.686  1.00  0.00     0.058 A 
ATOM     15  C   UNL     1       0.873   3.571  -3.073  1.00  0.00     0.123 A 
ATOM     16  C   UNL     1       2.256   3.745  -3.019  1.00  0.00     0.058 A 
BRANCH  12  17
ATOM     17  O   UNL     1       0.416   0.505  -1.169  1.00  0.00    -0.497 OA
ATOM     18  C   UNL     1       0.935   0.060   0.079  1.00  0.00     0.278 C 
ENDBRANCH  12  17
BRANCH  15  19
ATOM     19  O   UNL     1      -0.020   4.375  -3.723  1.00  0.00    -0.497 OA
ATOM     20  C   UNL     1       0.493   5.504  -4.419  1.00  0.00     0.278 C 
ENDBRANCH  15  19
ENDBRANCH   7  11
ENDBRANCH   4   6
ENDBRANCH   3   4
ENDBRANCH   2   3
ENDBRANCH   1   2
BRANCH   1  21
ATOM     21  O   UNL     1       7.537   7.951  -1.218  1.00  0.00    -0.458 OA
BRANCH  21  22
ATOM     22  C   UNL     1       6.571   7.600  -2.102  1.00  0.00     0.338 C 
ATOM     23  O   UNL     1       6.714   6.920  -3.105  1.00  0.00    -0.246 OA
BRANCH  22  24
ATOM     24  C   UNL     1       5.255   8.044  -1.609  1.00  0.00     0.060 A 
ATOM     25  C   UNL     1       4.258   7.077  -1.458  1.00  0.00     0.016 A 
ATOM     26  C   UNL     1       4.977   9.387  -1.348  1.00  0.00     0.016 A 
ATOM     27  C   UNL     1       2.982   7.440  -1.040  1.00  0.00     0.010 A 
ATOM     28  C   UNL     1       3.690   9.755  -0.936  1.00  0.00     0.010 A 
ATOM     29  C   UNL     1       2.684   8.784  -0.786  1.00  0.00    -0.014 A 
BRANCH  29  30
ATOM     30  C   UNL     1       1.302   9.160  -0.403  1.00  0.00     0.031 A 
ATOM     31  C   UNL     1       0.382   9.761  -1.426  1.00  0.00     0.074 A 
ATOM     32  C   UNL     1       0.865   8.916   0.846  1.00  0.00     0.049 A 
ATOM     33  N   UNL     1      -0.849  10.181  -1.284  1.00  0.00    -0.248 NA
ATOM     34  C   UNL     1       0.915   9.907  -2.790  1.00  0.00     0.031 C 
ATOM     35  C   UNL     1       1.657   8.300   1.912  1.00  0.00     0.029 A 
ATOM     36  N   UNL     1      -0.354   9.153   1.429  1.00  0.00    -0.354 N 
ATOM     37  C   UNL     1      -1.239  10.644  -2.534  1.00  0.00     0.074 A 
ATOM     38  C   UNL     1      -0.106  10.474  -3.420  1.00  0.00     0.031 C 
ATOM     39  C   UNL     1       0.903   8.208   3.020  1.00  0.00     0.029 A 
ATOM     40  C   UNL     1      -0.412   8.785   2.753  1.00  0.00     0.049 A 
ATOM     41  H   UNL     1      -1.115   9.548   0.946  1.00  0.00     0.167 HD
ATOM     42  C   UNL     1      -2.434  11.159  -2.908  1.00  0.00     0.037 A 
ATOM     43  C   UNL     1      -1.407   8.917   3.651  1.00  0.00     0.037 A 
ATOM     44  C   UNL     1      -3.559  11.322  -2.024  1.00  0.00     0.049 A 
ATOM     45  C   UNL     1      -2.712   9.531   3.219  1.00  0.00     0.074 A 
ATOM     46  C   UNL     1      -4.808  11.849  -2.307  1.00  0.00     0.029 A 
ATOM     47  N   UNL     1      -3.575  10.954  -0.687  1.00  0.00    -0.354 N 
ATOM     48  N   UNL     1      -3.060   9.979   2.036  1.00  0.00    -0.248 NA
ATOM     49  C   UNL     1      -3.759   9.659   4.243  1.00  0.00     0.031 C 
ATOM     50  C   UNL     1      -5.569  11.825  -1.133  1.00  0.00     0.029 A 
ATOM     51  C   UNL     1      -4.807  11.252  -0.129  1.00  0.00     0.049 A 
ATOM     52  H   UNL     1      -2.821  10.543  -0.206  1.00  0.00     0.167 HD
ATOM     53  C   UNL     1      -4.369  10.428   2.170  1.00  0.00     0.074 A 
ATOM     54  C   UNL     1      -4.757  10.184   3.544  1.00  0.00     0.031 C 
ATOM     55  C   UNL     1      -5.176  10.995   1.240  1.00  0.00     0.037 A 
BRANCH  42  56
ATOM     56  C   UNL     1      -2.584  11.600  -4.336  1.00  0.00     0.058 A 
ATOM     57  C   UNL     1      -2.748  10.673  -5.376  1.00  0.00     0.135 A 
ATOM     58  C   UNL     1      -2.609  12.965  -4.661  1.00  0.00     0.135 A 
ATOM     59  F   UNL     1      -2.710   9.356  -5.121  1.00  0.00    -0.206 F 
ATOM     60  C   UNL     1      -2.920  11.085  -6.694  1.00  0.00     0.059 A 
ATOM     61  C   UNL     1      -2.797  13.400  -5.970  1.00  0.00     0.059 A 
ATOM     62  F   UNL     1      -2.451  13.892  -3.702  1.00  0.00    -0.206 F 
ATOM     63  C   UNL     1      -2.941  12.451  -6.981  1.00  0.00     0.060 A 
BRANCH  63  64
ATOM     64  S   UNL     1      -3.174  12.972  -8.694  1.00  0.00     0.124 S 
ATOM     65  O   UNL     1      -1.861  12.685  -9.265  1.00  0.00    -0.237 OA
ATOM     66  O   UNL     1      -4.261  12.108  -9.141  1.00  0.00    -0.237 OA
ATOM     67  O   UNL     1      -3.510  14.388  -8.576  1.00  0.00    -0.744 OA
ENDBRANCH  63  64
ENDBRANCH  42  56
BRANCH  43  68
ATOM     68  C   UNL     1      -1.203   8.484   5.058  1.00  0.00     0.058 A 
ATOM     69  C   UNL     1      -1.863   7.361   5.577  1.00  0.00     0.135 A 
ATOM     70  C   UNL     1      -0.352   9.198   5.915  1.00  0.00     0.135 A 
ATOM     71  F   UNL     1      -2.695   6.653   4.799  1.00  0.00    -0.206 F 
ATOM     72  C   UNL     1      -1.703   6.971   6.904  1.00  0.00     0.059 A 
ATOM     73  C   UNL     1      -0.158   8.815   7.238  1.00  0.00     0.059 A 
ATOM     74  F   UNL     1       0.311  10.274   5.463  1.00  0.00    -0.206 F 
ATOM     75  C   UNL     1      -0.850   7.708   7.728  1.00  0.00     0.060 A 
BRANCH  75  76
ATOM     76  S   UNL     1      -0.620   7.185   9.441  1.00  0.00     0.124 S 
ATOM     77  O   UNL     1      -1.824   7.714  10.072  1.00  0.00    -0.237 OA
ATOM     78  O   UNL     1      -0.550   5.732   9.319  1.00  0.00    -0.237 OA
ATOM     79  O   UNL     1       0.631   7.834   9.822  1.00  0.00    -0.744 OA
ENDBRANCH  75  76
ENDBRANCH  43  68
BRANCH  55  80
ATOM     80  C   UNL     1      -6.565  11.370   1.672  1.00  0.00     0.058 A 
ATOM     81  C   UNL     1      -6.806  12.508   2.456  1.00  0.00     0.135 A 
ATOM     82  C   UNL     1      -7.669  10.607   1.261  1.00  0.00     0.135 A 
ATOM     83  F   UNL     1      -5.782  13.266   2.880  1.00  0.00    -0.206 F 
ATOM     84  C   UNL     1      -8.095  12.868   2.835  1.00  0.00     0.059 A 
ATOM     85  C   UNL     1      -8.969  10.960   1.611  1.00  0.00     0.059 A 
ATOM     86  F   UNL     1      -7.491   9.514   0.502  1.00  0.00    -0.206 F 
ATOM     87  C   UNL     1      -9.170  12.086   2.408  1.00  0.00     0.060 A 
BRANCH  87  88
ATOM     88  S   UNL     1     -10.843  12.578   2.877  1.00  0.00     0.124 S 
ATOM     89  O   UNL     1     -10.911  12.113   4.258  1.00  0.00    -0.237 OA
ATOM     90  O   UNL     1     -10.809  14.027   2.697  1.00  0.00    -0.237 OA
ATOM     91  O   UNL     1     -11.686  11.857   1.928  1.00  0.00    -0.744 OA
ENDBRANCH  87  88
ENDBRANCH  55  80
ENDBRANCH  29  30
ENDBRANCH  22  24
ENDBRANCH  21  22
ENDBRANCH   1  21
TORSDOF 17
