REMARK SMILES CC[C@@H](C)[C@@H](NC(N)=O)C(=O)N1CCC[C@H](C(=O)OCCOC(=O)c2ccc(-c3c4nc(c(-c5c(F)cc(S(=O)(=O)[O-])cc5F)c5ccc([nH]5)c(-c5c(F)cc(S(=O)(=O)[O-])cc5F)c5nc(c(-c6c(F)cc(S(=O)(=O)[O-])cc6F)c6ccc3[nH]6)C=C5)C=C4)cc2)C1
REMARK SMILES IDX 20 1 19 2 17 3 18 4 16 5 12 6 13 7 91 8 14 9 15 10 10 11
REMARK SMILES IDX 11 12 5 13 3 14 4 15 2 16 1 17 6 18 7 19 8 21 9 22 21 25
REMARK SMILES IDX 22 26 23 27 24 28 25 29 26 30 90 31 27 32 89 33 28 34 29 35
REMARK SMILES IDX 30 36 83 37 31 38 88 39 82 40 84 41 32 42 87 43 81 44 80 45
REMARK SMILES IDX 33 47 67 48 46 49 66 50 47 51 50 52 65 53 85 54 48 55 49 56
REMARK SMILES IDX 64 58 86 59 51 60 34 61 35 62 44 63 36 64 37 65 43 66 45 67
REMARK SMILES IDX 38 68 39 69 40 70 41 71 42 72 68 73 69 74 78 75 70 76 71 77
REMARK SMILES IDX 77 78 79 79 72 80 73 81 74 82 75 83 76 84 52 85 53 86 62 87
REMARK SMILES IDX 54 88 55 89 61 90 63 91 56 92 57 93 58 94 59 95 60 96
REMARK H PARENT 6 20 8 23 8 24 84 46 50 57
REMARK Flexibility Score: inf
ROOT
ATOM      1  C   UNL     1       1.442  -4.115   5.255  1.00  0.00     0.274 C 
ENDROOT
BRANCH   1   2
ATOM      2  O   UNL     1       2.482  -4.571   4.369  1.00  0.00    -0.462 OA
BRANCH   2   3
ATOM      3  C   UNL     1       3.062  -3.671   3.541  1.00  0.00     0.310 C 
ATOM      4  O   UNL     1       2.788  -2.477   3.499  1.00  0.00    -0.252 OA
BRANCH   3   5
ATOM      5  C   UNL     1       4.098  -4.296   2.612  1.00  0.00     0.119 C 
ATOM      6  N   UNL     1       2.461  -5.273   1.108  1.00  0.00    -0.340 N 
ATOM      7  C   UNL     1       2.825  -6.649   1.417  1.00  0.00     0.119 C 
ATOM      8  C   UNL     1       3.550  -4.316   1.187  1.00  0.00     0.134 C 
ATOM      9  C   UNL     1       3.543  -6.794   2.757  1.00  0.00     0.022 C 
ATOM     10  C   UNL     1       4.583  -5.696   3.009  1.00  0.00     0.019 C 
BRANCH   6  11
ATOM     11  C   UNL     1       1.118  -4.905   1.064  1.00  0.00     0.245 C 
ATOM     12  O   UNL     1       0.299  -5.408   1.840  1.00  0.00    -0.272 OA
BRANCH  11  13
ATOM     13  C   UNL     1       0.676  -3.801   0.041  1.00  0.00     0.176 C 
BRANCH  13  14
ATOM     14  C   UNL     1       0.742  -2.333   0.552  1.00  0.00     0.018 C 
ATOM     15  C   UNL     1      -0.011  -2.149   1.875  1.00  0.00     0.010 C 
BRANCH  14  16
ATOM     16  C   UNL     1       0.193  -1.336  -0.502  1.00  0.00     0.002 C 
ATOM     17  C   UNL     1       0.618   0.104  -0.231  1.00  0.00     0.004 C 
ENDBRANCH  14  16
ENDBRANCH  13  14
BRANCH  13  18
ATOM     18  N   UNL     1       1.462  -3.982  -1.188  1.00  0.00    -0.326 N 
ATOM     19  C   UNL     1       1.354  -5.120  -1.928  1.00  0.00     0.312 C 
ATOM     20  H   UNL     1       2.075  -3.270  -1.481  1.00  0.00     0.166 HD
ATOM     21  N   UNL     1       2.148  -5.123  -3.021  1.00  0.00    -0.352 N 
ATOM     22  O   UNL     1       0.654  -6.084  -1.654  1.00  0.00    -0.249 OA
ATOM     23  H   UNL     1       2.706  -4.339  -3.227  1.00  0.00     0.161 HD
ATOM     24  H   UNL     1       2.169  -5.910  -3.612  1.00  0.00     0.161 HD
ENDBRANCH  13  18
ENDBRANCH  11  13
ENDBRANCH   6  11
ENDBRANCH   3   5
ENDBRANCH   2   3
ENDBRANCH   1   2
BRANCH   1  25
ATOM     25  C   UNL     1       1.940  -4.104   6.700  1.00  0.00     0.275 C 
BRANCH  25  26
ATOM     26  O   UNL     1       2.931  -3.078   6.886  1.00  0.00    -0.458 OA
BRANCH  26  27
ATOM     27  C   UNL     1       4.208  -3.474   6.679  1.00  0.00     0.338 C 
ATOM     28  O   UNL     1       4.614  -4.601   6.457  1.00  0.00    -0.246 OA
BRANCH  27  29
ATOM     29  C   UNL     1       5.064  -2.285   6.599  1.00  0.00     0.060 A 
ATOM     30  C   UNL     1       5.580  -1.934   5.351  1.00  0.00     0.016 A 
ATOM     31  C   UNL     1       5.413  -1.571   7.744  1.00  0.00     0.016 A 
ATOM     32  C   UNL     1       6.460  -0.868   5.233  1.00  0.00     0.010 A 
ATOM     33  C   UNL     1       6.296  -0.496   7.627  1.00  0.00     0.010 A 
ATOM     34  C   UNL     1       6.833  -0.149   6.373  1.00  0.00    -0.014 A 
BRANCH  34  35
ATOM     35  C   UNL     1       7.849   0.918   6.257  1.00  0.00     0.031 A 
ATOM     36  C   UNL     1       9.240   0.662   6.757  1.00  0.00     0.074 A 
ATOM     37  C   UNL     1       7.529   2.086   5.672  1.00  0.00     0.049 A 
ATOM     38  N   UNL     1      10.249   1.486   6.850  1.00  0.00    -0.248 NA
ATOM     39  C   UNL     1       9.532  -0.707   7.211  1.00  0.00     0.031 C 
ATOM     40  C   UNL     1       6.228   2.407   5.083  1.00  0.00     0.029 A 
ATOM     41  N   UNL     1       8.275   3.218   5.476  1.00  0.00    -0.354 N 
ATOM     42  C   UNL     1      11.289   0.746   7.398  1.00  0.00     0.074 A 
ATOM     43  C   UNL     1      10.785  -0.591   7.627  1.00  0.00     0.031 C 
ATOM     44  C   UNL     1       6.269   3.655   4.588  1.00  0.00     0.029 A 
ATOM     45  C   UNL     1       7.577   4.237   4.874  1.00  0.00     0.049 A 
ATOM     46  H   UNL     1       9.220   3.295   5.741  1.00  0.00     0.167 HD
ATOM     47  C   UNL     1      12.550   1.151   7.682  1.00  0.00     0.037 A 
ATOM     48  C   UNL     1       7.946   5.506   4.615  1.00  0.00     0.037 A 
ATOM     49  C   UNL     1      13.034   2.485   7.441  1.00  0.00     0.049 A 
ATOM     50  C   UNL     1       9.325   5.956   5.012  1.00  0.00     0.074 A 
ATOM     51  C   UNL     1      14.286   3.011   7.707  1.00  0.00     0.029 A 
ATOM     52  N   UNL     1      12.284   3.506   6.873  1.00  0.00    -0.354 N 
ATOM     53  N   UNL     1      10.289   5.262   5.570  1.00  0.00    -0.248 NA
ATOM     54  C   UNL     1       9.662   7.362   4.759  1.00  0.00     0.031 C 
ATOM     55  C   UNL     1      14.281   4.359   7.332  1.00  0.00     0.029 A 
ATOM     56  C   UNL     1      13.040   4.663   6.793  1.00  0.00     0.049 A 
ATOM     57  H   UNL     1      11.351   3.420   6.572  1.00  0.00     0.167 HD
ATOM     58  C   UNL     1      11.354   6.142   5.718  1.00  0.00     0.074 A 
ATOM     59  C   UNL     1      10.918   7.416   5.181  1.00  0.00     0.031 C 
ATOM     60  C   UNL     1      12.582   5.918   6.250  1.00  0.00     0.037 A 
BRANCH  47  61
ATOM     61  C   UNL     1      13.466   0.148   8.323  1.00  0.00     0.058 A 
ATOM     62  C   UNL     1      14.001  -0.933   7.603  1.00  0.00     0.135 A 
ATOM     63  C   UNL     1      13.807   0.263   9.680  1.00  0.00     0.135 A 
ATOM     64  F   UNL     1      13.691  -1.102   6.308  1.00  0.00    -0.206 F 
ATOM     65  C   UNL     1      14.812  -1.884   8.216  1.00  0.00     0.059 A 
ATOM     66  C   UNL     1      14.635  -0.663  10.307  1.00  0.00     0.059 A 
ATOM     67  F   UNL     1      13.320   1.275  10.415  1.00  0.00    -0.206 F 
ATOM     68  C   UNL     1      15.117  -1.744   9.571  1.00  0.00     0.060 A 
BRANCH  68  69
ATOM     69  S   UNL     1      16.149  -2.998  10.360  1.00  0.00     0.124 S 
ATOM     70  O   UNL     1      15.205  -4.103  10.501  1.00  0.00    -0.237 OA
ATOM     71  O   UNL     1      17.212  -3.194   9.380  1.00  0.00    -0.237 OA
ATOM     72  O   UNL     1      16.561  -2.362  11.608  1.00  0.00    -0.744 OA
ENDBRANCH  68  69
ENDBRANCH  47  61
BRANCH  48  73
ATOM     73  C   UNL     1       6.987   6.438   3.966  1.00  0.00     0.058 A 
ATOM     74  C   UNL     1       7.183   6.869   2.647  1.00  0.00     0.135 A 
ATOM     75  C   UNL     1       5.844   6.895   4.642  1.00  0.00     0.135 A 
ATOM     76  F   UNL     1       8.265   6.468   1.964  1.00  0.00    -0.206 F 
ATOM     77  C   UNL     1       6.281   7.723   2.019  1.00  0.00     0.059 A 
ATOM     78  C   UNL     1       4.916   7.730   4.028  1.00  0.00     0.059 A 
ATOM     79  F   UNL     1       5.607   6.502   5.904  1.00  0.00    -0.206 F 
ATOM     80  C   UNL     1       5.148   8.144   2.717  1.00  0.00     0.060 A 
BRANCH  80  81
ATOM     81  S   UNL     1       3.950   9.199   1.871  1.00  0.00     0.124 S 
ATOM     82  O   UNL     1       4.644  10.482   1.863  1.00  0.00    -0.237 OA
ATOM     83  O   UNL     1       3.817   8.537   0.577  1.00  0.00    -0.237 OA
ATOM     84  O   UNL     1       2.772   9.122   2.729  1.00  0.00    -0.744 OA
ENDBRANCH  80  81
ENDBRANCH  48  73
BRANCH  60  85
ATOM     85  C   UNL     1      13.548   7.068   6.247  1.00  0.00     0.058 A 
ATOM     86  C   UNL     1      13.423   8.136   7.149  1.00  0.00     0.135 A 
ATOM     87  C   UNL     1      14.636   7.078   5.360  1.00  0.00     0.135 A 
ATOM     88  F   UNL     1      12.395   8.176   8.011  1.00  0.00    -0.206 F 
ATOM     89  C   UNL     1      14.335   9.185   7.159  1.00  0.00     0.059 A 
ATOM     90  C   UNL     1      15.573   8.105   5.369  1.00  0.00     0.059 A 
ATOM     91  F   UNL     1      14.803   6.074   4.484  1.00  0.00    -0.206 F 
ATOM     92  C   UNL     1      15.407   9.161   6.264  1.00  0.00     0.060 A 
BRANCH  92  93
ATOM     93  S   UNL     1      16.604  10.512   6.308  1.00  0.00     0.124 S 
ATOM     94  O   UNL     1      15.868  11.577   5.635  1.00  0.00    -0.237 OA
ATOM     95  O   UNL     1      16.819  10.696   7.740  1.00  0.00    -0.237 OA
ATOM     96  O   UNL     1      17.746   9.976   5.573  1.00  0.00    -0.744 OA
ENDBRANCH  92  93
ENDBRANCH  60  85
ENDBRANCH  34  35
ENDBRANCH  27  29
ENDBRANCH  26  27
ENDBRANCH  25  26
ENDBRANCH   1  25
TORSDOF 19
