REMARK SMILES CCC[C@@]1(C(=O)OCCOC(=O)c2ccc(-c3c4nc(c(-c5c(F)cc(S(=O)(=O)[O-])cc5F)c5ccc([nH]5)c(-c5c(F)cc(S(=O)(=O)[O-])cc5F)c5nc(c(-c6c(F)cc(S(=O)(=O)[O-])cc6F)c6ccc3[nH]6)C=C5)C=C4)cc2)CCN(C(=O)[C@@H]2CC[NH2+][C@@H]2C)C1
REMARK SMILES IDX 9 1 8 2 7 3 5 4 6 5 4 6 79 7 90 8 80 9 81 10 3 11 2 12 1 13
REMARK SMILES IDX 82 14 83 15 84 16 85 17 88 18 86 19 87 20 89 21 10 24 11 25
REMARK SMILES IDX 12 26 13 27 14 28 78 29 15 30 77 31 16 32 17 33 18 34 71 35
REMARK SMILES IDX 19 36 76 37 70 38 72 39 20 40 75 41 69 42 68 43 21 45 55 46
REMARK SMILES IDX 34 47 54 48 35 49 38 50 53 51 73 52 36 53 37 54 52 56 74 57
REMARK SMILES IDX 39 58 22 59 23 60 32 61 24 62 25 63 31 64 33 65 26 66 27 67
REMARK SMILES IDX 28 68 29 69 30 70 56 71 57 72 66 73 58 74 59 75 65 76 67 77
REMARK SMILES IDX 60 78 61 79 62 80 63 81 64 82 40 83 41 84 50 85 42 86 43 87
REMARK SMILES IDX 49 88 51 89 44 90 45 91 46 92 47 93 48 94
REMARK H PARENT 87 22 87 23 72 44 38 55
REMARK Flexibility Score: inf
ROOT
ATOM      1  C   UNL     1       2.713   3.764  -2.242  1.00  0.00     0.275 C 
ENDROOT
BRANCH   1   2
ATOM      2  C   UNL     1       3.133   2.330  -1.916  1.00  0.00     0.274 C 
BRANCH   2   3
ATOM      3  O   UNL     1       2.437   1.357  -2.721  1.00  0.00    -0.462 OA
BRANCH   3   4
ATOM      4  C   UNL     1       1.336   0.809  -2.134  1.00  0.00     0.314 C 
ATOM      5  O   UNL     1       0.924   1.132  -1.026  1.00  0.00    -0.252 OA
BRANCH   4   6
ATOM      6  C   UNL     1       0.669  -0.258  -3.013  1.00  0.00     0.087 C 
ATOM      7  C   UNL     1      -0.563  -0.807  -2.258  1.00  0.00     0.042 C 
ATOM      8  C   UNL     1       1.581  -1.496  -3.093  1.00  0.00     0.138 C 
ATOM      9  C   UNL     1       0.030  -1.837  -1.309  1.00  0.00     0.120 C 
ATOM     10  N   UNL     1       1.067  -2.455  -2.119  1.00  0.00    -0.341 N 
BRANCH   6  11
ATOM     11  C   UNL     1       0.375   0.332  -4.416  1.00  0.00     0.020 C 
BRANCH  11  12
ATOM     12  C   UNL     1      -0.642  -0.414  -5.292  1.00  0.00    -0.002 C 
ATOM     13  C   UNL     1      -2.069   0.103  -5.139  1.00  0.00     0.004 C 
ENDBRANCH  11  12
ENDBRANCH   6  11
BRANCH  10  14
ATOM     14  C   UNL     1       1.575  -3.730  -2.080  1.00  0.00     0.231 C 
ATOM     15  O   UNL     1       2.502  -4.046  -2.840  1.00  0.00    -0.274 OA
BRANCH  14  16
ATOM     16  C   UNL     1       1.056  -4.793  -1.111  1.00  0.00     0.142 C 
ATOM     17  C   UNL     1      -0.448  -5.066  -1.152  1.00  0.00     0.081 C 
ATOM     18  C   UNL     1       1.383  -4.592   0.367  1.00  0.00     0.192 C 
ATOM     19  C   UNL     1      -0.926  -4.882   0.286  1.00  0.00     0.261 C 
ATOM     20  N   UNL     1       0.127  -4.112   0.948  1.00  0.00    -0.343 N 
ATOM     21  C   UNL     1       2.565  -3.694   0.695  1.00  0.00     0.076 C 
ATOM     22  H   UNL     1       0.112  -4.278   1.954  1.00  0.00     0.346 HD
ATOM     23  H   UNL     1       0.005  -3.108   0.812  1.00  0.00     0.346 HD
ENDBRANCH  14  16
ENDBRANCH  10  14
ENDBRANCH   4   6
ENDBRANCH   3   4
ENDBRANCH   2   3
ENDBRANCH   1   2
BRANCH   1  24
ATOM     24  O   UNL     1       1.306   3.967  -2.021  1.00  0.00    -0.458 OA
BRANCH  24  25
ATOM     25  C   UNL     1       0.571   4.148  -3.132  1.00  0.00     0.338 C 
ATOM     26  O   UNL     1       0.982   4.180  -4.300  1.00  0.00    -0.246 OA
BRANCH  25  27
ATOM     27  C   UNL     1      -0.854   4.266  -2.817  1.00  0.00     0.060 A 
ATOM     28  C   UNL     1      -1.618   3.102  -2.724  1.00  0.00     0.016 A 
ATOM     29  C   UNL     1      -1.472   5.517  -2.832  1.00  0.00     0.016 A 
ATOM     30  C   UNL     1      -3.007   3.176  -2.751  1.00  0.00     0.010 A 
ATOM     31  C   UNL     1      -2.869   5.593  -2.801  1.00  0.00     0.010 A 
ATOM     32  C   UNL     1      -3.646   4.422  -2.820  1.00  0.00    -0.014 A 
BRANCH  32  33
ATOM     33  C   UNL     1      -5.114   4.479  -3.038  1.00  0.00     0.031 A 
ATOM     34  C   UNL     1      -5.652   4.946  -4.366  1.00  0.00     0.074 A 
ATOM     35  C   UNL     1      -5.963   4.051  -2.085  1.00  0.00     0.049 A 
ATOM     36  N   UNL     1      -6.893   5.135  -4.736  1.00  0.00    -0.248 NA
ATOM     37  C   UNL     1      -4.663   5.242  -5.415  1.00  0.00     0.031 C 
ATOM     38  C   UNL     1      -5.571   3.528  -0.775  1.00  0.00     0.029 A 
ATOM     39  N   UNL     1      -7.332   3.974  -2.080  1.00  0.00    -0.354 N 
ATOM     40  C   UNL     1      -6.833   5.611  -6.040  1.00  0.00     0.074 A 
ATOM     41  C   UNL     1      -5.433   5.682  -6.400  1.00  0.00     0.031 C 
ATOM     42  C   UNL     1      -6.675   3.159  -0.104  1.00  0.00     0.029 A 
ATOM     43  C   UNL     1      -7.850   3.458  -0.917  1.00  0.00     0.049 A 
ATOM     44  H   UNL     1      -7.891   4.262  -2.838  1.00  0.00     0.167 HD
ATOM     45  C   UNL     1      -7.850   5.961  -6.864  1.00  0.00     0.037 A 
ATOM     46  C   UNL     1      -9.129   3.260  -0.545  1.00  0.00     0.037 A 
ATOM     47  C   UNL     1      -9.244   5.853  -6.526  1.00  0.00     0.049 A 
ATOM     48  C   UNL     1     -10.241   3.634  -1.484  1.00  0.00     0.074 A 
ATOM     49  C   UNL     1     -10.348   6.212  -7.280  1.00  0.00     0.029 A 
ATOM     50  N   UNL     1      -9.726   5.322  -5.340  1.00  0.00    -0.354 N 
ATOM     51  N   UNL     1     -10.164   4.152  -2.686  1.00  0.00    -0.248 NA
ATOM     52  C   UNL     1     -11.613   3.403  -1.011  1.00  0.00     0.031 C 
ATOM     53  C   UNL     1     -11.500   5.901  -6.545  1.00  0.00     0.029 A 
ATOM     54  C   UNL     1     -11.111   5.333  -5.344  1.00  0.00     0.049 A 
ATOM     55  H   UNL     1      -9.167   4.986  -4.603  1.00  0.00     0.167 HD
ATOM     56  C   UNL     1     -11.476   4.310  -3.114  1.00  0.00     0.074 A 
ATOM     57  C   UNL     1     -12.327   3.812  -2.051  1.00  0.00     0.031 C 
ATOM     58  C   UNL     1     -11.938   4.829  -4.278  1.00  0.00     0.037 A 
BRANCH  45  59
ATOM     59  C   UNL     1      -7.478   6.525  -8.204  1.00  0.00     0.058 A 
ATOM     60  C   UNL     1      -7.073   5.701  -9.264  1.00  0.00     0.135 A 
ATOM     61  C   UNL     1      -7.521   7.911  -8.425  1.00  0.00     0.135 A 
ATOM     62  F   UNL     1      -6.996   4.371  -9.095  1.00  0.00    -0.206 F 
ATOM     63  C   UNL     1      -6.696   6.234 -10.493  1.00  0.00     0.059 A 
ATOM     64  C   UNL     1      -7.163   8.464  -9.650  1.00  0.00     0.059 A 
ATOM     65  F   UNL     1      -7.897   8.741  -7.439  1.00  0.00    -0.206 F 
ATOM     66  C   UNL     1      -6.735   7.618 -10.673  1.00  0.00     0.060 A 
BRANCH  66  67
ATOM     67  S   UNL     1      -6.227   8.311 -12.261  1.00  0.00     0.124 S 
ATOM     68  O   UNL     1      -4.775   8.341 -12.111  1.00  0.00    -0.237 OA
ATOM     69  O   UNL     1      -6.744   7.336 -13.217  1.00  0.00    -0.237 OA
ATOM     70  O   UNL     1      -6.885   9.613 -12.285  1.00  0.00    -0.744 OA
ENDBRANCH  66  67
ENDBRANCH  45  59
BRANCH  46  71
ATOM     71  C   UNL     1      -9.425   2.685   0.790  1.00  0.00     0.058 A 
ATOM     72  C   UNL     1      -9.843   1.354   0.923  1.00  0.00     0.135 A 
ATOM     73  C   UNL     1      -9.275   3.449   1.957  1.00  0.00     0.135 A 
ATOM     74  F   UNL     1     -10.007   0.589  -0.167  1.00  0.00    -0.206 F 
ATOM     75  C   UNL     1     -10.109   0.797   2.170  1.00  0.00     0.059 A 
ATOM     76  C   UNL     1      -9.518   2.910   3.215  1.00  0.00     0.059 A 
ATOM     77  F   UNL     1      -8.865   4.724   1.877  1.00  0.00    -0.206 F 
ATOM     78  C   UNL     1      -9.942   1.585   3.311  1.00  0.00     0.060 A 
BRANCH  78  79
ATOM     79  S   UNL     1     -10.219   0.847   4.937  1.00  0.00     0.124 S 
ATOM     80  O   UNL     1     -11.661   1.001   5.085  1.00  0.00    -0.237 OA
ATOM     81  O   UNL     1      -9.738  -0.519   4.750  1.00  0.00    -0.237 OA
ATOM     82  O   UNL     1      -9.398   1.675   5.816  1.00  0.00    -0.744 OA
ENDBRANCH  78  79
ENDBRANCH  46  71
BRANCH  58  83
ATOM     83  C   UNL     1     -13.425   4.869  -4.459  1.00  0.00     0.058 A 
ATOM     84  C   UNL     1     -14.205   5.867  -3.855  1.00  0.00     0.135 A 
ATOM     85  C   UNL     1     -14.074   3.910  -5.251  1.00  0.00     0.135 A 
ATOM     86  F   UNL     1     -13.627   6.801  -3.084  1.00  0.00    -0.206 F 
ATOM     87  C   UNL     1     -15.587   5.898  -4.009  1.00  0.00     0.059 A 
ATOM     88  C   UNL     1     -15.454   3.931  -5.429  1.00  0.00     0.059 A 
ATOM     89  F   UNL     1     -13.369   2.940  -5.853  1.00  0.00    -0.206 F 
ATOM     90  C   UNL     1     -16.203   4.920  -4.792  1.00  0.00     0.060 A 
BRANCH  90  91
ATOM     91  S   UNL     1     -17.997   4.962  -4.999  1.00  0.00     0.124 S 
ATOM     92  O   UNL     1     -18.445   4.250  -3.807  1.00  0.00    -0.237 OA
ATOM     93  O   UNL     1     -18.285   6.393  -5.027  1.00  0.00    -0.237 OA
ATOM     94  O   UNL     1     -18.202   4.265  -6.265  1.00  0.00    -0.744 OA
ENDBRANCH  90  91
ENDBRANCH  58  83
ENDBRANCH  32  33
ENDBRANCH  25  27
ENDBRANCH  24  25
ENDBRANCH   1  24
TORSDOF 18
