REMARK SMILES [NH3+][C@H](C(=O)OCCOC(=O)c1ccc(-c2c3nc(c(-c4c(F)cc(S(=O)(=O)[O-])cc4F)c4ccc([nH]4)c(-c4c(F)cc(S(=O)(=O)[O-])cc4F)c4nc(c(-c5c(F)cc(S(=O)(=O)[O-])cc5F)c5ccc2[nH]5)C=C4)C=C3)cc1)c1cc(F)c(Cl)c(Cl)c1
REMARK SMILES IDX 7 1 6 2 5 3 3 4 4 5 2 6 1 7 77 11 78 12 85 13 79 14 83 15
REMARK SMILES IDX 80 16 81 17 84 18 82 19 8 20 9 21 10 22 11 23 12 24 76 25
REMARK SMILES IDX 13 26 75 27 14 28 15 29 16 30 69 31 17 32 74 33 68 34 70 35
REMARK SMILES IDX 18 36 73 37 67 38 66 39 19 41 53 42 32 43 52 44 33 45 36 46
REMARK SMILES IDX 51 47 71 48 34 49 35 50 50 52 72 53 37 54 20 55 21 56 30 57
REMARK SMILES IDX 22 58 23 59 29 60 31 61 24 62 25 63 26 64 27 65 28 66 54 67
REMARK SMILES IDX 55 68 64 69 56 70 57 71 63 72 65 73 58 74 59 75 60 76 61 77
REMARK SMILES IDX 62 78 38 79 39 80 48 81 40 82 41 83 47 84 49 85 42 86 43 87
REMARK SMILES IDX 44 88 45 89 46 90
REMARK H PARENT 1 8 1 9 1 10 70 40 36 51
REMARK Flexibility Score: inf
ROOT
ATOM      1  C   UNL     1       0.866  -0.073  -2.780  1.00  0.00     0.275 C 
ENDROOT
BRANCH   1   2
ATOM      2  C   UNL     1       1.479  -1.134  -1.870  1.00  0.00     0.274 C 
BRANCH   2   3
ATOM      3  O   UNL     1       0.761  -1.242  -0.624  1.00  0.00    -0.457 OA
BRANCH   3   4
ATOM      4  C   UNL     1       1.325  -0.622   0.451  1.00  0.00     0.369 C 
ATOM      5  O   UNL     1       2.372   0.018   0.418  1.00  0.00    -0.245 OA
BRANCH   4   6
ATOM      6  C   UNL     1       0.548  -0.905   1.755  1.00  0.00     0.323 C 
BRANCH   6   7
ATOM      7  N   UNL     1       1.116  -0.128   2.883  1.00  0.00    -0.342 N 
ATOM      8  H   UNL     1       0.590  -0.329   3.733  1.00  0.00     0.345 HD
ATOM      9  H   UNL     1       1.056   0.868   2.674  1.00  0.00     0.345 HD
ATOM     10  H   UNL     1       2.093  -0.390   3.018  1.00  0.00     0.345 HD
ENDBRANCH   6   7
BRANCH   6  11
ATOM     11  C   UNL     1      -0.956  -0.712   1.647  1.00  0.00     0.025 A 
ATOM     12  C   UNL     1      -1.567   0.548   1.711  1.00  0.00     0.051 A 
ATOM     13  C   UNL     1      -1.784  -1.834   1.474  1.00  0.00     0.032 A 
ATOM     14  C   UNL     1      -2.953   0.675   1.605  1.00  0.00     0.143 A 
ATOM     15  C   UNL     1      -3.178  -1.702   1.375  1.00  0.00     0.063 A 
ATOM     16  F   UNL     1      -3.483   1.906   1.682  1.00  0.00    -0.205 F 
ATOM     17  C   UNL     1      -3.771  -0.440   1.439  1.00  0.00     0.095 A 
ATOM     18  Cl  UNL     1      -4.099  -3.153   1.185  1.00  0.00    -0.083 Cl
ATOM     19  Cl  UNL     1      -5.481  -0.219   1.335  1.00  0.00    -0.079 Cl
ENDBRANCH   6  11
ENDBRANCH   4   6
ENDBRANCH   3   4
ENDBRANCH   2   3
ENDBRANCH   1   2
BRANCH   1  20
ATOM     20  O   UNL     1       1.032   1.234  -2.205  1.00  0.00    -0.458 OA
BRANCH  20  21
ATOM     21  C   UNL     1      -0.100   1.819  -1.754  1.00  0.00     0.338 C 
ATOM     22  O   UNL     1      -1.235   1.379  -1.802  1.00  0.00    -0.246 OA
BRANCH  21  23
ATOM     23  C   UNL     1       0.244   3.092  -1.107  1.00  0.00     0.060 A 
ATOM     24  C   UNL     1       0.721   3.071   0.204  1.00  0.00     0.016 A 
ATOM     25  C   UNL     1      -0.014   4.301  -1.751  1.00  0.00     0.016 A 
ATOM     26  C   UNL     1       0.879   4.263   0.904  1.00  0.00     0.010 A 
ATOM     27  C   UNL     1       0.209   5.500  -1.067  1.00  0.00     0.010 A 
ATOM     28  C   UNL     1       0.628   5.490   0.276  1.00  0.00    -0.014 A 
BRANCH  28  29
ATOM     29  C   UNL     1       0.765   6.758   1.038  1.00  0.00     0.031 A 
ATOM     30  C   UNL     1      -0.448   7.602   1.320  1.00  0.00     0.074 A 
ATOM     31  C   UNL     1       1.972   7.145   1.494  1.00  0.00     0.049 A 
ATOM     32  N   UNL     1      -0.518   8.799   1.841  1.00  0.00    -0.248 NA
ATOM     33  C   UNL     1      -1.754   7.025   0.960  1.00  0.00     0.031 C 
ATOM     34  C   UNL     1       3.221   6.400   1.322  1.00  0.00     0.029 A 
ATOM     35  N   UNL     1       2.345   8.261   2.200  1.00  0.00    -0.354 N 
ATOM     36  C   UNL     1      -1.865   9.140   1.831  1.00  0.00     0.074 A 
ATOM     37  C   UNL     1      -2.579   8.020   1.255  1.00  0.00     0.031 C 
ATOM     38  C   UNL     1       4.218   7.069   1.924  1.00  0.00     0.029 A 
ATOM     39  C   UNL     1       3.691   8.316   2.471  1.00  0.00     0.049 A 
ATOM     40  H   UNL     1       1.709   8.956   2.484  1.00  0.00     0.167 HD
ATOM     41  C   UNL     1      -2.451  10.283   2.260  1.00  0.00     0.037 A 
ATOM     42  C   UNL     1       4.426   9.275   3.065  1.00  0.00     0.037 A 
ATOM     43  C   UNL     1      -1.744  11.378   2.872  1.00  0.00     0.049 A 
ATOM     44  C   UNL     1       3.754  10.533   3.537  1.00  0.00     0.074 A 
ATOM     45  C   UNL     1      -2.249  12.582   3.331  1.00  0.00     0.029 A 
ATOM     46  N   UNL     1      -0.382  11.392   3.129  1.00  0.00    -0.354 N 
ATOM     47  N   UNL     1       2.488  10.866   3.461  1.00  0.00    -0.248 NA
ATOM     48  C   UNL     1       4.611  11.552   4.158  1.00  0.00     0.031 C 
ATOM     49  C   UNL     1      -1.187  13.332   3.853  1.00  0.00     0.029 A 
ATOM     50  C   UNL     1      -0.027  12.583   3.740  1.00  0.00     0.049 A 
ATOM     51  H   UNL     1       0.242  10.663   2.909  1.00  0.00     0.167 HD
ATOM     52  C   UNL     1       2.396  12.133   4.022  1.00  0.00     0.074 A 
ATOM     53  C   UNL     1       3.731  12.499   4.453  1.00  0.00     0.031 C 
ATOM     54  C   UNL     1       1.307  12.928   4.159  1.00  0.00     0.037 A 
BRANCH  41  55
ATOM     55  C   UNL     1      -3.931  10.418   2.051  1.00  0.00     0.058 A 
ATOM     56  C   UNL     1      -4.857   9.765   2.878  1.00  0.00     0.135 A 
ATOM     57  C   UNL     1      -4.428  11.228   1.017  1.00  0.00     0.135 A 
ATOM     58  F   UNL     1      -4.431   8.966   3.868  1.00  0.00    -0.206 F 
ATOM     59  C   UNL     1      -6.228   9.892   2.673  1.00  0.00     0.059 A 
ATOM     60  C   UNL     1      -5.795  11.383   0.805  1.00  0.00     0.059 A 
ATOM     61  F   UNL     1      -3.583  11.871   0.197  1.00  0.00    -0.206 F 
ATOM     62  C   UNL     1      -6.687  10.698   1.630  1.00  0.00     0.060 A 
BRANCH  62  63
ATOM     63  S   UNL     1      -8.466  10.859   1.366  1.00  0.00     0.124 S 
ATOM     64  O   UNL     1      -8.763   9.628   0.640  1.00  0.00    -0.237 OA
ATOM     65  O   UNL     1      -8.985  10.932   2.728  1.00  0.00    -0.237 OA
ATOM     66  O   UNL     1      -8.582  12.089   0.590  1.00  0.00    -0.744 OA
ENDBRANCH  62  63
ENDBRANCH  41  55
BRANCH  42  67
ATOM     67  C   UNL     1       5.891   9.090   3.216  1.00  0.00     0.058 A 
ATOM     68  C   UNL     1       6.456   8.795   4.464  1.00  0.00     0.135 A 
ATOM     69  C   UNL     1       6.748   9.170   2.108  1.00  0.00     0.135 A 
ATOM     70  F   UNL     1       5.675   8.717   5.552  1.00  0.00    -0.206 F 
ATOM     71  C   UNL     1       7.824   8.586   4.611  1.00  0.00     0.059 A 
ATOM     72  C   UNL     1       8.115   8.946   2.226  1.00  0.00     0.059 A 
ATOM     73  F   UNL     1       6.250   9.437   0.890  1.00  0.00    -0.206 F 
ATOM     74  C   UNL     1       8.645   8.660   3.484  1.00  0.00     0.060 A 
BRANCH  74  75
ATOM     75  S   UNL     1      10.408   8.311   3.658  1.00  0.00     0.124 S 
ATOM     76  O   UNL     1      10.916   9.597   4.121  1.00  0.00    -0.237 OA
ATOM     77  O   UNL     1      10.419   7.229   4.639  1.00  0.00    -0.237 OA
ATOM     78  O   UNL     1      10.802   7.921   2.307  1.00  0.00    -0.744 OA
ENDBRANCH  74  75
ENDBRANCH  42  67
BRANCH  54  79
ATOM     79  C   UNL     1       1.514  14.264   4.807  1.00  0.00     0.058 A 
ATOM     80  C   UNL     1       2.054  15.343   4.092  1.00  0.00     0.135 A 
ATOM     81  C   UNL     1       1.136  14.478   6.141  1.00  0.00     0.135 A 
ATOM     82  F   UNL     1       2.436  15.184   2.815  1.00  0.00    -0.206 F 
ATOM     83  C   UNL     1       2.227  16.590   4.683  1.00  0.00     0.059 A 
ATOM     84  C   UNL     1       1.288  15.720   6.749  1.00  0.00     0.059 A 
ATOM     85  F   UNL     1       0.611  13.476   6.864  1.00  0.00    -0.206 F 
ATOM     86  C   UNL     1       1.844  16.767   6.014  1.00  0.00     0.060 A 
BRANCH  86  87
ATOM     87  S   UNL     1       2.046  18.395   6.770  1.00  0.00     0.124 S 
ATOM     88  O   UNL     1       3.462  18.381   7.120  1.00  0.00    -0.237 OA
ATOM     89  O   UNL     1       1.669  19.298   5.687  1.00  0.00    -0.237 OA
ATOM     90  O   UNL     1       1.118  18.359   7.897  1.00  0.00    -0.744 OA
ENDBRANCH  86  87
ENDBRANCH  54  79
ENDBRANCH  28  29
ENDBRANCH  21  23
ENDBRANCH  20  21
ENDBRANCH   1  20
TORSDOF 16
