REMARK SMILES Cc1ccc(S(=O)(=O)N[C@@H](Cc2cccc(F)c2)C(=O)OCCOC(=O)c2ccc(-c3c4nc(c(-c5c(F)cc(S(=O)(=O)[O-])cc5F)c5ccc([nH]5)c(-c5c(F)cc(S(=O)(=O)[O-])cc5F)c5nc(c(-c6c(F)cc(S(=O)(=O)[O-])cc6F)c6ccc3[nH]6)C=C5)C=C4)cc2)cc1
REMARK SMILES IDX 22 1 21 2 19 3 20 4 10 5 9 6 6 8 7 9 8 10 5 11 1 12 2 13
REMARK SMILES IDX 3 14 94 15 4 16 93 17 11 18 12 19 13 20 18 21 14 22 16 23
REMARK SMILES IDX 15 24 17 25 23 26 24 27 25 28 26 29 27 30 28 31 92 32 29 33
REMARK SMILES IDX 91 34 30 35 31 36 32 37 85 38 33 39 90 40 84 41 86 42 34 43
REMARK SMILES IDX 89 44 83 45 82 46 35 48 69 49 48 50 68 51 49 52 52 53 67 54
REMARK SMILES IDX 87 55 50 56 51 57 66 59 88 60 53 61 36 62 37 63 46 64 38 65
REMARK SMILES IDX 39 66 45 67 47 68 40 69 41 70 42 71 43 72 44 73 70 74 71 75
REMARK SMILES IDX 80 76 72 77 73 78 79 79 81 80 74 81 75 82 76 83 77 84 78 85
REMARK SMILES IDX 54 86 55 87 64 88 56 89 57 90 63 91 65 92 58 93 59 94 60 95
REMARK SMILES IDX 61 96 62 97
REMARK H PARENT 9 7 86 47 52 58
REMARK Flexibility Score: inf
ROOT
ATOM      1  C   UNL     1      -6.080   6.498  -0.121  1.00  0.00     0.274 C 
ENDROOT
BRANCH   1   2
ATOM      2  O   UNL     1      -6.016   5.169  -0.589  1.00  0.00    -0.461 OA
BRANCH   2   3
ATOM      3  C   UNL     1      -4.659   4.640  -0.785  1.00  0.00     0.324 C 
ATOM      4  O   UNL     1      -3.918   5.668  -0.801  1.00  0.00    -0.250 OA
BRANCH   3   5
ATOM      5  C   UNL     1      -4.241   2.528  -1.151  1.00  0.00     0.184 C 
BRANCH   5   6
ATOM      6  N   UNL     1      -4.245   1.226   0.018  1.00  0.00    -0.197 NA
ATOM      7  H   UNL     1      -3.820   1.618   0.858  1.00  0.00     0.142 HD
BRANCH   6   8
ATOM      8  S   UNL     1      -3.506  -0.304  -0.189  1.00  0.00     0.241 S 
ATOM      9  O   UNL     1      -3.799  -0.808  -1.511  1.00  0.00    -0.207 OA
ATOM     10  O   UNL     1      -3.970  -1.059   0.960  1.00  0.00    -0.207 OA
BRANCH   8  11
ATOM     11  C   UNL     1      -1.743  -0.244  -0.029  1.00  0.00     0.082 A 
ATOM     12  C   UNL     1       2.573  -0.228  -0.015  1.00  0.00     0.044 C 
ATOM     13  C   UNL     1       1.073  -0.245   0.011  1.00  0.00    -0.051 A 
ATOM     14  C   UNL     1       0.370  -1.452  -0.086  1.00  0.00     0.005 A 
ATOM     15  C   UNL     1       0.352   0.946   0.139  1.00  0.00     0.005 A 
ATOM     16  C   UNL     1      -1.031  -1.452  -0.115  1.00  0.00     0.022 A 
ATOM     17  C   UNL     1      -1.046   0.939   0.139  1.00  0.00     0.022 A 
ENDBRANCH   8  11
ENDBRANCH   6   8
ENDBRANCH   5   6
BRANCH   5  18
ATOM     18  C   UNL     1      -4.858   1.550  -2.573  1.00  0.00     0.067 C 
BRANCH  18  19
ATOM     19  C   UNL     1      -5.346   2.297  -3.835  1.00  0.00    -0.043 A 
ATOM     20  C   UNL     1      -3.998   2.495  -5.024  1.00  0.00     0.004 A 
ATOM     21  C   UNL     1      -6.824   3.478  -3.935  1.00  0.00     0.043 A 
ATOM     22  C   UNL     1      -4.070   3.772  -6.242  1.00  0.00     0.003 A 
ATOM     23  C   UNL     1      -6.911   4.679  -5.255  1.00  0.00     0.123 A 
ATOM     24  C   UNL     1      -5.522   4.825  -6.380  1.00  0.00     0.039 A 
ATOM     25  F   UNL     1      -7.912   5.573  -5.268  1.00  0.00    -0.207 F 
ENDBRANCH  18  19
ENDBRANCH   5  18
ENDBRANCH   3   5
ENDBRANCH   2   3
ENDBRANCH   1   2
BRANCH   1  26
ATOM     26  C   UNL     1      -5.776   6.444   1.380  1.00  0.00     0.275 C 
BRANCH  26  27
ATOM     27  O   UNL     1      -4.556   5.719   1.798  1.00  0.00    -0.458 OA
BRANCH  27  28
ATOM     28  C   UNL     1      -4.466   4.388   2.111  1.00  0.00     0.338 C 
ATOM     29  O   UNL     1      -4.534   3.926   3.239  1.00  0.00    -0.246 OA
BRANCH  28  30
ATOM     30  C   UNL     1      -4.253   3.505   0.908  1.00  0.00     0.060 A 
ATOM     31  C   UNL     1      -2.852   3.834  -0.142  1.00  0.00     0.016 A 
ATOM     32  C   UNL     1      -5.808   3.124   0.202  1.00  0.00     0.016 A 
ATOM     33  C   UNL     1      -3.028   4.061  -1.944  1.00  0.00     0.010 A 
ATOM     34  C   UNL     1      -6.040   3.336  -1.549  1.00  0.00     0.010 A 
ATOM     35  C   UNL     1      -4.672   3.962  -2.657  1.00  0.00    -0.014 A 
BRANCH  35  36
ATOM     36  C   UNL     1      -4.980   4.312  -4.339  1.00  0.00     0.031 A 
ATOM     37  C   UNL     1      -5.953   2.906  -5.639  1.00  0.00     0.074 A 
ATOM     38  C   UNL     1      -4.745   5.759  -4.248  1.00  0.00     0.049 A 
ATOM     39  N   UNL     1      -5.968   2.683  -6.983  1.00  0.00    -0.248 NA
ATOM     40  C   UNL     1      -7.064   1.641  -5.257  1.00  0.00     0.031 C 
ATOM     41  C   UNL     1      -5.332   6.948  -4.998  1.00  0.00     0.029 A 
ATOM     42  N   UNL     1      -3.500   6.330  -3.889  1.00  0.00    -0.354 N 
ATOM     43  C   UNL     1      -7.185   2.187  -7.404  1.00  0.00     0.074 A 
ATOM     44  C   UNL     1      -7.694   1.351  -6.375  1.00  0.00     0.031 C 
ATOM     45  C   UNL     1      -4.372   7.771  -5.430  1.00  0.00     0.029 A 
ATOM     46  C   UNL     1      -3.150   7.277  -4.896  1.00  0.00     0.049 A 
ATOM     47  H   UNL     1      -2.971   6.113  -3.087  1.00  0.00     0.167 HD
ATOM     48  C   UNL     1      -7.840   2.759  -8.459  1.00  0.00     0.037 A 
ATOM     49  C   UNL     1      -1.970   7.268  -5.555  1.00  0.00     0.037 A 
ATOM     50  C   UNL     1      -7.160   3.991  -8.943  1.00  0.00     0.049 A 
ATOM     51  C   UNL     1      -2.107   6.804  -7.024  1.00  0.00     0.074 A 
ATOM     52  C   UNL     1      -7.478   5.343  -8.970  1.00  0.00     0.029 A 
ATOM     53  N   UNL     1      -5.791   3.969  -9.206  1.00  0.00    -0.354 N 
ATOM     54  N   UNL     1      -3.222   6.480  -7.663  1.00  0.00    -0.248 NA
ATOM     55  C   UNL     1      -0.936   6.632  -7.879  1.00  0.00     0.031 C 
ATOM     56  C   UNL     1      -6.312   6.099  -9.342  1.00  0.00     0.029 A 
ATOM     57  C   UNL     1      -5.244   5.226  -9.464  1.00  0.00     0.049 A 
ATOM     58  H   UNL     1      -5.259   3.140  -9.210  1.00  0.00     0.167 HD
ATOM     59  C   UNL     1      -2.924   5.926  -8.914  1.00  0.00     0.074 A 
ATOM     60  C   UNL     1      -1.468   6.064  -8.975  1.00  0.00     0.031 C 
ATOM     61  C   UNL     1      -3.815   5.330  -9.806  1.00  0.00     0.037 A 
BRANCH  48  62
ATOM     62  C   UNL     1      -9.266   2.327  -8.803  1.00  0.00     0.058 A 
ATOM     63  C   UNL     1     -10.146   3.181  -9.487  1.00  0.00     0.135 A 
ATOM     64  C   UNL     1      -9.819   1.051  -8.506  1.00  0.00     0.135 A 
ATOM     65  F   UNL     1      -9.752   4.376  -9.942  1.00  0.00    -0.206 F 
ATOM     66  C   UNL     1     -11.467   2.834  -9.783  1.00  0.00     0.059 A 
ATOM     67  C   UNL     1     -11.165   0.721  -8.689  1.00  0.00     0.059 A 
ATOM     68  F   UNL     1      -9.053   0.026  -8.100  1.00  0.00    -0.206 F 
ATOM     69  C   UNL     1     -11.975   1.612  -9.365  1.00  0.00     0.060 A 
BRANCH  69  70
ATOM     70  S   UNL     1     -13.647   1.151  -9.844  1.00  0.00     0.124 S 
ATOM     71  O   UNL     1     -14.427   2.300  -9.394  1.00  0.00    -0.237 OA
ATOM     72  O   UNL     1     -13.507   1.003 -11.289  1.00  0.00    -0.237 OA
ATOM     73  O   UNL     1     -13.886  -0.087  -9.107  1.00  0.00    -0.744 OA
ENDBRANCH  69  70
ENDBRANCH  48  62
BRANCH  49  74
ATOM     74  C   UNL     1      -0.904   7.112  -4.507  1.00  0.00     0.058 A 
ATOM     75  C   UNL     1      -0.905   8.127  -3.501  1.00  0.00     0.135 A 
ATOM     76  C   UNL     1      -0.417   5.860  -4.124  1.00  0.00     0.135 A 
ATOM     77  F   UNL     1      -1.343   9.363  -3.804  1.00  0.00    -0.206 F 
ATOM     78  C   UNL     1      -0.681   7.847  -2.153  1.00  0.00     0.059 A 
ATOM     79  C   UNL     1      -0.083   5.589  -2.784  1.00  0.00     0.059 A 
ATOM     80  F   UNL     1      -0.430   4.841  -4.995  1.00  0.00    -0.206 F 
ATOM     81  C   UNL     1      -0.286   6.565  -1.798  1.00  0.00     0.060 A 
BRANCH  81  82
ATOM     82  S   UNL     1      -0.090   6.188  -0.035  1.00  0.00     0.124 S 
ATOM     83  O   UNL     1       1.015   7.060   0.341  1.00  0.00    -0.237 OA
ATOM     84  O   UNL     1      -1.384   6.551   0.530  1.00  0.00    -0.237 OA
ATOM     85  O   UNL     1       0.216   4.758  -0.034  1.00  0.00    -0.744 OA
ENDBRANCH  81  82
ENDBRANCH  49  74
BRANCH  61  86
ATOM     86  C   UNL     1      -3.411   4.695 -11.156  1.00  0.00     0.058 A 
ATOM     87  C   UNL     1      -2.344   5.154 -11.941  1.00  0.00     0.135 A 
ATOM     88  C   UNL     1      -4.162   3.651 -11.772  1.00  0.00     0.135 A 
ATOM     89  F   UNL     1      -1.702   6.293 -11.642  1.00  0.00    -0.206 F 
ATOM     90  C   UNL     1      -1.942   4.519 -13.123  1.00  0.00     0.059 A 
ATOM     91  C   UNL     1      -3.827   3.050 -12.979  1.00  0.00     0.059 A 
ATOM     92  F   UNL     1      -5.295   3.157 -11.264  1.00  0.00    -0.206 F 
ATOM     93  C   UNL     1      -2.689   3.463 -13.632  1.00  0.00     0.060 A 
BRANCH  93  94
ATOM     94  S   UNL     1      -2.242   2.729 -15.209  1.00  0.00     0.124 S 
ATOM     95  O   UNL     1      -2.059   3.909 -16.048  1.00  0.00    -0.237 OA
ATOM     96  O   UNL     1      -1.026   2.001 -14.861  1.00  0.00    -0.237 OA
ATOM     97  O   UNL     1      -3.396   1.900 -15.545  1.00  0.00    -0.744 OA
ENDBRANCH  93  94
ENDBRANCH  61  86
ENDBRANCH  35  36
ENDBRANCH  28  30
ENDBRANCH  27  28
ENDBRANCH  26  27
ENDBRANCH   1  26
TORSDOF 19
