REMARK SMILES Cc1nnc(SCCC(=O)OCCOC(=O)c2ccc(-c3c4nc(c(-c5c(F)cc(S(=O)(=O)[O-])cc5F)c5ccc([nH]5)c(-c5c(F)cc(S(=O)(=O)[O-])cc5F)c5nc(c(-c6c(F)cc(S(=O)(=O)[O-])cc6F)c6ccc3[nH]6)C=C5)C=C4)cc2)s1
REMARK SMILES IDX 12 1 11 2 9 3 10 4 8 5 7 6 6 7 5 8 1 9 2 10 3 11 83 12 4 13
REMARK SMILES IDX 13 14 14 15 15 16 16 17 17 18 18 19 82 20 19 21 81 22 20 23
REMARK SMILES IDX 21 24 22 25 75 26 23 27 80 28 74 29 76 30 24 31 79 32 73 33
REMARK SMILES IDX 72 34 25 36 59 37 38 38 58 39 39 40 42 41 57 42 77 43 40 44
REMARK SMILES IDX 41 45 56 47 78 48 43 49 26 50 27 51 36 52 28 53 29 54 35 55
REMARK SMILES IDX 37 56 30 57 31 58 32 59 33 60 34 61 60 62 61 63 70 64 62 65
REMARK SMILES IDX 63 66 69 67 71 68 64 69 65 70 66 71 67 72 68 73 44 74 45 75
REMARK SMILES IDX 54 76 46 77 47 78 53 79 55 80 48 81 49 82 50 83 51 84 52 85
REMARK H PARENT 76 35 42 46
REMARK Flexibility Score: inf
ROOT
ATOM      1  C   UNL     1       0.478  -2.148   1.690  1.00  0.00     0.274 C 
ENDROOT
BRANCH   1   2
ATOM      2  O   UNL     1       1.577  -1.245   1.455  1.00  0.00    -0.462 OA
BRANCH   2   3
ATOM      3  C   UNL     1       2.784  -1.602   1.952  1.00  0.00     0.306 C 
ATOM      4  O   UNL     1       2.982  -2.589   2.651  1.00  0.00    -0.252 OA
BRANCH   3   5
ATOM      5  C   UNL     1       3.877  -0.608   1.635  1.00  0.00     0.134 C 
BRANCH   5   6
ATOM      6  C   UNL     1       3.829   0.047   0.258  1.00  0.00     0.089 C 
BRANCH   6   7
ATOM      7  S   UNL     1       2.998   1.673   0.269  1.00  0.00    -0.093 SA
BRANCH   7   8
ATOM      8  C   UNL     1       1.387   1.219  -0.227  1.00  0.00     0.174 A 
ATOM      9  C   UNL     1      -2.355   0.428  -0.239  1.00  0.00     0.081 C 
ATOM     10  C   UNL     1      -0.909   0.686  -0.438  1.00  0.00     0.115 A 
ATOM     11  N   UNL     1      -0.192   0.169  -1.413  1.00  0.00    -0.143 NA
ATOM     12  S   UNL     1      -0.017   1.679   0.642  1.00  0.00    -0.091 S 
ATOM     13  N   UNL     1       1.147   0.486  -1.291  1.00  0.00    -0.132 NA
ENDBRANCH   7   8
ENDBRANCH   6   7
ENDBRANCH   5   6
ENDBRANCH   3   5
ENDBRANCH   2   3
ENDBRANCH   1   2
BRANCH   1  14
ATOM     14  C   UNL     1       0.178  -3.003   0.456  1.00  0.00     0.275 C 
BRANCH  14  15
ATOM     15  O   UNL     1       1.148  -4.050   0.298  1.00  0.00    -0.458 OA
BRANCH  15  16
ATOM     16  C   UNL     1       2.216  -3.733  -0.466  1.00  0.00     0.338 C 
ATOM     17  O   UNL     1       2.427  -2.690  -1.062  1.00  0.00    -0.246 OA
BRANCH  16  18
ATOM     18  C   UNL     1       3.206  -4.805  -0.379  1.00  0.00     0.060 A 
ATOM     19  C   UNL     1       4.441  -4.519   0.210  1.00  0.00     0.016 A 
ATOM     20  C   UNL     1       2.933  -6.063  -0.917  1.00  0.00     0.016 A 
ATOM     21  C   UNL     1       5.417  -5.505   0.273  1.00  0.00     0.010 A 
ATOM     22  C   UNL     1       3.911  -7.052  -0.847  1.00  0.00     0.010 A 
ATOM     23  C   UNL     1       5.156  -6.777  -0.254  1.00  0.00    -0.014 A 
BRANCH  23  24
ATOM     24  C   UNL     1       6.187  -7.833  -0.188  1.00  0.00     0.031 A 
ATOM     25  C   UNL     1       6.925  -8.229  -1.431  1.00  0.00     0.074 A 
ATOM     26  C   UNL     1       6.422  -8.443   0.988  1.00  0.00     0.049 A 
ATOM     27  N   UNL     1       7.780  -9.201  -1.607  1.00  0.00    -0.248 NA
ATOM     28  C   UNL     1       6.657  -7.433  -2.640  1.00  0.00     0.031 C 
ATOM     29  C   UNL     1       5.763  -8.113   2.254  1.00  0.00     0.029 A 
ATOM     30  N   UNL     1       7.265  -9.474   1.308  1.00  0.00    -0.354 N 
ATOM     31  C   UNL     1       8.142  -9.148  -2.947  1.00  0.00     0.074 A 
ATOM     32  C   UNL     1       7.399  -8.058  -3.544  1.00  0.00     0.031 C 
ATOM     33  C   UNL     1       6.221  -8.935   3.212  1.00  0.00     0.029 A 
ATOM     34  C   UNL     1       7.171  -9.871   2.620  1.00  0.00     0.049 A 
ATOM     35  H   UNL     1       7.878  -9.891   0.660  1.00  0.00     0.167 HD
ATOM     36  C   UNL     1       9.017  -9.939  -3.611  1.00  0.00     0.037 A 
ATOM     37  C   UNL     1       7.765 -10.895   3.261  1.00  0.00     0.037 A 
ATOM     38  C   UNL     1       9.750 -11.014  -2.993  1.00  0.00     0.049 A 
ATOM     39  C   UNL     1       8.711 -11.776   2.493  1.00  0.00     0.074 A 
ATOM     40  C   UNL     1      10.675 -11.868  -3.567  1.00  0.00     0.029 A 
ATOM     41  N   UNL     1       9.639 -11.381  -1.659  1.00  0.00    -0.354 N 
ATOM     42  N   UNL     1       9.055 -11.708   1.228  1.00  0.00    -0.248 NA
ATOM     43  C   UNL     1       9.350 -12.871   3.234  1.00  0.00     0.031 C 
ATOM     44  C   UNL     1      11.096 -12.775  -2.588  1.00  0.00     0.029 A 
ATOM     45  C   UNL     1      10.467 -12.459  -1.394  1.00  0.00     0.049 A 
ATOM     46  H   UNL     1       9.056 -10.941  -0.999  1.00  0.00     0.167 HD
ATOM     47  C   UNL     1       9.968 -12.736   1.027  1.00  0.00     0.074 A 
ATOM     48  C   UNL     1      10.130 -13.404   2.304  1.00  0.00     0.031 C 
ATOM     49  C   UNL     1      10.614 -13.098  -0.109  1.00  0.00     0.037 A 
BRANCH  36  50
ATOM     50  C   UNL     1       9.213  -9.686  -5.080  1.00  0.00     0.058 A 
ATOM     51  C   UNL     1       9.918  -8.566  -5.549  1.00  0.00     0.135 A 
ATOM     52  C   UNL     1       8.720 -10.594  -6.031  1.00  0.00     0.135 A 
ATOM     53  F   UNL     1      10.395  -7.657  -4.684  1.00  0.00    -0.206 F 
ATOM     54  C   UNL     1      10.109  -8.345  -6.910  1.00  0.00     0.059 A 
ATOM     55  C   UNL     1       8.920 -10.405  -7.396  1.00  0.00     0.059 A 
ATOM     56  F   UNL     1       8.035 -11.679  -5.638  1.00  0.00    -0.206 F 
ATOM     57  C   UNL     1       9.606  -9.270  -7.826  1.00  0.00     0.060 A 
BRANCH  57  58
ATOM     58  S   UNL     1       9.872  -8.976  -9.587  1.00  0.00     0.124 S 
ATOM     59  O   UNL     1       8.930  -7.892  -9.847  1.00  0.00    -0.237 OA
ATOM     60  O   UNL     1      11.284  -8.611  -9.634  1.00  0.00    -0.237 OA
ATOM     61  O   UNL     1       9.539 -10.257 -10.201  1.00  0.00    -0.744 OA
ENDBRANCH  57  58
ENDBRANCH  36  50
BRANCH  37  62
ATOM     62  C   UNL     1       7.473 -11.142   4.697  1.00  0.00     0.058 A 
ATOM     63  C   UNL     1       8.440 -10.901   5.684  1.00  0.00     0.135 A 
ATOM     64  C   UNL     1       6.216 -11.607   5.114  1.00  0.00     0.135 A 
ATOM     65  F   UNL     1       9.658 -10.460   5.334  1.00  0.00    -0.206 F 
ATOM     66  C   UNL     1       8.179 -11.128   7.031  1.00  0.00     0.059 A 
ATOM     67  C   UNL     1       5.922 -11.818   6.458  1.00  0.00     0.059 A 
ATOM     68  F   UNL     1       5.250 -11.838   4.211  1.00  0.00    -0.206 F 
ATOM     69  C   UNL     1       6.915 -11.587   7.409  1.00  0.00     0.060 A 
BRANCH  69  70
ATOM     70  S   UNL     1       6.571 -11.838   9.164  1.00  0.00     0.124 S 
ATOM     71  O   UNL     1       7.290 -13.079   9.428  1.00  0.00    -0.237 OA
ATOM     72  O   UNL     1       7.135 -10.633   9.765  1.00  0.00    -0.237 OA
ATOM     73  O   UNL     1       5.115 -11.929   9.210  1.00  0.00    -0.744 OA
ENDBRANCH  69  70
ENDBRANCH  37  62
BRANCH  49  74
ATOM     74  C   UNL     1      11.581 -14.243  -0.011  1.00  0.00     0.058 A 
ATOM     75  C   UNL     1      11.140 -15.571   0.088  1.00  0.00     0.135 A 
ATOM     76  C   UNL     1      12.964 -14.009  -0.068  1.00  0.00     0.135 A 
ATOM     77  F   UNL     1       9.827 -15.845   0.153  1.00  0.00    -0.206 F 
ATOM     78  C   UNL     1      12.040 -16.629   0.148  1.00  0.00     0.059 A 
ATOM     79  C   UNL     1      13.881 -15.054  -0.034  1.00  0.00     0.059 A 
ATOM     80  F   UNL     1      13.434 -12.756  -0.172  1.00  0.00    -0.206 F 
ATOM     81  C   UNL     1      13.409 -16.360   0.086  1.00  0.00     0.060 A 
BRANCH  81  82
ATOM     82  S   UNL     1      14.567 -17.744   0.129  1.00  0.00     0.124 S 
ATOM     83  O   UNL     1      14.542 -18.103   1.543  1.00  0.00    -0.237 OA
ATOM     84  O   UNL     1      13.946 -18.703  -0.779  1.00  0.00    -0.237 OA
ATOM     85  O   UNL     1      15.815 -17.156  -0.348  1.00  0.00    -0.744 OA
ENDBRANCH  81  82
ENDBRANCH  49  74
ENDBRANCH  23  24
ENDBRANCH  16  18
ENDBRANCH  15  16
ENDBRANCH  14  15
ENDBRANCH   1  14
TORSDOF 17
