REMARK SMILES O=C(C[C@@H]([NH2+]C[C@H]1CCCO1)C(=O)OCCOC(=O)c1ccc(-c2c3nc(c(-c4c(F)cc(S(=O)(=O)[O-])cc4F)c4ccc([nH]4)c(-c4c(F)cc(S(=O)(=O)[O-])cc4F)c4nc(c(-c5c(F)cc(S(=O)(=O)[O-])cc5F)c5ccc2[nH]5)C=C4)C=C3)cc1)Nc1cccc(Cl)c1
REMARK SMILES IDX 15 1 14 2 12 3 13 4 4 5 3 6 2 7 1 8 86 9 87 11 88 12 93 13
REMARK SMILES IDX 89 14 91 15 90 16 92 17 5 18 6 21 7 22 8 23 11 24 9 25 10 26
REMARK SMILES IDX 16 27 17 28 18 29 19 30 20 31 21 32 85 33 22 34 84 35 23 36
REMARK SMILES IDX 24 37 25 38 78 39 26 40 83 41 77 42 79 43 27 44 82 45 76 46
REMARK SMILES IDX 75 47 28 49 62 50 41 51 61 52 42 53 45 54 60 55 80 56 43 57
REMARK SMILES IDX 44 58 59 60 81 61 46 62 29 63 30 64 39 65 31 66 32 67 38 68
REMARK SMILES IDX 40 69 33 70 34 71 35 72 36 73 37 74 63 75 64 76 73 77 65 78
REMARK SMILES IDX 66 79 72 80 74 81 67 82 68 83 69 84 70 85 71 86 47 87 48 88
REMARK SMILES IDX 57 89 49 90 50 91 56 92 58 93 51 94 52 95 53 96 54 97 55 98
REMARK H PARENT 86 10 5 19 5 20 79 48 45 59
REMARK Flexibility Score: inf
ROOT
ATOM      1  C   UNL     1       7.574  -5.031   5.527  1.00  0.00     0.274 C 
ENDROOT
BRANCH   1   2
ATOM      2  O   UNL     1       6.368  -5.519   4.904  1.00  0.00    -0.458 OA
BRANCH   2   3
ATOM      3  C   UNL     1       6.104  -5.033   3.661  1.00  0.00     0.365 C 
ATOM      4  O   UNL     1       6.834  -4.234   3.081  1.00  0.00    -0.245 OA
BRANCH   3   5
ATOM      5  C   UNL     1       4.813  -5.600   3.027  1.00  0.00     0.302 C 
BRANCH   5   6
ATOM      6  C   UNL     1       4.254  -6.800   3.817  1.00  0.00     0.177 C 
BRANCH   6   7
ATOM      7  C   UNL     1       3.330  -7.656   2.970  1.00  0.00     0.231 C 
ATOM      8  O   UNL     1       3.677  -8.761   2.570  1.00  0.00    -0.274 OA
ATOM      9  N   UNL     1       2.132  -7.025   2.686  1.00  0.00    -0.326 N 
ATOM     10  H   UNL     1       1.978  -6.158   3.127  1.00  0.00     0.169 HD
BRANCH   9  11
ATOM     11  C   UNL     1       1.111  -7.487   1.835  1.00  0.00     0.042 A 
ATOM     12  C   UNL     1       0.213  -6.530   1.343  1.00  0.00     0.026 A 
ATOM     13  C   UNL     1       0.953  -8.825   1.470  1.00  0.00     0.046 A 
ATOM     14  C   UNL     1      -0.817  -6.900   0.475  1.00  0.00     0.004 A 
ATOM     15  C   UNL     1      -0.100  -9.195   0.631  1.00  0.00     0.043 A 
ATOM     16  C   UNL     1      -0.979  -8.238   0.124  1.00  0.00     0.020 A 
ATOM     17  Cl  UNL     1      -0.337 -10.853   0.232  1.00  0.00    -0.084 Cl
ENDBRANCH   9  11
ENDBRANCH   6   7
ENDBRANCH   5   6
BRANCH   5  18
ATOM     18  N   UNL     1       3.734  -4.582   2.832  1.00  0.00    -0.332 N 
ATOM     19  H   UNL     1       3.321  -4.396   3.746  1.00  0.00     0.347 HD
ATOM     20  H   UNL     1       3.107  -4.998   2.144  1.00  0.00     0.347 HD
BRANCH  18  21
ATOM     21  C   UNL     1       4.118  -3.279   2.247  1.00  0.00     0.293 C 
BRANCH  21  22
ATOM     22  C   UNL     1       4.031  -3.195   0.707  1.00  0.00     0.173 C 
ATOM     23  C   UNL     1       5.035  -4.029  -0.079  1.00  0.00     0.040 C 
ATOM     24  O   UNL     1       2.712  -3.638   0.294  1.00  0.00    -0.372 OA
ATOM     25  C   UNL     1       4.197  -5.115  -0.714  1.00  0.00     0.031 C 
ATOM     26  C   UNL     1       2.877  -4.410  -0.903  1.00  0.00     0.161 C 
ENDBRANCH  21  22
ENDBRANCH  18  21
ENDBRANCH   5  18
ENDBRANCH   3   5
ENDBRANCH   2   3
ENDBRANCH   1   2
BRANCH   1  27
ATOM     27  C   UNL     1       8.789  -5.937   5.284  1.00  0.00     0.275 C 
BRANCH  27  28
ATOM     28  O   UNL     1       9.247  -5.906   3.918  1.00  0.00    -0.458 OA
BRANCH  28  29
ATOM     29  C   UNL     1       8.751  -6.885   3.127  1.00  0.00     0.338 C 
ATOM     30  O   UNL     1       7.981  -7.774   3.467  1.00  0.00    -0.246 OA
BRANCH  29  31
ATOM     31  C   UNL     1       9.111  -6.647   1.720  1.00  0.00     0.060 A 
ATOM     32  C   UNL     1       8.066  -6.363   0.840  1.00  0.00     0.016 A 
ATOM     33  C   UNL     1      10.413  -6.791   1.238  1.00  0.00     0.016 A 
ATOM     34  C   UNL     1       8.305  -6.209  -0.521  1.00  0.00     0.010 A 
ATOM     35  C   UNL     1      10.653  -6.648  -0.138  1.00  0.00     0.010 A 
ATOM     36  C   UNL     1       9.599  -6.364  -1.026  1.00  0.00    -0.014 A 
BRANCH  36  37
ATOM     37  C   UNL     1       9.805  -6.317  -2.495  1.00  0.00     0.031 A 
ATOM     38  C   UNL     1      10.020  -7.595  -3.255  1.00  0.00     0.074 A 
ATOM     39  C   UNL     1       9.725  -5.148  -3.159  1.00  0.00     0.049 A 
ATOM     40  N   UNL     1      10.301  -7.768  -4.520  1.00  0.00    -0.248 NA
ATOM     41  C   UNL     1       9.894  -8.845  -2.488  1.00  0.00     0.031 C 
ATOM     42  C   UNL     1       9.437  -3.848  -2.552  1.00  0.00     0.029 A 
ATOM     43  N   UNL     1       9.872  -4.868  -4.495  1.00  0.00    -0.354 N 
ATOM     44  C   UNL     1      10.418  -9.141  -4.698  1.00  0.00     0.074 A 
ATOM     45  C   UNL     1      10.175  -9.755  -3.409  1.00  0.00     0.031 C 
ATOM     46  C   UNL     1       9.426  -2.909  -3.513  1.00  0.00     0.029 A 
ATOM     47  C   UNL     1       9.756  -3.531  -4.794  1.00  0.00     0.049 A 
ATOM     48  H   UNL     1      10.045  -5.559  -5.174  1.00  0.00     0.167 HD
ATOM     49  C   UNL     1      10.704  -9.825  -5.831  1.00  0.00     0.037 A 
ATOM     50  C   UNL     1       9.929  -2.878  -5.960  1.00  0.00     0.037 A 
ATOM     51  C   UNL     1      10.920  -9.215  -7.116  1.00  0.00     0.049 A 
ATOM     52  C   UNL     1      10.307  -3.654  -7.194  1.00  0.00     0.074 A 
ATOM     53  C   UNL     1      11.231  -9.826  -8.319  1.00  0.00     0.029 A 
ATOM     54  N   UNL     1      10.838  -7.854  -7.370  1.00  0.00    -0.354 N 
ATOM     55  N   UNL     1      10.470  -4.947  -7.337  1.00  0.00    -0.248 NA
ATOM     56  C   UNL     1      10.541  -2.879  -8.422  1.00  0.00     0.031 C 
ATOM     57  C   UNL     1      11.366  -8.831  -9.294  1.00  0.00     0.029 A 
ATOM     58  C   UNL     1      11.104  -7.604  -8.706  1.00  0.00     0.049 A 
ATOM     59  H   UNL     1      10.623  -7.167  -6.699  1.00  0.00     0.167 HD
ATOM     60  C   UNL     1      10.814  -5.143  -8.670  1.00  0.00     0.074 A 
ATOM     61  C   UNL     1      10.820  -3.837  -9.296  1.00  0.00     0.031 C 
ATOM     62  C   UNL     1      11.102  -6.299  -9.316  1.00  0.00     0.037 A 
BRANCH  49  63
ATOM     63  C   UNL     1      10.846 -11.315  -5.716  1.00  0.00     0.058 A 
ATOM     64  C   UNL     1       9.733 -12.159  -5.593  1.00  0.00     0.135 A 
ATOM     65  C   UNL     1      12.120 -11.906  -5.746  1.00  0.00     0.135 A 
ATOM     66  F   UNL     1       8.495 -11.641  -5.540  1.00  0.00    -0.206 F 
ATOM     67  C   UNL     1       9.878 -13.538  -5.478  1.00  0.00     0.059 A 
ATOM     68  C   UNL     1      12.287 -13.283  -5.654  1.00  0.00     0.059 A 
ATOM     69  F   UNL     1      13.217 -11.141  -5.860  1.00  0.00    -0.206 F 
ATOM     70  C   UNL     1      11.160 -14.090  -5.504  1.00  0.00     0.060 A 
BRANCH  70  71
ATOM     71  S   UNL     1      11.341 -15.880  -5.346  1.00  0.00     0.124 S 
ATOM     72  O   UNL     1      11.133 -16.067  -3.914  1.00  0.00    -0.237 OA
ATOM     73  O   UNL     1      10.278 -16.382  -6.212  1.00  0.00    -0.237 OA
ATOM     74  O   UNL     1      12.699 -16.126  -5.822  1.00  0.00    -0.744 OA
ENDBRANCH  70  71
ENDBRANCH  49  63
BRANCH  50  75
ATOM     75  C   UNL     1       9.790  -1.399  -6.010  1.00  0.00     0.058 A 
ATOM     76  C   UNL     1       8.711  -0.794  -6.668  1.00  0.00     0.135 A 
ATOM     77  C   UNL     1      10.739  -0.564  -5.401  1.00  0.00     0.135 A 
ATOM     78  F   UNL     1       7.786  -1.552  -7.277  1.00  0.00    -0.206 F 
ATOM     79  C   UNL     1       8.579   0.590  -6.727  1.00  0.00     0.059 A 
ATOM     80  C   UNL     1      10.617   0.821  -5.426  1.00  0.00     0.059 A 
ATOM     81  F   UNL     1      11.787  -1.096  -4.753  1.00  0.00    -0.206 F 
ATOM     82  C   UNL     1       9.537   1.389  -6.101  1.00  0.00     0.060 A 
BRANCH  82  83
ATOM     83  S   UNL     1       9.332   3.183  -6.130  1.00  0.00     0.124 S 
ATOM     84  O   UNL     1       9.786   3.508  -7.477  1.00  0.00    -0.237 OA
ATOM     85  O   UNL     1       7.901   3.336  -5.884  1.00  0.00    -0.237 OA
ATOM     86  O   UNL     1      10.196   3.635  -5.043  1.00  0.00    -0.744 OA
ENDBRANCH  82  83
ENDBRANCH  50  75
BRANCH  62  87
ATOM     87  C   UNL     1      11.425  -6.211 -10.781  1.00  0.00     0.058 A 
ATOM     88  C   UNL     1      12.673  -5.754 -11.230  1.00  0.00     0.135 A 
ATOM     89  C   UNL     1      10.495  -6.637 -11.742  1.00  0.00     0.135 A 
ATOM     90  F   UNL     1      13.594  -5.329 -10.350  1.00  0.00    -0.206 F 
ATOM     91  C   UNL     1      12.984  -5.707 -12.585  1.00  0.00     0.059 A 
ATOM     92  C   UNL     1      10.792  -6.617 -13.102  1.00  0.00     0.059 A 
ATOM     93  F   UNL     1       9.290  -7.090 -11.363  1.00  0.00    -0.206 F 
ATOM     94  C   UNL     1      12.036  -6.140 -13.514  1.00  0.00     0.060 A 
BRANCH  94  95
ATOM     95  S   UNL     1      12.460  -6.110 -15.270  1.00  0.00     0.124 S 
ATOM     96  O   UNL     1      12.299  -4.694 -15.586  1.00  0.00    -0.237 OA
ATOM     97  O   UNL     1      13.833  -6.607 -15.272  1.00  0.00    -0.237 OA
ATOM     98  O   UNL     1      11.476  -7.005 -15.871  1.00  0.00    -0.744 OA
ENDBRANCH  94  95
ENDBRANCH  62  87
ENDBRANCH  36  37
ENDBRANCH  29  31
ENDBRANCH  28  29
ENDBRANCH  27  28
ENDBRANCH   1  27
TORSDOF 20
