REMARK SMILES CCCC[N@H+](CC)[C@H]1CCC[C@]([NH3+])(C(=O)OCCOC(=O)c2ccc(-c3c4nc(c(-c5c(F)cc(S(=O)(=O)[O-])cc5F)c5ccc([nH]5)c(-c5c(F)cc(S(=O)(=O)[O-])cc5F)c5nc(c(-c6c(F)cc(S(=O)(=O)[O-])cc6F)c6ccc3[nH]6)C=C5)C=C4)cc2)C1
REMARK SMILES IDX 17 1 16 2 14 3 15 4 12 5 8 6 9 7 88 8 10 9 11 10 5 11 4 13
REMARK SMILES IDX 3 14 2 15 1 16 6 17 7 18 13 19 18 23 19 24 20 25 21 26 22 27
REMARK SMILES IDX 23 28 87 29 24 30 86 31 25 32 26 33 27 34 80 35 28 36 85 37
REMARK SMILES IDX 79 38 81 39 29 40 84 41 78 42 77 43 30 45 64 46 43 47 63 48
REMARK SMILES IDX 44 49 47 50 62 51 82 52 45 53 46 54 61 56 83 57 48 58 31 59
REMARK SMILES IDX 32 60 41 61 33 62 34 63 40 64 42 65 35 66 36 67 37 68 38 69
REMARK SMILES IDX 39 70 65 71 66 72 75 73 67 74 68 75 74 76 76 77 69 78 70 79
REMARK SMILES IDX 71 80 72 81 73 82 49 83 50 84 59 85 51 86 52 87 58 88 60 89
REMARK SMILES IDX 53 90 54 91 55 92 56 93 57 94
REMARK H PARENT 5 12 13 20 13 21 13 22 81 44 47 55
REMARK Flexibility Score: inf
ROOT
ATOM      1  C   UNL     1      -2.934  -3.621  -6.780  1.00  0.00     0.274 C 
ENDROOT
BRANCH   1   2
ATOM      2  O   UNL     1      -3.027  -3.453  -5.348  1.00  0.00    -0.457 OA
BRANCH   2   3
ATOM      3  C   UNL     1      -3.608  -4.481  -4.676  1.00  0.00     0.368 C 
ATOM      4  O   UNL     1      -4.032  -5.502  -5.213  1.00  0.00    -0.245 OA
BRANCH   3   5
ATOM      5  C   UNL     1      -3.812  -4.201  -3.155  1.00  0.00     0.198 C 
ATOM      6  C   UNL     1      -1.646  -2.945  -2.436  1.00  0.00     0.190 C 
ATOM      7  C   UNL     1      -1.154  -4.233  -1.748  1.00  0.00     0.065 C 
ATOM      8  C   UNL     1      -3.188  -2.906  -2.596  1.00  0.00     0.145 C 
ATOM      9  C   UNL     1      -1.778  -5.471  -2.361  1.00  0.00     0.013 C 
ATOM     10  C   UNL     1      -3.300  -5.412  -2.355  1.00  0.00     0.081 C 
BRANCH   6  11
ATOM     11  N   UNL     1      -1.105  -1.689  -1.856  1.00  0.00    -0.333 N 
ATOM     12  H   UNL     1      -1.464  -0.965  -2.479  1.00  0.00     0.348 HD
BRANCH  11  13
ATOM     13  C   UNL     1       0.367  -1.621  -1.926  1.00  0.00     0.262 C 
BRANCH  13  14
ATOM     14  C   UNL     1       0.930  -0.248  -2.337  1.00  0.00     0.061 C 
BRANCH  14  15
ATOM     15  C   UNL     1       0.824   0.909  -1.343  1.00  0.00     0.002 C 
ATOM     16  C   UNL     1       1.457   0.618   0.010  1.00  0.00     0.004 C 
ENDBRANCH  14  15
ENDBRANCH  13  14
ENDBRANCH  11  13
BRANCH  11  17
ATOM     17  C   UNL     1      -1.663  -1.265  -0.561  1.00  0.00     0.258 C 
ATOM     18  C   UNL     1      -1.443  -2.141   0.670  1.00  0.00     0.071 C 
ENDBRANCH  11  17
ENDBRANCH   6  11
BRANCH   5  19
ATOM     19  N   UNL     1      -5.289  -4.113  -2.947  1.00  0.00    -0.343 N 
ATOM     20  H   UNL     1      -5.484  -3.930  -1.963  1.00  0.00     0.345 HD
ATOM     21  H   UNL     1      -5.724  -4.994  -3.222  1.00  0.00     0.345 HD
ATOM     22  H   UNL     1      -5.668  -3.356  -3.516  1.00  0.00     0.345 HD
ENDBRANCH   5  19
ENDBRANCH   3   5
ENDBRANCH   2   3
ENDBRANCH   1   2
BRANCH   1  23
ATOM     23  C   UNL     1      -1.536  -4.082  -7.184  1.00  0.00     0.275 C 
BRANCH  23  24
ATOM     24  O   UNL     1      -1.267  -5.365  -6.596  1.00  0.00    -0.458 OA
BRANCH  24  25
ATOM     25  C   UNL     1       0.032  -5.612  -6.311  1.00  0.00     0.338 C 
ATOM     26  O   UNL     1       0.976  -4.883  -6.594  1.00  0.00    -0.246 OA
BRANCH  25  27
ATOM     27  C   UNL     1       0.179  -6.863  -5.523  1.00  0.00     0.060 A 
ATOM     28  C   UNL     1      -0.906  -7.466  -4.883  1.00  0.00     0.016 A 
ATOM     29  C   UNL     1       1.464  -7.368  -5.301  1.00  0.00     0.016 A 
ATOM     30  C   UNL     1      -0.686  -8.435  -3.898  1.00  0.00     0.010 A 
ATOM     31  C   UNL     1       1.663  -8.424  -4.402  1.00  0.00     0.010 A 
ATOM     32  C   UNL     1       0.601  -8.926  -3.631  1.00  0.00    -0.014 A 
BRANCH  32  33
ATOM     33  C   UNL     1       0.866  -9.890  -2.515  1.00  0.00     0.031 A 
ATOM     34  C   UNL     1       1.948  -9.597  -1.496  1.00  0.00     0.074 A 
ATOM     35  C   UNL     1       0.158 -11.031  -2.380  1.00  0.00     0.049 A 
ATOM     36  N   UNL     1       2.525 -10.403  -0.640  1.00  0.00    -0.248 NA
ATOM     37  C   UNL     1       2.466  -8.220  -1.454  1.00  0.00     0.031 C 
ATOM     38  C   UNL     1      -0.957 -11.451  -3.228  1.00  0.00     0.029 A 
ATOM     39  N   UNL     1       0.270 -12.046  -1.459  1.00  0.00    -0.354 N 
ATOM     40  C   UNL     1       3.541  -9.665  -0.041  1.00  0.00     0.074 A 
ATOM     41  C   UNL     1       3.482  -8.335  -0.609  1.00  0.00     0.031 C 
ATOM     42  C   UNL     1      -1.470 -12.595  -2.750  1.00  0.00     0.029 A 
ATOM     43  C   UNL     1      -0.652 -13.052  -1.631  1.00  0.00     0.049 A 
ATOM     44  H   UNL     1       0.946 -12.053  -0.744  1.00  0.00     0.167 HD
ATOM     45  C   UNL     1       4.450 -10.063   0.884  1.00  0.00     0.037 A 
ATOM     46  C   UNL     1      -0.802 -14.232  -1.000  1.00  0.00     0.037 A 
ATOM     47  C   UNL     1       4.438 -11.349   1.535  1.00  0.00     0.049 A 
ATOM     48  C   UNL     1       0.180 -14.641   0.057  1.00  0.00     0.074 A 
ATOM     49  C   UNL     1       5.305 -11.838   2.498  1.00  0.00     0.029 A 
ATOM     50  N   UNL     1       3.486 -12.334   1.321  1.00  0.00    -0.354 N 
ATOM     51  N   UNL     1       1.220 -13.986   0.512  1.00  0.00    -0.248 NA
ATOM     52  C   UNL     1      -0.011 -15.967   0.661  1.00  0.00     0.031 C 
ATOM     53  C   UNL     1       4.882 -13.124   2.859  1.00  0.00     0.029 A 
ATOM     54  C   UNL     1       3.737 -13.423   2.141  1.00  0.00     0.049 A 
ATOM     55  H   UNL     1       2.741 -12.270   0.681  1.00  0.00     0.167 HD
ATOM     56  C   UNL     1       1.807 -14.818   1.458  1.00  0.00     0.074 A 
ATOM     57  C   UNL     1       0.996 -16.017   1.523  1.00  0.00     0.031 C 
ATOM     58  C   UNL     1       2.924 -14.610   2.198  1.00  0.00     0.037 A 
BRANCH  45  59
ATOM     59  C   UNL     1       5.570  -9.115   1.213  1.00  0.00     0.058 A 
ATOM     60  C   UNL     1       5.387  -7.977   2.012  1.00  0.00     0.135 A 
ATOM     61  C   UNL     1       6.865  -9.373   0.729  1.00  0.00     0.135 A 
ATOM     62  F   UNL     1       4.169  -7.675   2.487  1.00  0.00    -0.206 F 
ATOM     63  C   UNL     1       6.440  -7.109   2.293  1.00  0.00     0.059 A 
ATOM     64  C   UNL     1       7.936  -8.532   1.016  1.00  0.00     0.059 A 
ATOM     65  F   UNL     1       7.098 -10.451  -0.036  1.00  0.00    -0.206 F 
ATOM     66  C   UNL     1       7.709  -7.391   1.784  1.00  0.00     0.060 A 
BRANCH  66  67
ATOM     67  S   UNL     1       9.068  -6.256   2.139  1.00  0.00     0.124 S 
ATOM     68  O   UNL     1       8.830  -5.205   1.155  1.00  0.00    -0.237 OA
ATOM     69  O   UNL     1       8.822  -5.889   3.530  1.00  0.00    -0.237 OA
ATOM     70  O   UNL     1      10.257  -7.072   1.912  1.00  0.00    -0.744 OA
ENDBRANCH  66  67
ENDBRANCH  45  59
BRANCH  46  71
ATOM     71  C   UNL     1      -1.927 -15.123  -1.383  1.00  0.00     0.058 A 
ATOM     72  C   UNL     1      -3.040 -15.268  -0.543  1.00  0.00     0.135 A 
ATOM     73  C   UNL     1      -1.943 -15.791  -2.617  1.00  0.00     0.135 A 
ATOM     74  F   UNL     1      -3.062 -14.661   0.653  1.00  0.00    -0.206 F 
ATOM     75  C   UNL     1      -4.140 -16.031  -0.920  1.00  0.00     0.059 A 
ATOM     76  C   UNL     1      -3.041 -16.539  -3.026  1.00  0.00     0.059 A 
ATOM     77  F   UNL     1      -0.903 -15.673  -3.458  1.00  0.00    -0.206 F 
ATOM     78  C   UNL     1      -4.136 -16.653  -2.170  1.00  0.00     0.060 A 
BRANCH  78  79
ATOM     79  S   UNL     1      -5.611 -17.545  -2.708  1.00  0.00     0.124 S 
ATOM     80  O   UNL     1      -5.445 -18.823  -2.026  1.00  0.00    -0.237 OA
ATOM     81  O   UNL     1      -6.689 -16.693  -2.214  1.00  0.00    -0.237 OA
ATOM     82  O   UNL     1      -5.467 -17.577  -4.160  1.00  0.00    -0.744 OA
ENDBRANCH  78  79
ENDBRANCH  46  71
BRANCH  58  83
ATOM     83  C   UNL     1       3.310 -15.692   3.164  1.00  0.00     0.058 A 
ATOM     84  C   UNL     1       3.929 -16.875   2.732  1.00  0.00     0.135 A 
ATOM     85  C   UNL     1       3.059 -15.543   4.537  1.00  0.00     0.135 A 
ATOM     86  F   UNL     1       4.184 -17.067   1.428  1.00  0.00    -0.206 F 
ATOM     87  C   UNL     1       4.258 -17.889   3.626  1.00  0.00     0.059 A 
ATOM     88  C   UNL     1       3.395 -16.537   5.450  1.00  0.00     0.059 A 
ATOM     89  F   UNL     1       2.475 -14.426   5.000  1.00  0.00    -0.206 F 
ATOM     90  C   UNL     1       3.978 -17.714   4.983  1.00  0.00     0.060 A 
BRANCH  90  91
ATOM     91  S   UNL     1       4.401 -19.035   6.139  1.00  0.00     0.124 S 
ATOM     92  O   UNL     1       3.286 -19.958   5.948  1.00  0.00    -0.237 OA
ATOM     93  O   UNL     1       5.694 -19.493   5.641  1.00  0.00    -0.237 OA
ATOM     94  O   UNL     1       4.440 -18.354   7.429  1.00  0.00    -0.744 OA
ENDBRANCH  90  91
ENDBRANCH  58  83
ENDBRANCH  32  33
ENDBRANCH  25  27
ENDBRANCH  24  25
ENDBRANCH  23  24
ENDBRANCH   1  23
TORSDOF 20
