REMARK SMILES CC(C)(C)c1ccc(CSc2ccnc(C(=O)OCCOC(=O)c3ccc(-c4c5nc(c(-c6c(F)cc(S(=O)(=O)[O-])cc6F)c6ccc([nH]6)c(-c6c(F)cc(S(=O)(=O)[O-])cc6F)c6nc(c(-c7c(F)cc(S(=O)(=O)[O-])cc7F)c7ccc4[nH]7)C=C6)C=C5)cc3)c2)cc1
REMARK SMILES IDX 19 1 18 2 16 3 17 4 15 5 11 6 12 7 90 8 13 9 14 10 10 11
REMARK SMILES IDX 9 12 8 13 5 14 6 15 92 16 7 17 91 18 2 19 1 20 3 21 4 22
REMARK SMILES IDX 20 23 21 24 22 25 23 26 24 27 25 28 89 29 26 30 88 31 27 32
REMARK SMILES IDX 28 33 29 34 82 35 30 36 87 37 81 38 83 39 31 40 86 41 80 42
REMARK SMILES IDX 79 43 32 45 66 46 45 47 65 48 46 49 49 50 64 51 84 52 47 53
REMARK SMILES IDX 48 54 63 56 85 57 50 58 33 59 34 60 43 61 35 62 36 63 42 64
REMARK SMILES IDX 44 65 37 66 38 67 39 68 40 69 41 70 67 71 68 72 77 73 69 74
REMARK SMILES IDX 70 75 76 76 78 77 71 78 72 79 73 80 74 81 75 82 51 83 52 84
REMARK SMILES IDX 61 85 53 86 54 87 60 88 62 89 55 90 56 91 57 92 58 93 59 94
REMARK H PARENT 83 44 49 55
REMARK Flexibility Score: inf
ROOT
ATOM      1  C   UNL     1       3.281   1.520   2.403  1.00  0.00     0.275 C 
ENDROOT
BRANCH   1   2
ATOM      2  O   UNL     1       3.378   2.651   1.516  1.00  0.00    -0.457 OA
BRANCH   2   3
ATOM      3  C   UNL     1       2.610   3.726   1.845  1.00  0.00     0.357 C 
ATOM      4  O   UNL     1       1.800   3.757   2.760  1.00  0.00    -0.244 OA
BRANCH   3   5
ATOM      5  C   UNL     1       2.937   4.906   0.982  1.00  0.00     0.149 A 
ATOM      6  C   UNL     1       3.682   5.915  -1.041  1.00  0.00     0.011 A 
ATOM      7  C   UNL     1       3.444   7.168  -0.484  1.00  0.00     0.035 A 
ATOM      8  C   UNL     1       3.486   4.763  -0.279  1.00  0.00     0.051 A 
ATOM      9  C   UNL     1       2.923   7.219   0.792  1.00  0.00     0.113 A 
ATOM     10  N   UNL     1       2.622   6.120   1.510  1.00  0.00    -0.249 NA
BRANCH   6  11
ATOM     11  S   UNL     1       4.130   5.794  -2.764  1.00  0.00    -0.121 SA
BRANCH  11  12
ATOM     12  C   UNL     1       2.465   5.447  -3.458  1.00  0.00     0.110 C 
BRANCH  12  13
ATOM     13  C   UNL     1       1.915   4.104  -3.038  1.00  0.00    -0.038 A 
ATOM     14  C   UNL     1       0.971   1.574  -2.124  1.00  0.00    -0.043 A 
ATOM     15  C   UNL     1       2.117   1.683  -2.928  1.00  0.00     0.004 A 
ATOM     16  C   UNL     1       0.314   2.770  -1.783  1.00  0.00     0.004 A 
ATOM     17  C   UNL     1       2.574   2.922  -3.389  1.00  0.00     0.005 A 
ATOM     18  C   UNL     1       0.771   4.014  -2.239  1.00  0.00     0.005 A 
BRANCH  14  19
ATOM     19  C   UNL     1       0.483   0.216  -1.587  1.00  0.00    -0.013 C 
ATOM     20  C   UNL     1       1.034   0.030  -0.162  1.00  0.00     0.016 C 
ATOM     21  C   UNL     1       0.965  -0.977  -2.446  1.00  0.00     0.016 C 
ATOM     22  C   UNL     1      -1.059   0.131  -1.540  1.00  0.00     0.016 C 
ENDBRANCH  14  19
ENDBRANCH  12  13
ENDBRANCH  11  12
ENDBRANCH   6  11
ENDBRANCH   3   5
ENDBRANCH   2   3
ENDBRANCH   1   2
BRANCH   1  23
ATOM     23  C   UNL     1       4.470   1.445   3.366  1.00  0.00     0.275 C 
BRANCH  23  24
ATOM     24  O   UNL     1       4.458   2.512   4.330  1.00  0.00    -0.458 OA
BRANCH  24  25
ATOM     25  C   UNL     1       5.134   3.623   3.953  1.00  0.00     0.338 C 
ATOM     26  O   UNL     1       5.758   3.786   2.917  1.00  0.00    -0.246 OA
BRANCH  25  27
ATOM     27  C   UNL     1       4.913   4.700   4.931  1.00  0.00     0.060 A 
ATOM     28  C   UNL     1       4.276   5.854   4.480  1.00  0.00     0.016 A 
ATOM     29  C   UNL     1       5.399   4.628   6.237  1.00  0.00     0.016 A 
ATOM     30  C   UNL     1       4.132   6.955   5.314  1.00  0.00     0.010 A 
ATOM     31  C   UNL     1       5.248   5.735   7.083  1.00  0.00     0.010 A 
ATOM     32  C   UNL     1       4.627   6.910   6.621  1.00  0.00    -0.014 A 
BRANCH  32  33
ATOM     33  C   UNL     1       4.547   8.128   7.463  1.00  0.00     0.031 A 
ATOM     34  C   UNL     1       5.794   8.912   7.760  1.00  0.00     0.074 A 
ATOM     35  C   UNL     1       3.352   8.557   7.911  1.00  0.00     0.049 A 
ATOM     36  N   UNL     1       5.949   9.959   8.527  1.00  0.00    -0.248 NA
ATOM     37  C   UNL     1       7.031   8.456   7.106  1.00  0.00     0.031 C 
ATOM     38  C   UNL     1       2.067   7.912   7.636  1.00  0.00     0.029 A 
ATOM     39  N   UNL     1       3.022   9.641   8.684  1.00  0.00    -0.354 N 
ATOM     40  C   UNL     1       7.303  10.271   8.474  1.00  0.00     0.074 A 
ATOM     41  C   UNL     1       7.927   9.295   7.606  1.00  0.00     0.031 C 
ATOM     42  C   UNL     1       1.087   8.617   8.225  1.00  0.00     0.029 A 
ATOM     43  C   UNL     1       1.679   9.733   8.958  1.00  0.00     0.049 A 
ATOM     44  H   UNL     1       3.685  10.291   9.012  1.00  0.00     0.167 HD
ATOM     45  C   UNL     1       7.961  11.280   9.092  1.00  0.00     0.037 A 
ATOM     46  C   UNL     1       1.004  10.602   9.735  1.00  0.00     0.037 A 
ATOM     47  C   UNL     1       7.325  12.262   9.931  1.00  0.00     0.049 A 
ATOM     48  C   UNL     1       1.763  11.691  10.444  1.00  0.00     0.074 A 
ATOM     49  C   UNL     1       7.902  13.326  10.602  1.00  0.00     0.029 A 
ATOM     50  N   UNL     1       5.966  12.305  10.209  1.00  0.00    -0.354 N 
ATOM     51  N   UNL     1       3.047  11.956  10.409  1.00  0.00    -0.248 NA
ATOM     52  C   UNL     1       0.985  12.593  11.303  1.00  0.00     0.031 C 
ATOM     53  C   UNL     1       6.897  13.994  11.311  1.00  0.00     0.029 A 
ATOM     54  C   UNL     1       5.687  13.369  11.051  1.00  0.00     0.049 A 
ATOM     55  H   UNL     1       5.298  11.672   9.859  1.00  0.00     0.167 HD
ATOM     56  C   UNL     1       3.229  13.063  11.229  1.00  0.00     0.074 A 
ATOM     57  C   UNL     1       1.921  13.427  11.735  1.00  0.00     0.031 C 
ATOM     58  C   UNL     1       4.376  13.718  11.539  1.00  0.00     0.037 A 
BRANCH  45  59
ATOM     59  C   UNL     1       9.451  11.351   8.911  1.00  0.00     0.058 A 
ATOM     60  C   UNL     1      10.033  11.781   7.709  1.00  0.00     0.135 A 
ATOM     61  C   UNL     1      10.309  11.001   9.966  1.00  0.00     0.135 A 
ATOM     62  F   UNL     1       9.259  12.109   6.662  1.00  0.00    -0.206 F 
ATOM     63  C   UNL     1      11.414  11.838   7.550  1.00  0.00     0.059 A 
ATOM     64  C   UNL     1      11.693  11.072   9.838  1.00  0.00     0.059 A 
ATOM     65  F   UNL     1       9.804  10.581  11.137  1.00  0.00    -0.206 F 
ATOM     66  C   UNL     1      12.236  11.477   8.619  1.00  0.00     0.060 A 
BRANCH  66  67
ATOM     67  S   UNL     1      14.027  11.551   8.400  1.00  0.00     0.124 S 
ATOM     68  O   UNL     1      14.269  10.365   7.585  1.00  0.00    -0.237 OA
ATOM     69  O   UNL     1      14.210  12.831   7.725  1.00  0.00    -0.237 OA
ATOM     70  O   UNL     1      14.539  11.489   9.766  1.00  0.00    -0.744 OA
ENDBRANCH  66  67
ENDBRANCH  45  59
BRANCH  46  71
ATOM     71  C   UNL     1      -0.466  10.460   9.902  1.00  0.00     0.058 A 
ATOM     72  C   UNL     1      -1.354  11.387   9.338  1.00  0.00     0.135 A 
ATOM     73  C   UNL     1      -1.012   9.380  10.615  1.00  0.00     0.135 A 
ATOM     74  F   UNL     1      -0.880  12.441   8.657  1.00  0.00    -0.206 F 
ATOM     75  C   UNL     1      -2.732  11.255   9.482  1.00  0.00     0.059 A 
ATOM     76  C   UNL     1      -2.386   9.214  10.752  1.00  0.00     0.059 A 
ATOM     77  F   UNL     1      -0.205   8.460  11.165  1.00  0.00    -0.206 F 
ATOM     78  C   UNL     1      -3.239  10.163  10.189  1.00  0.00     0.060 A 
BRANCH  78  79
ATOM     79  S   UNL     1      -5.029   9.969  10.326  1.00  0.00     0.124 S 
ATOM     80  O   UNL     1      -5.354  10.961  11.344  1.00  0.00    -0.237 OA
ATOM     81  O   UNL     1      -5.479  10.273   8.972  1.00  0.00    -0.237 OA
ATOM     82  O   UNL     1      -5.184   8.575  10.731  1.00  0.00    -0.744 OA
ENDBRANCH  78  79
ENDBRANCH  46  71
BRANCH  58  83
ATOM     83  C   UNL     1       4.263  14.911  12.443  1.00  0.00     0.058 A 
ATOM     84  C   UNL     1       4.057  14.770  13.824  1.00  0.00     0.135 A 
ATOM     85  C   UNL     1       4.412  16.209  11.929  1.00  0.00     0.135 A 
ATOM     86  F   UNL     1       3.901  13.550  14.362  1.00  0.00    -0.206 F 
ATOM     87  C   UNL     1       3.982  15.877  14.663  1.00  0.00     0.059 A 
ATOM     88  C   UNL     1       4.363  17.329  12.753  1.00  0.00     0.059 A 
ATOM     89  F   UNL     1       4.620  16.397  10.617  1.00  0.00    -0.206 F 
ATOM     90  C   UNL     1       4.136  17.153  14.118  1.00  0.00     0.060 A 
BRANCH  90  91
ATOM     91  S   UNL     1       4.072  18.581  15.220  1.00  0.00     0.124 S 
ATOM     92  O   UNL     1       2.638  18.704  15.459  1.00  0.00    -0.237 OA
ATOM     93  O   UNL     1       4.870  18.137  16.359  1.00  0.00    -0.237 OA
ATOM     94  O   UNL     1       4.671  19.650  14.425  1.00  0.00    -0.744 OA
ENDBRANCH  90  91
ENDBRANCH  58  83
ENDBRANCH  32  33
ENDBRANCH  25  27
ENDBRANCH  24  25
ENDBRANCH  23  24
ENDBRANCH   1  23
TORSDOF 18
