REMARK SMILES O=C(OCCOC(=O)c1ccc(-c2c3nc(c(-c4c(F)cc(S(=O)(=O)[O-])cc4F)c4ccc([nH]4)c(-c4c(F)cc(S(=O)(=O)[O-])cc4F)c4nc(c(-c5c(F)cc(S(=O)(=O)[O-])cc5F)c5ccc2[nH]5)C=C4)C=C3)cc1)C1=Cc2cc(OC(F)(F)F)ccc2O[C@@H]1C(F)(F)F
REMARK SMILES IDX 5 1 4 2 3 3 2 4 1 5 75 6 76 7 89 8 77 9 88 10 78 11 87 12
REMARK SMILES IDX 79 13 86 14 85 15 90 16 91 17 92 18 93 19 80 20 81 21 82 22
REMARK SMILES IDX 83 23 84 24 6 25 7 26 8 27 9 28 10 29 74 30 11 31 73 32
REMARK SMILES IDX 12 33 13 34 14 35 67 36 15 37 72 38 66 39 68 40 16 41 71 42
REMARK SMILES IDX 65 43 64 44 17 46 51 47 30 48 50 49 31 50 34 51 49 52 69 53
REMARK SMILES IDX 32 54 33 55 48 57 70 58 35 59 18 60 19 61 28 62 20 63 21 64
REMARK SMILES IDX 27 65 29 66 22 67 23 68 24 69 25 70 26 71 52 72 53 73 62 74
REMARK SMILES IDX 54 75 55 76 61 77 63 78 56 79 57 80 58 81 59 82 60 83 36 84
REMARK SMILES IDX 37 85 46 86 38 87 39 88 45 89 47 90 40 91 41 92 42 93 43 94
REMARK SMILES IDX 44 95
REMARK H PARENT 68 45 34 56
REMARK Flexibility Score: inf
ROOT
ATOM      1  C   UNL     1       3.068   0.725  -2.306  1.00  0.00     0.275 C 
ENDROOT
BRANCH   1   2
ATOM      2  C   UNL     1       2.768  -0.505  -1.423  1.00  0.00     0.275 C 
BRANCH   2   3
ATOM      3  O   UNL     1       2.193  -0.111  -0.166  1.00  0.00    -0.459 OA
BRANCH   3   4
ATOM      4  C   UNL     1       2.546  -0.896   0.878  1.00  0.00     0.338 C 
ATOM      5  O   UNL     1       2.175  -2.052   1.014  1.00  0.00    -0.246 OA
BRANCH   4   6
ATOM      6  C   UNL     1       3.496  -0.196   1.803  1.00  0.00     0.087 C 
ATOM      7  C   UNL     1       4.494  -1.018   2.193  1.00  0.00     0.027 C 
ATOM      8  C   UNL     1       3.898   1.204   1.381  1.00  0.00     0.316 C 
ATOM      9  C   UNL     1       5.670  -0.935   1.295  1.00  0.00     0.021 A 
ATOM     10  O   UNL     1       4.928   1.183   0.354  1.00  0.00    -0.475 OA
ATOM     11  C   UNL     1       6.637  -1.942   1.301  1.00  0.00     0.058 A 
ATOM     12  C   UNL     1       5.773   0.107   0.368  1.00  0.00     0.128 A 
ATOM     13  C   UNL     1       7.637  -1.977   0.319  1.00  0.00     0.130 A 
ATOM     14  C   UNL     1       6.730   0.053  -0.641  1.00  0.00     0.051 A 
ATOM     15  C   UNL     1       7.643  -1.005  -0.684  1.00  0.00     0.050 A 
BRANCH   8  16
ATOM     16  C   UNL     1       4.254   2.142   2.539  1.00  0.00     0.430 C 
ATOM     17  F   UNL     1       3.138   2.494   3.220  1.00  0.00    -0.167 F 
ATOM     18  F   UNL     1       5.110   1.585   3.423  1.00  0.00    -0.167 F 
ATOM     19  F   UNL     1       4.823   3.286   2.089  1.00  0.00    -0.167 F 
ENDBRANCH   8  16
BRANCH  13  20
ATOM     20  O   UNL     1       8.536  -2.991   0.474  1.00  0.00    -0.406 OA
BRANCH  20  21
ATOM     21  C   UNL     1       9.440  -3.262  -0.582  1.00  0.00     0.573 C 
ATOM     22  F   UNL     1       8.781  -3.738  -1.659  1.00  0.00    -0.132 F 
ATOM     23  F   UNL     1      10.155  -2.173  -0.935  1.00  0.00    -0.132 F 
ATOM     24  F   UNL     1      10.313  -4.209  -0.169  1.00  0.00    -0.132 F 
ENDBRANCH  20  21
ENDBRANCH  13  20
ENDBRANCH   4   6
ENDBRANCH   3   4
ENDBRANCH   2   3
ENDBRANCH   1   2
BRANCH   1  25
ATOM     25  O   UNL     1       2.857   1.967  -1.613  1.00  0.00    -0.458 OA
BRANCH  25  26
ATOM     26  C   UNL     1       1.561   2.370  -1.587  1.00  0.00     0.338 C 
ATOM     27  O   UNL     1       0.663   1.934  -2.290  1.00  0.00    -0.246 OA
BRANCH  26  28
ATOM     28  C   UNL     1       1.336   3.252  -0.415  1.00  0.00     0.060 A 
ATOM     29  C   UNL     1       0.140   3.077   0.289  1.00  0.00     0.016 A 
ATOM     30  C   UNL     1       2.282   4.179   0.043  1.00  0.00     0.016 A 
ATOM     31  C   UNL     1      -0.135   3.854   1.414  1.00  0.00     0.010 A 
ATOM     32  C   UNL     1       2.014   4.941   1.192  1.00  0.00     0.010 A 
ATOM     33  C   UNL     1       0.785   4.813   1.863  1.00  0.00    -0.014 A 
BRANCH  33  34
ATOM     34  C   UNL     1       0.353   5.761   2.928  1.00  0.00     0.031 A 
ATOM     35  C   UNL     1      -0.059   7.157   2.537  1.00  0.00     0.074 A 
ATOM     36  C   UNL     1       0.207   5.361   4.207  1.00  0.00     0.049 A 
ATOM     37  N   UNL     1      -0.687   8.063   3.243  1.00  0.00    -0.248 NA
ATOM     38  C   UNL     1       0.271   7.587   1.169  1.00  0.00     0.031 C 
ATOM     39  C   UNL     1       0.587   4.052   4.736  1.00  0.00     0.029 A 
ATOM     40  N   UNL     1      -0.321   6.018   5.294  1.00  0.00    -0.354 N 
ATOM     41  C   UNL     1      -0.872   9.144   2.390  1.00  0.00     0.074 A 
ATOM     42  C   UNL     1      -0.211   8.820   1.146  1.00  0.00     0.031 C 
ATOM     43  C   UNL     1       0.278   3.999   6.044  1.00  0.00     0.029 A 
ATOM     44  C   UNL     1      -0.339   5.263   6.444  1.00  0.00     0.049 A 
ATOM     45  H   UNL     1      -0.654   6.943   5.253  1.00  0.00     0.167 HD
ATOM     46  C   UNL     1      -1.567  10.287   2.601  1.00  0.00     0.037 A 
ATOM     47  C   UNL     1      -0.820   5.547   7.672  1.00  0.00     0.037 A 
ATOM     48  C   UNL     1      -2.200  10.635   3.844  1.00  0.00     0.049 A 
ATOM     49  C   UNL     1      -1.542   6.852   7.903  1.00  0.00     0.074 A 
ATOM     50  C   UNL     1      -2.923  11.773   4.155  1.00  0.00     0.029 A 
ATOM     51  N   UNL     1      -2.175   9.853   4.989  1.00  0.00    -0.354 N 
ATOM     52  N   UNL     1      -1.792   7.822   7.055  1.00  0.00    -0.248 NA
ATOM     53  C   UNL     1      -2.078   7.086   9.253  1.00  0.00     0.031 C 
ATOM     54  C   UNL     1      -3.301  11.697   5.500  1.00  0.00     0.029 A 
ATOM     55  C   UNL     1      -2.854  10.491   6.013  1.00  0.00     0.049 A 
ATOM     56  H   UNL     1      -1.738   8.973   5.062  1.00  0.00     0.167 HD
ATOM     57  C   UNL     1      -2.538   8.763   7.760  1.00  0.00     0.074 A 
ATOM     58  C   UNL     1      -2.717   8.237   9.097  1.00  0.00     0.031 C 
ATOM     59  C   UNL     1      -3.032   9.955   7.340  1.00  0.00     0.037 A 
BRANCH  46  60
ATOM     60  C   UNL     1      -1.689  11.233   1.440  1.00  0.00     0.058 A 
ATOM     61  C   UNL     1      -2.494  10.918   0.332  1.00  0.00     0.135 A 
ATOM     62  C   UNL     1      -1.006  12.458   1.427  1.00  0.00     0.135 A 
ATOM     63  F   UNL     1      -3.152   9.748   0.285  1.00  0.00    -0.206 F 
ATOM     64  C   UNL     1      -2.592  11.770  -0.762  1.00  0.00     0.059 A 
ATOM     65  C   UNL     1      -1.110  13.338   0.354  1.00  0.00     0.059 A 
ATOM     66  F   UNL     1      -0.221  12.806   2.459  1.00  0.00    -0.206 F 
ATOM     67  C   UNL     1      -1.893  12.977  -0.743  1.00  0.00     0.060 A 
BRANCH  67  68
ATOM     68  S   UNL     1      -2.021  14.066  -2.177  1.00  0.00     0.124 S 
ATOM     69  O   UNL     1      -1.227  13.340  -3.164  1.00  0.00    -0.237 OA
ATOM     70  O   UNL     1      -3.460  14.095  -2.420  1.00  0.00    -0.237 OA
ATOM     71  O   UNL     1      -1.442  15.319  -1.705  1.00  0.00    -0.744 OA
ENDBRANCH  67  68
ENDBRANCH  46  60
BRANCH  47  72
ATOM     72  C   UNL     1      -0.661   4.573   8.789  1.00  0.00     0.058 A 
ATOM     73  C   UNL     1      -1.764   3.905   9.343  1.00  0.00     0.135 A 
ATOM     74  C   UNL     1       0.598   4.335   9.361  1.00  0.00     0.135 A 
ATOM     75  F   UNL     1      -2.992   4.105   8.839  1.00  0.00    -0.206 F 
ATOM     76  C   UNL     1      -1.632   3.068  10.448  1.00  0.00     0.059 A 
ATOM     77  C   UNL     1       0.760   3.482  10.449  1.00  0.00     0.059 A 
ATOM     78  F   UNL     1       1.688   4.938   8.862  1.00  0.00    -0.206 F 
ATOM     79  C   UNL     1      -0.365   2.868  10.998  1.00  0.00     0.060 A 
BRANCH  79  80
ATOM     80  S   UNL     1      -0.201   1.778  12.430  1.00  0.00     0.124 S 
ATOM     81  O   UNL     1      -0.764   2.603  13.492  1.00  0.00    -0.237 OA
ATOM     82  O   UNL     1      -0.995   0.622  12.029  1.00  0.00    -0.237 OA
ATOM     83  O   UNL     1       1.238   1.544  12.509  1.00  0.00    -0.744 OA
ENDBRANCH  79  80
ENDBRANCH  47  72
BRANCH  59  84
ATOM     84  C   UNL     1      -3.837  10.761   8.324  1.00  0.00     0.058 A 
ATOM     85  C   UNL     1      -3.241  11.391   9.428  1.00  0.00     0.135 A 
ATOM     86  C   UNL     1      -5.220  10.933   8.143  1.00  0.00     0.135 A 
ATOM     87  F   UNL     1      -1.923  11.260   9.650  1.00  0.00    -0.206 F 
ATOM     88  C   UNL     1      -3.991  12.131  10.337  1.00  0.00     0.059 A 
ATOM     89  C   UNL     1      -5.984  11.693   9.023  1.00  0.00     0.059 A 
ATOM     90  F   UNL     1      -5.841  10.366   7.096  1.00  0.00    -0.206 F 
ATOM     91  C   UNL     1      -5.364  12.274  10.128  1.00  0.00     0.060 A 
BRANCH  91  92
ATOM     92  S   UNL     1      -6.325  13.246  11.307  1.00  0.00     0.124 S 
ATOM     93  O   UNL     1      -6.422  12.326  12.436  1.00  0.00    -0.237 OA
ATOM     94  O   UNL     1      -5.478  14.416  11.514  1.00  0.00    -0.237 OA
ATOM     95  O   UNL     1      -7.574  13.502  10.597  1.00  0.00    -0.744 OA
ENDBRANCH  91  92
ENDBRANCH  59  84
ENDBRANCH  33  34
ENDBRANCH  26  28
ENDBRANCH  25  26
ENDBRANCH   1  25
TORSDOF 17
