REMARK SMILES CC[N@@H+](C)Cc1cc2c(cc1Cl)C=C(C(=O)OCCOC(=O)c1ccc(-c3c4nc(c(-c5c(F)cc(S(=O)(=O)[O-])cc5F)c5ccc([nH]5)c(-c5c(F)cc(S(=O)(=O)[O-])cc5F)c5nc(c(-c6c(F)cc(S(=O)(=O)[O-])cc6F)c6ccc3[nH]6)C=C5)C=C4)cc1)[C@@H](C(F)(F)F)O2
REMARK SMILES IDX 18 1 17 2 15 3 16 4 14 5 6 6 7 7 11 8 8 9 10 10 12 11 9 12
REMARK SMILES IDX 94 13 13 14 89 15 5 16 3 17 4 18 2 20 1 21 90 22 91 23 92 24
REMARK SMILES IDX 93 25 19 26 20 27 21 28 22 29 23 30 24 31 88 32 25 33 87 34
REMARK SMILES IDX 26 35 27 36 28 37 81 38 29 39 86 40 80 41 82 42 30 43 85 44
REMARK SMILES IDX 79 45 78 46 31 48 65 49 44 50 64 51 45 52 48 53 63 54 83 55
REMARK SMILES IDX 46 56 47 57 62 59 84 60 49 61 32 62 33 63 42 64 34 65 35 66
REMARK SMILES IDX 41 67 43 68 36 69 37 70 38 71 39 72 40 73 66 74 67 75 76 76
REMARK SMILES IDX 68 77 69 78 75 79 77 80 70 81 71 82 72 83 73 84 74 85 50 86
REMARK SMILES IDX 51 87 60 88 52 89 53 90 59 91 61 92 54 93 55 94 56 95 57 96
REMARK SMILES IDX 58 97
REMARK H PARENT 3 19 82 47 48 58
REMARK Flexibility Score: inf
ROOT
ATOM      1  C   UNL     1       4.105   8.248   6.765  1.00  0.00     0.275 C 
ENDROOT
BRANCH   1   2
ATOM      2  O   UNL     1       3.656   7.649   5.528  1.00  0.00    -0.459 OA
BRANCH   2   3
ATOM      3  C   UNL     1       4.506   6.746   4.990  1.00  0.00     0.338 C 
ATOM      4  O   UNL     1       5.595   6.420   5.441  1.00  0.00    -0.246 OA
BRANCH   3   5
ATOM      5  C   UNL     1       3.948   6.147   3.764  1.00  0.00     0.087 C 
ATOM      6  C   UNL     1       2.872   2.936   0.037  1.00  0.00     0.029 A 
ATOM      7  C   UNL     1       2.748   4.337   0.202  1.00  0.00     0.058 A 
ATOM      8  C   UNL     1       3.492   2.199   1.058  1.00  0.00     0.050 A 
ATOM      9  C   UNL     1       3.132   4.964   1.385  1.00  0.00     0.128 A 
ATOM     10  C   UNL     1       3.865   2.824   2.243  1.00  0.00     0.033 A 
ATOM     11  Cl  UNL     1       3.857   0.518   0.930  1.00  0.00    -0.084 Cl
ATOM     12  C   UNL     1       3.667   4.196   2.407  1.00  0.00     0.019 A 
ATOM     13  O   UNL     1       2.918   6.311   1.488  1.00  0.00    -0.475 OA
ATOM     14  C   UNL     1       4.049   4.822   3.646  1.00  0.00     0.027 C 
ATOM     15  C   UNL     1       3.456   7.021   2.648  1.00  0.00     0.316 C 
BRANCH   6  16
ATOM     16  C   UNL     1       2.275   2.280  -1.194  1.00  0.00     0.300 C 
BRANCH  16  17
ATOM     17  N   UNL     1       0.806   2.094  -1.185  1.00  0.00    -0.334 N 
ATOM     18  C   UNL     1       0.071   3.355  -1.218  1.00  0.00     0.333 C 
ATOM     19  H   UNL     1       0.623   1.595  -2.056  1.00  0.00     0.348 HD
BRANCH  17  20
ATOM     20  C   UNL     1       0.307   1.237  -0.098  1.00  0.00     0.258 C 
ATOM     21  C   UNL     1       0.583  -0.243  -0.330  1.00  0.00     0.071 C 
ENDBRANCH  17  20
ENDBRANCH  16  17
ENDBRANCH   6  16
BRANCH  15  22
ATOM     22  C   UNL     1       4.558   7.982   2.175  1.00  0.00     0.430 C 
ATOM     23  F   UNL     1       4.119   8.775   1.167  1.00  0.00    -0.167 F 
ATOM     24  F   UNL     1       4.957   8.812   3.169  1.00  0.00    -0.167 F 
ATOM     25  F   UNL     1       5.653   7.327   1.728  1.00  0.00    -0.167 F 
ENDBRANCH  15  22
ENDBRANCH   3   5
ENDBRANCH   2   3
ENDBRANCH   1   2
BRANCH   1  26
ATOM     26  C   UNL     1       3.422   7.630   7.987  1.00  0.00     0.275 C 
BRANCH  26  27
ATOM     27  O   UNL     1       3.876   6.284   8.222  1.00  0.00    -0.458 OA
BRANCH  27  28
ATOM     28  C   UNL     1       3.055   5.319   7.753  1.00  0.00     0.338 C 
ATOM     29  O   UNL     1       1.997   5.470   7.166  1.00  0.00    -0.246 OA
BRANCH  28  30
ATOM     30  C   UNL     1       3.672   3.998   7.937  1.00  0.00     0.060 A 
ATOM     31  C   UNL     1       3.280   3.138   8.953  1.00  0.00     0.016 A 
ATOM     32  C   UNL     1       4.531   3.550   6.943  1.00  0.00     0.016 A 
ATOM     33  C   UNL     1       3.767   1.824   8.952  1.00  0.00     0.010 A 
ATOM     34  C   UNL     1       4.857   2.204   6.841  1.00  0.00     0.010 A 
ATOM     35  C   UNL     1       4.523   1.322   7.870  1.00  0.00    -0.014 A 
BRANCH  35  36
ATOM     36  C   UNL     1       4.979  -0.100   7.824  1.00  0.00     0.031 A 
ATOM     37  C   UNL     1       6.439  -0.448   7.620  1.00  0.00     0.074 A 
ATOM     38  C   UNL     1       4.071  -1.092   7.949  1.00  0.00     0.049 A 
ATOM     39  N   UNL     1       7.012  -1.627   7.609  1.00  0.00    -0.248 NA
ATOM     40  C   UNL     1       7.376   0.657   7.351  1.00  0.00     0.031 C 
ATOM     41  C   UNL     1       2.619  -0.905   8.034  1.00  0.00     0.029 A 
ATOM     42  N   UNL     1       4.230  -2.453   8.057  1.00  0.00    -0.354 N 
ATOM     43  C   UNL     1       8.354  -1.399   7.320  1.00  0.00     0.074 A 
ATOM     44  C   UNL     1       8.498   0.014   7.068  1.00  0.00     0.031 C 
ATOM     45  C   UNL     1       2.034  -2.087   8.282  1.00  0.00     0.029 A 
ATOM     46  C   UNL     1       3.058  -3.125   8.324  1.00  0.00     0.049 A 
ATOM     47  H   UNL     1       5.098  -2.904   7.953  1.00  0.00     0.167 HD
ATOM     48  C   UNL     1       9.390  -2.272   7.322  1.00  0.00     0.037 A 
ATOM     49  C   UNL     1       2.833  -4.425   8.600  1.00  0.00     0.037 A 
ATOM     50  C   UNL     1       9.256  -3.669   7.636  1.00  0.00     0.049 A 
ATOM     51  C   UNL     1       4.001  -5.371   8.645  1.00  0.00     0.074 A 
ATOM     52  C   UNL     1      10.248  -4.627   7.738  1.00  0.00     0.029 A 
ATOM     53  N   UNL     1       8.053  -4.303   7.912  1.00  0.00    -0.354 N 
ATOM     54  N   UNL     1       5.274  -5.117   8.450  1.00  0.00    -0.248 NA
ATOM     55  C   UNL     1       3.707  -6.778   8.949  1.00  0.00     0.031 C 
ATOM     56  C   UNL     1       9.641  -5.850   8.040  1.00  0.00     0.029 A 
ATOM     57  C   UNL     1       8.277  -5.643   8.173  1.00  0.00     0.049 A 
ATOM     58  H   UNL     1       7.172  -3.864   7.921  1.00  0.00     0.167 HD
ATOM     59  C   UNL     1       5.934  -6.328   8.625  1.00  0.00     0.074 A 
ATOM     60  C   UNL     1       4.923  -7.310   8.960  1.00  0.00     0.031 C 
ATOM     61  C   UNL     1       7.256  -6.603   8.512  1.00  0.00     0.037 A 
BRANCH  48  62
ATOM     62  C   UNL     1      10.768  -1.735   7.027  1.00  0.00     0.058 A 
ATOM     63  C   UNL     1      11.427  -0.879   7.925  1.00  0.00     0.135 A 
ATOM     64  C   UNL     1      11.459  -2.116   5.865  1.00  0.00     0.135 A 
ATOM     65  F   UNL     1      10.811  -0.469   9.046  1.00  0.00    -0.206 F 
ATOM     66  C   UNL     1      12.707  -0.398   7.670  1.00  0.00     0.059 A 
ATOM     67  C   UNL     1      12.754  -1.672   5.605  1.00  0.00     0.059 A 
ATOM     68  F   UNL     1      10.880  -2.933   4.971  1.00  0.00    -0.206 F 
ATOM     69  C   UNL     1      13.365  -0.804   6.508  1.00  0.00     0.060 A 
BRANCH  69  70
ATOM     70  S   UNL     1      15.035  -0.187   6.210  1.00  0.00     0.124 S 
ATOM     71  O   UNL     1      14.779   1.222   5.925  1.00  0.00    -0.237 OA
ATOM     72  O   UNL     1      15.699  -0.465   7.480  1.00  0.00    -0.237 OA
ATOM     73  O   UNL     1      15.496  -0.982   5.077  1.00  0.00    -0.744 OA
ENDBRANCH  69  70
ENDBRANCH  48  62
BRANCH  49  74
ATOM     74  C   UNL     1       1.455  -4.885   8.923  1.00  0.00     0.058 A 
ATOM     75  C   UNL     1       1.111  -5.258  10.232  1.00  0.00     0.135 A 
ATOM     76  C   UNL     1       0.444  -4.919   7.950  1.00  0.00     0.135 A 
ATOM     77  F   UNL     1       2.041  -5.248  11.199  1.00  0.00    -0.206 F 
ATOM     78  C   UNL     1      -0.182  -5.653  10.563  1.00  0.00     0.059 A 
ATOM     79  C   UNL     1      -0.862  -5.285   8.262  1.00  0.00     0.059 A 
ATOM     80  F   UNL     1       0.716  -4.554   6.687  1.00  0.00    -0.206 F 
ATOM     81  C   UNL     1      -1.164  -5.655   9.572  1.00  0.00     0.060 A 
BRANCH  81  82
ATOM     82  S   UNL     1      -2.853  -6.106  10.030  1.00  0.00     0.124 S 
ATOM     83  O   UNL     1      -2.716  -7.534  10.293  1.00  0.00    -0.237 OA
ATOM     84  O   UNL     1      -3.086  -5.261  11.197  1.00  0.00    -0.237 OA
ATOM     85  O   UNL     1      -3.629  -5.753   8.845  1.00  0.00    -0.744 OA
ENDBRANCH  81  82
ENDBRANCH  49  74
BRANCH  61  86
ATOM     86  C   UNL     1       7.700  -8.015   8.766  1.00  0.00     0.058 A 
ATOM     87  C   UNL     1       7.459  -9.036   7.835  1.00  0.00     0.135 A 
ATOM     88  C   UNL     1       8.454  -8.329   9.909  1.00  0.00     0.135 A 
ATOM     89  F   UNL     1       6.739  -8.786   6.729  1.00  0.00    -0.206 F 
ATOM     90  C   UNL     1       7.942 -10.324   8.032  1.00  0.00     0.059 A 
ATOM     91  C   UNL     1       8.970  -9.604  10.113  1.00  0.00     0.059 A 
ATOM     92  F   UNL     1       8.721  -7.384  10.824  1.00  0.00    -0.206 F 
ATOM     93  C   UNL     1       8.704 -10.597   9.170  1.00  0.00     0.060 A 
BRANCH  93  94
ATOM     94  S   UNL     1       9.369 -12.261   9.382  1.00  0.00     0.124 S 
ATOM     95  O   UNL     1       8.161 -13.026   9.673  1.00  0.00    -0.237 OA
ATOM     96  O   UNL     1       9.984 -12.516   8.083  1.00  0.00    -0.237 OA
ATOM     97  O   UNL     1      10.303 -12.116  10.494  1.00  0.00    -0.744 OA
ENDBRANCH  93  94
ENDBRANCH  61  86
ENDBRANCH  35  36
ENDBRANCH  28  30
ENDBRANCH  27  28
ENDBRANCH  26  27
ENDBRANCH   1  26
TORSDOF 18
