REMARK SMILES C[C@H](C[C@H]1CSc2ccccc21)C(=O)OCCOC(=O)c1ccc(-c2c3nc(c(-c4c(F)cc(S(=O)(=O)[O-])cc4F)c4ccc([nH]4)c(-c4c(F)cc(S(=O)(=O)[O-])cc4F)c4nc(c(-c5c(F)cc(S(=O)(=O)[O-])cc5F)c5ccc2[nH]5)C=C4)C=C3)cc1
REMARK SMILES IDX 17 1 16 2 15 3 13 4 14 5 2 6 1 7 3 8 4 9 5 10 12 11 6 12
REMARK SMILES IDX 7 13 11 14 8 15 10 16 9 17 18 18 19 19 20 20 21 21 22 22
REMARK SMILES IDX 86 23 23 24 85 25 24 26 25 27 26 28 79 29 27 30 84 31 78 32
REMARK SMILES IDX 80 33 28 34 83 35 77 36 76 37 29 39 63 40 42 41 62 42 43 43
REMARK SMILES IDX 46 44 61 45 81 46 44 47 45 48 60 50 82 51 47 52 30 53 31 54
REMARK SMILES IDX 40 55 32 56 33 57 39 58 41 59 34 60 35 61 36 62 37 63 38 64
REMARK SMILES IDX 64 65 65 66 74 67 66 68 67 69 73 70 75 71 68 72 69 73 70 74
REMARK SMILES IDX 71 75 72 76 48 77 49 78 58 79 50 80 51 81 57 82 59 83 52 84
REMARK SMILES IDX 53 85 54 86 55 87 56 88
REMARK H PARENT 80 38 46 49
REMARK Flexibility Score: inf
ROOT
ATOM      1  C   UNL     1      -3.805   0.236   0.531  1.00  0.00     0.275 C 
ENDROOT
BRANCH   1   2
ATOM      2  C   UNL     1      -3.500  -0.150  -0.919  1.00  0.00     0.274 C 
BRANCH   2   3
ATOM      3  O   UNL     1      -2.092  -0.328  -1.143  1.00  0.00    -0.462 OA
BRANCH   3   4
ATOM      4  C   UNL     1      -1.429   0.791  -1.537  1.00  0.00     0.308 C 
ATOM      5  O   UNL     1      -1.948   1.885  -1.727  1.00  0.00    -0.252 OA
BRANCH   4   6
ATOM      6  C   UNL     1       0.026   0.518  -1.841  1.00  0.00     0.097 C 
ATOM      7  C   UNL     1       0.058  -0.001  -3.272  1.00  0.00     0.020 C 
BRANCH   6   8
ATOM      8  C   UNL     1       0.734  -0.325  -0.746  1.00  0.00     0.024 C 
BRANCH   8   9
ATOM      9  C   UNL     1       2.212  -0.761  -0.948  1.00  0.00     0.031 C 
ATOM     10  C   UNL     1       2.347  -2.164  -1.579  1.00  0.00     0.083 C 
ATOM     11  C   UNL     1       2.993   0.210  -1.791  1.00  0.00    -0.030 A 
ATOM     12  S   UNL     1       3.027  -1.998  -3.257  1.00  0.00    -0.125 SA
ATOM     13  C   UNL     1       3.345  -0.272  -3.054  1.00  0.00     0.011 A 
ATOM     14  C   UNL     1       3.175   1.554  -1.470  1.00  0.00     0.005 A 
ATOM     15  C   UNL     1       3.745   0.600  -4.055  1.00  0.00     0.015 A 
ATOM     16  C   UNL     1       3.575   2.434  -2.474  1.00  0.00     0.000 A 
ATOM     17  C   UNL     1       3.827   1.964  -3.768  1.00  0.00     0.001 A 
ENDBRANCH   8   9
ENDBRANCH   6   8
ENDBRANCH   4   6
ENDBRANCH   3   4
ENDBRANCH   2   3
ENDBRANCH   1   2
BRANCH   1  18
ATOM     18  O   UNL     1      -3.359   1.565   0.852  1.00  0.00    -0.458 OA
BRANCH  18  19
ATOM     19  C   UNL     1      -2.093   1.665   1.332  1.00  0.00     0.338 C 
ATOM     20  O   UNL     1      -1.328   0.749   1.572  1.00  0.00    -0.246 OA
BRANCH  19  21
ATOM     21  C   UNL     1      -1.711   3.090   1.405  1.00  0.00     0.060 A 
ATOM     22  C   UNL     1      -2.529   4.007   2.064  1.00  0.00     0.016 A 
ATOM     23  C   UNL     1      -0.503   3.504   0.829  1.00  0.00     0.016 A 
ATOM     24  C   UNL     1      -2.144   5.346   2.127  1.00  0.00     0.010 A 
ATOM     25  C   UNL     1      -0.114   4.844   0.903  1.00  0.00     0.010 A 
ATOM     26  C   UNL     1      -0.935   5.777   1.549  1.00  0.00    -0.014 A 
BRANCH  26  27
ATOM     27  C   UNL     1      -0.530   7.200   1.681  1.00  0.00     0.031 A 
ATOM     28  C   UNL     1      -0.566   8.130   0.503  1.00  0.00     0.074 A 
ATOM     29  C   UNL     1      -0.162   7.658   2.893  1.00  0.00     0.049 A 
ATOM     30  N   UNL     1      -0.386   9.426   0.475  1.00  0.00    -0.248 NA
ATOM     31  C   UNL     1      -0.829   7.531  -0.814  1.00  0.00     0.031 C 
ATOM     32  C   UNL     1      -0.046   6.835   4.098  1.00  0.00     0.029 A 
ATOM     33  N   UNL     1       0.154   8.923   3.321  1.00  0.00    -0.354 N 
ATOM     34  C   UNL     1      -0.537   9.804  -0.854  1.00  0.00     0.074 A 
ATOM     35  C   UNL     1      -0.758   8.590  -1.611  1.00  0.00     0.031 C 
ATOM     36  C   UNL     1       0.265   7.623   5.139  1.00  0.00     0.029 A 
ATOM     37  C   UNL     1       0.396   9.001   4.672  1.00  0.00     0.049 A 
ATOM     38  H   UNL     1       0.203   9.699   2.718  1.00  0.00     0.167 HD
ATOM     39  C   UNL     1      -0.520  11.051  -1.385  1.00  0.00     0.037 A 
ATOM     40  C   UNL     1       0.675  10.063   5.453  1.00  0.00     0.037 A 
ATOM     41  C   UNL     1      -0.290  12.251  -0.620  1.00  0.00     0.049 A 
ATOM     42  C   UNL     1       0.721  11.434   4.835  1.00  0.00     0.074 A 
ATOM     43  C   UNL     1      -0.295  13.564  -1.058  1.00  0.00     0.029 A 
ATOM     44  N   UNL     1      -0.000  12.286   0.737  1.00  0.00    -0.354 N 
ATOM     45  N   UNL     1       0.493  11.784   3.592  1.00  0.00    -0.248 NA
ATOM     46  C   UNL     1       1.058  12.554   5.724  1.00  0.00     0.031 C 
ATOM     47  C   UNL     1       0.047  14.387   0.020  1.00  0.00     0.029 A 
ATOM     48  C   UNL     1       0.210  13.594   1.145  1.00  0.00     0.049 A 
ATOM     49  H   UNL     1       0.049  11.497   1.324  1.00  0.00     0.167 HD
ATOM     50  C   UNL     1       0.648  13.165   3.550  1.00  0.00     0.074 A 
ATOM     51  C   UNL     1       0.966  13.589   4.899  1.00  0.00     0.031 C 
ATOM     52  C   UNL     1       0.540  14.004   2.490  1.00  0.00     0.037 A 
BRANCH  39  53
ATOM     53  C   UNL     1      -0.767  11.186  -2.865  1.00  0.00     0.058 A 
ATOM     54  C   UNL     1      -2.031  10.931  -3.423  1.00  0.00     0.135 A 
ATOM     55  C   UNL     1       0.249  11.628  -3.729  1.00  0.00     0.135 A 
ATOM     56  F   UNL     1      -3.039  10.501  -2.647  1.00  0.00    -0.206 F 
ATOM     57  C   UNL     1      -2.270  11.078  -4.786  1.00  0.00     0.059 A 
ATOM     58  C   UNL     1       0.024  11.810  -5.091  1.00  0.00     0.059 A 
ATOM     59  F   UNL     1       1.475  11.893  -3.251  1.00  0.00    -0.206 F 
ATOM     60  C   UNL     1      -1.235  11.519  -5.613  1.00  0.00     0.060 A 
BRANCH  60  61
ATOM     61  S   UNL     1      -1.567  11.703  -7.378  1.00  0.00     0.124 S 
ATOM     62  O   UNL     1      -1.737  10.312  -7.790  1.00  0.00    -0.237 OA
ATOM     63  O   UNL     1      -2.778  12.516  -7.383  1.00  0.00    -0.237 OA
ATOM     64  O   UNL     1      -0.368  12.363  -7.885  1.00  0.00    -0.744 OA
ENDBRANCH  60  61
ENDBRANCH  39  53
BRANCH  40  65
ATOM     65  C   UNL     1       0.887   9.864   6.912  1.00  0.00     0.058 A 
ATOM     66  C   UNL     1      -0.058  10.308   7.847  1.00  0.00     0.135 A 
ATOM     67  C   UNL     1       2.012   9.175   7.395  1.00  0.00     0.135 A 
ATOM     68  F   UNL     1      -1.145  10.978   7.436  1.00  0.00    -0.206 F 
ATOM     69  C   UNL     1       0.100  10.075   9.210  1.00  0.00     0.059 A 
ATOM     70  C   UNL     1       2.179   8.907   8.750  1.00  0.00     0.059 A 
ATOM     71  F   UNL     1       2.939   8.717   6.540  1.00  0.00    -0.206 F 
ATOM     72  C   UNL     1       1.218   9.363   9.650  1.00  0.00     0.060 A 
BRANCH  72  73
ATOM     73  S   UNL     1       1.369   9.000  11.413  1.00  0.00     0.124 S 
ATOM     74  O   UNL     1       1.603  10.327  11.969  1.00  0.00    -0.237 OA
ATOM     75  O   UNL     1       0.071   8.402  11.711  1.00  0.00    -0.237 OA
ATOM     76  O   UNL     1       2.503   8.082  11.472  1.00  0.00    -0.744 OA
ENDBRANCH  72  73
ENDBRANCH  40  65
BRANCH  52  77
ATOM     77  C   UNL     1       0.776  15.470   2.733  1.00  0.00     0.058 A 
ATOM     78  C   UNL     1       2.064  15.972   2.980  1.00  0.00     0.135 A 
ATOM     79  C   UNL     1      -0.279  16.393   2.638  1.00  0.00     0.135 A 
ATOM     80  F   UNL     1       3.107  15.134   3.089  1.00  0.00    -0.206 F 
ATOM     81  C   UNL     1       2.295  17.335   3.137  1.00  0.00     0.059 A 
ATOM     82  C   UNL     1      -0.065  17.763   2.762  1.00  0.00     0.059 A 
ATOM     83  F   UNL     1      -1.529  15.969   2.394  1.00  0.00    -0.206 F 
ATOM     84  C   UNL     1       1.225  18.224   3.017  1.00  0.00     0.060 A 
BRANCH  84  85
ATOM     85  S   UNL     1       1.555  19.992   3.171  1.00  0.00     0.124 S 
ATOM     86  O   UNL     1       1.890  20.108   4.587  1.00  0.00    -0.237 OA
ATOM     87  O   UNL     1       2.663  20.183   2.240  1.00  0.00    -0.237 OA
ATOM     88  O   UNL     1       0.294  20.611   2.773  1.00  0.00    -0.744 OA
ENDBRANCH  84  85
ENDBRANCH  52  77
ENDBRANCH  26  27
ENDBRANCH  19  21
ENDBRANCH  18  19
ENDBRANCH   1  18
TORSDOF 16
