REMARK SMILES Cc1ccnc(C(=O)c2[nH]c3ccc(C(C)(C)C)cc3c2CC(=O)OCCOC(=O)c2ccc(-c3c4nc(c(-c5c(F)cc(S(=O)(=O)[O-])cc5F)c5ccc([nH]5)c(-c5c(F)cc(S(=O)(=O)[O-])cc5F)c5nc(c(-c6c(F)cc(S(=O)(=O)[O-])cc6F)c6ccc3[nH]6)C=C5)C=C4)cc2)c1
REMARK SMILES IDX 26 1 25 2 23 3 24 4 22 5 21 6 9 7 10 8 11 9 20 11 12 12
REMARK SMILES IDX 19 13 13 14 14 15 7 16 8 17 6 18 1 19 2 20 3 21 97 22 4 23
REMARK SMILES IDX 5 24 15 25 16 26 17 27 18 28 27 29 28 30 29 31 30 32 31 33
REMARK SMILES IDX 32 34 96 35 33 36 95 37 34 38 35 39 36 40 89 41 37 42 94 43
REMARK SMILES IDX 88 44 90 45 38 46 93 47 87 48 86 49 39 51 73 52 52 53 72 54
REMARK SMILES IDX 53 55 56 56 71 57 91 58 54 59 55 60 70 62 92 63 57 64 40 65
REMARK SMILES IDX 41 66 50 67 42 68 43 69 49 70 51 71 44 72 45 73 46 74 47 75
REMARK SMILES IDX 48 76 74 77 75 78 84 79 76 80 77 81 83 82 85 83 78 84 79 85
REMARK SMILES IDX 80 86 81 87 82 88 58 89 59 90 68 91 60 92 61 93 67 94 69 95
REMARK SMILES IDX 62 96 63 97 64 98 65 99 66 100
REMARK H PARENT 10 10 90 50 56 61
REMARK Flexibility Score: inf
ROOT
ATOM      1  C   UNL     1       5.184  -5.342   0.612  1.00  0.00     0.274 C 
ENDROOT
BRANCH   1   2
ATOM      2  O   UNL     1       3.754  -5.177   0.489  1.00  0.00    -0.462 OA
BRANCH   2   3
ATOM      3  C   UNL     1       3.064  -5.045   1.649  1.00  0.00     0.310 C 
ATOM      4  O   UNL     1       3.562  -5.197   2.763  1.00  0.00    -0.252 OA
BRANCH   3   5
ATOM      5  C   UNL     1       1.649  -4.533   1.493  1.00  0.00     0.161 C 
BRANCH   5   6
ATOM      6  C   UNL     1       0.875  -4.894   0.267  1.00  0.00     0.000 A 
ATOM      7  C   UNL     1       0.717  -4.146  -0.900  1.00  0.00     0.093 A 
ATOM      8  N   UNL     1      -0.122  -4.856  -1.724  1.00  0.00    -0.352 N 
ATOM      9  C   UNL     1      -0.641  -5.942  -1.076  1.00  0.00     0.046 A 
ATOM     10  H   UNL     1      -0.323  -4.614  -2.656  1.00  0.00     0.167 HD
ATOM     11  C   UNL     1       0.015  -6.044   0.144  1.00  0.00     0.004 A 
ATOM     12  C   UNL     1      -1.631  -6.832  -1.486  1.00  0.00     0.027 A 
ATOM     13  C   UNL     1      -0.305  -7.141   0.978  1.00  0.00     0.015 A 
ATOM     14  C   UNL     1      -1.946  -7.890  -0.628  1.00  0.00     0.006 A 
ATOM     15  C   UNL     1      -1.290  -8.086   0.597  1.00  0.00    -0.042 A 
BRANCH   7  16
ATOM     16  C   UNL     1       1.260  -2.881  -1.372  1.00  0.00     0.227 C 
ATOM     17  O   UNL     1       1.994  -2.862  -2.359  1.00  0.00    -0.285 OA
BRANCH  16  18
ATOM     18  C   UNL     1       0.684  -1.583  -0.848  1.00  0.00     0.113 A 
ATOM     19  C   UNL     1      -2.579  -0.187   0.512  1.00  0.00     0.044 C 
ATOM     20  C   UNL     1      -1.181  -0.299  -0.021  1.00  0.00    -0.047 A 
ATOM     21  C   UNL     1      -0.487   0.858  -0.375  1.00  0.00     0.023 A 
ATOM     22  C   UNL     1      -0.576  -1.542  -0.244  1.00  0.00     0.036 A 
ATOM     23  C   UNL     1       0.768   0.730  -0.942  1.00  0.00     0.112 A 
ATOM     24  N   UNL     1       1.363  -0.455  -1.190  1.00  0.00    -0.253 NA
ENDBRANCH  16  18
ENDBRANCH   7  16
BRANCH  15  25
ATOM     25  C   UNL     1      -1.604  -9.288   1.508  1.00  0.00    -0.013 C 
ATOM     26  C   UNL     1      -0.344 -10.171   1.634  1.00  0.00     0.016 C 
ATOM     27  C   UNL     1      -2.029  -8.801   2.909  1.00  0.00     0.016 C 
ATOM     28  C   UNL     1      -2.743 -10.190   0.976  1.00  0.00     0.016 C 
ENDBRANCH  15  25
ENDBRANCH   5   6
ENDBRANCH   3   5
ENDBRANCH   2   3
ENDBRANCH   1   2
BRANCH   1  29
ATOM     29  C   UNL     1       5.937  -4.063   0.221  1.00  0.00     0.275 C 
BRANCH  29  30
ATOM     30  O   UNL     1       5.686  -2.974   1.135  1.00  0.00    -0.458 OA
BRANCH  30  31
ATOM     31  C   UNL     1       4.608  -2.236   0.798  1.00  0.00     0.338 C 
ATOM     32  O   UNL     1       3.857  -2.436  -0.144  1.00  0.00    -0.246 OA
BRANCH  31  33
ATOM     33  C   UNL     1       4.309  -1.179   1.762  1.00  0.00     0.060 A 
ATOM     34  C   UNL     1       3.310  -1.429   2.701  1.00  0.00     0.016 A 
ATOM     35  C   UNL     1       4.792   0.116   1.561  1.00  0.00     0.016 A 
ATOM     36  C   UNL     1       2.720  -0.371   3.376  1.00  0.00     0.010 A 
ATOM     37  C   UNL     1       4.256   1.170   2.310  1.00  0.00     0.010 A 
ATOM     38  C   UNL     1       3.192   0.939   3.196  1.00  0.00    -0.014 A 
BRANCH  38  39
ATOM     39  C   UNL     1       2.572   2.029   3.990  1.00  0.00     0.031 A 
ATOM     40  C   UNL     1       1.729   3.092   3.344  1.00  0.00     0.074 A 
ATOM     41  C   UNL     1       2.711   1.994   5.330  1.00  0.00     0.049 A 
ATOM     42  N   UNL     1       1.052   4.060   3.907  1.00  0.00    -0.248 NA
ATOM     43  C   UNL     1       1.623   3.064   1.878  1.00  0.00     0.031 C 
ATOM     44  C   UNL     1       3.492   0.997   6.068  1.00  0.00     0.029 A 
ATOM     45  N   UNL     1       2.186   2.796   6.308  1.00  0.00    -0.354 N 
ATOM     46  C   UNL     1       0.425   4.744   2.872  1.00  0.00     0.074 A 
ATOM     47  C   UNL     1       0.828   4.100   1.639  1.00  0.00     0.031 C 
ATOM     48  C   UNL     1       3.364   1.225   7.383  1.00  0.00     0.029 A 
ATOM     49  C   UNL     1       2.541   2.412   7.578  1.00  0.00     0.049 A 
ATOM     50  H   UNL     1       1.610   3.572   6.119  1.00  0.00     0.167 HD
ATOM     51  C   UNL     1      -0.414   5.805   2.946  1.00  0.00     0.037 A 
ATOM     52  C   UNL     1       2.255   2.967   8.769  1.00  0.00     0.037 A 
ATOM     53  C   UNL     1      -0.781   6.466   4.173  1.00  0.00     0.049 A 
ATOM     54  C   UNL     1       1.398   4.196   8.813  1.00  0.00     0.074 A 
ATOM     55  C   UNL     1      -1.606   7.565   4.351  1.00  0.00     0.029 A 
ATOM     56  N   UNL     1      -0.335   6.098   5.434  1.00  0.00    -0.354 N 
ATOM     57  N   UNL     1       0.813   4.826   7.823  1.00  0.00    -0.248 NA
ATOM     58  C   UNL     1       1.174   4.795  10.133  1.00  0.00     0.031 C 
ATOM     59  C   UNL     1      -1.631   7.881   5.715  1.00  0.00     0.029 A 
ATOM     60  C   UNL     1      -0.848   6.960   6.391  1.00  0.00     0.049 A 
ATOM     61  H   UNL     1       0.258   5.335   5.622  1.00  0.00     0.167 HD
ATOM     62  C   UNL     1       0.151   5.901   8.400  1.00  0.00     0.074 A 
ATOM     63  C   UNL     1       0.387   5.818   9.829  1.00  0.00     0.031 C 
ATOM     64  C   UNL     1      -0.581   6.873   7.803  1.00  0.00     0.037 A 
BRANCH  51  65
ATOM     65  C   UNL     1      -0.990   6.331   1.662  1.00  0.00     0.058 A 
ATOM     66  C   UNL     1      -2.056   5.680   1.023  1.00  0.00     0.135 A 
ATOM     67  C   UNL     1      -0.516   7.527   1.099  1.00  0.00     0.135 A 
ATOM     68  F   UNL     1      -2.530   4.521   1.507  1.00  0.00    -0.206 F 
ATOM     69  C   UNL     1      -2.633   6.196  -0.134  1.00  0.00     0.059 A 
ATOM     70  C   UNL     1      -1.086   8.067  -0.051  1.00  0.00     0.059 A 
ATOM     71  F   UNL     1       0.507   8.182   1.668  1.00  0.00    -0.206 F 
ATOM     72  C   UNL     1      -2.142   7.391  -0.663  1.00  0.00     0.060 A 
BRANCH  72  73
ATOM     73  S   UNL     1      -2.912   8.053  -2.156  1.00  0.00     0.124 S 
ATOM     74  O   UNL     1      -2.426   7.122  -3.169  1.00  0.00    -0.237 OA
ATOM     75  O   UNL     1      -4.334   7.960  -1.840  1.00  0.00    -0.237 OA
ATOM     76  O   UNL     1      -2.379   9.409  -2.242  1.00  0.00    -0.744 OA
ENDBRANCH  72  73
ENDBRANCH  51  65
BRANCH  52  77
ATOM     77  C   UNL     1       2.824   2.380  10.007  1.00  0.00     0.058 A 
ATOM     78  C   UNL     1       2.017   1.699  10.927  1.00  0.00     0.135 A 
ATOM     79  C   UNL     1       4.198   2.475  10.278  1.00  0.00     0.135 A 
ATOM     80  F   UNL     1       0.698   1.588  10.709  1.00  0.00    -0.206 F 
ATOM     81  C   UNL     1       2.550   1.140  12.083  1.00  0.00     0.059 A 
ATOM     82  C   UNL     1       4.757   1.904  11.414  1.00  0.00     0.059 A 
ATOM     83  F   UNL     1       5.012   3.103   9.415  1.00  0.00    -0.206 F 
ATOM     84  C   UNL     1       3.922   1.249  12.318  1.00  0.00     0.060 A 
BRANCH  84  85
ATOM     85  S   UNL     1       4.629   0.481  13.791  1.00  0.00     0.124 S 
ATOM     86  O   UNL     1       4.400   1.514  14.794  1.00  0.00    -0.237 OA
ATOM     87  O   UNL     1       3.831  -0.733  13.930  1.00  0.00    -0.237 OA
ATOM     88  O   UNL     1       6.022   0.263  13.411  1.00  0.00    -0.744 OA
ENDBRANCH  84  85
ENDBRANCH  52  77
BRANCH  64  89
ATOM     89  C   UNL     1      -1.166   7.916   8.708  1.00  0.00     0.058 A 
ATOM     90  C   UNL     1      -0.368   8.931   9.257  1.00  0.00     0.135 A 
ATOM     91  C   UNL     1      -2.526   7.885   9.049  1.00  0.00     0.135 A 
ATOM     92  F   UNL     1       0.941   8.994   8.966  1.00  0.00    -0.206 F 
ATOM     93  C   UNL     1      -0.892   9.861  10.149  1.00  0.00     0.059 A 
ATOM     94  C   UNL     1      -3.075   8.817   9.924  1.00  0.00     0.059 A 
ATOM     95  F   UNL     1      -3.330   6.937   8.543  1.00  0.00    -0.206 F 
ATOM     96  C   UNL     1      -2.245   9.787  10.485  1.00  0.00     0.060 A 
BRANCH  96  97
ATOM     97  S   UNL     1      -2.922  10.982  11.657  1.00  0.00     0.124 S 
ATOM     98  O   UNL     1      -2.567  10.371  12.933  1.00  0.00    -0.237 OA
ATOM     99  O   UNL     1      -2.203  12.206  11.319  1.00  0.00    -0.237 OA
ATOM    100  O   UNL     1      -4.346  10.993  11.336  1.00  0.00    -0.744 OA
ENDBRANCH  96  97
ENDBRANCH  64  89
ENDBRANCH  38  39
ENDBRANCH  31  33
ENDBRANCH  30  31
ENDBRANCH  29  30
ENDBRANCH   1  29
TORSDOF 18
