REMARK SMILES O=C(OCCOC(=O)[C@H]1C[C@](O)(c2ccc(F)cc2)[C@@H](c2ccc(F)cc2)O1)c1ccc(-c2c3nc(c(-c4c(F)cc(S(=O)(=O)[O-])cc4F)c4ccc([nH]4)c(-c4c(F)cc(S(=O)(=O)[O-])cc4F)c4nc(c(-c5c(F)cc(S(=O)(=O)[O-])cc5F)c5ccc2[nH]5)C=C4)C=C3)cc1
REMARK SMILES IDX 4 1 3 2 2 3 1 4 29 5 30 6 94 7 31 8 93 9 32 10 33 11 34 12
REMARK SMILES IDX 87 13 35 14 92 15 86 16 88 17 36 18 91 19 85 20 84 21 37 23
REMARK SMILES IDX 71 24 50 25 70 26 51 27 54 28 69 29 89 30 52 31 53 32 68 34
REMARK SMILES IDX 90 35 55 36 38 37 39 38 48 39 40 40 41 41 47 42 49 43 42 44
REMARK SMILES IDX 43 45 44 46 45 47 46 48 72 49 73 50 82 51 74 52 75 53 81 54
REMARK SMILES IDX 83 55 76 56 77 57 78 58 79 59 80 60 56 61 57 62 66 63 58 64
REMARK SMILES IDX 59 65 65 66 67 67 60 68 61 69 62 70 63 71 64 72 5 73 6 74
REMARK SMILES IDX 7 75 8 76 9 77 10 78 28 79 11 80 20 81 13 82 14 83 19 84
REMARK SMILES IDX 15 85 18 86 16 87 17 88 12 89 21 91 22 92 27 93 23 94 26 95
REMARK SMILES IDX 24 96 25 97
REMARK H PARENT 88 22 54 33 12 90
REMARK Flexibility Score: inf
ROOT
ATOM      1  C   UNL     1       4.162   0.654  -4.563  1.00  0.00     0.275 C 
ENDROOT
BRANCH   1   2
ATOM      2  O   UNL     1       3.410   1.475  -3.675  1.00  0.00    -0.458 OA
BRANCH   2   3
ATOM      3  C   UNL     1       2.359   1.079  -2.928  1.00  0.00     0.338 C 
ATOM      4  O   UNL     1       2.248   1.563  -1.801  1.00  0.00    -0.246 OA
BRANCH   3   5
ATOM      5  C   UNL     1       1.276   0.154  -3.434  1.00  0.00     0.060 A 
ATOM      6  C   UNL     1       1.240  -0.636  -4.599  1.00  0.00     0.016 A 
ATOM      7  C   UNL     1       0.188   0.035  -2.573  1.00  0.00     0.016 A 
ATOM      8  C   UNL     1       0.250  -1.647  -4.803  1.00  0.00     0.010 A 
ATOM      9  C   UNL     1      -0.786  -0.946  -2.782  1.00  0.00     0.010 A 
ATOM     10  C   UNL     1      -0.736  -1.877  -3.847  1.00  0.00    -0.014 A 
BRANCH  10  11
ATOM     11  C   UNL     1      -1.761  -2.995  -3.803  1.00  0.00     0.031 A 
ATOM     12  C   UNL     1      -3.179  -2.517  -3.668  1.00  0.00     0.074 A 
ATOM     13  C   UNL     1      -1.510  -4.328  -3.646  1.00  0.00     0.049 A 
ATOM     14  N   UNL     1      -4.232  -3.159  -3.253  1.00  0.00    -0.248 NA
ATOM     15  C   UNL     1      -3.425  -1.099  -4.011  1.00  0.00     0.031 C 
ATOM     16  C   UNL     1      -0.246  -5.014  -3.895  1.00  0.00     0.029 A 
ATOM     17  N   UNL     1      -2.300  -5.366  -3.160  1.00  0.00    -0.354 N 
ATOM     18  C   UNL     1      -5.259  -2.237  -3.345  1.00  0.00     0.074 A 
ATOM     19  C   UNL     1      -4.679  -0.948  -3.627  1.00  0.00     0.031 C 
ATOM     20  C   UNL     1      -0.281  -6.269  -3.400  1.00  0.00     0.029 A 
ATOM     21  C   UNL     1      -1.602  -6.539  -2.860  1.00  0.00     0.049 A 
ATOM     22  H   UNL     1      -3.273  -5.281  -3.037  1.00  0.00     0.167 HD
ATOM     23  C   UNL     1      -6.585  -2.473  -3.357  1.00  0.00     0.037 A 
ATOM     24  C   UNL     1      -1.978  -7.699  -2.253  1.00  0.00     0.037 A 
ATOM     25  C   UNL     1      -7.154  -3.771  -3.168  1.00  0.00     0.049 A 
ATOM     26  C   UNL     1      -3.463  -7.867  -2.009  1.00  0.00     0.074 A 
ATOM     27  C   UNL     1      -8.472  -4.153  -3.300  1.00  0.00     0.029 A 
ATOM     28  N   UNL     1      -6.431  -4.896  -2.804  1.00  0.00    -0.354 N 
ATOM     29  N   UNL     1      -4.431  -7.013  -2.247  1.00  0.00    -0.248 NA
ATOM     30  C   UNL     1      -3.928  -9.170  -1.509  1.00  0.00     0.031 C 
ATOM     31  C   UNL     1      -8.557  -5.504  -2.961  1.00  0.00     0.029 A 
ATOM     32  C   UNL     1      -7.284  -5.972  -2.663  1.00  0.00     0.049 A 
ATOM     33  H   UNL     1      -5.456  -4.924  -2.666  1.00  0.00     0.167 HD
ATOM     34  C   UNL     1      -5.616  -7.706  -2.033  1.00  0.00     0.074 A 
ATOM     35  C   UNL     1      -5.247  -9.032  -1.583  1.00  0.00     0.031 C 
ATOM     36  C   UNL     1      -6.889  -7.295  -2.245  1.00  0.00     0.037 A 
BRANCH  23  37
ATOM     37  C   UNL     1      -7.466  -1.320  -3.715  1.00  0.00     0.058 A 
ATOM     38  C   UNL     1      -8.299  -0.725  -2.761  1.00  0.00     0.135 A 
ATOM     39  C   UNL     1      -7.464  -0.794  -5.020  1.00  0.00     0.135 A 
ATOM     40  F   UNL     1      -8.310  -1.175  -1.497  1.00  0.00    -0.206 F 
ATOM     41  C   UNL     1      -9.114   0.349  -3.093  1.00  0.00     0.059 A 
ATOM     42  C   UNL     1      -8.247   0.297  -5.365  1.00  0.00     0.059 A 
ATOM     43  F   UNL     1      -6.646  -1.305  -5.956  1.00  0.00    -0.206 F 
ATOM     44  C   UNL     1      -9.082   0.851  -4.397  1.00  0.00     0.060 A 
BRANCH  44  45
ATOM     45  S   UNL     1     -10.135   2.256  -4.806  1.00  0.00     0.124 S 
ATOM     46  O   UNL     1     -11.464   1.659  -4.741  1.00  0.00    -0.237 OA
ATOM     47  O   UNL     1      -9.806   3.202  -3.744  1.00  0.00    -0.237 OA
ATOM     48  O   UNL     1      -9.682   2.642  -6.139  1.00  0.00    -0.744 OA
ENDBRANCH  44  45
ENDBRANCH  23  37
BRANCH  24  49
ATOM     49  C   UNL     1      -1.032  -8.835  -1.891  1.00  0.00     0.058 A 
ATOM     50  C   UNL     1      -0.280  -8.820  -0.706  1.00  0.00     0.135 A 
ATOM     51  C   UNL     1      -0.942 -10.030  -2.621  1.00  0.00     0.135 A 
ATOM     52  F   UNL     1      -0.355  -7.792   0.122  1.00  0.00    -0.206 F 
ATOM     53  C   UNL     1       0.531  -9.866  -0.270  1.00  0.00     0.059 A 
ATOM     54  C   UNL     1      -0.153 -11.120  -2.199  1.00  0.00     0.059 A 
ATOM     55  F   UNL     1      -1.672 -10.178  -3.736  1.00  0.00    -0.206 F 
ATOM     56  C   UNL     1       0.592 -11.022  -1.025  1.00  0.00     0.060 A 
BRANCH  56  57
ATOM     57  S   UNL     1       1.633 -12.362  -0.402  1.00  0.00     0.124 S 
ATOM     58  O   UNL     1       2.959 -11.759  -0.477  1.00  0.00    -0.237 OA
ATOM     59  O   UNL     1       1.105 -12.563   0.941  1.00  0.00    -0.237 OA
ATOM     60  O   UNL     1       1.382 -13.449  -1.348  1.00  0.00    -0.744 OA
ENDBRANCH  56  57
ENDBRANCH  24  49
BRANCH  36  61
ATOM     61  C   UNL     1      -8.000  -8.288  -2.074  1.00  0.00     0.058 A 
ATOM     62  C   UNL     1      -8.702  -8.746  -3.202  1.00  0.00     0.135 A 
ATOM     63  C   UNL     1      -8.486  -8.631  -0.806  1.00  0.00     0.135 A 
ATOM     64  F   UNL     1      -8.277  -8.435  -4.437  1.00  0.00    -0.206 F 
ATOM     65  C   UNL     1      -9.886  -9.460  -3.076  1.00  0.00     0.059 A 
ATOM     66  C   UNL     1      -9.655  -9.370  -0.657  1.00  0.00     0.059 A 
ATOM     67  F   UNL     1      -7.838  -8.226   0.298  1.00  0.00    -0.206 F 
ATOM     68  C   UNL     1     -10.363  -9.751  -1.798  1.00  0.00     0.060 A 
BRANCH  68  69
ATOM     69  S   UNL     1     -11.942 -10.612  -1.654  1.00  0.00     0.124 S 
ATOM     70  O   UNL     1     -12.880  -9.597  -2.120  1.00  0.00    -0.237 OA
ATOM     71  O   UNL     1     -11.750 -11.755  -2.542  1.00  0.00    -0.237 OA
ATOM     72  O   UNL     1     -12.022 -10.937  -0.233  1.00  0.00    -0.744 OA
ENDBRANCH  68  69
ENDBRANCH  36  61
ENDBRANCH  10  11
ENDBRANCH   3   5
ENDBRANCH   2   3
ENDBRANCH   1   2
BRANCH   1  73
ATOM     73  C   UNL     1       4.813  -0.599  -3.963  1.00  0.00     0.274 C 
BRANCH  73  74
ATOM     74  O   UNL     1       4.154  -1.183  -2.816  1.00  0.00    -0.460 OA
BRANCH  74  75
ATOM     75  C   UNL     1       4.969  -2.011  -2.092  1.00  0.00     0.335 C 
ATOM     76  O   UNL     1       6.184  -2.079  -2.288  1.00  0.00    -0.249 OA
BRANCH  75  77
ATOM     77  C   UNL     1       4.284  -2.939  -1.062  1.00  0.00     0.232 C 
ATOM     78  C   UNL     1       2.895  -2.648  -0.543  1.00  0.00     0.087 C 
ATOM     79  O   UNL     1       4.288  -4.306  -1.499  1.00  0.00    -0.355 OA
ATOM     80  C   UNL     1       1.990  -3.578  -1.334  1.00  0.00     0.123 C 
ATOM     81  C   UNL     1       2.955  -4.681  -1.926  1.00  0.00     0.186 C 
BRANCH  80  82
ATOM     82  C   UNL     1       0.715  -3.913  -0.537  1.00  0.00    -0.013 A 
ATOM     83  C   UNL     1      -0.273  -2.914  -0.372  1.00  0.00     0.010 A 
ATOM     84  C   UNL     1       0.424  -5.134   0.063  1.00  0.00     0.010 A 
ATOM     85  C   UNL     1      -1.561  -3.163   0.120  1.00  0.00     0.039 A 
ATOM     86  C   UNL     1      -0.832  -5.349   0.682  1.00  0.00     0.039 A 
ATOM     87  C   UNL     1      -1.838  -4.405   0.630  1.00  0.00     0.123 A 
ATOM     88  F   UNL     1      -3.051  -4.684   1.123  1.00  0.00    -0.207 F 
ENDBRANCH  80  82
BRANCH  80  89
ATOM     89  O   UNL     1       1.567  -2.762  -2.409  1.00  0.00    -0.382 OA
ATOM     90  H   UNL     1       2.334  -2.517  -2.951  1.00  0.00     0.212 HD
ENDBRANCH  80  89
BRANCH  81  91
ATOM     91  C   UNL     1       3.079  -4.904  -3.456  1.00  0.00    -0.016 A 
ATOM     92  C   UNL     1       3.196  -3.845  -4.379  1.00  0.00     0.009 A 
ATOM     93  C   UNL     1       3.140  -6.200  -4.000  1.00  0.00     0.009 A 
ATOM     94  C   UNL     1       3.346  -4.040  -5.756  1.00  0.00     0.039 A 
ATOM     95  C   UNL     1       3.270  -6.409  -5.388  1.00  0.00     0.039 A 
ATOM     96  C   UNL     1       3.380  -5.328  -6.251  1.00  0.00     0.123 A 
ATOM     97  F   UNL     1       3.519  -5.523  -7.569  1.00  0.00    -0.207 F 
ENDBRANCH  81  91
ENDBRANCH  75  77
ENDBRANCH  74  75
ENDBRANCH  73  74
ENDBRANCH   1  73
TORSDOF 17
