REMARK SMILES Cc1ccc(C(=O)OCCOC(=O)c2ccc(-c3c4nc(c(-c5c(F)cc(S(=O)(=O)[O-])cc5F)c5ccc([nH]5)c(-c5c(F)cc(S(=O)(=O)[O-])cc5F)c5nc(c(-c6c(F)cc(S(=O)(=O)[O-])cc6F)c6ccc3[nH]6)C=C5)C=C4)cc2)c(Oc2cccc(F)c2C(N)=O)c1
REMARK SMILES IDX 9 1 8 2 6 3 7 4 5 5 1 6 2 7 3 8 92 9 4 10 80 11 81 12 82 13
REMARK SMILES IDX 83 14 88 15 84 16 86 17 85 18 87 19 89 20 90 21 91 22 10 25
REMARK SMILES IDX 11 26 12 27 13 28 14 29 15 30 79 31 16 32 78 33 17 34 18 35
REMARK SMILES IDX 19 36 72 37 20 38 77 39 71 40 73 41 21 42 76 43 70 44 69 45
REMARK SMILES IDX 22 47 56 48 35 49 55 50 36 51 39 52 54 53 74 54 37 55 38 56
REMARK SMILES IDX 53 58 75 59 40 60 23 61 24 62 33 63 25 64 26 65 32 66 34 67
REMARK SMILES IDX 27 68 28 69 29 70 30 71 31 72 57 73 58 74 67 75 59 76 60 77
REMARK SMILES IDX 66 78 68 79 61 80 62 81 63 82 64 83 65 84 41 85 42 86 51 87
REMARK SMILES IDX 43 88 44 89 50 90 52 91 45 92 46 93 47 94 48 95 49 96
REMARK H PARENT 90 23 90 24 73 46 39 57
REMARK Flexibility Score: inf
ROOT
ATOM      1  C   UNL     1      -4.366   1.919  -2.432  1.00  0.00     0.275 C 
ENDROOT
BRANCH   1   2
ATOM      2  O   UNL     1      -3.053   1.352  -2.221  1.00  0.00    -0.458 OA
BRANCH   2   3
ATOM      3  C   UNL     1      -2.577   1.570  -0.961  1.00  0.00     0.342 C 
ATOM      4  O   UNL     1      -3.165   2.221  -0.128  1.00  0.00    -0.246 OA
BRANCH   3   5
ATOM      5  C   UNL     1      -1.174   1.097  -0.781  1.00  0.00     0.102 A 
ATOM      6  C   UNL     1       2.934  -0.033  -0.050  1.00  0.00     0.044 C 
ATOM      7  C   UNL     1       1.512   0.362  -0.323  1.00  0.00    -0.047 A 
ATOM      8  C   UNL     1       0.635  -0.500  -1.000  1.00  0.00     0.004 A 
ATOM      9  C   UNL     1       1.029   1.586   0.148  1.00  0.00     0.051 A 
ATOM     10  C   UNL     1      -0.696  -0.128  -1.250  1.00  0.00     0.020 A 
ATOM     11  C   UNL     1      -0.296   1.951  -0.098  1.00  0.00     0.142 A 
BRANCH  11  12
ATOM     12  O   UNL     1      -0.791   3.122   0.409  1.00  0.00    -0.455 OA
BRANCH  12  13
ATOM     13  C   UNL     1      -0.317   4.334  -0.023  1.00  0.00     0.143 A 
ATOM     14  C   UNL     1      -0.564   5.342   0.924  1.00  0.00     0.048 A 
ATOM     15  C   UNL     1       0.303   4.667  -1.234  1.00  0.00     0.117 A 
ATOM     16  C   UNL     1      -0.151   6.653   0.707  1.00  0.00     0.007 A 
ATOM     17  C   UNL     1       0.734   5.983  -1.431  1.00  0.00     0.139 A 
ATOM     18  C   UNL     1       0.517   6.970  -0.470  1.00  0.00     0.040 A 
ATOM     19  F   UNL     1       1.333   6.348  -2.575  1.00  0.00    -0.206 F 
BRANCH  15  20
ATOM     20  C   UNL     1       0.519   3.751  -2.368  1.00  0.00     0.255 C 
ATOM     21  N   UNL     1      -0.601   3.216  -2.941  1.00  0.00    -0.365 N 
ATOM     22  O   UNL     1       1.639   3.519  -2.801  1.00  0.00    -0.269 OA
ATOM     23  H   UNL     1      -1.489   3.422  -2.570  1.00  0.00     0.159 HD
ATOM     24  H   UNL     1      -0.519   2.626  -3.724  1.00  0.00     0.159 HD
ENDBRANCH  15  20
ENDBRANCH  12  13
ENDBRANCH  11  12
ENDBRANCH   3   5
ENDBRANCH   2   3
ENDBRANCH   1   2
BRANCH   1  25
ATOM     25  C   UNL     1      -5.190   1.127  -3.462  1.00  0.00     0.275 C 
BRANCH  25  26
ATOM     26  O   UNL     1      -5.643  -0.171  -3.030  1.00  0.00    -0.458 OA
BRANCH  26  27
ATOM     27  C   UNL     1      -4.671  -0.977  -2.517  1.00  0.00     0.338 C 
ATOM     28  O   UNL     1      -3.684  -1.329  -3.139  1.00  0.00    -0.246 OA
BRANCH  27  29
ATOM     29  C   UNL     1      -4.831  -0.968  -1.032  1.00  0.00     0.060 A 
ATOM     30  C   UNL     1      -3.757  -1.361  -0.221  1.00  0.00     0.016 A 
ATOM     31  C   UNL     1      -5.899  -0.249  -0.482  1.00  0.00     0.016 A 
ATOM     32  C   UNL     1      -3.689  -0.939   1.107  1.00  0.00     0.010 A 
ATOM     33  C   UNL     1      -5.786   0.255   0.790  1.00  0.00     0.010 A 
ATOM     34  C   UNL     1      -4.691  -0.099   1.593  1.00  0.00    -0.014 A 
BRANCH  34  35
ATOM     35  C   UNL     1      -4.898   0.192   3.004  1.00  0.00     0.031 A 
ATOM     36  C   UNL     1      -4.288   1.320   3.731  1.00  0.00     0.074 A 
ATOM     37  C   UNL     1      -5.872  -0.592   3.512  1.00  0.00     0.049 A 
ATOM     38  N   UNL     1      -4.342   1.456   5.012  1.00  0.00    -0.248 NA
ATOM     39  C   UNL     1      -3.538   2.395   3.095  1.00  0.00     0.031 C 
ATOM     40  C   UNL     1      -6.651  -0.475   4.727  1.00  0.00     0.029 A 
ATOM     41  N   UNL     1      -6.222  -1.847   2.997  1.00  0.00    -0.354 N 
ATOM     42  C   UNL     1      -3.906   2.728   5.336  1.00  0.00     0.074 A 
ATOM     43  C   UNL     1      -3.343   3.243   4.114  1.00  0.00     0.031 C 
ATOM     44  C   UNL     1      -7.147  -1.692   5.025  1.00  0.00     0.029 A 
ATOM     45  C   UNL     1      -6.552  -2.644   4.087  1.00  0.00     0.049 A 
ATOM     46  H   UNL     1      -6.231  -2.112   2.049  1.00  0.00     0.167 HD
ATOM     47  C   UNL     1      -4.220   3.231   6.568  1.00  0.00     0.037 A 
ATOM     48  C   UNL     1      -5.684  -3.646   4.421  1.00  0.00     0.037 A 
ATOM     49  C   UNL     1      -4.829   2.178   7.381  1.00  0.00     0.049 A 
ATOM     50  C   UNL     1      -5.087  -3.394   5.784  1.00  0.00     0.074 A 
ATOM     51  C   UNL     1      -6.153   1.833   7.593  1.00  0.00     0.029 A 
ATOM     52  N   UNL     1      -4.066   1.077   7.763  1.00  0.00    -0.354 N 
ATOM     53  N   UNL     1      -4.829  -2.209   6.273  1.00  0.00    -0.248 NA
ATOM     54  C   UNL     1      -4.849  -4.469   6.739  1.00  0.00     0.031 C 
ATOM     55  C   UNL     1      -6.189   0.469   7.975  1.00  0.00     0.029 A 
ATOM     56  C   UNL     1      -4.887  -0.002   8.033  1.00  0.00     0.049 A 
ATOM     57  H   UNL     1      -3.084   1.068   7.831  1.00  0.00     0.167 HD
ATOM     58  C   UNL     1      -4.507  -2.337   7.599  1.00  0.00     0.074 A 
ATOM     59  C   UNL     1      -4.497  -3.773   7.833  1.00  0.00     0.031 C 
ATOM     60  C   UNL     1      -4.337  -1.280   8.447  1.00  0.00     0.037 A 
BRANCH  47  61
ATOM     61  C   UNL     1      -4.303   4.713   6.910  1.00  0.00     0.058 A 
ATOM     62  C   UNL     1      -5.253   5.173   7.854  1.00  0.00     0.135 A 
ATOM     63  C   UNL     1      -3.553   5.739   6.301  1.00  0.00     0.135 A 
ATOM     64  F   UNL     1      -5.978   4.323   8.592  1.00  0.00    -0.206 F 
ATOM     65  C   UNL     1      -5.522   6.526   8.082  1.00  0.00     0.059 A 
ATOM     66  C   UNL     1      -3.824   7.104   6.490  1.00  0.00     0.059 A 
ATOM     67  F   UNL     1      -2.496   5.464   5.526  1.00  0.00    -0.206 F 
ATOM     68  C   UNL     1      -4.828   7.489   7.368  1.00  0.00     0.060 A 
BRANCH  68  69
ATOM     69  S   UNL     1      -5.249   9.225   7.621  1.00  0.00     0.124 S 
ATOM     70  O   UNL     1      -6.653   9.261   7.220  1.00  0.00    -0.237 OA
ATOM     71  O   UNL     1      -4.992   9.400   9.046  1.00  0.00    -0.237 OA
ATOM     72  O   UNL     1      -4.333   9.932   6.730  1.00  0.00    -0.744 OA
ENDBRANCH  68  69
ENDBRANCH  47  61
BRANCH  48  73
ATOM     73  C   UNL     1      -4.988  -4.291   3.254  1.00  0.00     0.058 A 
ATOM     74  C   UNL     1      -5.777  -4.801   2.196  1.00  0.00     0.135 A 
ATOM     75  C   UNL     1      -3.611  -4.191   3.009  1.00  0.00     0.135 A 
ATOM     76  F   UNL     1      -7.105  -4.935   2.354  1.00  0.00    -0.206 F 
ATOM     77  C   UNL     1      -5.254  -5.090   0.936  1.00  0.00     0.059 A 
ATOM     78  C   UNL     1      -3.057  -4.493   1.753  1.00  0.00     0.059 A 
ATOM     79  F   UNL     1      -2.785  -3.725   3.957  1.00  0.00    -0.206 F 
ATOM     80  C   UNL     1      -3.893  -4.909   0.714  1.00  0.00     0.060 A 
BRANCH  80  81
ATOM     81  S   UNL     1      -3.276  -5.059  -0.985  1.00  0.00     0.124 S 
ATOM     82  O   UNL     1      -3.165  -6.505  -1.138  1.00  0.00    -0.237 OA
ATOM     83  O   UNL     1      -4.343  -4.421  -1.752  1.00  0.00    -0.237 OA
ATOM     84  O   UNL     1      -2.014  -4.326  -0.947  1.00  0.00    -0.744 OA
ENDBRANCH  80  81
ENDBRANCH  48  73
BRANCH  60  85
ATOM     85  C   UNL     1      -3.753  -1.385   9.829  1.00  0.00     0.058 A 
ATOM     86  C   UNL     1      -2.748  -2.306  10.164  1.00  0.00     0.135 A 
ATOM     87  C   UNL     1      -4.079  -0.432  10.823  1.00  0.00     0.135 A 
ATOM     88  F   UNL     1      -2.281  -3.185   9.265  1.00  0.00    -0.206 F 
ATOM     89  C   UNL     1      -2.156  -2.330  11.424  1.00  0.00     0.059 A 
ATOM     90  C   UNL     1      -3.458  -0.401  12.065  1.00  0.00     0.059 A 
ATOM     91  F   UNL     1      -5.006   0.515  10.615  1.00  0.00    -0.206 F 
ATOM     92  C   UNL     1      -2.517  -1.373  12.367  1.00  0.00     0.060 A 
BRANCH  92  93
ATOM     93  S   UNL     1      -1.718  -1.361  13.979  1.00  0.00     0.124 S 
ATOM     94  O   UNL     1      -2.616  -2.213  14.751  1.00  0.00    -0.237 OA
ATOM     95  O   UNL     1      -0.402  -1.926  13.693  1.00  0.00    -0.237 OA
ATOM     96  O   UNL     1      -1.719   0.053  14.339  1.00  0.00    -0.744 OA
ENDBRANCH  92  93
ENDBRANCH  60  85
ENDBRANCH  34  35
ENDBRANCH  27  29
ENDBRANCH  26  27
ENDBRANCH  25  26
ENDBRANCH   1  25
TORSDOF 17
