REMARK SMILES C[C@H]1[C@H](C)CC[C@@]2(C(=O)OCCOC(=O)c3ccc(-c4c5nc(c(-c6c(F)cc(S(=O)(=O)[O-])cc6F)c6ccc([nH]6)c(-c6c(F)cc(S(=O)(=O)[O-])cc6F)c6nc(c(-c7c(F)cc(S(=O)(=O)[O-])cc7F)c7ccc4[nH]7)C=C6)C=C5)cc3)CC[C@@]3(C)C(=CC[C@@H]4[C@@]5(C)CC[C@H](O)C(C)(C)[C@@H]5CC[C@]43C)[C@H]12
REMARK SMILES IDX 12 1 11 2 10 3 8 4 9 5 7 6 1 7 2 8 3 9 104 10 4 11 5 12
REMARK SMILES IDX 86 13 6 14 82 15 84 16 87 17 83 18 85 19 102 20 88 21 89 22
REMARK SMILES IDX 101 23 103 24 90 25 100 26 91 27 92 28 99 29 93 30 96 31
REMARK SMILES IDX 94 32 97 33 98 34 95 35 13 37 14 38 15 39 16 40 17 41 81 42
REMARK SMILES IDX 18 43 80 44 19 45 20 46 21 47 74 48 22 49 79 50 73 51 75 52
REMARK SMILES IDX 23 53 78 54 72 55 71 56 24 58 58 59 37 60 57 61 38 62 41 63
REMARK SMILES IDX 56 64 76 65 39 66 40 67 55 69 77 70 42 71 25 72 26 73 35 74
REMARK SMILES IDX 27 75 28 76 34 77 36 78 29 79 30 80 31 81 32 82 33 83 59 84
REMARK SMILES IDX 60 85 69 86 61 87 62 88 68 89 70 90 63 91 64 92 65 93 66 94
REMARK SMILES IDX 67 95 43 96 44 97 53 98 45 99 46 100 52 101 54 102 47 103
REMARK SMILES IDX 48 104 49 105 50 106 51 107
REMARK H PARENT 95 36 75 57 41 68
REMARK Flexibility Score: inf
ROOT
ATOM      1  C   UNL     1       3.392   1.205  -4.603  1.00  0.00     0.275 C 
ENDROOT
BRANCH   1   2
ATOM      2  C   UNL     1       2.737   0.728  -3.294  1.00  0.00     0.274 C 
BRANCH   2   3
ATOM      3  O   UNL     1       1.528   1.397  -2.872  1.00  0.00    -0.462 OA
BRANCH   3   4
ATOM      4  C   UNL     1       1.750   2.540  -2.170  1.00  0.00     0.312 C 
ATOM      5  O   UNL     1       2.810   3.127  -2.250  1.00  0.00    -0.252 OA
BRANCH   4   6
ATOM      6  C   UNL     1       0.679   2.905  -1.118  1.00  0.00     0.075 C 
ATOM      7  C   UNL     1       0.517  -0.224   1.254  1.00  0.00     0.008 C 
ATOM      8  C   UNL     1       0.448   0.563  -0.065  1.00  0.00    -0.003 C 
ATOM      9  C   UNL     1      -1.005   0.481  -0.644  1.00  0.00    -0.011 C 
ATOM     10  C   UNL     1       0.938   2.044   0.154  1.00  0.00     0.036 C 
ATOM     11  C   UNL     1      -1.406  -0.951  -1.036  1.00  0.00     0.008 C 
ATOM     12  C   UNL     1      -1.227   1.358  -1.879  1.00  0.00     0.005 C 
ATOM     13  C   UNL     1       2.432   2.315   0.551  1.00  0.00    -0.063 C 
ATOM     14  C   UNL     1      -0.743   2.779  -1.685  1.00  0.00     0.020 C 
ATOM     15  C   UNL     1       0.835   4.395  -0.690  1.00  0.00     0.020 C 
ATOM     16  C   UNL     1       2.816   3.788   0.942  1.00  0.00    -0.006 C 
ATOM     17  C   UNL     1       3.388   1.396   0.298  1.00  0.00    -0.027 C 
ATOM     18  C   UNL     1       2.198   4.777  -0.100  1.00  0.00     0.013 C 
ATOM     19  C   UNL     1       2.140   4.121   2.298  1.00  0.00     0.017 C 
ATOM     20  C   UNL     1       4.463   4.011   1.059  1.00  0.00    -0.020 C 
ATOM     21  C   UNL     1       4.851   1.701   0.118  1.00  0.00     0.032 C 
ATOM     22  C   UNL     1       5.136   3.202  -0.108  1.00  0.00     0.006 C 
ATOM     23  C   UNL     1       4.875   5.500   0.937  1.00  0.00     0.008 C 
ATOM     24  C   UNL     1       4.968   3.531   2.445  1.00  0.00     0.012 C 
ATOM     25  C   UNL     1       6.632   3.549  -0.559  1.00  0.00    -0.025 C 
ATOM     26  C   UNL     1       6.375   5.750   0.720  1.00  0.00     0.005 C 
ATOM     27  C   UNL     1       7.660   2.827   0.331  1.00  0.00     0.012 C 
ATOM     28  C   UNL     1       6.835   3.038  -2.024  1.00  0.00     0.010 C 
ATOM     29  C   UNL     1       6.818   5.110  -0.607  1.00  0.00     0.003 C 
ATOM     30  C   UNL     1       8.132   3.500  -2.693  1.00  0.00     0.033 C 
ATOM     31  C   UNL     1       8.180   5.640  -1.212  1.00  0.00    -0.006 C 
ATOM     32  C   UNL     1       8.355   5.010  -2.629  1.00  0.00     0.120 C 
ATOM     33  C   UNL     1       9.412   5.385  -0.322  1.00  0.00     0.014 C 
ATOM     34  C   UNL     1       8.126   7.185  -1.393  1.00  0.00     0.014 C 
BRANCH  32  35
ATOM     35  O   UNL     1       9.628   5.305  -3.205  1.00  0.00    -0.393 OA
ATOM     36  H   UNL     1      10.326   4.880  -2.682  1.00  0.00     0.210 HD
ENDBRANCH  32  35
ENDBRANCH   4   6
ENDBRANCH   3   4
ENDBRANCH   2   3
ENDBRANCH   1   2
BRANCH   1  37
ATOM     37  O   UNL     1       3.851   2.567  -4.572  1.00  0.00    -0.458 OA
BRANCH  37  38
ATOM     38  C   UNL     1       2.922   3.503  -4.909  1.00  0.00     0.338 C 
ATOM     39  O   UNL     1       1.833   3.277  -5.417  1.00  0.00    -0.246 OA
BRANCH  38  40
ATOM     40  C   UNL     1       3.311   4.833  -4.360  1.00  0.00     0.060 A 
ATOM     41  C   UNL     1       2.305   5.671  -3.845  1.00  0.00     0.016 A 
ATOM     42  C   UNL     1       4.642   5.223  -4.257  1.00  0.00     0.016 A 
ATOM     43  C   UNL     1       2.620   6.887  -3.219  1.00  0.00     0.010 A 
ATOM     44  C   UNL     1       4.951   6.440  -3.645  1.00  0.00     0.010 A 
ATOM     45  C   UNL     1       3.952   7.294  -3.132  1.00  0.00    -0.014 A 
BRANCH  45  46
ATOM     46  C   UNL     1       4.343   8.704  -2.841  1.00  0.00     0.031 A 
ATOM     47  C   UNL     1       4.762   9.522  -4.033  1.00  0.00     0.074 A 
ATOM     48  C   UNL     1       4.441   9.236  -1.606  1.00  0.00     0.049 A 
ATOM     49  N   UNL     1       5.335  10.694  -4.084  1.00  0.00    -0.248 NA
ATOM     50  C   UNL     1       4.521   8.908  -5.352  1.00  0.00     0.031 C 
ATOM     51  C   UNL     1       4.021   8.603  -0.363  1.00  0.00     0.029 A 
ATOM     52  N   UNL     1       4.984  10.431  -1.190  1.00  0.00    -0.354 N 
ATOM     53  C   UNL     1       5.512  10.952  -5.436  1.00  0.00     0.074 A 
ATOM     54  C   UNL     1       5.104   9.772  -6.161  1.00  0.00     0.031 C 
ATOM     55  C   UNL     1       4.423   9.351   0.682  1.00  0.00     0.029 A 
ATOM     56  C   UNL     1       5.089  10.550   0.179  1.00  0.00     0.049 A 
ATOM     57  H   UNL     1       5.271  11.137  -1.814  1.00  0.00     0.167 HD
ATOM     58  C   UNL     1       5.905  12.097  -6.036  1.00  0.00     0.037 A 
ATOM     59  C   UNL     1       5.650  11.518   0.934  1.00  0.00     0.037 A 
ATOM     60  C   UNL     1       6.278  13.283  -5.325  1.00  0.00     0.049 A 
ATOM     61  C   UNL     1       6.183  12.757   0.255  1.00  0.00     0.074 A 
ATOM     62  C   UNL     1       6.632  14.517  -5.833  1.00  0.00     0.029 A 
ATOM     63  N   UNL     1       6.341  13.378  -3.943  1.00  0.00    -0.354 N 
ATOM     64  N   UNL     1       6.252  13.029  -1.027  1.00  0.00    -0.248 NA
ATOM     65  C   UNL     1       6.664  13.843   1.123  1.00  0.00     0.031 C 
ATOM     66  C   UNL     1       6.935  15.356  -4.755  1.00  0.00     0.029 A 
ATOM     67  C   UNL     1       6.738  14.650  -3.578  1.00  0.00     0.049 A 
ATOM     68  H   UNL     1       6.134  12.648  -3.316  1.00  0.00     0.167 HD
ATOM     69  C   UNL     1       6.711  14.339  -1.115  1.00  0.00     0.074 A 
ATOM     70  C   UNL     1       6.929  14.798   0.240  1.00  0.00     0.031 C 
ATOM     71  C   UNL     1       6.910  15.101  -2.219  1.00  0.00     0.037 A 
BRANCH  58  72
ATOM     72  C   UNL     1       5.891  12.098  -7.535  1.00  0.00     0.058 A 
ATOM     73  C   UNL     1       4.678  12.047  -8.244  1.00  0.00     0.135 A 
ATOM     74  C   UNL     1       7.085  12.072  -8.268  1.00  0.00     0.135 A 
ATOM     75  F   UNL     1       3.508  12.038  -7.585  1.00  0.00    -0.206 F 
ATOM     76  C   UNL     1       4.650  11.912  -9.625  1.00  0.00     0.059 A 
ATOM     77  C   UNL     1       7.080  11.969  -9.655  1.00  0.00     0.059 A 
ATOM     78  F   UNL     1       8.268  12.111  -7.636  1.00  0.00    -0.206 F 
ATOM     79  C   UNL     1       5.858  11.864 -10.321  1.00  0.00     0.060 A 
BRANCH  79  80
ATOM     80  S   UNL     1       5.808  11.649 -12.112  1.00  0.00     0.124 S 
ATOM     81  O   UNL     1       5.488  10.229 -12.225  1.00  0.00    -0.237 OA
ATOM     82  O   UNL     1       4.747  12.570 -12.508  1.00  0.00    -0.237 OA
ATOM     83  O   UNL     1       7.152  12.027 -12.536  1.00  0.00    -0.744 OA
ENDBRANCH  79  80
ENDBRANCH  58  72
BRANCH  59  84
ATOM     84  C   UNL     1       5.692  11.408   2.421  1.00  0.00     0.058 A 
ATOM     85  C   UNL     1       4.846  12.186   3.226  1.00  0.00     0.135 A 
ATOM     86  C   UNL     1       6.617  10.574   3.068  1.00  0.00     0.135 A 
ATOM     87  F   UNL     1       3.954  13.011   2.657  1.00  0.00    -0.206 F 
ATOM     88  C   UNL     1       4.932  12.165   4.616  1.00  0.00     0.059 A 
ATOM     89  C   UNL     1       6.712  10.523   4.459  1.00  0.00     0.059 A 
ATOM     90  F   UNL     1       7.449   9.806   2.348  1.00  0.00    -0.206 F 
ATOM     91  C   UNL     1       5.873  11.333   5.224  1.00  0.00     0.060 A 
BRANCH  91  92
ATOM     92  S   UNL     1       5.965  11.311   7.030  1.00  0.00     0.124 S 
ATOM     93  O   UNL     1       6.529  12.626   7.314  1.00  0.00    -0.237 OA
ATOM     94  O   UNL     1       4.567  11.123   7.404  1.00  0.00    -0.237 OA
ATOM     95  O   UNL     1       6.840  10.177   7.310  1.00  0.00    -0.744 OA
ENDBRANCH  91  92
ENDBRANCH  59  84
BRANCH  71  96
ATOM     96  C   UNL     1       7.310  16.535  -2.022  1.00  0.00     0.058 A 
ATOM     97  C   UNL     1       8.613  16.895  -1.651  1.00  0.00     0.135 A 
ATOM     98  C   UNL     1       6.397  17.564  -2.308  1.00  0.00     0.135 A 
ATOM     99  F   UNL     1       9.520  15.949  -1.361  1.00  0.00    -0.206 F 
ATOM    100  C   UNL     1       8.997  18.229  -1.564  1.00  0.00     0.059 A 
ATOM    101  C   UNL     1       6.766  18.903  -2.252  1.00  0.00     0.059 A 
ATOM    102  F   UNL     1       5.140  17.269  -2.678  1.00  0.00    -0.206 F 
ATOM    103  C   UNL     1       8.069  19.226  -1.875  1.00  0.00     0.060 A 
BRANCH 103 104
ATOM    104  S   UNL     1       8.599  20.951  -1.830  1.00  0.00     0.124 S 
ATOM    105  O   UNL     1       8.632  21.212  -0.395  1.00  0.00    -0.237 OA
ATOM    106  O   UNL     1       9.898  20.897  -2.494  1.00  0.00    -0.237 OA
ATOM    107  O   UNL     1       7.552  21.647  -2.572  1.00  0.00    -0.744 OA
ENDBRANCH 103 104
ENDBRANCH  71  96
ENDBRANCH  45  46
ENDBRANCH  38  40
ENDBRANCH  37  38
ENDBRANCH   1  37
TORSDOF 15
