REMARK SMILES NC(=O)C1CC[NH+](Cc2ccc(C(=O)OCCOC(=O)c3ccc(-c4c5nc(c(-c6c(F)cc(S(=O)(=O)[O-])cc6F)c6ccc([nH]6)c(-c6c(F)cc(S(=O)(=O)[O-])cc6F)c6nc(c(-c7c(F)cc(S(=O)(=O)[O-])cc7F)c7ccc4[nH]7)C=C6)C=C5)cc3)cc2)CC1
REMARK SMILES IDX 16 1 15 2 13 3 14 4 12 5 9 6 10 7 88 8 11 9 87 10 8 11 7 12
REMARK SMILES IDX 4 13 5 14 90 15 6 16 89 17 2 19 1 20 3 23 17 24 18 25 19 26
REMARK SMILES IDX 20 27 21 28 22 29 86 30 23 31 85 32 24 33 25 34 26 35 79 36
REMARK SMILES IDX 27 37 84 38 78 39 80 40 28 41 83 42 77 43 76 44 29 46 63 47
REMARK SMILES IDX 42 48 62 49 43 50 46 51 61 52 81 53 44 54 45 55 60 57 82 58
REMARK SMILES IDX 47 59 30 60 31 61 40 62 32 63 33 64 39 65 41 66 34 67 35 68
REMARK SMILES IDX 36 69 37 70 38 71 64 72 65 73 74 74 66 75 67 76 73 77 75 78
REMARK SMILES IDX 68 79 69 80 70 81 71 82 72 83 48 84 49 85 58 86 50 87 51 88
REMARK SMILES IDX 57 89 59 90 52 91 53 92 54 93 55 94 56 95
REMARK H PARENT 7 18 1 21 1 22 80 45 46 56
REMARK Flexibility Score: inf
ROOT
ATOM      1  C   UNL     1      -5.443   2.607   3.805  1.00  0.00     0.275 C 
ENDROOT
BRANCH   1   2
ATOM      2  O   UNL     1      -4.484   3.164   2.887  1.00  0.00    -0.458 OA
BRANCH   2   3
ATOM      3  C   UNL     1      -4.635   2.776   1.594  1.00  0.00     0.338 C 
ATOM      4  O   UNL     1      -5.444   1.968   1.178  1.00  0.00    -0.246 OA
BRANCH   3   5
ATOM      5  C   UNL     1      -3.720   3.531   0.700  1.00  0.00     0.060 A 
ATOM      6  C   UNL     1      -1.963   4.741  -1.124  1.00  0.00     0.006 A 
ATOM      7  C   UNL     1      -3.174   4.196  -1.567  1.00  0.00     0.010 A 
ATOM      8  C   UNL     1      -1.696   4.777   0.255  1.00  0.00     0.010 A 
ATOM      9  C   UNL     1      -4.022   3.558  -0.668  1.00  0.00     0.016 A 
ATOM     10  C   UNL     1      -2.571   4.176   1.165  1.00  0.00     0.016 A 
BRANCH   6  11
ATOM     11  C   UNL     1      -0.901   5.117  -2.142  1.00  0.00     0.299 C 
BRANCH  11  12
ATOM     12  N   UNL     1       0.016   4.011  -2.523  1.00  0.00    -0.331 N 
ATOM     13  C   UNL     1       1.137   1.287  -2.400  1.00  0.00     0.089 C 
ATOM     14  C   UNL     1       1.860   2.511  -1.830  1.00  0.00     0.075 C 
ATOM     15  C   UNL     1       0.226   1.736  -3.547  1.00  0.00     0.075 C 
ATOM     16  C   UNL     1       0.867   3.592  -1.407  1.00  0.00     0.263 C 
ATOM     17  C   UNL     1      -0.705   2.877  -3.128  1.00  0.00     0.263 C 
ATOM     18  H   UNL     1       0.637   4.380  -3.243  1.00  0.00     0.348 HD
BRANCH  13  19
ATOM     19  C   UNL     1       0.371   0.518  -1.323  1.00  0.00     0.220 C 
ATOM     20  N   UNL     1       1.126   0.041  -0.291  1.00  0.00    -0.369 N 
ATOM     21  H   UNL     1       0.700  -0.464   0.438  1.00  0.00     0.159 HD
ATOM     22  H   UNL     1       2.097   0.202  -0.277  1.00  0.00     0.159 HD
ATOM     23  O   UNL     1      -0.830   0.279  -1.352  1.00  0.00    -0.275 OA
ENDBRANCH  13  19
ENDBRANCH  11  12
ENDBRANCH   6  11
ENDBRANCH   3   5
ENDBRANCH   2   3
ENDBRANCH   1   2
BRANCH   1  24
ATOM     24  C   UNL     1      -6.543   3.621   4.114  1.00  0.00     0.275 C 
BRANCH  24  25
ATOM     25  O   UNL     1      -7.306   3.909   2.928  1.00  0.00    -0.458 OA
BRANCH  25  26
ATOM     26  C   UNL     1      -7.170   5.159   2.430  1.00  0.00     0.338 C 
ATOM     27  O   UNL     1      -6.524   6.080   2.903  1.00  0.00    -0.246 OA
BRANCH  26  28
ATOM     28  C   UNL     1      -7.915   5.271   1.166  1.00  0.00     0.060 A 
ATOM     29  C   UNL     1      -7.405   4.654   0.027  1.00  0.00     0.016 A 
ATOM     30  C   UNL     1      -9.041   6.084   1.074  1.00  0.00     0.016 A 
ATOM     31  C   UNL     1      -7.967   4.902  -1.222  1.00  0.00     0.010 A 
ATOM     32  C   UNL     1      -9.662   6.259  -0.170  1.00  0.00     0.010 A 
ATOM     33  C   UNL     1      -9.116   5.694  -1.339  1.00  0.00    -0.014 A 
BRANCH  33  34
ATOM     34  C   UNL     1      -9.725   5.955  -2.676  1.00  0.00     0.031 A 
ATOM     35  C   UNL     1      -9.885   7.369  -3.173  1.00  0.00     0.074 A 
ATOM     36  C   UNL     1     -10.134   4.930  -3.454  1.00  0.00     0.049 A 
ATOM     37  N   UNL     1     -10.559   7.815  -4.203  1.00  0.00    -0.248 NA
ATOM     38  C   UNL     1      -9.210   8.423  -2.399  1.00  0.00     0.031 C 
ATOM     39  C   UNL     1     -10.003   3.509  -3.125  1.00  0.00     0.029 A 
ATOM     40  N   UNL     1     -10.747   4.926  -4.684  1.00  0.00    -0.354 N 
ATOM     41  C   UNL     1     -10.440   9.200  -4.167  1.00  0.00     0.074 A 
ATOM     42  C   UNL     1      -9.630   9.522  -3.011  1.00  0.00     0.031 C 
ATOM     43  C   UNL     1     -10.491   2.774  -4.135  1.00  0.00     0.029 A 
ATOM     44  C   UNL     1     -11.054   3.665  -5.143  1.00  0.00     0.049 A 
ATOM     45  H   UNL     1     -10.948   5.747  -5.190  1.00  0.00     0.167 HD
ATOM     46  C   UNL     1     -10.960  10.118  -5.018  1.00  0.00     0.037 A 
ATOM     47  C   UNL     1     -11.754   3.264  -6.222  1.00  0.00     0.037 A 
ATOM     48  C   UNL     1     -11.718   9.787  -6.199  1.00  0.00     0.049 A 
ATOM     49  C   UNL     1     -12.344   4.298  -7.139  1.00  0.00     0.074 A 
ATOM     50  C   UNL     1     -12.270  10.643  -7.136  1.00  0.00     0.029 A 
ATOM     51  N   UNL     1     -12.018   8.497  -6.613  1.00  0.00    -0.354 N 
ATOM     52  N   UNL     1     -12.269   5.605  -7.062  1.00  0.00    -0.248 NA
ATOM     53  C   UNL     1     -13.132   3.805  -8.278  1.00  0.00     0.031 C 
ATOM     54  C   UNL     1     -12.934   9.873  -8.097  1.00  0.00     0.029 A 
ATOM     55  C   UNL     1     -12.759   8.535  -7.783  1.00  0.00     0.049 A 
ATOM     56  H   UNL     1     -11.745   7.675  -6.144  1.00  0.00     0.167 HD
ATOM     57  C   UNL     1     -12.994   6.091  -8.144  1.00  0.00     0.074 A 
ATOM     58  C   UNL     1     -13.482   4.938  -8.872  1.00  0.00     0.031 C 
ATOM     59  C   UNL     1     -13.237   7.377  -8.498  1.00  0.00     0.037 A 
BRANCH  46  60
ATOM     60  C   UNL     1     -10.761  11.572  -4.687  1.00  0.00     0.058 A 
ATOM     61  C   UNL     1      -9.517  12.208  -4.825  1.00  0.00     0.135 A 
ATOM     62  C   UNL     1     -11.847  12.351  -4.250  1.00  0.00     0.135 A 
ATOM     63  F   UNL     1      -8.443  11.509  -5.224  1.00  0.00    -0.206 F 
ATOM     64  C   UNL     1      -9.349  13.554  -4.512  1.00  0.00     0.059 A 
ATOM     65  C   UNL     1     -11.708  13.705  -3.957  1.00  0.00     0.059 A 
ATOM     66  F   UNL     1     -13.060  11.796  -4.103  1.00  0.00    -0.206 F 
ATOM     67  C   UNL     1     -10.450  14.293  -4.075  1.00  0.00     0.060 A 
BRANCH  67  68
ATOM     68  S   UNL     1     -10.217  16.037  -3.667  1.00  0.00     0.124 S 
ATOM     69  O   UNL     1      -9.524  15.945  -2.385  1.00  0.00    -0.237 OA
ATOM     70  O   UNL     1      -9.415  16.518  -4.787  1.00  0.00    -0.237 OA
ATOM     71  O   UNL     1     -11.579  16.558  -3.606  1.00  0.00    -0.744 OA
ENDBRANCH  67  68
ENDBRANCH  46  60
BRANCH  47  72
ATOM     72  C   UNL     1     -11.977   1.812  -6.458  1.00  0.00     0.058 A 
ATOM     73  C   UNL     1     -11.355   1.146  -7.524  1.00  0.00     0.135 A 
ATOM     74  C   UNL     1     -12.792   1.055  -5.601  1.00  0.00     0.135 A 
ATOM     75  F   UNL     1     -10.578   1.827  -8.380  1.00  0.00    -0.206 F 
ATOM     76  C   UNL     1     -11.534  -0.218  -7.733  1.00  0.00     0.059 A 
ATOM     77  C   UNL     1     -12.963  -0.314  -5.772  1.00  0.00     0.059 A 
ATOM     78  F   UNL     1     -13.403   1.643  -4.561  1.00  0.00    -0.206 F 
ATOM     79  C   UNL     1     -12.335  -0.942  -6.847  1.00  0.00     0.060 A 
BRANCH  79  80
ATOM     80  S   UNL     1     -12.508  -2.724  -7.084  1.00  0.00     0.124 S 
ATOM     81  O   UNL     1     -13.432  -2.782  -8.210  1.00  0.00    -0.237 OA
ATOM     82  O   UNL     1     -11.135  -3.133  -7.364  1.00  0.00    -0.237 OA
ATOM     83  O   UNL     1     -13.040  -3.181  -5.804  1.00  0.00    -0.744 OA
ENDBRANCH  79  80
ENDBRANCH  47  72
BRANCH  59  84
ATOM     84  C   UNL     1     -14.049   7.607  -9.741  1.00  0.00     0.058 A 
ATOM     85  C   UNL     1     -15.438   7.406  -9.759  1.00  0.00     0.135 A 
ATOM     86  C   UNL     1     -13.438   8.081 -10.913  1.00  0.00     0.135 A 
ATOM     87  F   UNL     1     -16.068   6.945  -8.667  1.00  0.00    -0.206 F 
ATOM     88  C   UNL     1     -16.191   7.649 -10.903  1.00  0.00     0.059 A 
ATOM     89  C   UNL     1     -14.175   8.353 -12.061  1.00  0.00     0.059 A 
ATOM     90  F   UNL     1     -12.113   8.296 -10.944  1.00  0.00    -0.206 F 
ATOM     91  C   UNL     1     -15.550   8.124 -12.049  1.00  0.00     0.060 A 
BRANCH  91  92
ATOM     92  S   UNL     1     -16.543   8.473 -13.516  1.00  0.00     0.124 S 
ATOM     93  O   UNL     1     -16.817   7.128 -14.012  1.00  0.00    -0.237 OA
ATOM     94  O   UNL     1     -17.687   9.187 -12.959  1.00  0.00    -0.237 OA
ATOM     95  O   UNL     1     -15.653   9.279 -14.345  1.00  0.00    -0.744 OA
ENDBRANCH  91  92
ENDBRANCH  59  84
ENDBRANCH  33  34
ENDBRANCH  26  28
ENDBRANCH  25  26
ENDBRANCH  24  25
ENDBRANCH   1  24
TORSDOF 17
