REMARK SMILES Cc1ccc(-c2c[nH]c(=O)cc2C(=O)OCCOC(=O)c2ccc(-c3c4nc(c(-c5c(F)cc(S(=O)(=O)[O-])cc5F)c5ccc([nH]5)c(-c5c(F)cc(S(=O)(=O)[O-])cc5F)c5nc(c(-c6c(F)cc(S(=O)(=O)[O-])cc6F)c6ccc3[nH]6)C=C5)C=C4)cc2)cc1Cl
REMARK SMILES IDX 17 1 16 2 15 3 13 4 14 5 12 6 6 7 7 8 8 9 11 10 9 11 10 13
REMARK SMILES IDX 5 14 1 15 2 16 3 17 88 18 4 19 87 20 89 21 18 22 19 23 20 24
REMARK SMILES IDX 21 25 22 26 86 27 23 28 85 29 24 30 25 31 26 32 79 33 27 34
REMARK SMILES IDX 84 35 78 36 80 37 28 38 83 39 77 40 76 41 29 43 63 44 42 45
REMARK SMILES IDX 62 46 43 47 46 48 61 49 81 50 44 51 45 52 60 54 82 55 47 56
REMARK SMILES IDX 30 57 31 58 40 59 32 60 33 61 39 62 41 63 34 64 35 65 36 66
REMARK SMILES IDX 37 67 38 68 64 69 65 70 74 71 66 72 67 73 73 74 75 75 68 76
REMARK SMILES IDX 69 77 70 78 71 79 72 80 48 81 49 82 58 83 50 84 51 85 57 86
REMARK SMILES IDX 59 87 52 88 53 89 54 90 55 91 56 92
REMARK H PARENT 8 12 80 42 46 53
REMARK Flexibility Score: inf
ROOT
ATOM      1  C   UNL     1      -5.191  -0.284  -4.303  1.00  0.00     0.275 C 
ENDROOT
BRANCH   1   2
ATOM      2  C   UNL     1      -4.928  -1.786  -4.319  1.00  0.00     0.275 C 
BRANCH   2   3
ATOM      3  O   UNL     1      -4.973  -2.312  -2.974  1.00  0.00    -0.458 OA
BRANCH   3   4
ATOM      4  C   UNL     1      -3.793  -2.770  -2.481  1.00  0.00     0.339 C 
ATOM      5  O   UNL     1      -2.739  -2.835  -3.096  1.00  0.00    -0.246 OA
BRANCH   4   6
ATOM      6  C   UNL     1      -3.949  -3.268  -1.093  1.00  0.00     0.074 A 
ATOM      7  C   UNL     1      -3.187  -2.739   0.047  1.00  0.00     0.013 A 
ATOM      8  C   UNL     1      -3.189  -3.450   1.186  1.00  0.00     0.095 A 
ATOM      9  N   UNL     1      -3.920  -4.612   1.287  1.00  0.00    -0.328 N 
ATOM     10  C   UNL     1      -4.676  -4.393  -0.998  1.00  0.00     0.087 A 
ATOM     11  C   UNL     1      -4.687  -5.137   0.278  1.00  0.00     0.248 A 
ATOM     12  H   UNL     1      -3.890  -5.099   2.142  1.00  0.00     0.169 HD
ATOM     13  O   UNL     1      -5.316  -6.183   0.387  1.00  0.00    -0.270 OA
BRANCH   7  14
ATOM     14  C   UNL     1      -2.268  -1.594  -0.052  1.00  0.00    -0.015 A 
ATOM     15  C   UNL     1       0.943   2.129  -1.784  1.00  0.00     0.046 C 
ATOM     16  C   UNL     1      -0.063   1.081  -1.431  1.00  0.00    -0.032 A 
ATOM     17  C   UNL     1      -1.511   1.570  -0.497  1.00  0.00     0.005 A 
ATOM     18  C   UNL     1       0.243  -0.631  -1.630  1.00  0.00     0.044 A 
ATOM     19  C   UNL     1      -2.700   0.133   0.294  1.00  0.00     0.009 A 
ATOM     20  C   UNL     1      -0.799  -1.908  -0.987  1.00  0.00     0.029 A 
ATOM     21  Cl  UNL     1       1.699  -1.141  -2.407  1.00  0.00    -0.084 Cl
ENDBRANCH   7  14
ENDBRANCH   4   6
ENDBRANCH   3   4
ENDBRANCH   2   3
ENDBRANCH   1   2
BRANCH   1  22
ATOM     22  O   UNL     1      -4.143   0.360  -3.559  1.00  0.00    -0.458 OA
BRANCH  22  23
ATOM     23  C   UNL     1      -4.513   0.754  -2.325  1.00  0.00     0.338 C 
ATOM     24  O   UNL     1      -5.639   0.757  -1.852  1.00  0.00    -0.246 OA
BRANCH  23  25
ATOM     25  C   UNL     1      -3.349   1.096  -1.509  1.00  0.00     0.060 A 
ATOM     26  C   UNL     1      -1.937  -0.010  -1.433  1.00  0.00     0.016 A 
ATOM     27  C   UNL     1      -3.657   2.144  -0.136  1.00  0.00     0.016 A 
ATOM     28  C   UNL     1      -0.829  -0.021   0.261  1.00  0.00     0.010 A 
ATOM     29  C   UNL     1      -2.636   2.180   1.315  1.00  0.00     0.010 A 
ATOM     30  C   UNL     1      -1.216   1.148   1.582  1.00  0.00    -0.014 A 
BRANCH  30  31
ATOM     31  C   UNL     1      -0.225   1.492   2.699  1.00  0.00     0.031 A 
ATOM     32  C   UNL     1      -0.694   2.207   3.964  1.00  0.00     0.074 A 
ATOM     33  C   UNL     1       1.119   1.347   2.555  1.00  0.00     0.049 A 
ATOM     34  N   UNL     1      -0.008   2.915   4.834  1.00  0.00    -0.248 NA
ATOM     35  C   UNL     1      -2.132   2.167   4.263  1.00  0.00     0.031 C 
ATOM     36  C   UNL     1       1.821   0.726   1.441  1.00  0.00     0.029 A 
ATOM     37  N   UNL     1       2.174   1.762   3.354  1.00  0.00    -0.354 N 
ATOM     38  C   UNL     1      -0.940   3.464   5.716  1.00  0.00     0.074 A 
ATOM     39  C   UNL     1      -2.243   3.082   5.216  1.00  0.00     0.031 C 
ATOM     40  C   UNL     1       3.141   0.780   1.601  1.00  0.00     0.029 A 
ATOM     41  C   UNL     1       3.420   1.515   2.808  1.00  0.00     0.049 A 
ATOM     42  H   UNL     1       2.047   2.192   4.231  1.00  0.00     0.167 HD
ATOM     43  C   UNL     1      -0.744   4.160   6.868  1.00  0.00     0.037 A 
ATOM     44  C   UNL     1       4.676   1.840   3.166  1.00  0.00     0.037 A 
ATOM     45  C   UNL     1       0.553   4.404   7.454  1.00  0.00     0.049 A 
ATOM     46  C   UNL     1       4.884   2.558   4.451  1.00  0.00     0.074 A 
ATOM     47  C   UNL     1       0.852   4.977   8.680  1.00  0.00     0.029 A 
ATOM     48  N   UNL     1       1.766   4.052   6.878  1.00  0.00    -0.354 N 
ATOM     49  N   UNL     1       3.982   3.053   5.259  1.00  0.00    -0.248 NA
ATOM     50  C   UNL     1       6.270   2.722   4.900  1.00  0.00     0.031 C 
ATOM     51  C   UNL     1       2.243   4.986   8.838  1.00  0.00     0.029 A 
ATOM     52  C   UNL     1       2.811   4.387   7.727  1.00  0.00     0.049 A 
ATOM     53  H   UNL     1       1.869   3.627   5.997  1.00  0.00     0.167 HD
ATOM     54  C   UNL     1       4.687   3.542   6.345  1.00  0.00     0.074 A 
ATOM     55  C   UNL     1       6.091   3.288   6.085  1.00  0.00     0.031 C 
ATOM     56  C   UNL     1       4.205   4.132   7.464  1.00  0.00     0.037 A 
BRANCH  43  57
ATOM     57  C   UNL     1      -1.965   4.658   7.614  1.00  0.00     0.058 A 
ATOM     58  C   UNL     1      -2.891   3.776   8.197  1.00  0.00     0.135 A 
ATOM     59  C   UNL     1      -2.206   6.035   7.769  1.00  0.00     0.135 A 
ATOM     60  F   UNL     1      -2.716   2.449   8.097  1.00  0.00    -0.206 F 
ATOM     61  C   UNL     1      -4.043   4.233   8.833  1.00  0.00     0.059 A 
ATOM     62  C   UNL     1      -3.333   6.517   8.438  1.00  0.00     0.059 A 
ATOM     63  F   UNL     1      -1.347   6.935   7.263  1.00  0.00    -0.206 F 
ATOM     64  C   UNL     1      -4.261   5.606   8.938  1.00  0.00     0.060 A 
BRANCH  64  65
ATOM     65  S   UNL     1      -5.781   6.179   9.729  1.00  0.00     0.124 S 
ATOM     66  O   UNL     1      -6.770   5.896   8.693  1.00  0.00    -0.237 OA
ATOM     67  O   UNL     1      -5.853   5.336  10.919  1.00  0.00    -0.237 OA
ATOM     68  O   UNL     1      -5.522   7.593   9.981  1.00  0.00    -0.744 OA
ENDBRANCH  64  65
ENDBRANCH  43  57
BRANCH  44  69
ATOM     69  C   UNL     1       5.820   1.403   2.314  1.00  0.00     0.058 A 
ATOM     70  C   UNL     1       6.612   0.309   2.692  1.00  0.00     0.135 A 
ATOM     71  C   UNL     1       6.077   1.994   1.065  1.00  0.00     0.135 A 
ATOM     72  F   UNL     1       6.395  -0.299   3.867  1.00  0.00    -0.206 F 
ATOM     73  C   UNL     1       7.627  -0.175   1.873  1.00  0.00     0.059 A 
ATOM     74  C   UNL     1       7.071   1.511   0.216  1.00  0.00     0.059 A 
ATOM     75  F   UNL     1       5.319   3.015   0.635  1.00  0.00    -0.206 F 
ATOM     76  C   UNL     1       7.846   0.429   0.634  1.00  0.00     0.060 A 
BRANCH  76  77
ATOM     77  S   UNL     1       9.133  -0.250  -0.438  1.00  0.00     0.124 S 
ATOM     78  O   UNL     1      10.344   0.131   0.281  1.00  0.00    -0.237 OA
ATOM     79  O   UNL     1       8.811  -1.673  -0.437  1.00  0.00    -0.237 OA
ATOM     80  O   UNL     1       8.912   0.436  -1.707  1.00  0.00    -0.744 OA
ENDBRANCH  76  77
ENDBRANCH  44  69
BRANCH  56  81
ATOM     81  C   UNL     1       5.211   4.491   8.514  1.00  0.00     0.058 A 
ATOM     82  C   UNL     1       6.104   5.559   8.345  1.00  0.00     0.135 A 
ATOM     83  C   UNL     1       5.289   3.745   9.700  1.00  0.00     0.135 A 
ATOM     84  F   UNL     1       6.082   6.287   7.216  1.00  0.00    -0.206 F 
ATOM     85  C   UNL     1       7.062   5.859   9.305  1.00  0.00     0.059 A 
ATOM     86  C   UNL     1       6.220   4.045  10.687  1.00  0.00     0.059 A 
ATOM     87  F   UNL     1       4.457   2.711   9.906  1.00  0.00    -0.206 F 
ATOM     88  C   UNL     1       7.112   5.095  10.473  1.00  0.00     0.060 A 
BRANCH  88  89
ATOM     89  S   UNL     1       8.344   5.510  11.723  1.00  0.00     0.124 S 
ATOM     90  O   UNL     1       9.564   4.989  11.115  1.00  0.00    -0.237 OA
ATOM     91  O   UNL     1       8.241   6.964  11.793  1.00  0.00    -0.237 OA
ATOM     92  O   UNL     1       7.878   4.797  12.908  1.00  0.00    -0.744 OA
ENDBRANCH  88  89
ENDBRANCH  56  81
ENDBRANCH  30  31
ENDBRANCH  23  25
ENDBRANCH  22  23
ENDBRANCH   1  22
TORSDOF 15
