REMARK SMILES Cc1ccc(-c2cc(Cl)cc3c2O[C@@H](C(F)(F)F)C(C(=O)OCCOC(=O)c2ccc(-c4c5nc(c(-c6c(F)cc(S(=O)(=O)[O-])cc6F)c6ccc([nH]6)c(-c6c(F)cc(S(=O)(=O)[O-])cc6F)c6nc(c(-c7c(F)cc(S(=O)(=O)[O-])cc7F)c7ccc4[nH]7)C=C6)C=C5)cc2)=C3)cc1
REMARK SMILES IDX 24 1 23 2 22 3 20 4 21 5 19 6 6 7 7 8 12 9 8 10 11 11 13 12
REMARK SMILES IDX 9 13 10 14 94 15 14 16 5 17 1 18 2 19 3 20 96 21 4 22 95 23
REMARK SMILES IDX 15 24 16 25 17 26 18 27 25 28 26 29 27 30 28 31 29 32 93 33
REMARK SMILES IDX 30 34 92 35 31 36 32 37 33 38 86 39 34 40 91 41 85 42 87 43
REMARK SMILES IDX 35 44 90 45 84 46 83 47 36 49 70 50 49 51 69 52 50 53 53 54
REMARK SMILES IDX 68 55 88 56 51 57 52 58 67 60 89 61 54 62 37 63 38 64 47 65
REMARK SMILES IDX 39 66 40 67 46 68 48 69 41 70 42 71 43 72 44 73 45 74 71 75
REMARK SMILES IDX 72 76 81 77 73 78 74 79 80 80 82 81 75 82 76 83 77 84 78 85
REMARK SMILES IDX 79 86 55 87 56 88 65 89 57 90 58 91 64 92 66 93 59 94 60 95
REMARK SMILES IDX 61 96 62 97 63 98
REMARK H PARENT 87 48 53 59
REMARK Flexibility Score: inf
ROOT
ATOM      1  C   UNL     1      -1.283  -3.804   3.366  1.00  0.00     0.275 C 
ENDROOT
BRANCH   1   2
ATOM      2  C   UNL     1      -2.044  -3.158   4.700  1.00  0.00     0.275 C 
BRANCH   2   3
ATOM      3  O   UNL     1      -3.713  -3.192   4.803  1.00  0.00    -0.459 OA
BRANCH   3   4
ATOM      4  C   UNL     1      -4.781  -1.952   4.902  1.00  0.00     0.338 C 
ATOM      5  O   UNL     1      -4.334  -0.998   5.452  1.00  0.00    -0.246 OA
BRANCH   4   6
ATOM      6  C   UNL     1      -6.519  -1.779   3.894  1.00  0.00     0.087 C 
ATOM      7  C   UNL     1      -2.900  -0.097   0.181  1.00  0.00     0.026 A 
ATOM      8  C   UNL     1      -3.655   0.793  -1.411  1.00  0.00     0.033 A 
ATOM      9  C   UNL     1      -4.208  -0.479   1.590  1.00  0.00     0.135 A 
ATOM     10  C   UNL     1      -5.537   1.245  -1.489  1.00  0.00     0.042 A 
ATOM     11  C   UNL     1      -6.205  -0.347   1.296  1.00  0.00     0.019 A 
ATOM     12  O   UNL     1      -4.166  -1.661   3.263  1.00  0.00    -0.475 OA
ATOM     13  Cl  UNL     1      -6.138   1.884  -2.985  1.00  0.00    -0.084 Cl
ATOM     14  C   UNL     1      -6.838   0.545  -0.260  1.00  0.00     0.032 A 
ATOM     15  C   UNL     1      -7.180  -1.260   2.594  1.00  0.00     0.027 C 
ATOM     16  C   UNL     1      -5.638  -2.814   4.025  1.00  0.00     0.316 C 
BRANCH   7  17
ATOM     17  C   UNL     1      -1.392  -0.293   0.032  1.00  0.00    -0.015 A 
ATOM     18  C   UNL     1       2.891  -0.183   0.039  1.00  0.00     0.044 C 
ATOM     19  C   UNL     1       1.420  -0.286   0.042  1.00  0.00    -0.051 A 
ATOM     20  C   UNL     1       0.701  -1.490   0.026  1.00  0.00     0.004 A 
ATOM     21  C   UNL     1       0.761   0.881  -0.160  1.00  0.00     0.004 A 
ATOM     22  C   UNL     1      -0.705  -1.485   0.007  1.00  0.00     0.009 A 
ATOM     23  C   UNL     1      -0.566   0.756  -0.411  1.00  0.00     0.009 A 
ENDBRANCH   7  17
BRANCH  16  24
ATOM     24  C   UNL     1      -6.448  -2.467   5.822  1.00  0.00     0.430 C 
ATOM     25  F   UNL     1      -6.860  -1.122   5.856  1.00  0.00    -0.167 F 
ATOM     26  F   UNL     1      -7.492  -3.101   6.356  1.00  0.00    -0.167 F 
ATOM     27  F   UNL     1      -5.458  -2.586   6.785  1.00  0.00    -0.167 F 
ENDBRANCH  16  24
ENDBRANCH   4   6
ENDBRANCH   3   4
ENDBRANCH   2   3
ENDBRANCH   1   2
BRANCH   1  28
ATOM     28  O   UNL     1      -1.463  -3.400   2.000  1.00  0.00    -0.458 OA
BRANCH  28  29
ATOM     29  C   UNL     1      -2.698  -3.544   1.501  1.00  0.00     0.338 C 
ATOM     30  O   UNL     1      -3.198  -4.479   0.924  1.00  0.00    -0.246 OA
BRANCH  29  31
ATOM     31  C   UNL     1      -3.295  -2.337   1.885  1.00  0.00     0.060 A 
ATOM     32  C   UNL     1      -5.113  -2.009   1.975  1.00  0.00     0.016 A 
ATOM     33  C   UNL     1      -2.291  -1.213   2.895  1.00  0.00     0.016 A 
ATOM     34  C   UNL     1      -5.225  -0.300   3.127  1.00  0.00     0.010 A 
ATOM     35  C   UNL     1      -2.746  -0.064   3.969  1.00  0.00     0.010 A 
ATOM     36  C   UNL     1      -4.065   0.707   4.017  1.00  0.00    -0.014 A 
BRANCH  36  37
ATOM     37  C   UNL     1      -2.894   1.697   4.889  1.00  0.00     0.031 A 
ATOM     38  C   UNL     1      -3.915   1.419   6.475  1.00  0.00     0.074 A 
ATOM     39  C   UNL     1      -1.511   2.381   4.280  1.00  0.00     0.049 A 
ATOM     40  N   UNL     1      -4.733   2.217   7.155  1.00  0.00    -0.248 NA
ATOM     41  C   UNL     1      -4.588   0.056   7.200  1.00  0.00     0.031 C 
ATOM     42  C   UNL     1      -0.132   3.424   4.701  1.00  0.00     0.029 A 
ATOM     43  N   UNL     1      -1.078   2.572   2.860  1.00  0.00    -0.354 N 
ATOM     44  C   UNL     1      -4.885   1.621   8.508  1.00  0.00     0.074 A 
ATOM     45  C   UNL     1      -5.074   0.247   8.422  1.00  0.00     0.031 C 
ATOM     46  C   UNL     1       0.148   4.385   3.730  1.00  0.00     0.029 A 
ATOM     47  C   UNL     1      -0.719   3.987   2.663  1.00  0.00     0.049 A 
ATOM     48  H   UNL     1      -1.040   1.869   2.171  1.00  0.00     0.167 HD
ATOM     49  C   UNL     1      -4.121   2.044   9.549  1.00  0.00     0.037 A 
ATOM     50  C   UNL     1      -1.758   4.785   2.346  1.00  0.00     0.037 A 
ATOM     51  C   UNL     1      -3.180   2.928   8.940  1.00  0.00     0.049 A 
ATOM     52  C   UNL     1      -2.099   5.479   3.579  1.00  0.00     0.074 A 
ATOM     53  C   UNL     1      -1.859   2.771   8.608  1.00  0.00     0.029 A 
ATOM     54  N   UNL     1      -3.680   3.980   8.209  1.00  0.00    -0.354 N 
ATOM     55  N   UNL     1      -2.350   4.954   4.740  1.00  0.00    -0.248 NA
ATOM     56  C   UNL     1      -2.141   6.895   3.454  1.00  0.00     0.031 C 
ATOM     57  C   UNL     1      -1.542   3.886   7.794  1.00  0.00     0.029 A 
ATOM     58  C   UNL     1      -2.687   4.630   7.540  1.00  0.00     0.049 A 
ATOM     59  H   UNL     1      -4.632   4.231   8.173  1.00  0.00     0.167 HD
ATOM     60  C   UNL     1      -2.728   5.972   5.533  1.00  0.00     0.074 A 
ATOM     61  C   UNL     1      -2.802   7.063   4.586  1.00  0.00     0.031 C 
ATOM     62  C   UNL     1      -3.024   5.864   6.853  1.00  0.00     0.037 A 
BRANCH  49  63
ATOM     63  C   UNL     1      -3.917   1.565  10.983  1.00  0.00     0.058 A 
ATOM     64  C   UNL     1      -3.070   2.403  11.749  1.00  0.00     0.135 A 
ATOM     65  C   UNL     1      -4.477   0.487  11.712  1.00  0.00     0.135 A 
ATOM     66  F   UNL     1      -2.470   3.471  11.206  1.00  0.00    -0.206 F 
ATOM     67  C   UNL     1      -2.803   2.234  13.096  1.00  0.00     0.059 A 
ATOM     68  C   UNL     1      -4.245   0.316  13.095  1.00  0.00     0.059 A 
ATOM     69  F   UNL     1      -5.257  -0.446  11.144  1.00  0.00    -0.206 F 
ATOM     70  C   UNL     1      -3.406   1.195  13.775  1.00  0.00     0.060 A 
BRANCH  70  71
ATOM     71  S   UNL     1      -3.057   1.010  15.532  1.00  0.00     0.124 S 
ATOM     72  O   UNL     1      -1.612   0.806  15.535  1.00  0.00    -0.237 OA
ATOM     73  O   UNL     1      -3.520   2.280  16.081  1.00  0.00    -0.237 OA
ATOM     74  O   UNL     1      -3.849  -0.157  15.912  1.00  0.00    -0.744 OA
ENDBRANCH  70  71
ENDBRANCH  49  63
BRANCH  50  75
ATOM     75  C   UNL     1      -2.735   3.980   1.641  1.00  0.00     0.058 A 
ATOM     76  C   UNL     1      -2.235   3.417   0.518  1.00  0.00     0.135 A 
ATOM     77  C   UNL     1      -3.833   3.357   2.236  1.00  0.00     0.135 A 
ATOM     78  F   UNL     1      -0.969   3.624   0.080  1.00  0.00    -0.206 F 
ATOM     79  C   UNL     1      -2.882   2.338   0.009  1.00  0.00     0.059 A 
ATOM     80  C   UNL     1      -4.459   2.201   1.683  1.00  0.00     0.059 A 
ATOM     81  F   UNL     1      -4.213   3.741   3.465  1.00  0.00    -0.206 F 
ATOM     82  C   UNL     1      -4.003   1.518   0.455  1.00  0.00     0.060 A 
BRANCH  82  83
ATOM     83  S   UNL     1      -4.775  -0.660  -0.567  1.00  0.00     0.124 S 
ATOM     84  O   UNL     1      -5.227  -0.801  -1.967  1.00  0.00    -0.237 OA
ATOM     85  O   UNL     1      -4.019  -1.877  -0.280  1.00  0.00    -0.237 OA
ATOM     86  O   UNL     1      -5.114   0.564   0.233  1.00  0.00    -0.744 OA
ENDBRANCH  82  83
ENDBRANCH  50  75
BRANCH  62  87
ATOM     87  C   UNL     1      -3.688   7.009   7.574  1.00  0.00     0.058 A 
ATOM     88  C   UNL     1      -3.734   8.324   7.077  1.00  0.00     0.135 A 
ATOM     89  C   UNL     1      -4.290   6.861   8.839  1.00  0.00     0.135 A 
ATOM     90  F   UNL     1      -2.929   8.796   6.125  1.00  0.00    -0.206 F 
ATOM     91  C   UNL     1      -4.458   9.338   7.642  1.00  0.00     0.059 A 
ATOM     92  C   UNL     1      -4.909   7.909   9.504  1.00  0.00     0.059 A 
ATOM     93  F   UNL     1      -4.264   5.725   9.543  1.00  0.00    -0.206 F 
ATOM     94  C   UNL     1      -4.999   9.139   8.885  1.00  0.00     0.060 A 
BRANCH  94  95
ATOM     95  S   UNL     1      -5.670  10.577   9.682  1.00  0.00     0.124 S 
ATOM     96  O   UNL     1      -4.519  11.477   9.692  1.00  0.00    -0.237 OA
ATOM     97  O   UNL     1      -6.742  10.940   8.761  1.00  0.00    -0.237 OA
ATOM     98  O   UNL     1      -6.090  10.074  10.983  1.00  0.00    -0.744 OA
ENDBRANCH  94  95
ENDBRANCH  62  87
ENDBRANCH  36  37
ENDBRANCH  29  31
ENDBRANCH  28  29
ENDBRANCH   1  28
TORSDOF 16
