REMARK SMILES CC[NH2+][C@@]1(C(=O)OCCOC(=O)c2ccc(-c3c4nc(c(-c5c(F)cc(S(=O)(=O)[O-])cc5F)c5ccc([nH]5)c(-c5c(F)cc(S(=O)(=O)[O-])cc5F)c5nc(c(-c6c(F)cc(S(=O)(=O)[O-])cc6F)c6ccc3[nH]6)C=C5)C=C4)cc2)CCC[C@H]1CC[NH+]1CCCCC1
REMARK SMILES IDX 8 1 7 2 5 3 6 4 4 5 79 6 82 7 80 8 81 9 3 10 2 13 1 14 83 15
REMARK SMILES IDX 84 16 85 17 86 18 90 19 87 21 89 22 88 23 9 24 10 25 11 26
REMARK SMILES IDX 12 27 13 28 14 29 78 30 15 31 77 32 16 33 17 34 18 35 71 36
REMARK SMILES IDX 19 37 76 38 70 39 72 40 20 41 75 42 69 43 68 44 21 46 55 47
REMARK SMILES IDX 34 48 54 49 35 50 38 51 53 52 73 53 36 54 37 55 52 57 74 58
REMARK SMILES IDX 39 59 22 60 23 61 32 62 24 63 25 64 31 65 33 66 26 67 27 68
REMARK SMILES IDX 28 69 29 70 30 71 56 72 57 73 66 74 58 75 59 76 65 77 67 78
REMARK SMILES IDX 60 79 61 80 62 81 63 82 64 83 40 84 41 85 50 86 42 87 43 88
REMARK SMILES IDX 49 89 51 90 44 91 45 92 46 93 47 94 48 95
REMARK H PARENT 3 11 3 12 85 20 72 45 38 56
REMARK Flexibility Score: inf
ROOT
ATOM      1  C   UNL     1      -3.001  -1.466  -4.028  1.00  0.00     0.274 C 
ENDROOT
BRANCH   1   2
ATOM      2  O   UNL     1      -1.607  -1.802  -3.891  1.00  0.00    -0.457 OA
BRANCH   2   3
ATOM      3  C   UNL     1      -0.753  -0.758  -3.693  1.00  0.00     0.368 C 
ATOM      4  O   UNL     1      -1.113   0.416  -3.692  1.00  0.00    -0.245 OA
BRANCH   3   5
ATOM      5  C   UNL     1       0.757  -1.204  -3.575  1.00  0.00     0.197 C 
ATOM      6  C   UNL     1       1.502  -0.526  -4.740  1.00  0.00     0.081 C 
ATOM      7  C   UNL     1       0.961  -2.733  -3.901  1.00  0.00     0.068 C 
ATOM      8  C   UNL     1       1.077  -1.340  -5.952  1.00  0.00     0.008 C 
ATOM      9  C   UNL     1       1.015  -2.779  -5.454  1.00  0.00     0.011 C 
BRANCH   5  10
ATOM     10  N   UNL     1       1.315  -0.823  -2.253  1.00  0.00    -0.332 N 
ATOM     11  H   UNL     1       0.860  -1.399  -1.544  1.00  0.00     0.347 HD
ATOM     12  H   UNL     1       2.322  -0.971  -2.326  1.00  0.00     0.347 HD
BRANCH  10  13
ATOM     13  C   UNL     1       1.148   0.583  -1.865  1.00  0.00     0.257 C 
ATOM     14  C   UNL     1       1.929   0.878  -0.590  1.00  0.00     0.071 C 
ENDBRANCH  10  13
ENDBRANCH   5  10
BRANCH   7  15
ATOM     15  C   UNL     1       2.229  -3.440  -3.344  1.00  0.00     0.072 C 
BRANCH  15  16
ATOM     16  C   UNL     1       2.205  -3.891  -1.868  1.00  0.00     0.262 C 
BRANCH  16  17
ATOM     17  N   UNL     1       1.538  -5.145  -1.505  1.00  0.00    -0.335 N 
ATOM     18  C   UNL     1       0.108  -5.200  -1.786  1.00  0.00     0.262 C 
ATOM     19  C   UNL     1       2.219  -6.361  -1.950  1.00  0.00     0.262 C 
ATOM     20  H   UNL     1       1.619  -5.126  -0.488  1.00  0.00     0.348 HD
ATOM     21  C   UNL     1      -0.536  -6.351  -1.018  1.00  0.00     0.062 C 
ATOM     22  C   UNL     1       1.627  -7.596  -1.256  1.00  0.00     0.062 C 
ATOM     23  C   UNL     1       0.110  -7.674  -1.407  1.00  0.00     0.012 C 
ENDBRANCH  16  17
ENDBRANCH  15  16
ENDBRANCH   7  15
ENDBRANCH   3   5
ENDBRANCH   2   3
ENDBRANCH   1   2
BRANCH   1  24
ATOM     24  C   UNL     1      -3.812  -2.177  -2.952  1.00  0.00     0.275 C 
BRANCH  24  25
ATOM     25  O   UNL     1      -3.207  -1.936  -1.671  1.00  0.00    -0.458 OA
BRANCH  25  26
ATOM     26  C   UNL     1      -3.006  -3.038  -0.917  1.00  0.00     0.338 C 
ATOM     27  O   UNL     1      -3.391  -4.177  -1.151  1.00  0.00    -0.246 OA
BRANCH  26  28
ATOM     28  C   UNL     1      -2.218  -2.687   0.272  1.00  0.00     0.060 A 
ATOM     29  C   UNL     1      -0.911  -2.222   0.122  1.00  0.00     0.016 A 
ATOM     30  C   UNL     1      -2.737  -2.939   1.542  1.00  0.00     0.016 A 
ATOM     31  C   UNL     1      -0.100  -2.051   1.241  1.00  0.00     0.010 A 
ATOM     32  C   UNL     1      -1.943  -2.705   2.668  1.00  0.00     0.010 A 
ATOM     33  C   UNL     1      -0.614  -2.274   2.524  1.00  0.00    -0.014 A 
BRANCH  33  34
ATOM     34  C   UNL     1       0.234  -2.042   3.717  1.00  0.00     0.031 A 
ATOM     35  C   UNL     1       0.781  -3.200   4.498  1.00  0.00     0.074 A 
ATOM     36  C   UNL     1       0.514  -0.780   4.092  1.00  0.00     0.049 A 
ATOM     37  N   UNL     1       1.429  -3.193   5.635  1.00  0.00    -0.248 NA
ATOM     38  C   UNL     1       0.580  -4.539   3.925  1.00  0.00     0.031 C 
ATOM     39  C   UNL     1       0.094   0.426   3.377  1.00  0.00     0.029 A 
ATOM     40  N   UNL     1       1.213  -0.303   5.172  1.00  0.00    -0.354 N 
ATOM     41  C   UNL     1       1.699  -4.524   5.926  1.00  0.00     0.074 A 
ATOM     42  C   UNL     1       1.141  -5.312   4.846  1.00  0.00     0.031 C 
ATOM     43  C   UNL     1       0.544   1.505   4.037  1.00  0.00     0.029 A 
ATOM     44  C   UNL     1       1.234   1.069   5.247  1.00  0.00     0.049 A 
ATOM     45  H   UNL     1       1.656  -0.887   5.829  1.00  0.00     0.167 HD
ATOM     46  C   UNL     1       2.349  -5.037   6.998  1.00  0.00     0.037 A 
ATOM     47  C   UNL     1       1.722   1.883   6.203  1.00  0.00     0.037 A 
ATOM     48  C   UNL     1       2.905  -4.249   8.068  1.00  0.00     0.049 A 
ATOM     49  C   UNL     1       2.368   1.285   7.422  1.00  0.00     0.074 A 
ATOM     50  C   UNL     1       3.562  -4.682   9.207  1.00  0.00     0.029 A 
ATOM     51  N   UNL     1       2.870  -2.863   8.132  1.00  0.00    -0.354 N 
ATOM     52  N   UNL     1       2.579   0.023   7.708  1.00  0.00    -0.248 NA
ATOM     53  C   UNL     1       2.827   2.223   8.457  1.00  0.00     0.031 C 
ATOM     54  C   UNL     1       3.896  -3.560   9.975  1.00  0.00     0.029 A 
ATOM     55  C   UNL     1       3.478  -2.426   9.298  1.00  0.00     0.049 A 
ATOM     56  H   UNL     1       2.472  -2.277   7.449  1.00  0.00     0.167 HD
ATOM     57  C   UNL     1       3.205   0.014   8.949  1.00  0.00     0.074 A 
ATOM     58  C   UNL     1       3.352   1.398   9.353  1.00  0.00     0.031 C 
ATOM     59  C   UNL     1       3.617  -1.045   9.688  1.00  0.00     0.037 A 
BRANCH  46  60
ATOM     60  C   UNL     1       2.458  -6.532   7.087  1.00  0.00     0.058 A 
ATOM     61  C   UNL     1       3.381  -7.252   6.313  1.00  0.00     0.135 A 
ATOM     62  C   UNL     1       1.645  -7.250   7.978  1.00  0.00     0.135 A 
ATOM     63  F   UNL     1       4.172  -6.614   5.437  1.00  0.00    -0.206 F 
ATOM     64  C   UNL     1       3.479  -8.637   6.404  1.00  0.00     0.059 A 
ATOM     65  C   UNL     1       1.738  -8.633   8.098  1.00  0.00     0.059 A 
ATOM     66  F   UNL     1       0.746  -6.607   8.740  1.00  0.00    -0.206 F 
ATOM     67  C   UNL     1       2.648  -9.320   7.296  1.00  0.00     0.060 A 
BRANCH  67  68
ATOM     68  S   UNL     1       2.777 -11.118   7.402  1.00  0.00     0.124 S 
ATOM     69  O   UNL     1       2.070 -11.531   6.194  1.00  0.00    -0.237 OA
ATOM     70  O   UNL     1       4.220 -11.333   7.396  1.00  0.00    -0.237 OA
ATOM     71  O   UNL     1       2.107 -11.432   8.660  1.00  0.00    -0.744 OA
ENDBRANCH  67  68
ENDBRANCH  46  60
BRANCH  47  72
ATOM     72  C   UNL     1       1.583   3.354   6.061  1.00  0.00     0.058 A 
ATOM     73  C   UNL     1       2.699   4.162   5.800  1.00  0.00     0.135 A 
ATOM     74  C   UNL     1       0.332   3.979   6.176  1.00  0.00     0.135 A 
ATOM     75  F   UNL     1       3.917   3.609   5.692  1.00  0.00    -0.206 F 
ATOM     76  C   UNL     1       2.581   5.541   5.666  1.00  0.00     0.059 A 
ATOM     77  C   UNL     1       0.186   5.353   6.023  1.00  0.00     0.059 A 
ATOM     78  F   UNL     1      -0.767   3.246   6.415  1.00  0.00    -0.206 F 
ATOM     79  C   UNL     1       1.319   6.128   5.779  1.00  0.00     0.060 A 
BRANCH  79  80
ATOM     80  S   UNL     1       1.163   7.913   5.555  1.00  0.00     0.124 S 
ATOM     81  O   UNL     1       1.608   8.410   6.851  1.00  0.00    -0.237 OA
ATOM     82  O   UNL     1       2.060   8.165   4.431  1.00  0.00    -0.237 OA
ATOM     83  O   UNL     1      -0.257   8.088   5.263  1.00  0.00    -0.744 OA
ENDBRANCH  79  80
ENDBRANCH  47  72
BRANCH  59  84
ATOM     84  C   UNL     1       4.283  -0.747  11.001  1.00  0.00     0.058 A 
ATOM     85  C   UNL     1       3.542  -0.354  12.126  1.00  0.00     0.135 A 
ATOM     86  C   UNL     1       5.672  -0.890  11.146  1.00  0.00     0.135 A 
ATOM     87  F   UNL     1       2.212  -0.194  12.036  1.00  0.00    -0.206 F 
ATOM     88  C   UNL     1       4.157  -0.094  13.346  1.00  0.00     0.059 A 
ATOM     89  C   UNL     1       6.306  -0.655  12.362  1.00  0.00     0.059 A 
ATOM     90  F   UNL     1       6.425  -1.271  10.101  1.00  0.00    -0.206 F 
ATOM     91  C   UNL     1       5.541  -0.246  13.454  1.00  0.00     0.060 A 
BRANCH  91  92
ATOM     92  S   UNL     1       6.330   0.063  15.049  1.00  0.00     0.124 S 
ATOM     93  O   UNL     1       6.383   1.521  15.072  1.00  0.00    -0.237 OA
ATOM     94  O   UNL     1       5.397  -0.551  15.988  1.00  0.00    -0.237 OA
ATOM     95  O   UNL     1       7.618  -0.612  14.925  1.00  0.00    -0.744 OA
ENDBRANCH  91  92
ENDBRANCH  59  84
ENDBRANCH  33  34
ENDBRANCH  26  28
ENDBRANCH  25  26
ENDBRANCH  24  25
ENDBRANCH   1  24
TORSDOF 19
