REMARK SMILES O=C(CCc1cccnc1)Nc1ccsc1C(=O)OCCOC(=O)c1ccc(-c2c3nc(c(-c4c(F)cc(S(=O)(=O)[O-])cc4F)c4ccc([nH]4)c(-c4c(F)cc(S(=O)(=O)[O-])cc4F)c4nc(c(-c5c(F)cc(S(=O)(=O)[O-])cc5F)c5ccc2[nH]5)C=C4)C=C3)cc1
REMARK SMILES IDX 20 1 19 2 17 3 18 4 16 5 12 6 13 7 14 8 15 9 11 10 1 11 2 12
REMARK SMILES IDX 3 14 4 15 5 16 6 17 10 18 7 19 9 20 8 21 21 22 22 23 23 24
REMARK SMILES IDX 24 25 25 26 26 27 90 28 27 29 89 30 28 31 29 32 30 33 83 34
REMARK SMILES IDX 31 35 88 36 82 37 84 38 32 39 87 40 81 41 80 42 33 44 67 45
REMARK SMILES IDX 46 46 66 47 47 48 50 49 65 50 85 51 48 52 49 53 64 55 86 56
REMARK SMILES IDX 51 57 34 58 35 59 44 60 36 61 37 62 43 63 45 64 38 65 39 66
REMARK SMILES IDX 40 67 41 68 42 69 68 70 69 71 78 72 70 73 71 74 77 75 79 76
REMARK SMILES IDX 72 77 73 78 74 79 75 80 76 81 52 82 53 83 62 84 54 85 55 86
REMARK SMILES IDX 61 87 63 88 56 89 57 90 58 91 59 92 60 93
REMARK H PARENT 11 13 84 43 50 54
REMARK Flexibility Score: inf
ROOT
ATOM      1  C   UNL     1       5.021   4.765   0.312  1.00  0.00     0.275 C 
ENDROOT
BRANCH   1   2
ATOM      2  O   UNL     1       4.125   3.701   0.715  1.00  0.00    -0.458 OA
BRANCH   2   3
ATOM      3  C   UNL     1       4.072   3.468   2.065  1.00  0.00     0.350 C 
ATOM      4  O   UNL     1       4.864   3.969   2.857  1.00  0.00    -0.245 OA
BRANCH   3   5
ATOM      5  C   UNL     1       2.921   2.650   2.414  1.00  0.00     0.136 A 
ATOM      6  C   UNL     1       2.280   1.589   1.778  1.00  0.00     0.066 A 
ATOM      7  C   UNL     1       1.064   1.245   2.457  1.00  0.00     0.039 A 
ATOM      8  C   UNL     1       0.864   1.963   3.611  1.00  0.00     0.068 A 
ATOM      9  S   UNL     1       2.152   3.029   3.916  1.00  0.00    -0.135 S 
BRANCH   6  10
ATOM     10  N   UNL     1       2.801   0.915   0.670  1.00  0.00    -0.325 N 
ATOM     11  O   UNL     1       0.932  -0.297   0.014  1.00  0.00    -0.275 OA
ATOM     12  C   UNL     1       2.138  -0.062  -0.049  1.00  0.00     0.224 C 
ATOM     13  H   UNL     1       3.710   1.155   0.378  1.00  0.00     0.169 HD
BRANCH  12  14
ATOM     14  C   UNL     1       3.016  -0.992  -0.879  1.00  0.00     0.105 C 
BRANCH  14  15
ATOM     15  C   UNL     1       4.078  -0.350  -1.771  1.00  0.00     0.047 C 
BRANCH  15  16
ATOM     16  C   UNL     1       5.344  -0.015  -1.026  1.00  0.00    -0.029 A 
ATOM     17  C   UNL     1       5.787   1.302  -0.905  1.00  0.00     0.007 A 
ATOM     18  C   UNL     1       6.081  -1.000  -0.372  1.00  0.00     0.114 A 
ATOM     19  C   UNL     1       6.866   1.586  -0.073  1.00  0.00     0.020 A 
ATOM     20  N   UNL     1       7.132  -0.749   0.437  1.00  0.00    -0.264 NA
ATOM     21  C   UNL     1       7.485   0.542   0.590  1.00  0.00     0.111 A 
ENDBRANCH  15  16
ENDBRANCH  14  15
ENDBRANCH  12  14
ENDBRANCH   6  10
ENDBRANCH   3   5
ENDBRANCH   2   3
ENDBRANCH   1   2
BRANCH   1  22
ATOM     22  C   UNL     1       4.485   5.498  -0.922  1.00  0.00     0.275 C 
BRANCH  22  23
ATOM     23  O   UNL     1       3.496   6.452  -0.506  1.00  0.00    -0.458 OA
BRANCH  23  24
ATOM     24  C   UNL     1       2.269   5.916  -0.310  1.00  0.00     0.338 C 
ATOM     25  O   UNL     1       1.874   4.832  -0.702  1.00  0.00    -0.246 OA
BRANCH  24  26
ATOM     26  C   UNL     1       1.577   6.732   0.697  1.00  0.00     0.060 A 
ATOM     27  C   UNL     1       1.084   6.059   1.816  1.00  0.00     0.016 A 
ATOM     28  C   UNL     1       1.418   8.113   0.563  1.00  0.00     0.016 A 
ATOM     29  C   UNL     1       0.398   6.755   2.800  1.00  0.00     0.010 A 
ATOM     30  C   UNL     1       0.724   8.814   1.553  1.00  0.00     0.010 A 
ATOM     31  C   UNL     1       0.188   8.132   2.661  1.00  0.00    -0.014 A 
BRANCH  31  32
ATOM     32  C   UNL     1      -0.708   8.821   3.617  1.00  0.00     0.031 A 
ATOM     33  C   UNL     1      -2.080   9.229   3.160  1.00  0.00     0.074 A 
ATOM     34  C   UNL     1      -0.315   9.015   4.889  1.00  0.00     0.049 A 
ATOM     35  N   UNL     1      -3.008   9.885   3.804  1.00  0.00    -0.248 NA
ATOM     36  C   UNL     1      -2.455   8.852   1.786  1.00  0.00     0.031 C 
ATOM     37  C   UNL     1       0.977   8.607   5.444  1.00  0.00     0.029 A 
ATOM     38  N   UNL     1      -0.966   9.594   5.947  1.00  0.00    -0.354 N 
ATOM     39  C   UNL     1      -4.064  10.023   2.909  1.00  0.00     0.074 A 
ATOM     40  C   UNL     1      -3.652   9.406   1.668  1.00  0.00     0.031 C 
ATOM     41  C   UNL     1       1.019   8.939   6.745  1.00  0.00     0.029 A 
ATOM     42  C   UNL     1      -0.218   9.627   7.101  1.00  0.00     0.049 A 
ATOM     43  H   UNL     1      -1.880   9.953   5.887  1.00  0.00     0.167 HD
ATOM     44  C   UNL     1      -5.269  10.606   3.113  1.00  0.00     0.037 A 
ATOM     45  C   UNL     1      -0.495  10.175   8.299  1.00  0.00     0.037 A 
ATOM     46  C   UNL     1      -5.665  11.193   4.368  1.00  0.00     0.049 A 
ATOM     47  C   UNL     1      -1.825  10.854   8.488  1.00  0.00     0.074 A 
ATOM     48  C   UNL     1      -6.862  11.804   4.695  1.00  0.00     0.029 A 
ATOM     49  N   UNL     1      -4.870  11.237   5.506  1.00  0.00    -0.354 N 
ATOM     50  N   UNL     1      -2.809  10.995   7.630  1.00  0.00    -0.248 NA
ATOM     51  C   UNL     1      -2.084  11.451   9.804  1.00  0.00     0.031 C 
ATOM     52  C   UNL     1      -6.771  12.261   6.014  1.00  0.00     0.029 A 
ATOM     53  C   UNL     1      -5.541  11.884   6.530  1.00  0.00     0.049 A 
ATOM     54  H   UNL     1      -3.962  10.862   5.575  1.00  0.00     0.167 HD
ATOM     55  C   UNL     1      -3.810  11.682   8.307  1.00  0.00     0.074 A 
ATOM     56  C   UNL     1      -3.320  11.905   9.653  1.00  0.00     0.031 C 
ATOM     57  C   UNL     1      -5.023  12.097   7.859  1.00  0.00     0.037 A 
BRANCH  44  58
ATOM     58  C   UNL     1      -6.221  10.670   1.950  1.00  0.00     0.058 A 
ATOM     59  C   UNL     1      -6.856   9.527   1.439  1.00  0.00     0.135 A 
ATOM     60  C   UNL     1      -6.518  11.903   1.345  1.00  0.00     0.135 A 
ATOM     61  F   UNL     1      -6.595   8.318   1.962  1.00  0.00    -0.206 F 
ATOM     62  C   UNL     1      -7.728   9.599   0.356  1.00  0.00     0.059 A 
ATOM     63  C   UNL     1      -7.409  12.003   0.280  1.00  0.00     0.059 A 
ATOM     64  F   UNL     1      -5.935  13.030   1.786  1.00  0.00    -0.206 F 
ATOM     65  C   UNL     1      -7.999  10.843  -0.217  1.00  0.00     0.060 A 
BRANCH  65  66
ATOM     66  S   UNL     1      -9.136  10.921  -1.617  1.00  0.00     0.124 S 
ATOM     67  O   UNL     1      -8.334  10.322  -2.679  1.00  0.00    -0.237 OA
ATOM     68  O   UNL     1     -10.264  10.123  -1.147  1.00  0.00    -0.237 OA
ATOM     69  O   UNL     1      -9.400  12.350  -1.762  1.00  0.00    -0.744 OA
ENDBRANCH  65  66
ENDBRANCH  44  58
BRANCH  45  70
ATOM     70  C   UNL     1       0.510  10.121   9.395  1.00  0.00     0.058 A 
ATOM     71  C   UNL     1       0.288   9.363  10.554  1.00  0.00     0.135 A 
ATOM     72  C   UNL     1       1.725  10.819   9.298  1.00  0.00     0.135 A 
ATOM     73  F   UNL     1      -0.861   8.685  10.701  1.00  0.00    -0.206 F 
ATOM     74  C   UNL     1       1.225   9.309  11.582  1.00  0.00     0.059 A 
ATOM     75  C   UNL     1       2.690  10.757  10.298  1.00  0.00     0.059 A 
ATOM     76  F   UNL     1       1.995  11.552   8.206  1.00  0.00    -0.206 F 
ATOM     77  C   UNL     1       2.426  10.007  11.442  1.00  0.00     0.060 A 
BRANCH  77  78
ATOM     78  S   UNL     1       3.655   9.893  12.760  1.00  0.00     0.124 S 
ATOM     79  O   UNL     1       3.040  10.700  13.807  1.00  0.00    -0.237 OA
ATOM     80  O   UNL     1       3.706   8.456  13.009  1.00  0.00    -0.237 OA
ATOM     81  O   UNL     1       4.855  10.458  12.150  1.00  0.00    -0.744 OA
ENDBRANCH  77  78
ENDBRANCH  45  70
BRANCH  57  82
ATOM     82  C   UNL     1      -5.904  12.809   8.848  1.00  0.00     0.058 A 
ATOM     83  C   UNL     1      -5.612  14.107   9.296  1.00  0.00     0.135 A 
ATOM     84  C   UNL     1      -7.066  12.191   9.339  1.00  0.00     0.135 A 
ATOM     85  F   UNL     1      -4.512  14.741   8.860  1.00  0.00    -0.206 F 
ATOM     86  C   UNL     1      -6.417  14.750  10.230  1.00  0.00     0.059 A 
ATOM     87  C   UNL     1      -7.902  12.829  10.248  1.00  0.00     0.059 A 
ATOM     88  F   UNL     1      -7.400  10.956   8.931  1.00  0.00    -0.206 F 
ATOM     89  C   UNL     1      -7.558  14.101  10.704  1.00  0.00     0.060 A 
BRANCH  89  90
ATOM     90  S   UNL     1      -8.593  14.945  11.916  1.00  0.00     0.124 S 
ATOM     91  O   UNL     1      -7.779  14.837  13.122  1.00  0.00    -0.237 OA
ATOM     92  O   UNL     1      -8.711  16.285  11.348  1.00  0.00    -0.237 OA
ATOM     93  O   UNL     1      -9.825  14.161  11.917  1.00  0.00    -0.744 OA
ENDBRANCH  89  90
ENDBRANCH  57  82
ENDBRANCH  31  32
ENDBRANCH  24  26
ENDBRANCH  23  24
ENDBRANCH  22  23
ENDBRANCH   1  22
TORSDOF 18
