REMARK SMILES Cc1c(F)cc(C(=O)OCCOC(=O)c2ccc(-c3c4nc(c(-c5c(F)cc(S(=O)(=O)[O-])cc5F)c5ccc([nH]5)c(-c5c(F)cc(S(=O)(=O)[O-])cc5F)c5nc(c(-c6c(F)cc(S(=O)(=O)[O-])cc6F)c6ccc3[nH]6)C=C5)C=C4)cc2)cc1S(=O)(=O)NC#N
REMARK SMILES IDX 10 1 9 2 7 3 8 4 6 5 1 6 2 7 3 8 82 9 4 10 5 11 81 12 83 13
REMARK SMILES IDX 84 14 85 15 86 16 87 18 88 19 11 20 12 21 13 22 14 23 15 24
REMARK SMILES IDX 16 25 80 26 17 27 79 28 18 29 19 30 20 31 73 32 21 33 78 34
REMARK SMILES IDX 72 35 74 36 22 37 77 38 71 39 70 40 23 42 57 43 36 44 56 45
REMARK SMILES IDX 37 46 40 47 55 48 75 49 38 50 39 51 54 53 76 54 41 55 24 56
REMARK SMILES IDX 25 57 34 58 26 59 27 60 33 61 35 62 28 63 29 64 30 65 31 66
REMARK SMILES IDX 32 67 58 68 59 69 68 70 60 71 61 72 67 73 69 74 62 75 63 76
REMARK SMILES IDX 64 77 65 78 66 79 42 80 43 81 52 82 44 83 45 84 51 85 53 86
REMARK SMILES IDX 46 87 47 88 48 89 49 90 50 91
REMARK H PARENT 86 17 74 41 40 52
REMARK Flexibility Score: inf
ROOT
ATOM      1  C   UNL     1      -5.207  -2.114   0.598  1.00  0.00     0.275 C 
ENDROOT
BRANCH   1   2
ATOM      2  O   UNL     1      -4.056  -1.272   0.409  1.00  0.00    -0.458 OA
BRANCH   2   3
ATOM      3  C   UNL     1      -3.255  -1.099   1.486  1.00  0.00     0.338 C 
ATOM      4  O   UNL     1      -3.472  -1.434   2.640  1.00  0.00    -0.246 OA
BRANCH   3   5
ATOM      5  C   UNL     1      -2.010  -0.423   1.081  1.00  0.00     0.064 A 
ATOM      6  C   UNL     1       1.647   1.309  -0.386  1.00  0.00     0.049 C 
ATOM      7  C   UNL     1       0.350   0.846   0.198  1.00  0.00     0.005 A 
ATOM      8  C   UNL     1       0.328  -0.504   0.614  1.00  0.00     0.128 A 
ATOM      9  C   UNL     1      -0.830   1.598   0.338  1.00  0.00     0.095 A 
ATOM     10  F   UNL     1       1.456  -1.230   0.542  1.00  0.00    -0.207 F 
ATOM     11  C   UNL     1      -0.820  -1.132   1.080  1.00  0.00     0.055 A 
ATOM     12  C   UNL     1      -2.017   0.930   0.732  1.00  0.00     0.038 A 
BRANCH   9  13
ATOM     13  S   UNL     1      -1.066   3.327  -0.034  1.00  0.00     0.270 S 
ATOM     14  O   UNL     1      -1.041   3.539  -1.462  1.00  0.00    -0.201 OA
ATOM     15  O   UNL     1      -2.233   3.740   0.734  1.00  0.00    -0.201 OA
BRANCH  13  16
ATOM     16  N   UNL     1       0.079   4.361   0.617  1.00  0.00    -0.215 NA
ATOM     17  H   UNL     1      -0.214   5.113   1.180  1.00  0.00     0.193 HD
BRANCH  16  18
ATOM     18  C   UNL     1       1.372   4.184   0.389  1.00  0.00     0.191 C 
ATOM     19  N   UNL     1       2.517   4.181   0.270  1.00  0.00    -0.172 NA
ENDBRANCH  16  18
ENDBRANCH  13  16
ENDBRANCH   9  13
ENDBRANCH   3   5
ENDBRANCH   2   3
ENDBRANCH   1   2
BRANCH   1  20
ATOM     20  C   UNL     1      -5.369  -3.060  -0.589  1.00  0.00     0.275 C 
BRANCH  20  21
ATOM     21  O   UNL     1      -4.602  -4.278  -0.531  1.00  0.00    -0.458 OA
BRANCH  21  22
ATOM     22  C   UNL     1      -3.303  -4.206  -0.157  1.00  0.00     0.338 C 
ATOM     23  O   UNL     1      -2.875  -3.861   0.928  1.00  0.00    -0.246 OA
BRANCH  22  24
ATOM     24  C   UNL     1      -2.461  -4.673  -1.262  1.00  0.00     0.060 A 
ATOM     25  C   UNL     1      -1.158  -4.163  -1.377  1.00  0.00     0.016 A 
ATOM     26  C   UNL     1      -3.011  -5.514  -2.229  1.00  0.00     0.016 A 
ATOM     27  C   UNL     1      -0.455  -4.346  -2.550  1.00  0.00     0.010 A 
ATOM     28  C   UNL     1      -2.312  -5.712  -3.385  1.00  0.00     0.010 A 
ATOM     29  C   UNL     1      -1.071  -5.079  -3.553  1.00  0.00    -0.014 A 
BRANCH  29  30
ATOM     30  C   UNL     1      -0.386  -5.474  -4.755  1.00  0.00     0.031 A 
ATOM     31  C   UNL     1       0.540  -6.613  -4.583  1.00  0.00     0.074 A 
ATOM     32  C   UNL     1      -0.932  -4.985  -5.889  1.00  0.00     0.049 A 
ATOM     33  N   UNL     1       1.375  -7.006  -5.470  1.00  0.00    -0.248 NA
ATOM     34  C   UNL     1       0.675  -7.376  -3.328  1.00  0.00     0.031 C 
ATOM     35  C   UNL     1      -1.030  -5.580  -7.209  1.00  0.00     0.029 A 
ATOM     36  N   UNL     1      -1.454  -3.700  -6.069  1.00  0.00    -0.354 N 
ATOM     37  C   UNL     1       1.797  -8.266  -5.085  1.00  0.00     0.074 A 
ATOM     38  C   UNL     1       1.513  -8.359  -3.680  1.00  0.00     0.031 C 
ATOM     39  C   UNL     1      -1.321  -4.617  -8.106  1.00  0.00     0.029 A 
ATOM     40  C   UNL     1      -1.255  -3.337  -7.415  1.00  0.00     0.049 A 
ATOM     41  H   UNL     1      -1.885  -3.148  -5.377  1.00  0.00     0.167 HD
ATOM     42  C   UNL     1       2.128  -9.146  -6.069  1.00  0.00     0.037 A 
ATOM     43  C   UNL     1      -0.349  -2.347  -7.710  1.00  0.00     0.037 A 
ATOM     44  C   UNL     1       1.948  -8.484  -7.356  1.00  0.00     0.049 A 
ATOM     45  C   UNL     1       0.939  -2.878  -8.298  1.00  0.00     0.074 A 
ATOM     46  C   UNL     1       0.876  -8.379  -8.224  1.00  0.00     0.029 A 
ATOM     47  N   UNL     1       2.814  -7.473  -7.682  1.00  0.00    -0.354 N 
ATOM     48  N   UNL     1       1.253  -4.142  -8.339  1.00  0.00    -0.248 NA
ATOM     49  C   UNL     1       1.996  -2.021  -8.827  1.00  0.00     0.031 C 
ATOM     50  C   UNL     1       1.117  -7.256  -9.068  1.00  0.00     0.029 A 
ATOM     51  C   UNL     1       2.322  -6.686  -8.696  1.00  0.00     0.049 A 
ATOM     52  H   UNL     1       3.684  -7.329  -7.244  1.00  0.00     0.167 HD
ATOM     53  C   UNL     1       2.502  -4.288  -8.865  1.00  0.00     0.074 A 
ATOM     54  C   UNL     1       2.948  -2.926  -9.112  1.00  0.00     0.031 C 
ATOM     55  C   UNL     1       3.081  -5.508  -9.062  1.00  0.00     0.037 A 
BRANCH  42  56
ATOM     56  C   UNL     1       2.392 -10.628  -5.984  1.00  0.00     0.058 A 
ATOM     57  C   UNL     1       2.290 -11.393  -7.170  1.00  0.00     0.135 A 
ATOM     58  C   UNL     1       2.779 -11.356  -4.841  1.00  0.00     0.135 A 
ATOM     59  F   UNL     1       1.939 -10.846  -8.341  1.00  0.00    -0.206 F 
ATOM     60  C   UNL     1       2.541 -12.755  -7.229  1.00  0.00     0.059 A 
ATOM     61  C   UNL     1       3.024 -12.740  -4.874  1.00  0.00     0.059 A 
ATOM     62  F   UNL     1       2.969 -10.757  -3.658  1.00  0.00    -0.206 F 
ATOM     63  C   UNL     1       2.911 -13.427  -6.078  1.00  0.00     0.060 A 
BRANCH  63  64
ATOM     64  S   UNL     1       3.257 -15.186  -6.230  1.00  0.00     0.124 S 
ATOM     65  O   UNL     1       1.993 -15.700  -6.750  1.00  0.00    -0.237 OA
ATOM     66  O   UNL     1       4.376 -15.195  -7.168  1.00  0.00    -0.237 OA
ATOM     67  O   UNL     1       3.579 -15.591  -4.866  1.00  0.00    -0.744 OA
ENDBRANCH  63  64
ENDBRANCH  42  56
BRANCH  43  68
ATOM     68  C   UNL     1      -0.403  -1.227  -6.715  1.00  0.00     0.058 A 
ATOM     69  C   UNL     1      -1.623  -0.525  -6.646  1.00  0.00     0.135 A 
ATOM     70  C   UNL     1       0.365  -1.337  -5.546  1.00  0.00     0.135 A 
ATOM     71  F   UNL     1      -2.357  -0.339  -7.755  1.00  0.00    -0.206 F 
ATOM     72  C   UNL     1      -2.205  -0.236  -5.422  1.00  0.00     0.059 A 
ATOM     73  C   UNL     1      -0.199  -1.053  -4.308  1.00  0.00     0.059 A 
ATOM     74  F   UNL     1       1.570  -1.926  -5.577  1.00  0.00    -0.206 F 
ATOM     75  C   UNL     1      -1.521  -0.601  -4.265  1.00  0.00     0.060 A 
BRANCH  75  76
ATOM     76  S   UNL     1      -2.490  -0.783  -2.760  1.00  0.00     0.124 S 
ATOM     77  O   UNL     1      -2.981   0.569  -2.523  1.00  0.00    -0.237 OA
ATOM     78  O   UNL     1      -3.493  -1.762  -3.172  1.00  0.00    -0.237 OA
ATOM     79  O   UNL     1      -1.506  -1.261  -1.802  1.00  0.00    -0.744 OA
ENDBRANCH  75  76
ENDBRANCH  43  68
BRANCH  55  80
ATOM     80  C   UNL     1       4.461  -5.657  -9.622  1.00  0.00     0.058 A 
ATOM     81  C   UNL     1       4.872  -4.915 -10.735  1.00  0.00     0.135 A 
ATOM     82  C   UNL     1       5.395  -6.587  -9.110  1.00  0.00     0.135 A 
ATOM     83  F   UNL     1       4.015  -4.104 -11.378  1.00  0.00    -0.206 F 
ATOM     84  C   UNL     1       6.172  -4.976 -11.214  1.00  0.00     0.059 A 
ATOM     85  C   UNL     1       6.669  -6.731  -9.631  1.00  0.00     0.059 A 
ATOM     86  F   UNL     1       5.131  -7.364  -8.051  1.00  0.00    -0.206 F 
ATOM     87  C   UNL     1       7.067  -5.877 -10.644  1.00  0.00     0.060 A 
BRANCH  87  88
ATOM     88  S   UNL     1       8.763  -5.909 -11.226  1.00  0.00     0.124 S 
ATOM     89  O   UNL     1       8.596  -5.833 -12.674  1.00  0.00    -0.237 OA
ATOM     90  O   UNL     1       9.305  -4.713 -10.587  1.00  0.00    -0.237 OA
ATOM     91  O   UNL     1       9.274  -7.179 -10.722  1.00  0.00    -0.744 OA
ENDBRANCH  87  88
ENDBRANCH  55  80
ENDBRANCH  29  30
ENDBRANCH  22  24
ENDBRANCH  21  22
ENDBRANCH  20  21
ENDBRANCH   1  20
TORSDOF 17
