REMARK SMILES C[C@H](CCC[C@@H](C)[NH3+])C(=O)N[C@H]1C=C[C@@H](C(=O)OCCOC(=O)c2ccc(-c3c4nc(c(-c5c(F)cc(S(=O)(=O)[O-])cc5F)c5ccc([nH]5)c(-c5c(F)cc(S(=O)(=O)[O-])cc5F)c5nc(c(-c6c(F)cc(S(=O)(=O)[O-])cc6F)c6ccc3[nH]6)C=C5)C=C4)cc2)C1
REMARK SMILES IDX 16 1 17 2 15 3 12 4 13 5 90 6 14 7 11 8 9 9 10 10 2 12 1 13
REMARK SMILES IDX 3 14 4 15 5 16 6 17 7 18 8 19 18 23 19 24 20 25 21 26 22 27
REMARK SMILES IDX 23 28 24 29 25 30 89 31 26 32 88 33 27 34 28 35 29 36 82 37
REMARK SMILES IDX 30 38 87 39 81 40 83 41 31 42 86 43 80 44 79 45 32 47 66 48
REMARK SMILES IDX 45 49 65 50 46 51 49 52 64 53 84 54 47 55 48 56 63 58 85 59
REMARK SMILES IDX 50 60 33 61 34 62 43 63 35 64 36 65 42 66 44 67 37 68 38 69
REMARK SMILES IDX 39 70 40 71 41 72 67 73 68 74 77 75 69 76 70 77 76 78 78 79
REMARK SMILES IDX 71 80 72 81 73 82 74 83 75 84 51 85 52 86 61 87 53 88 54 89
REMARK SMILES IDX 60 90 62 91 55 92 56 93 57 94 58 95 59 96
REMARK H PARENT 11 11 8 20 8 21 8 22 83 46 49 57
REMARK Flexibility Score: inf
ROOT
ATOM      1  C   UNL     1      -3.309  -4.892   2.397  1.00  0.00     0.312 C 
ATOM      2  O   UNL     1      -3.261  -5.407   3.510  1.00  0.00    -0.252 OA
ENDROOT
BRANCH   1   3
ATOM      3  C   UNL     1      -2.438  -3.713   2.015  1.00  0.00     0.124 C 
ATOM      4  C   UNL     1      -1.859  -1.914   0.578  1.00  0.00     0.106 C 
ATOM      5  C   UNL     1      -2.632  -1.400   1.750  1.00  0.00    -0.006 C 
ATOM      6  C   UNL     1      -2.292  -3.372   0.525  1.00  0.00     0.048 C 
ATOM      7  C   UNL     1      -2.943  -2.410   2.574  1.00  0.00    -0.014 C 
BRANCH   4   8
ATOM      8  N   UNL     1      -2.091  -1.113  -0.578  1.00  0.00    -0.350 N 
ATOM      9  C   UNL     1      -1.182  -0.416  -1.316  1.00  0.00     0.223 C 
ATOM     10  O   UNL     1      -1.634   0.401  -2.127  1.00  0.00    -0.275 OA
ATOM     11  H   UNL     1      -3.026  -1.055  -0.881  1.00  0.00     0.164 HD
BRANCH   9  12
ATOM     12  C   UNL     1       0.342  -0.638  -1.218  1.00  0.00     0.075 C 
ATOM     13  C   UNL     1       0.764  -2.061  -1.569  1.00  0.00     0.018 C 
BRANCH  12  14
ATOM     14  C   UNL     1       1.124   0.047  -0.067  1.00  0.00     0.013 C 
BRANCH  14  15
ATOM     15  C   UNL     1       1.036  -0.385   1.406  1.00  0.00     0.007 C 
BRANCH  15  16
ATOM     16  C   UNL     1       1.401  -1.838   1.755  1.00  0.00     0.064 C 
BRANCH  16  17
ATOM     17  C   UNL     1       2.866  -2.111   2.107  1.00  0.00     0.177 C 
ATOM     18  C   UNL     1       3.242  -1.565   3.483  1.00  0.00     0.075 C 
BRANCH  17  19
ATOM     19  N   UNL     1       3.045  -3.569   2.111  1.00  0.00    -0.355 N 
ATOM     20  H   UNL     1       2.428  -3.985   2.808  1.00  0.00     0.344 HD
ATOM     21  H   UNL     1       4.014  -3.792   2.338  1.00  0.00     0.344 HD
ATOM     22  H   UNL     1       2.817  -3.941   1.189  1.00  0.00     0.344 HD
ENDBRANCH  17  19
ENDBRANCH  16  17
ENDBRANCH  15  16
ENDBRANCH  14  15
ENDBRANCH  12  14
ENDBRANCH   9  12
ENDBRANCH   4   8
ENDBRANCH   1   3
BRANCH   1  23
ATOM     23  O   UNL     1      -4.125  -5.296   1.393  1.00  0.00    -0.462 OA
BRANCH  23  24
ATOM     24  C   UNL     1      -4.824  -6.534   1.607  1.00  0.00     0.274 C 
BRANCH  24  25
ATOM     25  C   UNL     1      -4.157  -7.662   0.816  1.00  0.00     0.275 C 
BRANCH  25  26
ATOM     26  O   UNL     1      -2.909  -8.076   1.407  1.00  0.00    -0.458 OA
BRANCH  26  27
ATOM     27  C   UNL     1      -1.811  -7.410   0.981  1.00  0.00     0.338 C 
ATOM     28  O   UNL     1      -1.776  -6.502   0.164  1.00  0.00    -0.246 OA
BRANCH  27  29
ATOM     29  C   UNL     1      -0.621  -7.857   1.724  1.00  0.00     0.060 A 
ATOM     30  C   UNL     1       0.171  -6.892   2.354  1.00  0.00     0.016 A 
ATOM     31  C   UNL     1      -0.244  -9.202   1.739  1.00  0.00     0.016 A 
ATOM     32  C   UNL     1       1.346  -7.271   3.003  1.00  0.00     0.010 A 
ATOM     33  C   UNL     1       0.935  -9.579   2.390  1.00  0.00     0.010 A 
ATOM     34  C   UNL     1       1.742  -8.616   3.020  1.00  0.00    -0.014 A 
BRANCH  34  35
ATOM     35  C   UNL     1       3.012  -9.008   3.680  1.00  0.00     0.031 A 
ATOM     36  C   UNL     1       4.214  -9.368   2.853  1.00  0.00     0.074 A 
ATOM     37  C   UNL     1       3.084  -9.037   5.024  1.00  0.00     0.049 A 
ATOM     38  N   UNL     1       5.387  -9.794   3.244  1.00  0.00    -0.248 NA
ATOM     39  C   UNL     1       4.077  -9.232   1.395  1.00  0.00     0.031 C 
ATOM     40  C   UNL     1       1.992  -8.689   5.935  1.00  0.00     0.029 A 
ATOM     41  N   UNL     1       4.119  -9.379   5.858  1.00  0.00    -0.354 N 
ATOM     42  C   UNL     1       6.126  -9.993   2.084  1.00  0.00     0.074 A 
ATOM     43  C   UNL     1       5.260  -9.657   0.972  1.00  0.00     0.031 C 
ATOM     44  C   UNL     1       2.414  -8.837   7.201  1.00  0.00     0.029 A 
ATOM     45  C   UNL     1       3.791  -9.324   7.192  1.00  0.00     0.049 A 
ATOM     46  H   UNL     1       5.010  -9.639   5.532  1.00  0.00     0.167 HD
ATOM     47  C   UNL     1       7.408 -10.413   1.958  1.00  0.00     0.037 A 
ATOM     48  C   UNL     1       4.511  -9.651   8.283  1.00  0.00     0.037 A 
ATOM     49  C   UNL     1       8.270 -10.735   3.067  1.00  0.00     0.049 A 
ATOM     50  C   UNL     1       5.921 -10.149   8.115  1.00  0.00     0.074 A 
ATOM     51  C   UNL     1       9.591 -11.149   3.039  1.00  0.00     0.029 A 
ATOM     52  N   UNL     1       7.898 -10.681   4.402  1.00  0.00    -0.354 N 
ATOM     53  N   UNL     1       6.607 -10.324   7.011  1.00  0.00    -0.248 NA
ATOM     54  C   UNL     1       6.653 -10.498   9.341  1.00  0.00     0.031 C 
ATOM     55  C   UNL     1      10.008 -11.377   4.356  1.00  0.00     0.029 A 
ATOM     56  C   UNL     1       8.958 -11.069   5.206  1.00  0.00     0.049 A 
ATOM     57  H   UNL     1       7.011 -10.408   4.731  1.00  0.00     0.167 HD
ATOM     58  C   UNL     1       7.856 -10.787   7.410  1.00  0.00     0.074 A 
ATOM     59  C   UNL     1       7.836 -10.851   8.857  1.00  0.00     0.031 C 
ATOM     60  C   UNL     1       8.924 -11.128   6.646  1.00  0.00     0.037 A 
BRANCH  47  61
ATOM     61  C   UNL     1       7.955 -10.568   0.567  1.00  0.00     0.058 A 
ATOM     62  C   UNL     1       8.301  -9.456  -0.217  1.00  0.00     0.135 A 
ATOM     63  C   UNL     1       8.170 -11.845   0.025  1.00  0.00     0.135 A 
ATOM     64  F   UNL     1       8.102  -8.213   0.248  1.00  0.00    -0.206 F 
ATOM     65  C   UNL     1       8.820  -9.605  -1.499  1.00  0.00     0.059 A 
ATOM     66  C   UNL     1       8.709 -12.018  -1.247  1.00  0.00     0.059 A 
ATOM     67  F   UNL     1       7.856 -12.941   0.733  1.00  0.00    -0.206 F 
ATOM     68  C   UNL     1       9.018 -10.891  -2.007  1.00  0.00     0.060 A 
BRANCH  68  69
ATOM     69  S   UNL     1       9.694 -11.071  -3.671  1.00  0.00     0.124 S 
ATOM     70  O   UNL     1       8.534 -10.736  -4.493  1.00  0.00    -0.237 OA
ATOM     71  O   UNL     1      10.778 -10.095  -3.678  1.00  0.00    -0.237 OA
ATOM     72  O   UNL     1      10.113 -12.468  -3.718  1.00  0.00    -0.744 OA
ENDBRANCH  68  69
ENDBRANCH  47  61
BRANCH  48  73
ATOM     73  C   UNL     1       3.904  -9.529   9.633  1.00  0.00     0.058 A 
ATOM     74  C   UNL     1       4.315  -8.526  10.523  1.00  0.00     0.135 A 
ATOM     75  C   UNL     1       2.894 -10.407  10.055  1.00  0.00     0.135 A 
ATOM     76  F   UNL     1       5.285  -7.670  10.167  1.00  0.00    -0.206 F 
ATOM     77  C   UNL     1       3.753  -8.403  11.789  1.00  0.00     0.059 A 
ATOM     78  C   UNL     1       2.300 -10.289  11.307  1.00  0.00     0.059 A 
ATOM     79  F   UNL     1       2.459 -11.376   9.235  1.00  0.00    -0.206 F 
ATOM     80  C   UNL     1       2.744  -9.289  12.171  1.00  0.00     0.060 A 
BRANCH  80  81
ATOM     81  S   UNL     1       1.980  -9.089  13.796  1.00  0.00     0.124 S 
ATOM     82  O   UNL     1       2.995  -9.662  14.670  1.00  0.00    -0.237 OA
ATOM     83  O   UNL     1       1.807  -7.642  13.880  1.00  0.00    -0.237 OA
ATOM     84  O   UNL     1       0.741  -9.853  13.677  1.00  0.00    -0.744 OA
ENDBRANCH  80  81
ENDBRANCH  48  73
BRANCH  60  85
ATOM     85  C   UNL     1      10.166 -11.578   7.362  1.00  0.00     0.058 A 
ATOM     86  C   UNL     1      10.257 -12.851   7.944  1.00  0.00     0.135 A 
ATOM     87  C   UNL     1      11.290 -10.740   7.433  1.00  0.00     0.135 A 
ATOM     88  F   UNL     1       9.207 -13.687   7.909  1.00  0.00    -0.206 F 
ATOM     89  C   UNL     1      11.413 -13.271   8.595  1.00  0.00     0.059 A 
ATOM     90  C   UNL     1      12.464 -11.147   8.060  1.00  0.00     0.059 A 
ATOM     91  F   UNL     1      11.257  -9.516   6.884  1.00  0.00    -0.206 F 
ATOM     92  C   UNL     1      12.511 -12.410   8.649  1.00  0.00     0.060 A 
BRANCH  92  93
ATOM     93  S   UNL     1      14.016 -12.972   9.474  1.00  0.00     0.124 S 
ATOM     94  O   UNL     1      13.658 -12.812  10.879  1.00  0.00    -0.237 OA
ATOM     95  O   UNL     1      14.139 -14.348   9.004  1.00  0.00    -0.237 OA
ATOM     96  O   UNL     1      15.037 -12.054   8.977  1.00  0.00    -0.744 OA
ENDBRANCH  92  93
ENDBRANCH  60  85
ENDBRANCH  34  35
ENDBRANCH  27  29
ENDBRANCH  26  27
ENDBRANCH  25  26
ENDBRANCH  24  25
ENDBRANCH  23  24
ENDBRANCH   1  23
TORSDOF 21
