REMARK SMILES CC[NH+]1CC[NH+]([C@@H]2CC(=O)N(c3ccc(C(=O)OCCOC(=O)c4ccc(-c5c6nc(c(-c7c(F)cc(S(=O)(=O)[O-])cc7F)c7ccc([nH]7)c(-c7c(F)cc(S(=O)(=O)[O-])cc7F)c7nc(c(-c8c(F)cc(S(=O)(=O)[O-])cc8F)c8ccc5[nH]8)C=C7)C=C6)cc4)cc3)C2=O)CC1
REMARK SMILES IDX 19 1 18 2 16 3 17 4 15 5 12 6 13 7 91 8 14 9 90 10 11 11
REMARK SMILES IDX 7 12 8 13 92 14 9 15 93 16 10 17 6 18 3 19 4 20 95 21 5 23
REMARK SMILES IDX 94 24 2 26 1 27 20 28 21 29 22 30 23 31 24 32 25 33 89 34
REMARK SMILES IDX 26 35 88 36 27 37 28 38 29 39 82 40 30 41 87 42 81 43 83 44
REMARK SMILES IDX 31 45 86 46 80 47 79 48 32 50 66 51 45 52 65 53 46 54 49 55
REMARK SMILES IDX 64 56 84 57 47 58 48 59 63 61 85 62 50 63 33 64 34 65 43 66
REMARK SMILES IDX 35 67 36 68 42 69 44 70 37 71 38 72 39 73 40 74 41 75 67 76
REMARK SMILES IDX 68 77 77 78 69 79 70 80 76 81 78 82 71 83 72 84 73 85 74 86
REMARK SMILES IDX 75 87 51 88 52 89 61 90 53 91 54 92 60 93 62 94 55 95 56 96
REMARK SMILES IDX 57 97 58 98 59 99
REMARK H PARENT 3 22 6 25 83 49 49 60
REMARK Flexibility Score: inf
ROOT
ATOM      1  C   UNL     1       3.425 -11.791   6.978  1.00  0.00     0.275 C 
ENDROOT
BRANCH   1   2
ATOM      2  O   UNL     1       2.913 -10.444   6.941  1.00  0.00    -0.458 OA
BRANCH   2   3
ATOM      3  C   UNL     1       2.928  -9.854   5.721  1.00  0.00     0.338 C 
ATOM      4  O   UNL     1       3.370 -10.326   4.689  1.00  0.00    -0.246 OA
BRANCH   3   5
ATOM      5  C   UNL     1       2.247  -8.542   5.768  1.00  0.00     0.060 A 
ATOM      6  C   UNL     1       1.053  -5.996   5.620  1.00  0.00     0.052 A 
ATOM      7  C   UNL     1       0.682  -7.004   4.732  1.00  0.00     0.028 A 
ATOM      8  C   UNL     1       2.013  -6.290   6.604  1.00  0.00     0.028 A 
ATOM      9  C   UNL     1       1.304  -8.244   4.785  1.00  0.00     0.018 A 
ATOM     10  C   UNL     1       2.590  -7.566   6.699  1.00  0.00     0.018 A 
BRANCH   6  11
ATOM     11  N   UNL     1       0.531  -4.694   5.431  1.00  0.00    -0.245 N 
ATOM     12  C   UNL     1      -0.823  -2.951   4.603  1.00  0.00     0.285 C 
ATOM     13  C   UNL     1       0.452  -2.372   5.197  1.00  0.00     0.176 C 
ATOM     14  C   UNL     1      -0.721  -4.437   4.912  1.00  0.00     0.292 C 
ATOM     15  C   UNL     1       1.244  -3.549   5.665  1.00  0.00     0.240 C 
ATOM     16  O   UNL     1      -1.636  -5.234   4.745  1.00  0.00    -0.267 OA
ATOM     17  O   UNL     1       2.373  -3.429   6.126  1.00  0.00    -0.274 OA
BRANCH  12  18
ATOM     18  N   UNL     1      -1.179  -2.705   3.191  1.00  0.00    -0.315 N 
ATOM     19  N   UNL     1       0.845  -1.282   1.465  1.00  0.00    -0.326 N 
ATOM     20  C   UNL     1      -0.052  -0.557   2.392  1.00  0.00     0.324 C 
ATOM     21  C   UNL     1       0.931  -2.719   1.795  1.00  0.00     0.324 C 
ATOM     22  H   UNL     1       1.777  -0.887   1.587  1.00  0.00     0.348 HD
ATOM     23  C   UNL     1      -1.343  -1.293   2.828  1.00  0.00     0.325 C 
ATOM     24  C   UNL     1      -0.404  -3.398   2.153  1.00  0.00     0.325 C 
ATOM     25  H   UNL     1      -2.094  -3.156   3.189  1.00  0.00     0.349 HD
BRANCH  19  26
ATOM     26  C   UNL     1       0.464  -1.074   0.061  1.00  0.00     0.259 C 
ATOM     27  C   UNL     1       0.982   0.275  -0.431  1.00  0.00     0.071 C 
ENDBRANCH  19  26
ENDBRANCH  12  18
ENDBRANCH   6  11
ENDBRANCH   3   5
ENDBRANCH   2   3
ENDBRANCH   1   2
BRANCH   1  28
ATOM     28  C   UNL     1       2.298 -12.826   6.955  1.00  0.00     0.275 C 
BRANCH  28  29
ATOM     29  O   UNL     1       1.662 -12.885   5.665  1.00  0.00    -0.458 OA
BRANCH  29  30
ATOM     30  C   UNL     1       0.478 -12.238   5.590  1.00  0.00     0.338 C 
ATOM     31  O   UNL     1      -0.091 -11.635   6.486  1.00  0.00    -0.246 OA
BRANCH  30  32
ATOM     32  C   UNL     1      -0.051 -12.267   4.219  1.00  0.00     0.060 A 
ATOM     33  C   UNL     1       0.428 -11.324   3.322  1.00  0.00     0.016 A 
ATOM     34  C   UNL     1      -1.169 -13.029   3.892  1.00  0.00     0.016 A 
ATOM     35  C   UNL     1      -0.318 -10.987   2.199  1.00  0.00     0.010 A 
ATOM     36  C   UNL     1      -1.808 -12.817   2.661  1.00  0.00     0.010 A 
ATOM     37  C   UNL     1      -1.427 -11.753   1.821  1.00  0.00    -0.014 A 
BRANCH  37  38
ATOM     38  C   UNL     1      -2.166 -11.442   0.558  1.00  0.00     0.031 A 
ATOM     39  C   UNL     1      -3.668 -11.269   0.563  1.00  0.00     0.074 A 
ATOM     40  C   UNL     1      -1.491 -11.312  -0.606  1.00  0.00     0.049 A 
ATOM     41  N   UNL     1      -4.496 -11.197  -0.449  1.00  0.00    -0.248 NA
ATOM     42  C   UNL     1      -4.328 -11.186   1.876  1.00  0.00     0.031 C 
ATOM     43  C   UNL     1      -0.036 -11.413  -0.763  1.00  0.00     0.029 A 
ATOM     44  N   UNL     1      -1.934 -11.065  -1.884  1.00  0.00    -0.354 N 
ATOM     45  C   UNL     1      -5.773 -11.123   0.102  1.00  0.00     0.074 A 
ATOM     46  C   UNL     1      -5.610 -11.172   1.539  1.00  0.00     0.031 C 
ATOM     47  C   UNL     1       0.294 -11.181  -2.039  1.00  0.00     0.029 A 
ATOM     48  C   UNL     1      -0.925 -11.041  -2.821  1.00  0.00     0.049 A 
ATOM     49  H   UNL     1      -2.881 -10.919  -2.108  1.00  0.00     0.167 HD
ATOM     50  C   UNL     1      -6.967 -11.024  -0.533  1.00  0.00     0.037 A 
ATOM     51  C   UNL     1      -0.964 -10.980  -4.165  1.00  0.00     0.037 A 
ATOM     52  C   UNL     1      -7.110 -10.924  -1.965  1.00  0.00     0.049 A 
ATOM     53  C   UNL     1      -2.298 -10.921  -4.849  1.00  0.00     0.074 A 
ATOM     54  C   UNL     1      -8.272 -10.795  -2.707  1.00  0.00     0.029 A 
ATOM     55  N   UNL     1      -6.059 -10.931  -2.873  1.00  0.00    -0.354 N 
ATOM     56  N   UNL     1      -3.495 -10.895  -4.315  1.00  0.00    -0.248 NA
ATOM     57  C   UNL     1      -2.290 -10.900  -6.317  1.00  0.00     0.031 C 
ATOM     58  C   UNL     1      -7.928 -10.780  -4.063  1.00  0.00     0.029 A 
ATOM     59  C   UNL     1      -6.548 -10.833  -4.166  1.00  0.00     0.049 A 
ATOM     60  H   UNL     1      -5.107 -10.996  -2.632  1.00  0.00     0.167 HD
ATOM     61  C   UNL     1      -4.384 -10.832  -5.381  1.00  0.00     0.074 A 
ATOM     62  C   UNL     1      -3.584 -10.806  -6.589  1.00  0.00     0.031 C 
ATOM     63  C   UNL     1      -5.739 -10.799  -5.360  1.00  0.00     0.037 A 
BRANCH  50  64
ATOM     64  C   UNL     1      -8.221 -11.055   0.304  1.00  0.00     0.058 A 
ATOM     65  C   UNL     1      -8.588  -9.995   1.149  1.00  0.00     0.135 A 
ATOM     66  C   UNL     1      -9.098 -12.152   0.222  1.00  0.00     0.135 A 
ATOM     67  F   UNL     1      -7.788  -8.925   1.278  1.00  0.00    -0.206 F 
ATOM     68  C   UNL     1      -9.759 -10.035   1.903  1.00  0.00     0.059 A 
ATOM     69  C   UNL     1     -10.289 -12.198   0.942  1.00  0.00     0.059 A 
ATOM     70  F   UNL     1      -8.804 -13.193  -0.573  1.00  0.00    -0.206 F 
ATOM     71  C   UNL     1     -10.604 -11.141   1.792  1.00  0.00     0.060 A 
BRANCH  71  72
ATOM     72  S   UNL     1     -12.120 -11.174   2.773  1.00  0.00     0.124 S 
ATOM     73  O   UNL     1     -11.593 -11.373   4.119  1.00  0.00    -0.237 OA
ATOM     74  O   UNL     1     -12.693  -9.858   2.506  1.00  0.00    -0.237 OA
ATOM     75  O   UNL     1     -12.862 -12.302   2.217  1.00  0.00    -0.744 OA
ENDBRANCH  71  72
ENDBRANCH  50  64
BRANCH  51  76
ATOM     76  C   UNL     1       0.303 -11.024  -4.948  1.00  0.00     0.058 A 
ATOM     77  C   UNL     1       0.739  -9.913  -5.683  1.00  0.00     0.135 A 
ATOM     78  C   UNL     1       1.116 -12.171  -4.955  1.00  0.00     0.135 A 
ATOM     79  F   UNL     1      -0.005  -8.797  -5.716  1.00  0.00    -0.206 F 
ATOM     80  C   UNL     1       1.927  -9.938  -6.406  1.00  0.00     0.059 A 
ATOM     81  C   UNL     1       2.326 -12.208  -5.640  1.00  0.00     0.059 A 
ATOM     82  F   UNL     1       0.755 -13.258  -4.256  1.00  0.00    -0.206 F 
ATOM     83  C   UNL     1       2.717 -11.089  -6.374  1.00  0.00     0.060 A 
BRANCH  83  84
ATOM     84  S   UNL     1       4.281 -11.093  -7.276  1.00  0.00     0.124 S 
ATOM     85  O   UNL     1       3.820 -11.149  -8.659  1.00  0.00    -0.237 OA
ATOM     86  O   UNL     1       4.881  -9.832  -6.853  1.00  0.00    -0.237 OA
ATOM     87  O   UNL     1       4.950 -12.293  -6.785  1.00  0.00    -0.744 OA
ENDBRANCH  83  84
ENDBRANCH  51  76
BRANCH  63  88
ATOM     88  C   UNL     1      -6.444 -10.682  -6.683  1.00  0.00     0.058 A 
ATOM     89  C   UNL     1      -6.492 -11.748  -7.595  1.00  0.00     0.135 A 
ATOM     90  C   UNL     1      -7.115  -9.496  -7.023  1.00  0.00     0.135 A 
ATOM     91  F   UNL     1      -5.858 -12.899  -7.325  1.00  0.00    -0.206 F 
ATOM     92  C   UNL     1      -7.160 -11.633  -8.810  1.00  0.00     0.059 A 
ATOM     93  C   UNL     1      -7.816  -9.370  -8.217  1.00  0.00     0.059 A 
ATOM     94  F   UNL     1      -7.105  -8.448  -6.184  1.00  0.00    -0.206 F 
ATOM     95  C   UNL     1      -7.823 -10.441  -9.110  1.00  0.00     0.060 A 
BRANCH  95  96
ATOM     96  S   UNL     1      -8.715 -10.318 -10.674  1.00  0.00     0.124 S 
ATOM     97  O   UNL     1      -7.618 -10.234 -11.633  1.00  0.00    -0.237 OA
ATOM     98  O   UNL     1      -9.480 -11.560 -10.694  1.00  0.00    -0.237 OA
ATOM     99  O   UNL     1      -9.508  -9.102 -10.520  1.00  0.00    -0.744 OA
ENDBRANCH  95  96
ENDBRANCH  63  88
ENDBRANCH  37  38
ENDBRANCH  30  32
ENDBRANCH  29  30
ENDBRANCH  28  29
ENDBRANCH   1  28
TORSDOF 17
