REMARK SMILES CC(C)c1ccc([C@]2(C(=O)OCCOC(=O)c3ccc(-c4c5nc(c(-c6c(F)cc(S(=O)(=O)[O-])cc6F)c6ccc([nH]6)c(-c6c(F)cc(S(=O)(=O)[O-])cc6F)c6nc(c(-c7c(F)cc(S(=O)(=O)[O-])cc7F)c7ccc4[nH]7)C=C6)C=C5)cc3)CCC[C@@H]2C)cc1
REMARK SMILES IDX 13 1 12 2 11 3 9 4 10 5 8 6 83 7 86 8 84 9 85 10 87 11 7 12
REMARK SMILES IDX 4 13 5 14 89 15 6 16 88 17 2 18 1 19 3 20 14 21 15 22 16 23
REMARK SMILES IDX 17 24 18 25 82 26 19 27 81 28 20 29 21 30 22 31 75 32 23 33
REMARK SMILES IDX 80 34 74 35 76 36 24 37 79 38 73 39 72 40 25 42 59 43 38 44
REMARK SMILES IDX 58 45 39 46 42 47 57 48 77 49 40 50 41 51 56 53 78 54 43 55
REMARK SMILES IDX 26 56 27 57 36 58 28 59 29 60 35 61 37 62 30 63 31 64 32 65
REMARK SMILES IDX 33 66 34 67 60 68 61 69 70 70 62 71 63 72 69 73 71 74 64 75
REMARK SMILES IDX 65 76 66 77 67 78 68 79 44 80 45 81 54 82 46 83 47 84 53 85
REMARK SMILES IDX 55 86 48 87 49 88 50 89 51 90 52 91
REMARK H PARENT 76 41 42 52
REMARK Flexibility Score: inf
ROOT
ATOM      1  C   UNL     1      -6.813  -4.180   2.115  1.00  0.00     0.275 C 
ENDROOT
BRANCH   1   2
ATOM      2  C   UNL     1      -7.274  -2.746   1.889  1.00  0.00     0.274 C 
BRANCH   2   3
ATOM      3  O   UNL     1      -6.835  -2.287   0.595  1.00  0.00    -0.461 OA
BRANCH   3   4
ATOM      4  C   UNL     1      -5.902  -1.293   0.570  1.00  0.00     0.316 C 
ATOM      5  O   UNL     1      -5.425  -0.786   1.580  1.00  0.00    -0.251 OA
BRANCH   4   6
ATOM      6  C   UNL     1      -5.589  -0.801  -0.877  1.00  0.00     0.095 C 
ATOM      7  C   UNL     1      -6.300  -1.655  -1.960  1.00  0.00     0.024 C 
ATOM      8  C   UNL     1      -6.325   0.570  -1.052  1.00  0.00     0.008 C 
ATOM      9  C   UNL     1      -7.742  -1.145  -2.048  1.00  0.00     0.002 C 
ATOM     10  C   UNL     1      -7.791   0.153  -1.249  1.00  0.00     0.005 C 
ATOM     11  C   UNL     1      -5.872   1.417  -2.251  1.00  0.00     0.009 C 
BRANCH   6  12
ATOM     12  C   UNL     1      -4.064  -0.724  -1.057  1.00  0.00    -0.030 A 
ATOM     13  C   UNL     1      -1.220  -0.499  -1.408  1.00  0.00    -0.045 A 
ATOM     14  C   UNL     1      -1.936   0.413  -0.622  1.00  0.00     0.004 A 
ATOM     15  C   UNL     1      -1.957  -1.538  -1.998  1.00  0.00     0.004 A 
ATOM     16  C   UNL     1      -3.321   0.295  -0.439  1.00  0.00     0.005 A 
ATOM     17  C   UNL     1      -3.344  -1.660  -1.812  1.00  0.00     0.005 A 
BRANCH  13  18
ATOM     18  C   UNL     1       0.281  -0.342  -1.673  1.00  0.00     0.013 C 
ATOM     19  C   UNL     1       1.016   0.556  -0.664  1.00  0.00     0.012 C 
ATOM     20  C   UNL     1       1.035  -1.676  -1.742  1.00  0.00     0.012 C 
ENDBRANCH  13  18
ENDBRANCH   6  12
ENDBRANCH   4   6
ENDBRANCH   3   4
ENDBRANCH   2   3
ENDBRANCH   1   2
BRANCH   1  21
ATOM     21  O   UNL     1      -5.381  -4.200   2.212  1.00  0.00    -0.458 OA
BRANCH  21  22
ATOM     22  C   UNL     1      -4.731  -4.844   1.218  1.00  0.00     0.338 C 
ATOM     23  O   UNL     1      -5.217  -5.489   0.303  1.00  0.00    -0.246 OA
BRANCH  22  24
ATOM     24  C   UNL     1      -3.285  -4.643   1.389  1.00  0.00     0.060 A 
ATOM     25  C   UNL     1      -2.760  -3.359   1.275  1.00  0.00     0.016 A 
ATOM     26  C   UNL     1      -2.440  -5.742   1.548  1.00  0.00     0.016 A 
ATOM     27  C   UNL     1      -1.379  -3.183   1.233  1.00  0.00     0.010 A 
ATOM     28  C   UNL     1      -1.053  -5.548   1.588  1.00  0.00     0.010 A 
ATOM     29  C   UNL     1      -0.504  -4.271   1.385  1.00  0.00    -0.014 A 
BRANCH  29  30
ATOM     30  C   UNL     1       0.966  -4.068   1.226  1.00  0.00     0.031 A 
ATOM     31  C   UNL     1       1.710  -4.758   0.106  1.00  0.00     0.074 A 
ATOM     32  C   UNL     1       1.622  -3.165   1.984  1.00  0.00     0.049 A 
ATOM     33  N   UNL     1       2.993  -4.758  -0.157  1.00  0.00    -0.248 NA
ATOM     34  C   UNL     1       0.907  -5.536  -0.852  1.00  0.00     0.031 C 
ATOM     35  C   UNL     1       1.020  -2.350   3.041  1.00  0.00     0.029 A 
ATOM     36  N   UNL     1       2.927  -2.737   1.944  1.00  0.00    -0.354 N 
ATOM     37  C   UNL     1       3.156  -5.579  -1.268  1.00  0.00     0.074 A 
ATOM     38  C   UNL     1       1.840  -6.050  -1.641  1.00  0.00     0.031 C 
ATOM     39  C   UNL     1       1.926  -1.466   3.486  1.00  0.00     0.029 A 
ATOM     40  C   UNL     1       3.199  -1.707   2.813  1.00  0.00     0.049 A 
ATOM     41  H   UNL     1       3.605  -3.132   1.348  1.00  0.00     0.167 HD
ATOM     42  C   UNL     1       4.297  -5.913  -1.917  1.00  0.00     0.037 A 
ATOM     43  C   UNL     1       4.345  -1.042   3.062  1.00  0.00     0.037 A 
ATOM     44  C   UNL     1       5.601  -5.397  -1.593  1.00  0.00     0.049 A 
ATOM     45  C   UNL     1       5.604  -1.449   2.350  1.00  0.00     0.074 A 
ATOM     46  C   UNL     1       6.823  -5.724  -2.156  1.00  0.00     0.029 A 
ATOM     47  N   UNL     1       5.850  -4.421  -0.641  1.00  0.00    -0.354 N 
ATOM     48  N   UNL     1       5.763  -2.337   1.399  1.00  0.00    -0.248 NA
ATOM     49  C   UNL     1       6.848  -0.791   2.775  1.00  0.00     0.031 C 
ATOM     50  C   UNL     1       7.814  -4.956  -1.532  1.00  0.00     0.029 A 
ATOM     51  C   UNL     1       7.204  -4.134  -0.600  1.00  0.00     0.049 A 
ATOM     52  H   UNL     1       5.164  -3.994  -0.078  1.00  0.00     0.167 HD
ATOM     53  C   UNL     1       7.126  -2.363   1.130  1.00  0.00     0.074 A 
ATOM     54  C   UNL     1       7.743  -1.371   1.986  1.00  0.00     0.031 C 
ATOM     55  C   UNL     1       7.808  -3.156   0.268  1.00  0.00     0.037 A 
BRANCH  42  56
ATOM     56  C   UNL     1       4.194  -6.928  -3.019  1.00  0.00     0.058 A 
ATOM     57  C   UNL     1       3.735  -6.592  -4.301  1.00  0.00     0.135 A 
ATOM     58  C   UNL     1       4.594  -8.254  -2.789  1.00  0.00     0.135 A 
ATOM     59  F   UNL     1       3.321  -5.342  -4.564  1.00  0.00    -0.206 F 
ATOM     60  C   UNL     1       3.659  -7.542  -5.315  1.00  0.00     0.059 A 
ATOM     61  C   UNL     1       4.543  -9.216  -3.792  1.00  0.00     0.059 A 
ATOM     62  F   UNL     1       5.038  -8.626  -1.578  1.00  0.00    -0.206 F 
ATOM     63  C   UNL     1       4.062  -8.853  -5.049  1.00  0.00     0.060 A 
BRANCH  63  64
ATOM     64  S   UNL     1       3.962 -10.080  -6.371  1.00  0.00     0.124 S 
ATOM     65  O   UNL     1       2.531 -10.370  -6.390  1.00  0.00    -0.237 OA
ATOM     66  O   UNL     1       4.475  -9.346  -7.523  1.00  0.00    -0.237 OA
ATOM     67  O   UNL     1       4.816 -11.163  -5.893  1.00  0.00    -0.744 OA
ENDBRANCH  63  64
ENDBRANCH  42  56
BRANCH  43  68
ATOM     68  C   UNL     1       4.363   0.054   4.066  1.00  0.00     0.058 A 
ATOM     69  C   UNL     1       4.530   1.389   3.672  1.00  0.00     0.135 A 
ATOM     70  C   UNL     1       4.195  -0.209   5.434  1.00  0.00     0.135 A 
ATOM     71  F   UNL     1       4.710   1.689   2.376  1.00  0.00    -0.206 F 
ATOM     72  C   UNL     1       4.525   2.428   4.598  1.00  0.00     0.059 A 
ATOM     73  C   UNL     1       4.162   0.813   6.376  1.00  0.00     0.059 A 
ATOM     74  F   UNL     1       4.028  -1.471   5.861  1.00  0.00    -0.206 F 
ATOM     75  C   UNL     1       4.335   2.129   5.949  1.00  0.00     0.060 A 
BRANCH  75  76
ATOM     76  S   UNL     1       4.246   3.476   7.149  1.00  0.00     0.124 S 
ATOM     77  O   UNL     1       5.655   3.685   7.459  1.00  0.00    -0.237 OA
ATOM     78  O   UNL     1       3.596   4.538   6.387  1.00  0.00    -0.237 OA
ATOM     79  O   UNL     1       3.437   2.904   8.222  1.00  0.00    -0.744 OA
ENDBRANCH  75  76
ENDBRANCH  43  68
BRANCH  55  80
ATOM     80  C   UNL     1       9.300  -3.003   0.227  1.00  0.00     0.058 A 
ATOM     81  C   UNL     1      10.110  -3.548   1.236  1.00  0.00     0.135 A 
ATOM     82  C   UNL     1       9.931  -2.348  -0.842  1.00  0.00     0.135 A 
ATOM     83  F   UNL     1       9.552  -4.179   2.282  1.00  0.00    -0.206 F 
ATOM     84  C   UNL     1      11.495  -3.433   1.197  1.00  0.00     0.059 A 
ATOM     85  C   UNL     1      11.317  -2.237  -0.910  1.00  0.00     0.059 A 
ATOM     86  F   UNL     1       9.200  -1.818  -1.835  1.00  0.00    -0.206 F 
ATOM     87  C   UNL     1      12.090  -2.773   0.120  1.00  0.00     0.060 A 
BRANCH  87  88
ATOM     88  S   UNL     1      13.890  -2.654   0.063  1.00  0.00     0.124 S 
ATOM     89  O   UNL     1      14.142  -1.569   1.006  1.00  0.00    -0.237 OA
ATOM     90  O   UNL     1      14.311  -3.982   0.498  1.00  0.00    -0.237 OA
ATOM     91  O   UNL     1      14.164  -2.346  -1.338  1.00  0.00    -0.744 OA
ENDBRANCH  87  88
ENDBRANCH  55  80
ENDBRANCH  29  30
ENDBRANCH  22  24
ENDBRANCH  21  22
ENDBRANCH   1  21
TORSDOF 16
