REMARK SMILES C[C@@H](C(=O)OCCOC(=O)c1ccc(-c2c3nc(c(-c4c(F)cc(S(=O)(=O)[O-])cc4F)c4ccc([nH]4)c(-c4c(F)cc(S(=O)(=O)[O-])cc4F)c4nc(c(-c5c(F)cc(S(=O)(=O)[O-])cc5F)c5ccc2[nH]5)C=C4)C=C3)cc1)c1ccc(C[C@H]2CCCC2=O)cc1[N+](=O)[O-]
REMARK SMILES IDX 6 1 5 2 3 3 4 4 2 5 1 6 77 7 78 8 89 9 79 10 88 11 80 12
REMARK SMILES IDX 90 13 91 14 92 15 81 16 82 17 83 18 86 19 84 20 85 21 87 22
REMARK SMILES IDX 7 23 8 24 9 25 10 26 11 27 12 28 76 29 13 30 75 31 14 32
REMARK SMILES IDX 15 33 16 34 69 35 17 36 74 37 68 38 70 39 18 40 73 41 67 42
REMARK SMILES IDX 66 43 19 45 53 46 32 47 52 48 33 49 36 50 51 51 71 52 34 53
REMARK SMILES IDX 35 54 50 56 72 57 37 58 20 59 21 60 30 61 22 62 23 63 29 64
REMARK SMILES IDX 31 65 24 66 25 67 26 68 27 69 28 70 54 71 55 72 64 73 56 74
REMARK SMILES IDX 57 75 63 76 65 77 58 78 59 79 60 80 61 81 62 82 38 83 39 84
REMARK SMILES IDX 48 85 40 86 41 87 47 88 49 89 42 90 43 91 44 92 45 93 46 94
REMARK H PARENT 70 44 36 55
REMARK Flexibility Score: inf
ROOT
ATOM      1  C   UNL     1       2.645  -0.462  -3.741  1.00  0.00     0.274 C 
ENDROOT
BRANCH   1   2
ATOM      2  O   UNL     1       2.166  -0.267  -2.393  1.00  0.00    -0.462 OA
BRANCH   2   3
ATOM      3  C   UNL     1       1.141   0.615  -2.233  1.00  0.00     0.313 C 
ATOM      4  O   UNL     1       0.637   1.251  -3.153  1.00  0.00    -0.252 OA
BRANCH   3   5
ATOM      5  C   UNL     1       0.720   0.788  -0.764  1.00  0.00     0.133 C 
ATOM      6  C   UNL     1       1.593  -0.006   0.206  1.00  0.00     0.025 C 
BRANCH   5   7
ATOM      7  C   UNL     1      -0.803   0.728  -0.593  1.00  0.00     0.044 A 
ATOM      8  C   UNL     1      -1.516   1.871  -1.023  1.00  0.00     0.012 A 
ATOM      9  C   UNL     1      -1.596  -0.339  -0.125  1.00  0.00     0.273 A 
ATOM     10  C   UNL     1      -2.915   1.933  -1.011  1.00  0.00     0.004 A 
ATOM     11  C   UNL     1      -3.007  -0.285  -0.108  1.00  0.00     0.089 A 
ATOM     12  C   UNL     1      -3.678   0.853  -0.562  1.00  0.00    -0.040 A 
BRANCH   9  13
ATOM     13  N   UNL     1      -1.040  -1.582   0.369  1.00  0.00     0.063 N 
ATOM     14  O   UNL     1      -1.152  -2.575  -0.358  1.00  0.00    -0.258 OA
ATOM     15  O   UNL     1      -0.552  -1.566   1.507  1.00  0.00    -0.258 OA
ENDBRANCH   9  13
BRANCH  12  16
ATOM     16  C   UNL     1      -5.189   0.905  -0.608  1.00  0.00     0.047 C 
BRANCH  16  17
ATOM     17  C   UNL     1      -5.885   1.557   0.588  1.00  0.00     0.060 C 
ATOM     18  C   UNL     1      -5.635   0.889   1.945  1.00  0.00     0.012 C 
ATOM     19  C   UNL     1      -5.409   2.971   0.838  1.00  0.00     0.136 C 
ATOM     20  C   UNL     1      -4.518   1.688   2.606  1.00  0.00     0.009 C 
ATOM     21  C   UNL     1      -4.762   3.129   2.188  1.00  0.00     0.076 C 
ATOM     22  O   UNL     1      -5.532   3.894   0.043  1.00  0.00    -0.299 OA
ENDBRANCH  16  17
ENDBRANCH  12  16
ENDBRANCH   5   7
ENDBRANCH   3   5
ENDBRANCH   2   3
ENDBRANCH   1   2
BRANCH   1  23
ATOM     23  C   UNL     1       2.161  -1.800  -4.288  1.00  0.00     0.275 C 
BRANCH  23  24
ATOM     24  O   UNL     1       0.727  -1.777  -4.368  1.00  0.00    -0.458 OA
BRANCH  24  25
ATOM     25  C   UNL     1       0.080  -2.714  -3.635  1.00  0.00     0.338 C 
ATOM     26  O   UNL     1       0.588  -3.625  -3.006  1.00  0.00    -0.246 OA
BRANCH  25  27
ATOM     27  C   UNL     1      -1.377  -2.481  -3.714  1.00  0.00     0.060 A 
ATOM     28  C   UNL     1      -1.900  -1.195  -3.590  1.00  0.00     0.016 A 
ATOM     29  C   UNL     1      -2.241  -3.573  -3.813  1.00  0.00     0.016 A 
ATOM     30  C   UNL     1      -3.279  -1.017  -3.471  1.00  0.00     0.010 A 
ATOM     31  C   UNL     1      -3.628  -3.375  -3.783  1.00  0.00     0.010 A 
ATOM     32  C   UNL     1      -4.170  -2.098  -3.560  1.00  0.00    -0.014 A 
BRANCH  32  33
ATOM     33  C   UNL     1      -5.641  -1.902  -3.357  1.00  0.00     0.031 A 
ATOM     34  C   UNL     1      -6.394  -2.727  -2.336  1.00  0.00     0.074 A 
ATOM     35  C   UNL     1      -6.323  -0.959  -4.041  1.00  0.00     0.049 A 
ATOM     36  N   UNL     1      -7.687  -2.836  -2.152  1.00  0.00    -0.248 NA
ATOM     37  C   UNL     1      -5.593  -3.538  -1.404  1.00  0.00     0.031 C 
ATOM     38  C   UNL     1      -5.750  -0.039  -5.025  1.00  0.00     0.029 A 
ATOM     39  N   UNL     1      -7.651  -0.602  -3.998  1.00  0.00    -0.354 N 
ATOM     40  C   UNL     1      -7.856  -3.788  -1.152  1.00  0.00     0.074 A 
ATOM     41  C   UNL     1      -6.531  -4.205  -0.744  1.00  0.00     0.031 C 
ATOM     42  C   UNL     1      -6.697   0.817  -5.436  1.00  0.00     0.029 A 
ATOM     43  C   UNL     1      -7.972   0.440  -4.836  1.00  0.00     0.049 A 
ATOM     44  H   UNL     1      -8.311  -1.051  -3.420  1.00  0.00     0.167 HD
ATOM     45  C   UNL     1      -9.007  -4.278  -0.629  1.00  0.00     0.037 A 
ATOM     46  C   UNL     1      -9.157   1.006  -5.139  1.00  0.00     0.037 A 
ATOM     47  C   UNL     1     -10.327  -3.816  -0.974  1.00  0.00     0.049 A 
ATOM     48  C   UNL     1     -10.420   0.456  -4.545  1.00  0.00     0.074 A 
ATOM     49  C   UNL     1     -11.548  -4.258  -0.490  1.00  0.00     0.029 A 
ATOM     50  N   UNL     1     -10.602  -2.789  -1.862  1.00  0.00    -0.354 N 
ATOM     51  N   UNL     1     -10.565  -0.527  -3.690  1.00  0.00    -0.248 NA
ATOM     52  C   UNL     1     -11.682   1.065  -4.986  1.00  0.00     0.031 C 
ATOM     53  C   UNL     1     -12.562  -3.509  -1.099  1.00  0.00     0.029 A 
ATOM     54  C   UNL     1     -11.971  -2.581  -1.939  1.00  0.00     0.049 A 
ATOM     55  H   UNL     1      -9.925  -2.281  -2.365  1.00  0.00     0.167 HD
ATOM     56  C   UNL     1     -11.935  -0.669  -3.508  1.00  0.00     0.074 A 
ATOM     57  C   UNL     1     -12.575   0.352  -4.311  1.00  0.00     0.031 C 
ATOM     58  C   UNL     1     -12.602  -1.577  -2.754  1.00  0.00     0.037 A 
BRANCH  45  59
ATOM     59  C   UNL     1      -8.900  -5.410   0.354  1.00  0.00     0.058 A 
ATOM     60  C   UNL     1      -8.525  -5.204   1.690  1.00  0.00     0.135 A 
ATOM     61  C   UNL     1      -9.239  -6.716  -0.039  1.00  0.00     0.135 A 
ATOM     62  F   UNL     1      -8.176  -3.978   2.111  1.00  0.00    -0.206 F 
ATOM     63  C   UNL     1      -8.476  -6.256   2.599  1.00  0.00     0.059 A 
ATOM     64  C   UNL     1      -9.215  -7.779   0.857  1.00  0.00     0.059 A 
ATOM     65  F   UNL     1      -9.605  -6.965  -1.306  1.00  0.00    -0.206 F 
ATOM     66  C   UNL     1      -8.822  -7.541   2.173  1.00  0.00     0.060 A 
BRANCH  66  67
ATOM     67  S   UNL     1      -8.776  -8.896   3.366  1.00  0.00     0.124 S 
ATOM     68  O   UNL     1      -7.345  -9.175   3.433  1.00  0.00    -0.237 OA
ATOM     69  O   UNL     1      -9.359  -8.288   4.558  1.00  0.00    -0.237 OA
ATOM     70  O   UNL     1      -9.589  -9.931   2.734  1.00  0.00    -0.744 OA
ENDBRANCH  66  67
ENDBRANCH  45  59
BRANCH  46  71
ATOM     71  C   UNL     1      -9.202   2.128  -6.112  1.00  0.00     0.058 A 
ATOM     72  C   UNL     1      -9.457   3.440  -5.690  1.00  0.00     0.135 A 
ATOM     73  C   UNL     1      -8.943   1.915  -7.475  1.00  0.00     0.135 A 
ATOM     74  F   UNL     1      -9.731   3.688  -4.400  1.00  0.00    -0.206 F 
ATOM     75  C   UNL     1      -9.438   4.507  -6.582  1.00  0.00     0.059 A 
ATOM     76  C   UNL     1      -8.894   2.968  -8.381  1.00  0.00     0.059 A 
ATOM     77  F   UNL     1      -8.687   0.677  -7.925  1.00  0.00    -0.206 F 
ATOM     78  C   UNL     1      -9.145   4.261  -7.925  1.00  0.00     0.060 A 
BRANCH  78  79
ATOM     79  S   UNL     1      -9.015   5.653  -9.069  1.00  0.00     0.124 S 
ATOM     80  O   UNL     1     -10.410   5.857  -9.442  1.00  0.00    -0.237 OA
ATOM     81  O   UNL     1      -8.418   6.693  -8.236  1.00  0.00    -0.237 OA
ATOM     82  O   UNL     1      -8.147   5.133 -10.121  1.00  0.00    -0.744 OA
ENDBRANCH  78  79
ENDBRANCH  46  71
BRANCH  58  83
ATOM     83  C   UNL     1     -14.101  -1.510  -2.769  1.00  0.00     0.058 A 
ATOM     84  C   UNL     1     -14.840  -2.008  -3.854  1.00  0.00     0.135 A 
ATOM     85  C   UNL     1     -14.807  -0.967  -1.685  1.00  0.00     0.135 A 
ATOM     86  F   UNL     1     -14.209  -2.531  -4.917  1.00  0.00    -0.206 F 
ATOM     87  C   UNL     1     -16.230  -1.948  -3.874  1.00  0.00     0.059 A 
ATOM     88  C   UNL     1     -16.198  -0.912  -1.677  1.00  0.00     0.059 A 
ATOM     89  F   UNL     1     -14.146  -0.485  -0.622  1.00  0.00    -0.206 F 
ATOM     90  C   UNL     1     -16.900  -1.393  -2.783  1.00  0.00     0.060 A 
BRANCH  90  91
ATOM     91  S   UNL     1     -18.705  -1.330  -2.810  1.00  0.00     0.124 S 
ATOM     92  O   UNL     1     -18.944  -0.181  -3.677  1.00  0.00    -0.237 OA
ATOM     93  O   UNL     1     -19.059  -2.631  -3.369  1.00  0.00    -0.237 OA
ATOM     94  O   UNL     1     -19.057  -1.142  -1.405  1.00  0.00    -0.744 OA
ENDBRANCH  90  91
ENDBRANCH  58  83
ENDBRANCH  32  33
ENDBRANCH  25  27
ENDBRANCH  24  25
ENDBRANCH  23  24
ENDBRANCH   1  23
TORSDOF 18
