REMARK SMILES O=C(CCCN1C(=O)/C(=C/c2cc(Br)ccc2O)SC1=S)OCCOC(=O)c1ccc(-c2c3nc(c(-c4c(F)cc(S(=O)(=O)[O-])cc4F)c4ccc([nH]4)c(-c4c(F)cc(S(=O)(=O)[O-])cc4F)c4nc(c(-c5c(F)cc(S(=O)(=O)[O-])cc5F)c5ccc2[nH]5)C=C4)C=C3)cc1
REMARK SMILES IDX 23 1 22 2 2 3 1 4 3 5 4 6 5 7 6 8 7 9 20 10 8 11 9 12 19 13
REMARK SMILES IDX 21 14 10 15 11 16 12 17 17 18 13 19 16 20 14 21 15 22 18 23
REMARK SMILES IDX 24 25 25 26 26 27 27 28 28 29 29 30 93 31 30 32 92 33 31 34
REMARK SMILES IDX 32 35 33 36 86 37 34 38 91 39 85 40 87 41 35 42 90 43 84 44
REMARK SMILES IDX 83 45 36 47 70 48 49 49 69 50 50 51 53 52 68 53 88 54 51 55
REMARK SMILES IDX 52 56 67 58 89 59 54 60 37 61 38 62 47 63 39 64 40 65 46 66
REMARK SMILES IDX 48 67 41 68 42 69 43 70 44 71 45 72 71 73 72 74 81 75 73 76
REMARK SMILES IDX 74 77 80 78 82 79 75 80 76 81 77 82 78 83 79 84 55 85 56 86
REMARK SMILES IDX 65 87 57 88 58 89 64 90 66 91 59 92 60 93 61 94 62 95 63 96
REMARK H PARENT 18 24 87 46 53 57
REMARK Flexibility Score: inf
ROOT
ATOM      1  C   UNL     1       3.587   0.307  -1.833  1.00  0.00     0.274 C 
ENDROOT
BRANCH   1   2
ATOM      2  O   UNL     1       3.848  -0.646  -0.803  1.00  0.00    -0.462 OA
BRANCH   2   3
ATOM      3  C   UNL     1       2.770  -0.986  -0.051  1.00  0.00     0.305 C 
ATOM      4  O   UNL     1       1.606  -0.874  -0.416  1.00  0.00    -0.252 OA
BRANCH   3   5
ATOM      5  C   UNL     1       3.176  -1.278   1.371  1.00  0.00     0.124 C 
BRANCH   5   6
ATOM      6  C   UNL     1       4.526  -1.930   1.671  1.00  0.00     0.034 C 
BRANCH   6   7
ATOM      7  C   UNL     1       5.785  -1.691   0.822  1.00  0.00     0.128 C 
BRANCH   7   8
ATOM      8  N   UNL     1       6.536  -0.422   0.801  1.00  0.00    -0.293 N 
ATOM      9  C   UNL     1       6.056   0.784   1.268  1.00  0.00     0.266 C 
ATOM     10  C   UNL     1       7.821  -0.366   0.277  1.00  0.00     0.148 C 
ATOM     11  O   UNL     1       5.090   0.956   1.994  1.00  0.00    -0.268 OA
ATOM     12  C   UNL     1       6.955   1.909   0.856  1.00  0.00     0.081 C 
ATOM     13  S   UNL     1       8.477   1.258   0.416  1.00  0.00    -0.054 SA
ATOM     14  S   UNL     1       8.713  -1.593  -0.426  1.00  0.00    -0.052 S 
ATOM     15  C   UNL     1       6.574   3.198   0.847  1.00  0.00     0.033 C 
BRANCH  15  16
ATOM     16  C   UNL     1       7.419   4.375   0.548  1.00  0.00     0.019 A 
ATOM     17  C   UNL     1       7.490   5.374   1.532  1.00  0.00     0.027 A 
ATOM     18  C   UNL     1       8.154   4.561  -0.635  1.00  0.00     0.122 A 
ATOM     19  C   UNL     1       8.333   6.476   1.368  1.00  0.00     0.018 A 
ATOM     20  C   UNL     1       9.015   5.654  -0.789  1.00  0.00     0.048 A 
ATOM     21  Br  UNL     1       8.430   7.794   2.720  1.00  0.00    -0.051 Br
ATOM     22  C   UNL     1       9.114   6.608   0.223  1.00  0.00     0.019 A 
BRANCH  18  23
ATOM     23  O   UNL     1       8.017   3.674  -1.669  1.00  0.00    -0.507 OA
ATOM     24  H   UNL     1       7.444   2.937  -1.582  1.00  0.00     0.293 HD
ENDBRANCH  18  23
ENDBRANCH  15  16
ENDBRANCH   7   8
ENDBRANCH   6   7
ENDBRANCH   5   6
ENDBRANCH   3   5
ENDBRANCH   2   3
ENDBRANCH   1   2
BRANCH   1  25
ATOM     25  C   UNL     1       3.438   1.730  -1.261  1.00  0.00     0.275 C 
BRANCH  25  26
ATOM     26  O   UNL     1       3.170   1.728   0.157  1.00  0.00    -0.458 OA
BRANCH  26  27
ATOM     27  C   UNL     1       2.069   2.378   0.602  1.00  0.00     0.338 C 
ATOM     28  O   UNL     1       1.306   3.045  -0.066  1.00  0.00    -0.246 OA
BRANCH  27  29
ATOM     29  C   UNL     1       1.871   2.097   2.051  1.00  0.00     0.060 A 
ATOM     30  C   UNL     1       0.745   1.371   2.451  1.00  0.00     0.016 A 
ATOM     31  C   UNL     1       2.762   2.573   3.018  1.00  0.00     0.016 A 
ATOM     32  C   UNL     1       0.489   1.158   3.816  1.00  0.00     0.010 A 
ATOM     33  C   UNL     1       2.515   2.340   4.383  1.00  0.00     0.010 A 
ATOM     34  C   UNL     1       1.354   1.666   4.799  1.00  0.00    -0.014 A 
BRANCH  34  35
ATOM     35  C   UNL     1       0.967   1.619   6.244  1.00  0.00     0.031 A 
ATOM     36  C   UNL     1       0.479   2.881   6.918  1.00  0.00     0.074 A 
ATOM     37  C   UNL     1       1.012   0.477   6.960  1.00  0.00     0.049 A 
ATOM     38  N   UNL     1       0.038   3.056   8.139  1.00  0.00    -0.248 NA
ATOM     39  C   UNL     1       0.496   4.109   6.108  1.00  0.00     0.031 C 
ATOM     40  C   UNL     1       1.467  -0.818   6.460  1.00  0.00     0.029 A 
ATOM     41  N   UNL     1       0.667   0.225   8.270  1.00  0.00    -0.354 N 
ATOM     42  C   UNL     1      -0.282   4.407   8.240  1.00  0.00     0.074 A 
ATOM     43  C   UNL     1       0.067   5.015   6.974  1.00  0.00     0.031 C 
ATOM     44  C   UNL     1       1.369  -1.728   7.447  1.00  0.00     0.029 A 
ATOM     45  C   UNL     1       0.859  -1.082   8.658  1.00  0.00     0.049 A 
ATOM     46  H   UNL     1       0.315   0.917   8.875  1.00  0.00     0.167 HD
ATOM     47  C   UNL     1      -0.837   5.081   9.277  1.00  0.00     0.037 A 
ATOM     48  C   UNL     1       0.652  -1.691   9.845  1.00  0.00     0.037 A 
ATOM     49  C   UNL     1      -1.189   4.490  10.543  1.00  0.00     0.049 A 
ATOM     50  C   UNL     1       0.078  -0.911  11.005  1.00  0.00     0.074 A 
ATOM     51  C   UNL     1      -1.793   5.094  11.633  1.00  0.00     0.029 A 
ATOM     52  N   UNL     1      -0.958   3.170  10.897  1.00  0.00    -0.354 N 
ATOM     53  N   UNL     1      -0.287   0.348  11.056  1.00  0.00    -0.248 NA
ATOM     54  C   UNL     1      -0.122  -1.639  12.269  1.00  0.00     0.031 C 
ATOM     55  C   UNL     1      -1.874   4.155  12.667  1.00  0.00     0.029 A 
ATOM     56  C   UNL     1      -1.378   2.949  12.200  1.00  0.00     0.049 A 
ATOM     57  H   UNL     1      -0.555   2.490  10.310  1.00  0.00     0.167 HD
ATOM     58  C   UNL     1      -0.788   0.551  12.340  1.00  0.00     0.074 A 
ATOM     59  C   UNL     1      -0.690  -0.715  13.033  1.00  0.00     0.031 C 
ATOM     60  C   UNL     1      -1.290   1.685  12.890  1.00  0.00     0.037 A 
BRANCH  47  61
ATOM     61  C   UNL     1      -1.095   6.553   9.091  1.00  0.00     0.058 A 
ATOM     62  C   UNL     1      -2.102   7.021   8.231  1.00  0.00     0.135 A 
ATOM     63  C   UNL     1      -0.355   7.504   9.811  1.00  0.00     0.135 A 
ATOM     64  F   UNL     1      -2.831   6.157   7.508  1.00  0.00    -0.206 F 
ATOM     65  C   UNL     1      -2.344   8.382   8.068  1.00  0.00     0.059 A 
ATOM     66  C   UNL     1      -0.601   8.868   9.687  1.00  0.00     0.059 A 
ATOM     67  F   UNL     1       0.617   7.112  10.650  1.00  0.00    -0.206 F 
ATOM     68  C   UNL     1      -1.587   9.298   8.801  1.00  0.00     0.060 A 
BRANCH  68  69
ATOM     69  S   UNL     1      -1.917  11.059   8.579  1.00  0.00     0.124 S 
ATOM     70  O   UNL     1      -1.377  11.290   7.242  1.00  0.00    -0.237 OA
ATOM     71  O   UNL     1      -3.370  11.121   8.695  1.00  0.00    -0.237 OA
ATOM     72  O   UNL     1      -1.176  11.684   9.670  1.00  0.00    -0.744 OA
ENDBRANCH  68  69
ENDBRANCH  47  61
BRANCH  48  73
ATOM     73  C   UNL     1       0.980  -3.137  10.011  1.00  0.00     0.058 A 
ATOM     74  C   UNL     1      -0.026  -4.098  10.196  1.00  0.00     0.135 A 
ATOM     75  C   UNL     1       2.311  -3.582  10.011  1.00  0.00     0.135 A 
ATOM     76  F   UNL     1      -1.314  -3.722  10.225  1.00  0.00    -0.206 F 
ATOM     77  C   UNL     1       0.273  -5.444  10.387  1.00  0.00     0.059 A 
ATOM     78  C   UNL     1       2.635  -4.927  10.172  1.00  0.00     0.059 A 
ATOM     79  F   UNL     1       3.313  -2.707   9.837  1.00  0.00    -0.206 F 
ATOM     80  C   UNL     1       1.609  -5.849  10.368  1.00  0.00     0.060 A 
BRANCH  80  81
ATOM     81  S   UNL     1       1.984  -7.606  10.562  1.00  0.00     0.124 S 
ATOM     82  O   UNL     1       1.688  -7.819  11.973  1.00  0.00    -0.237 OA
ATOM     83  O   UNL     1       1.060  -8.222   9.615  1.00  0.00    -0.237 OA
ATOM     84  O   UNL     1       3.395  -7.690  10.192  1.00  0.00    -0.744 OA
ENDBRANCH  80  81
ENDBRANCH  48  73
BRANCH  60  85
ATOM     85  C   UNL     1      -1.813   1.619  14.303  1.00  0.00     0.058 A 
ATOM     86  C   UNL     1      -0.957   1.484  15.408  1.00  0.00     0.135 A 
ATOM     87  C   UNL     1      -3.188   1.758  14.559  1.00  0.00     0.135 A 
ATOM     88  F   UNL     1       0.365   1.343  15.225  1.00  0.00    -0.206 F 
ATOM     89  C   UNL     1      -1.447   1.467  16.712  1.00  0.00     0.059 A 
ATOM     90  C   UNL     1      -3.696   1.774  15.856  1.00  0.00     0.059 A 
ATOM     91  F   UNL     1      -4.053   1.903  13.543  1.00  0.00    -0.206 F 
ATOM     92  C   UNL     1      -2.818   1.616  16.926  1.00  0.00     0.060 A 
BRANCH  92  93
ATOM     93  S   UNL     1      -3.435   1.629  18.624  1.00  0.00     0.124 S 
ATOM     94  O   UNL     1      -3.293   0.226  19.000  1.00  0.00    -0.237 OA
ATOM     95  O   UNL     1      -2.521   2.557  19.282  1.00  0.00    -0.237 OA
ATOM     96  O   UNL     1      -4.808   2.105  18.485  1.00  0.00    -0.744 OA
ENDBRANCH  92  93
ENDBRANCH  60  85
ENDBRANCH  34  35
ENDBRANCH  27  29
ENDBRANCH  26  27
ENDBRANCH  25  26
ENDBRANCH   1  25
TORSDOF 19
