REMARK SMILES CCOC(=O)c1cc(C[NH2+]CC(=O)OCCOC(=O)c2ccc(-c3c4nc(c(-c5c(F)cc(S(=O)(=O)[O-])cc5F)c5ccc([nH]5)c(-c5c(F)cc(S(=O)(=O)[O-])cc5F)c5nc(c(-c6c(F)cc(S(=O)(=O)[O-])cc6F)c6ccc3[nH]6)C=C5)C=C4)cc2)c(C)o1
REMARK SMILES IDX 14 1 12 2 13 3 11 4 10 5 9 8 8 9 6 10 7 11 88 12 86 13 87 14
REMARK SMILES IDX 4 15 5 16 3 17 2 18 1 19 15 20 16 21 17 22 18 23 19 24 20 25
REMARK SMILES IDX 21 26 85 27 22 28 84 29 23 30 24 31 25 32 78 33 26 34 83 35
REMARK SMILES IDX 77 36 79 37 27 38 82 39 76 40 75 41 28 43 62 44 41 45 61 46
REMARK SMILES IDX 42 47 45 48 60 49 80 50 43 51 44 52 59 54 81 55 46 56 29 57
REMARK SMILES IDX 30 58 39 59 31 60 32 61 38 62 40 63 33 64 34 65 35 66 36 67
REMARK SMILES IDX 37 68 63 69 64 70 73 71 65 72 66 73 72 74 74 75 67 76 68 77
REMARK SMILES IDX 69 78 70 79 71 80 47 81 48 82 57 83 49 84 50 85 56 86 58 87
REMARK SMILES IDX 51 88 52 89 53 90 54 91 55 92
REMARK H PARENT 10 6 10 7 79 42 45 53
REMARK Flexibility Score: inf
ROOT
ATOM      1  O   UNL     1       3.504  -4.744  -0.395  1.00  0.00    -0.458 OA
ENDROOT
BRANCH   1   2
ATOM      2  C   UNL     1       4.647  -5.267  -0.914  1.00  0.00     0.361 C 
ATOM      3  O   UNL     1       4.793  -6.447  -1.212  1.00  0.00    -0.245 OA
BRANCH   2   4
ATOM      4  C   UNL     1       5.761  -4.229  -1.064  1.00  0.00     0.385 C 
BRANCH   4   5
ATOM      5  N   UNL     1       5.324  -2.911  -1.571  1.00  0.00    -0.333 N 
ATOM      6  H   UNL     1       6.118  -2.444  -2.008  1.00  0.00     0.347 HD
ATOM      7  H   UNL     1       4.575  -3.059  -2.248  1.00  0.00     0.347 HD
BRANCH   5   8
ATOM      8  C   UNL     1       4.815  -2.077  -0.499  1.00  0.00     0.301 C 
BRANCH   8   9
ATOM      9  C   UNL     1       4.502  -0.718  -1.008  1.00  0.00     0.048 A 
ATOM     10  C   UNL     1       3.313   1.161  -1.326  1.00  0.00     0.212 A 
ATOM     11  C   UNL     1       3.206  -0.218  -1.292  1.00  0.00     0.068 A 
ATOM     12  O   UNL     1       4.637   1.506  -1.344  1.00  0.00    -0.454 OA
ATOM     13  C   UNL     1       5.354   0.354  -1.193  1.00  0.00     0.110 A 
ATOM     14  C   UNL     1       6.824   0.494  -1.171  1.00  0.00     0.088 C 
BRANCH  10  15
ATOM     15  C   UNL     1       2.298   2.176  -1.202  1.00  0.00     0.374 C 
ATOM     16  O   UNL     1       2.465   3.377  -0.989  1.00  0.00    -0.242 OA
BRANCH  15  17
ATOM     17  O   UNL     1       1.070   1.582  -1.190  1.00  0.00    -0.460 OA
BRANCH  17  18
ATOM     18  C   UNL     1       0.399   1.649   0.074  1.00  0.00     0.230 C 
ATOM     19  C   UNL     1       0.281   0.230   0.611  1.00  0.00     0.049 C 
ENDBRANCH  17  18
ENDBRANCH  15  17
ENDBRANCH  10  15
ENDBRANCH   8   9
ENDBRANCH   5   8
ENDBRANCH   4   5
ENDBRANCH   2   4
ENDBRANCH   1   2
BRANCH   1  20
ATOM     20  C   UNL     1       2.348  -5.600  -0.361  1.00  0.00     0.274 C 
BRANCH  20  21
ATOM     21  C   UNL     1       1.395  -5.266  -1.513  1.00  0.00     0.275 C 
BRANCH  21  22
ATOM     22  O   UNL     1       1.922  -5.692  -2.783  1.00  0.00    -0.458 OA
BRANCH  22  23
ATOM     23  C   UNL     1       2.692  -4.785  -3.430  1.00  0.00     0.338 C 
ATOM     24  O   UNL     1       2.947  -3.648  -3.069  1.00  0.00    -0.246 OA
BRANCH  23  25
ATOM     25  C   UNL     1       3.342  -5.431  -4.580  1.00  0.00     0.060 A 
ATOM     26  C   UNL     1       4.739  -5.481  -4.607  1.00  0.00     0.016 A 
ATOM     27  C   UNL     1       2.592  -5.956  -5.633  1.00  0.00     0.016 A 
ATOM     28  C   UNL     1       5.395  -6.077  -5.680  1.00  0.00     0.010 A 
ATOM     29  C   UNL     1       3.253  -6.554  -6.710  1.00  0.00     0.010 A 
ATOM     30  C   UNL     1       4.657  -6.625  -6.737  1.00  0.00    -0.014 A 
BRANCH  30  31
ATOM     31  C   UNL     1       5.354  -7.275  -7.872  1.00  0.00     0.031 A 
ATOM     32  C   UNL     1       5.407  -6.593  -9.208  1.00  0.00     0.074 A 
ATOM     33  C   UNL     1       5.928  -8.480  -7.695  1.00  0.00     0.049 A 
ATOM     34  N   UNL     1       5.841  -7.052 -10.351  1.00  0.00    -0.248 NA
ATOM     35  C   UNL     1       4.905  -5.210  -9.264  1.00  0.00     0.031 C 
ATOM     36  C   UNL     1       5.976  -9.214  -6.428  1.00  0.00     0.029 A 
ATOM     37  N   UNL     1       6.566  -9.308  -8.584  1.00  0.00    -0.354 N 
ATOM     38  C   UNL     1       5.665  -6.021 -11.266  1.00  0.00     0.074 A 
ATOM     39  C   UNL     1       5.058  -4.920 -10.549  1.00  0.00     0.031 C 
ATOM     40  C   UNL     1       6.592 -10.391  -6.627  1.00  0.00     0.029 A 
ATOM     41  C   UNL     1       6.934 -10.517  -8.040  1.00  0.00     0.049 A 
ATOM     42  H   UNL     1       6.744  -9.061  -9.520  1.00  0.00     0.167 HD
ATOM     43  C   UNL     1       5.992  -5.997 -12.580  1.00  0.00     0.037 A 
ATOM     44  C   UNL     1       7.443 -11.619  -8.625  1.00  0.00     0.037 A 
ATOM     45  C   UNL     1       6.596  -7.103 -13.279  1.00  0.00     0.049 A 
ATOM     46  C   UNL     1       7.704 -11.602 -10.109  1.00  0.00     0.074 A 
ATOM     47  C   UNL     1       6.957  -7.183 -14.613  1.00  0.00     0.029 A 
ATOM     48  N   UNL     1       6.929  -8.319 -12.701  1.00  0.00    -0.354 N 
ATOM     49  N   UNL     1       7.528 -10.623 -10.965  1.00  0.00    -0.248 NA
ATOM     50  C   UNL     1       8.221 -12.839 -10.710  1.00  0.00     0.031 C 
ATOM     51  C   UNL     1       7.470  -8.463 -14.850  1.00  0.00     0.029 A 
ATOM     52  C   UNL     1       7.471  -9.164 -13.655  1.00  0.00     0.049 A 
ATOM     53  H   UNL     1       6.800  -8.549 -11.752  1.00  0.00     0.167 HD
ATOM     54  C   UNL     1       7.928 -11.121 -12.200  1.00  0.00     0.074 A 
ATOM     55  C   UNL     1       8.373 -12.481 -11.978  1.00  0.00     0.031 C 
ATOM     56  C   UNL     1       7.920 -10.512 -13.411  1.00  0.00     0.037 A 
BRANCH  43  57
ATOM     57  C   UNL     1       5.700  -4.744 -13.355  1.00  0.00     0.058 A 
ATOM     58  C   UNL     1       6.469  -3.582 -13.187  1.00  0.00     0.135 A 
ATOM     59  C   UNL     1       4.685  -4.723 -14.325  1.00  0.00     0.135 A 
ATOM     60  F   UNL     1       7.440  -3.542 -12.262  1.00  0.00    -0.206 F 
ATOM     61  C   UNL     1       6.235  -2.439 -13.946  1.00  0.00     0.059 A 
ATOM     62  C   UNL     1       4.449  -3.599 -15.113  1.00  0.00     0.059 A 
ATOM     63  F   UNL     1       3.918  -5.806 -14.524  1.00  0.00    -0.206 F 
ATOM     64  C   UNL     1       5.226  -2.459 -14.910  1.00  0.00     0.060 A 
BRANCH  64  65
ATOM     65  S   UNL     1       4.957  -0.977 -15.905  1.00  0.00     0.124 S 
ATOM     66  O   UNL     1       4.366  -0.071 -14.925  1.00  0.00    -0.237 OA
ATOM     67  O   UNL     1       6.309  -0.645 -16.342  1.00  0.00    -0.237 OA
ATOM     68  O   UNL     1       4.055  -1.433 -16.959  1.00  0.00    -0.744 OA
ENDBRANCH  64  65
ENDBRANCH  43  57
BRANCH  44  69
ATOM     69  C   UNL     1       7.683 -12.851  -7.827  1.00  0.00     0.058 A 
ATOM     70  C   UNL     1       8.979 -13.341  -7.613  1.00  0.00     0.135 A 
ATOM     71  C   UNL     1       6.613 -13.583  -7.286  1.00  0.00     0.135 A 
ATOM     72  F   UNL     1      10.036 -12.684  -8.117  1.00  0.00    -0.206 F 
ATOM     73  C   UNL     1       9.206 -14.526  -6.920  1.00  0.00     0.059 A 
ATOM     74  C   UNL     1       6.816 -14.754  -6.563  1.00  0.00     0.059 A 
ATOM     75  F   UNL     1       5.352 -13.153  -7.450  1.00  0.00    -0.206 F 
ATOM     76  C   UNL     1       8.116 -15.228  -6.402  1.00  0.00     0.060 A 
BRANCH  76  77
ATOM     77  S   UNL     1       8.418 -16.763  -5.500  1.00  0.00     0.124 S 
ATOM     78  O   UNL     1       8.736 -17.682  -6.586  1.00  0.00    -0.237 OA
ATOM     79  O   UNL     1       9.528 -16.395  -4.627  1.00  0.00    -0.237 OA
ATOM     80  O   UNL     1       7.149 -17.005  -4.818  1.00  0.00    -0.744 OA
ENDBRANCH  76  77
ENDBRANCH  44  69
BRANCH  56  81
ATOM     81  C   UNL     1       8.428 -11.298 -14.586  1.00  0.00     0.058 A 
ATOM     82  C   UNL     1       7.666 -12.324 -15.165  1.00  0.00     0.135 A 
ATOM     83  C   UNL     1       9.654 -10.970 -15.188  1.00  0.00     0.135 A 
ATOM     84  F   UNL     1       6.493 -12.683 -14.621  1.00  0.00    -0.206 F 
ATOM     85  C   UNL     1       8.105 -13.004 -16.296  1.00  0.00     0.059 A 
ATOM     86  C   UNL     1      10.101 -11.619 -16.334  1.00  0.00     0.059 A 
ATOM     87  F   UNL     1      10.418  -9.991 -14.676  1.00  0.00    -0.206 F 
ATOM     88  C   UNL     1       9.320 -12.638 -16.879  1.00  0.00     0.060 A 
BRANCH  88  89
ATOM     89  S   UNL     1       9.845 -13.485 -18.385  1.00  0.00     0.124 S 
ATOM     90  O   UNL     1      10.228 -14.794 -17.869  1.00  0.00    -0.237 OA
ATOM     91  O   UNL     1       8.633 -13.453 -19.198  1.00  0.00    -0.237 OA
ATOM     92  O   UNL     1      10.943 -12.658 -18.876  1.00  0.00    -0.744 OA
ENDBRANCH  88  89
ENDBRANCH  56  81
ENDBRANCH  30  31
ENDBRANCH  23  25
ENDBRANCH  22  23
ENDBRANCH  21  22
ENDBRANCH  20  21
ENDBRANCH   1  20
TORSDOF 20
