REMARK SMILES CC1=C(C#N)c2nc(N)c(C#N)c(C)c2/C1=C\c1ccc(OCC(=O)OCCOC(=O)c2ccc(-c3c4nc(c(-c5c(F)cc(S(=O)(=O)[O-])cc5F)c5ccc([nH]5)c(-c5c(F)cc(S(=O)(=O)[O-])cc5F)c5nc(c(-c6c(F)cc(S(=O)(=O)[O-])cc6F)c6ccc3[nH]6)C=C5)C=C4)cc2)c(Cl)c1
REMARK SMILES IDX 27 1 26 2 24 3 25 4 23 5 22 6 21 7 18 8 19 9 100 10 20 11
REMARK SMILES IDX 98 12 99 13 17 14 1 15 2 16 3 17 16 18 6 19 15 20 7 21 13 22
REMARK SMILES IDX 8 23 10 24 14 25 4 26 5 27 9 28 11 31 12 32 28 33 29 34
REMARK SMILES IDX 30 35 31 36 32 37 33 38 97 39 34 40 96 41 35 42 36 43 37 44
REMARK SMILES IDX 90 45 38 46 95 47 89 48 91 49 39 50 94 51 88 52 87 53 40 55
REMARK SMILES IDX 74 56 53 57 73 58 54 59 57 60 72 61 92 62 55 63 56 64 71 66
REMARK SMILES IDX 93 67 58 68 41 69 42 70 51 71 43 72 44 73 50 74 52 75 45 76
REMARK SMILES IDX 46 77 47 78 48 79 49 80 75 81 76 82 85 83 77 84 78 85 84 86
REMARK SMILES IDX 86 87 79 88 80 89 81 90 82 91 83 92 59 93 60 94 69 95 61 96
REMARK SMILES IDX 62 97 68 98 70 99 63 100 64 101 65 102 66 103 67 104
REMARK H PARENT 9 29 9 30 91 54 57 65
REMARK Flexibility Score: inf
ROOT
ATOM      1  C   UNL     1       0.151   8.267   6.109  1.00  0.00     0.274 C 
ENDROOT
BRANCH   1   2
ATOM      2  O   UNL     1       0.339   8.485   4.682  1.00  0.00    -0.460 OA
BRANCH   2   3
ATOM      3  C   UNL     1       1.494   9.112   4.338  1.00  0.00     0.344 C 
ATOM      4  O   UNL     1       2.275   9.585   5.163  1.00  0.00    -0.248 OA
BRANCH   3   5
ATOM      5  C   UNL     1       1.774   9.237   2.820  1.00  0.00     0.352 C 
BRANCH   5   6
ATOM      6  O   UNL     1       1.059   8.650   1.748  1.00  0.00    -0.480 OA
BRANCH   6   7
ATOM      7  C   UNL     1       1.322   7.392   1.280  1.00  0.00     0.138 A 
ATOM      8  C   UNL     1       1.240   4.616   0.707  1.00  0.00    -0.023 A 
ATOM      9  C   UNL     1       0.198   5.451   0.298  1.00  0.00     0.012 A 
ATOM     10  C   UNL     1       2.427   5.223   1.127  1.00  0.00     0.032 A 
ATOM     11  C   UNL     1       0.226   6.817   0.624  1.00  0.00     0.048 A 
ATOM     12  C   UNL     1       2.484   6.619   1.338  1.00  0.00     0.083 A 
ATOM     13  Cl  UNL     1       4.060   7.312   1.425  1.00  0.00    -0.080 Cl
BRANCH   8  14
ATOM     14  C   UNL     1       1.073   3.151   0.680  1.00  0.00     0.017 C 
ATOM     15  C   UNL     1       0.892   0.173   0.071  1.00  0.00     0.046 C 
ATOM     16  C   UNL     1       0.446   0.833   1.335  1.00  0.00    -0.023 C 
ATOM     17  C   UNL     1      -0.083   0.222   2.415  1.00  0.00     0.082 C 
ATOM     18  C   UNL     1       0.480   2.311   1.567  1.00  0.00    -0.011 C 
ATOM     19  C   UNL     1      -0.372   1.233   3.417  1.00  0.00     0.092 A 
ATOM     20  C   UNL     1      -0.176   2.519   2.901  1.00  0.00     0.014 A 
ATOM     21  N   UNL     1      -0.841   0.906   4.638  1.00  0.00    -0.228 NA
ATOM     22  C   UNL     1      -0.688   3.558   3.675  1.00  0.00    -0.019 A 
ATOM     23  C   UNL     1      -1.214   1.930   5.417  1.00  0.00     0.142 A 
ATOM     24  C   UNL     1      -1.238   3.247   4.947  1.00  0.00     0.098 A 
ATOM     25  C   UNL     1      -0.743   4.955   3.169  1.00  0.00     0.046 C 
BRANCH  17  26
ATOM     26  C   UNL     1      -0.422  -1.249   2.591  1.00  0.00     0.102 C 
ATOM     27  N   UNL     1      -0.703  -2.470   2.737  1.00  0.00    -0.192 NA
ENDBRANCH  17  26
BRANCH  23  28
ATOM     28  N   UNL     1      -1.647   1.576   6.682  1.00  0.00    -0.383 N 
ATOM     29  H   UNL     1      -1.611   0.635   6.969  1.00  0.00     0.158 HD
ATOM     30  H   UNL     1      -1.991   2.264   7.295  1.00  0.00     0.158 HD
ENDBRANCH  23  28
BRANCH  24  31
ATOM     31  C   UNL     1      -1.877   4.248   5.758  1.00  0.00     0.103 C 
ATOM     32  N   UNL     1      -2.385   5.061   6.408  1.00  0.00    -0.192 NA
ENDBRANCH  24  31
ENDBRANCH   8  14
ENDBRANCH   6   7
ENDBRANCH   5   6
ENDBRANCH   3   5
ENDBRANCH   2   3
ENDBRANCH   1   2
BRANCH   1  33
ATOM     33  C   UNL     1       0.545   6.848   6.542  1.00  0.00     0.275 C 
BRANCH  33  34
ATOM     34  O   UNL     1       1.962   6.608   6.475  1.00  0.00    -0.458 OA
BRANCH  34  35
ATOM     35  C   UNL     1       2.358   6.241   5.242  1.00  0.00     0.338 C 
ATOM     36  O   UNL     1       1.658   6.137   4.252  1.00  0.00    -0.246 OA
BRANCH  35  37
ATOM     37  C   UNL     1       3.782   6.016   5.110  1.00  0.00     0.060 A 
ATOM     38  C   UNL     1       4.561   7.095   4.709  1.00  0.00     0.016 A 
ATOM     39  C   UNL     1       4.251   4.702   5.040  1.00  0.00     0.016 A 
ATOM     40  C   UNL     1       5.819   6.850   4.186  1.00  0.00     0.010 A 
ATOM     41  C   UNL     1       5.555   4.474   4.611  1.00  0.00     0.010 A 
ATOM     42  C   UNL     1       6.345   5.548   4.175  1.00  0.00    -0.014 A 
BRANCH  42  43
ATOM     43  C   UNL     1       7.766   5.356   3.813  1.00  0.00     0.031 A 
ATOM     44  C   UNL     1       8.180   4.511   2.647  1.00  0.00     0.074 A 
ATOM     45  C   UNL     1       8.680   5.981   4.579  1.00  0.00     0.049 A 
ATOM     46  N   UNL     1       9.386   4.196   2.253  1.00  0.00    -0.248 NA
ATOM     47  C   UNL     1       7.107   3.932   1.825  1.00  0.00     0.031 C 
ATOM     48  C   UNL     1       8.365   6.842   5.725  1.00  0.00     0.029 A 
ATOM     49  N   UNL     1      10.044   6.018   4.506  1.00  0.00    -0.354 N 
ATOM     50  C   UNL     1       9.224   3.371   1.148  1.00  0.00     0.074 A 
ATOM     51  C   UNL     1       7.798   3.199   0.960  1.00  0.00     0.031 C 
ATOM     52  C   UNL     1       9.493   7.382   6.195  1.00  0.00     0.029 A 
ATOM     53  C   UNL     1      10.617   6.820   5.462  1.00  0.00     0.049 A 
ATOM     54  H   UNL     1      10.564   5.520   3.834  1.00  0.00     0.167 HD
ATOM     55  C   UNL     1      10.184   2.822   0.363  1.00  0.00     0.037 A 
ATOM     56  C   UNL     1      11.909   7.057   5.744  1.00  0.00     0.037 A 
ATOM     57  C   UNL     1      11.598   3.014   0.585  1.00  0.00     0.049 A 
ATOM     58  C   UNL     1      12.950   6.374   4.916  1.00  0.00     0.074 A 
ATOM     59  C   UNL     1      12.661   2.503  -0.138  1.00  0.00     0.029 A 
ATOM     60  N   UNL     1      12.146   3.776   1.611  1.00  0.00    -0.354 N 
ATOM     61  N   UNL     1      12.786   5.580   3.884  1.00  0.00    -0.248 NA
ATOM     62  C   UNL     1      14.347   6.602   5.294  1.00  0.00     0.031 C 
ATOM     63  C   UNL     1      13.848   2.904   0.486  1.00  0.00     0.029 A 
ATOM     64  C   UNL     1      13.531   3.724   1.558  1.00  0.00     0.049 A 
ATOM     65  H   UNL     1      11.627   4.281   2.278  1.00  0.00     0.167 HD
ATOM     66  C   UNL     1      14.062   5.221   3.477  1.00  0.00     0.074 A 
ATOM     67  C   UNL     1      14.986   5.903   4.365  1.00  0.00     0.031 C 
ATOM     68  C   UNL     1      14.433   4.401   2.462  1.00  0.00     0.037 A 
BRANCH  55  69
ATOM     69  C   UNL     1       9.738   1.945  -0.779  1.00  0.00     0.058 A 
ATOM     70  C   UNL     1       9.034   2.460  -1.881  1.00  0.00     0.135 A 
ATOM     71  C   UNL     1      10.020   0.567  -0.779  1.00  0.00     0.135 A 
ATOM     72  F   UNL     1       8.728   3.766  -1.938  1.00  0.00    -0.206 F 
ATOM     73  C   UNL     1       8.579   1.637  -2.908  1.00  0.00     0.059 A 
ATOM     74  C   UNL     1       9.605  -0.269  -1.813  1.00  0.00     0.059 A 
ATOM     75  F   UNL     1      10.696   0.015   0.240  1.00  0.00    -0.206 F 
ATOM     76  C   UNL     1       8.863   0.272  -2.861  1.00  0.00     0.060 A 
BRANCH  76  77
ATOM     77  S   UNL     1       8.211  -0.785  -4.171  1.00  0.00     0.124 S 
ATOM     78  O   UNL     1       6.776  -0.721  -3.908  1.00  0.00    -0.237 OA
ATOM     79  O   UNL     1       8.664  -0.101  -5.377  1.00  0.00    -0.237 OA
ATOM     80  O   UNL     1       8.836  -2.078  -3.911  1.00  0.00    -0.744 OA
ENDBRANCH  76  77
ENDBRANCH  55  69
BRANCH  56  81
ATOM     81  C   UNL     1      12.244   7.994   6.846  1.00  0.00     0.058 A 
ATOM     82  C   UNL     1      12.770   9.261   6.564  1.00  0.00     0.135 A 
ATOM     83  C   UNL     1      11.929   7.696   8.183  1.00  0.00     0.135 A 
ATOM     84  F   UNL     1      13.086   9.590   5.302  1.00  0.00    -0.206 F 
ATOM     85  C   UNL     1      12.957  10.208   7.564  1.00  0.00     0.059 A 
ATOM     86  C   UNL     1      12.078   8.637   9.196  1.00  0.00     0.059 A 
ATOM     87  F   UNL     1      11.397   6.505   8.500  1.00  0.00    -0.206 F 
ATOM     88  C   UNL     1      12.592   9.892   8.875  1.00  0.00     0.060 A 
BRANCH  88  89
ATOM     89  S   UNL     1      12.749  11.168  10.141  1.00  0.00     0.124 S 
ATOM     90  O   UNL     1      14.196  11.339  10.209  1.00  0.00    -0.237 OA
ATOM     91  O   UNL     1      12.001  12.273   9.550  1.00  0.00    -0.237 OA
ATOM     92  O   UNL     1      12.131  10.557  11.315  1.00  0.00    -0.744 OA
ENDBRANCH  88  89
ENDBRANCH  56  81
BRANCH  68  93
ATOM     93  C   UNL     1      15.908   4.200   2.252  1.00  0.00     0.058 A 
ATOM     94  C   UNL     1      16.685   3.455   3.153  1.00  0.00     0.135 A 
ATOM     95  C   UNL     1      16.539   4.708   1.105  1.00  0.00     0.135 A 
ATOM     96  F   UNL     1      16.134   2.958   4.272  1.00  0.00    -0.206 F 
ATOM     97  C   UNL     1      18.040   3.235   2.933  1.00  0.00     0.059 A 
ATOM     98  C   UNL     1      17.885   4.471   0.847  1.00  0.00     0.059 A 
ATOM     99  F   UNL     1      15.841   5.423   0.208  1.00  0.00    -0.206 F 
ATOM    100  C   UNL     1      18.628   3.740   1.771  1.00  0.00     0.060 A 
BRANCH 100 101
ATOM    101  S   UNL     1      20.377   3.405   1.481  1.00  0.00     0.124 S 
ATOM    102  O   UNL     1      21.007   4.186   2.541  1.00  0.00    -0.237 OA
ATOM    103  O   UNL     1      20.443   1.956   1.637  1.00  0.00    -0.237 OA
ATOM    104  O   UNL     1      20.599   3.896   0.125  1.00  0.00    -0.744 OA
ENDBRANCH 100 101
ENDBRANCH  68  93
ENDBRANCH  42  43
ENDBRANCH  35  37
ENDBRANCH  34  35
ENDBRANCH  33  34
ENDBRANCH   1  33
TORSDOF 20
