REMARK SMILES Cn1cc(/C=C2\SC(=S)N(c3cccc(C(=O)OCCOC(=O)c4ccc(-c5c6nc(c(-c7c(F)cc(S(=O)(=O)[O-])cc7F)c7ccc([nH]7)c(-c7c(F)cc(S(=O)(=O)[O-])cc7F)c7nc(c(-c8c(F)cc(S(=O)(=O)[O-])cc8F)c8ccc5[nH]8)C=C7)C=C6)cc4)c3)C2=O)c2ccccc21
REMARK SMILES IDX 20 1 19 2 18 3 16 4 17 5 15 6 11 7 12 8 90 9 13 10 14 11
REMARK SMILES IDX 10 12 5 13 6 14 7 15 91 16 8 17 92 18 9 19 4 20 1 21 2 22
REMARK SMILES IDX 3 23 98 24 93 25 97 26 94 27 96 28 95 29 21 30 22 31 23 32
REMARK SMILES IDX 24 33 25 34 89 35 26 36 88 37 27 38 28 39 29 40 82 41 30 42
REMARK SMILES IDX 87 43 81 44 83 45 31 46 86 47 80 48 79 49 32 51 66 52 45 53
REMARK SMILES IDX 65 54 46 55 49 56 64 57 84 58 47 59 48 60 63 62 85 63 50 64
REMARK SMILES IDX 33 65 34 66 43 67 35 68 36 69 42 70 44 71 37 72 38 73 39 74
REMARK SMILES IDX 40 75 41 76 67 77 68 78 77 79 69 80 70 81 76 82 78 83 71 84
REMARK SMILES IDX 72 85 73 86 74 87 75 88 51 89 52 90 61 91 53 92 54 93 60 94
REMARK SMILES IDX 62 95 55 96 56 97 57 98 58 99 59 100
REMARK H PARENT 83 50 49 61
REMARK Flexibility Score: inf
ROOT
ATOM      1  C   UNL     1      -0.980 -10.557   6.410  1.00  0.00     0.275 C 
ENDROOT
BRANCH   1   2
ATOM      2  C   UNL     1       0.254  -9.749   6.813  1.00  0.00     0.275 C 
BRANCH   2   3
ATOM      3  O   UNL     1       0.839  -9.096   5.669  1.00  0.00    -0.458 OA
BRANCH   3   4
ATOM      4  C   UNL     1       1.996  -9.628   5.202  1.00  0.00     0.338 C 
ATOM      5  O   UNL     1       2.594 -10.585   5.667  1.00  0.00    -0.246 OA
BRANCH   4   6
ATOM      6  C   UNL     1       2.406  -8.946   3.948  1.00  0.00     0.062 A 
ATOM      7  C   UNL     1       2.391  -7.033   2.447  1.00  0.00     0.051 A 
ATOM      8  C   UNL     1       3.034  -7.810   1.473  1.00  0.00     0.027 A 
ATOM      9  C   UNL     1       2.036  -7.627   3.667  1.00  0.00     0.042 A 
ATOM     10  C   UNL     1       3.437  -9.114   1.764  1.00  0.00     0.003 A 
ATOM     11  C   UNL     1       3.163  -9.664   3.015  1.00  0.00     0.016 A 
BRANCH   7  12
ATOM     12  N   UNL     1       2.150  -5.646   2.215  1.00  0.00    -0.261 N 
ATOM     13  C   UNL     1       0.960  -3.051  -0.029  1.00  0.00     0.031 C 
ATOM     14  C   UNL     1       1.471  -3.737   1.004  1.00  0.00     0.081 C 
ATOM     15  S   UNL     1       2.066  -3.078   2.476  1.00  0.00    -0.054 SA
ATOM     16  C   UNL     1       1.577  -5.220   1.018  1.00  0.00     0.270 C 
ATOM     17  C   UNL     1       2.536  -4.649   3.104  1.00  0.00     0.152 C 
ATOM     18  O   UNL     1       1.184  -5.911   0.086  1.00  0.00    -0.268 OA
ATOM     19  S   UNL     1       3.421  -4.746   4.523  1.00  0.00    -0.051 S 
BRANCH  13  20
ATOM     20  C   UNL     1       0.877  -1.629  -0.109  1.00  0.00     0.001 A 
ATOM     21  C   UNL     1       2.359   1.665  -0.114  1.00  0.00     0.149 C 
ATOM     22  N   UNL     1       1.511   0.495  -0.142  1.00  0.00    -0.350 N 
ATOM     23  C   UNL     1       1.971  -0.794  -0.159  1.00  0.00     0.094 A 
ATOM     24  C   UNL     1       0.131   0.512  -0.120  1.00  0.00     0.048 A 
ATOM     25  C   UNL     1      -0.295  -0.822  -0.116  1.00  0.00     0.007 A 
ATOM     26  C   UNL     1      -0.776   1.584  -0.090  1.00  0.00     0.027 A 
ATOM     27  C   UNL     1      -1.679  -1.092  -0.084  1.00  0.00     0.011 A 
ATOM     28  C   UNL     1      -2.142   1.288  -0.057  1.00  0.00     0.002 A 
ATOM     29  C   UNL     1      -2.590  -0.030  -0.056  1.00  0.00     0.001 A 
ENDBRANCH  13  20
ENDBRANCH   7  12
ENDBRANCH   4   6
ENDBRANCH   3   4
ENDBRANCH   2   3
ENDBRANCH   1   2
BRANCH   1  30
ATOM     30  O   UNL     1      -0.604 -11.659   5.562  1.00  0.00    -0.458 OA
BRANCH  30  31
ATOM     31  C   UNL     1      -1.060 -11.600   4.289  1.00  0.00     0.338 C 
ATOM     32  O   UNL     1      -1.808 -10.769   3.806  1.00  0.00    -0.246 OA
BRANCH  31  33
ATOM     33  C   UNL     1      -0.396 -12.641   3.489  1.00  0.00     0.060 A 
ATOM     34  C   UNL     1       0.751 -12.272   2.792  1.00  0.00     0.016 A 
ATOM     35  C   UNL     1      -0.941 -13.914   3.323  1.00  0.00     0.016 A 
ATOM     36  C   UNL     1       1.363 -13.163   1.916  1.00  0.00     0.010 A 
ATOM     37  C   UNL     1      -0.315 -14.819   2.450  1.00  0.00     0.010 A 
ATOM     38  C   UNL     1       0.832 -14.445   1.723  1.00  0.00    -0.014 A 
BRANCH  38  39
ATOM     39  C   UNL     1       1.445 -15.331   0.694  1.00  0.00     0.031 A 
ATOM     40  C   UNL     1       0.695 -15.648  -0.575  1.00  0.00     0.074 A 
ATOM     41  C   UNL     1       2.705 -15.787   0.854  1.00  0.00     0.049 A 
ATOM     42  N   UNL     1       1.056 -16.403  -1.583  1.00  0.00    -0.248 NA
ATOM     43  C   UNL     1      -0.635 -15.040  -0.732  1.00  0.00     0.031 C 
ATOM     44  C   UNL     1       3.556 -15.530   2.017  1.00  0.00     0.029 A 
ATOM     45  N   UNL     1       3.498 -16.544   0.026  1.00  0.00    -0.354 N 
ATOM     46  C   UNL     1      -0.015 -16.395  -2.470  1.00  0.00     0.074 A 
ATOM     47  C   UNL     1      -1.042 -15.563  -1.881  1.00  0.00     0.031 C 
ATOM     48  C   UNL     1       4.761 -16.087   1.813  1.00  0.00     0.029 A 
ATOM     49  C   UNL     1       4.756 -16.784   0.529  1.00  0.00     0.049 A 
ATOM     50  H   UNL     1       3.194 -16.884  -0.847  1.00  0.00     0.167 HD
ATOM     51  C   UNL     1      -0.132 -17.020  -3.666  1.00  0.00     0.037 A 
ATOM     52  C   UNL     1       5.783 -17.494   0.023  1.00  0.00     0.037 A 
ATOM     53  C   UNL     1       0.911 -17.798  -4.285  1.00  0.00     0.049 A 
ATOM     54  C   UNL     1       5.625 -18.175  -1.311  1.00  0.00     0.074 A 
ATOM     55  C   UNL     1       0.896 -18.432  -5.517  1.00  0.00     0.029 A 
ATOM     56  N   UNL     1       2.158 -18.040  -3.730  1.00  0.00    -0.354 N 
ATOM     57  N   UNL     1       4.600 -18.162  -2.129  1.00  0.00    -0.248 NA
ATOM     58  C   UNL     1       6.763 -18.977  -1.785  1.00  0.00     0.031 C 
ATOM     59  C   UNL     1       2.121 -19.086  -5.691  1.00  0.00     0.029 A 
ATOM     60  C   UNL     1       2.913 -18.827  -4.586  1.00  0.00     0.049 A 
ATOM     61  H   UNL     1       2.463 -17.703  -2.857  1.00  0.00     0.167 HD
ATOM     62  C   UNL     1       4.975 -18.940  -3.220  1.00  0.00     0.074 A 
ATOM     63  C   UNL     1       6.330 -19.386  -2.969  1.00  0.00     0.031 C 
ATOM     64  C   UNL     1       4.261 -19.264  -4.325  1.00  0.00     0.037 A 
BRANCH  51  65
ATOM     65  C   UNL     1      -1.446 -16.916  -4.389  1.00  0.00     0.058 A 
ATOM     66  C   UNL     1      -1.837 -15.748  -5.060  1.00  0.00     0.135 A 
ATOM     67  C   UNL     1      -2.296 -18.032  -4.465  1.00  0.00     0.135 A 
ATOM     68  F   UNL     1      -1.071 -14.648  -5.005  1.00  0.00    -0.206 F 
ATOM     69  C   UNL     1      -3.032 -15.686  -5.772  1.00  0.00     0.059 A 
ATOM     70  C   UNL     1      -3.483 -18.000  -5.189  1.00  0.00     0.059 A 
ATOM     71  F   UNL     1      -1.969 -19.174  -3.839  1.00  0.00    -0.206 F 
ATOM     72  C   UNL     1      -3.847 -16.819  -5.834  1.00  0.00     0.060 A 
BRANCH  72  73
ATOM     73  S   UNL     1      -5.377 -16.736  -6.790  1.00  0.00     0.124 S 
ATOM     74  O   UNL     1      -6.226 -15.938  -5.910  1.00  0.00    -0.237 OA
ATOM     75  O   UNL     1      -4.944 -16.079  -8.019  1.00  0.00    -0.237 OA
ATOM     76  O   UNL     1      -5.763 -18.136  -6.935  1.00  0.00    -0.744 OA
ENDBRANCH  72  73
ENDBRANCH  51  65
BRANCH  52  77
ATOM     77  C   UNL     1       7.055 -17.630   0.785  1.00  0.00     0.058 A 
ATOM     78  C   UNL     1       8.245 -17.048   0.321  1.00  0.00     0.135 A 
ATOM     79  C   UNL     1       7.113 -18.379   1.970  1.00  0.00     0.135 A 
ATOM     80  F   UNL     1       8.243 -16.333  -0.815  1.00  0.00    -0.206 F 
ATOM     81  C   UNL     1       9.453 -17.228   0.987  1.00  0.00     0.059 A 
ATOM     82  C   UNL     1       8.303 -18.549   2.670  1.00  0.00     0.059 A 
ATOM     83  F   UNL     1       6.002 -18.948   2.462  1.00  0.00    -0.206 F 
ATOM     84  C   UNL     1       9.472 -17.984   2.160  1.00  0.00     0.060 A 
BRANCH  84  85
ATOM     85  S   UNL     1      11.037 -18.202   3.034  1.00  0.00     0.124 S 
ATOM     86  O   UNL     1      11.678 -19.237   2.231  1.00  0.00    -0.237 OA
ATOM     87  O   UNL     1      11.629 -16.870   2.950  1.00  0.00    -0.237 OA
ATOM     88  O   UNL     1      10.617 -18.608   4.372  1.00  0.00    -0.744 OA
ENDBRANCH  84  85
ENDBRANCH  52  77
BRANCH  64  89
ATOM     89  C   UNL     1       4.945 -20.120  -5.354  1.00  0.00     0.058 A 
ATOM     90  C   UNL     1       5.189 -21.485  -5.131  1.00  0.00     0.135 A 
ATOM     91  C   UNL     1       5.367 -19.570  -6.575  1.00  0.00     0.135 A 
ATOM     92  F   UNL     1       4.809 -22.059  -3.978  1.00  0.00    -0.206 F 
ATOM     93  C   UNL     1       5.866 -22.264  -6.064  1.00  0.00     0.059 A 
ATOM     94  C   UNL     1       6.023 -20.337  -7.533  1.00  0.00     0.059 A 
ATOM     95  F   UNL     1       5.146 -18.273  -6.845  1.00  0.00    -0.206 F 
ATOM     96  C   UNL     1       6.288 -21.678  -7.258  1.00  0.00     0.060 A 
BRANCH  96  97
ATOM     97  S   UNL     1       7.181 -22.690  -8.457  1.00  0.00     0.124 S 
ATOM     98  O   UNL     1       8.518 -22.723  -7.874  1.00  0.00    -0.237 OA
ATOM     99  O   UNL     1       6.443 -23.949  -8.422  1.00  0.00    -0.237 OA
ATOM    100  O   UNL     1       7.055 -21.933  -9.699  1.00  0.00    -0.744 OA
ENDBRANCH  96  97
ENDBRANCH  64  89
ENDBRANCH  38  39
ENDBRANCH  31  33
ENDBRANCH  30  31
ENDBRANCH   1  30
TORSDOF 16
