REMARK SMILES CS(=O)(=O)c1ccc(-n2nc(C(F)(F)F)cc2-c2ccc(CC(=O)OCCOC(=O)c3ccc(-c4c5nc(c(-c6c(F)cc(S(=O)(=O)[O-])cc6F)c6ccc([nH]6)c(-c6c(F)cc(S(=O)(=O)[O-])cc6F)c6nc(c(-c7c(F)cc(S(=O)(=O)[O-])cc7F)c7ccc4[nH]7)C=C6)C=C5)cc3)cc2)cc1
REMARK SMILES IDX 26 1 25 2 23 3 24 4 22 5 21 6 18 7 19 8 98 9 20 10 97 11
REMARK SMILES IDX 17 12 9 13 10 14 11 15 16 16 8 17 5 18 6 19 100 20 7 21
REMARK SMILES IDX 99 22 2 23 1 24 3 25 4 26 12 27 13 28 14 29 15 30 27 31
REMARK SMILES IDX 28 32 29 33 30 34 31 35 32 36 96 37 33 38 95 39 34 40 35 41
REMARK SMILES IDX 36 42 89 43 37 44 94 45 88 46 90 47 38 48 93 49 87 50 86 51
REMARK SMILES IDX 39 53 73 54 52 55 72 56 53 57 56 58 71 59 91 60 54 61 55 62
REMARK SMILES IDX 70 64 92 65 57 66 40 67 41 68 50 69 42 70 43 71 49 72 51 73
REMARK SMILES IDX 44 74 45 75 46 76 47 77 48 78 74 79 75 80 84 81 76 82 77 83
REMARK SMILES IDX 83 84 85 85 78 86 79 87 80 88 81 89 82 90 58 91 59 92 68 93
REMARK SMILES IDX 60 94 61 95 67 96 69 97 62 98 63 99 64 100 65 101 66 102
REMARK H PARENT 90 52 56 63
REMARK Flexibility Score: inf
ROOT
ATOM      1  C   UNL     1      -4.915  -4.921  -1.012  1.00  0.00     0.274 C 
ENDROOT
BRANCH   1   2
ATOM      2  O   UNL     1      -4.417  -5.398  -2.281  1.00  0.00    -0.462 OA
BRANCH   2   3
ATOM      3  C   UNL     1      -5.124  -5.019  -3.381  1.00  0.00     0.310 C 
ATOM      4  O   UNL     1      -6.165  -4.367  -3.337  1.00  0.00    -0.252 OA
BRANCH   3   5
ATOM      5  C   UNL     1      -4.603  -5.596  -4.681  1.00  0.00     0.158 C 
BRANCH   5   6
ATOM      6  C   UNL     1      -3.108  -5.699  -4.867  1.00  0.00    -0.037 A 
ATOM      7  C   UNL     1      -0.305  -5.830  -5.183  1.00  0.00     0.000 A 
ATOM      8  C   UNL     1      -0.990  -4.637  -5.426  1.00  0.00     0.010 A 
ATOM      9  C   UNL     1      -1.034  -6.971  -4.832  1.00  0.00     0.010 A 
ATOM     10  C   UNL     1      -2.376  -4.583  -5.289  1.00  0.00     0.005 A 
ATOM     11  C   UNL     1      -2.423  -6.901  -4.658  1.00  0.00     0.005 A 
BRANCH   7  12
ATOM     12  C   UNL     1       1.152  -5.863  -5.285  1.00  0.00     0.075 A 
ATOM     13  N   UNL     1       2.028  -5.076  -4.540  1.00  0.00    -0.233 N 
ATOM     14  N   UNL     1       3.295  -5.131  -5.030  1.00  0.00    -0.163 NA
ATOM     15  C   UNL     1       3.255  -6.043  -6.019  1.00  0.00     0.167 A 
ATOM     16  C   UNL     1       1.935  -6.517  -6.214  1.00  0.00     0.064 A 
BRANCH  13  17
ATOM     17  C   UNL     1       1.743  -4.296  -3.386  1.00  0.00     0.065 A 
ATOM     18  C   UNL     1       1.067  -2.677  -1.215  1.00  0.00     0.067 A 
ATOM     19  C   UNL     1       0.454  -3.923  -1.371  1.00  0.00     0.022 A 
ATOM     20  C   UNL     1       2.046  -2.249  -2.117  1.00  0.00     0.022 A 
ATOM     21  C   UNL     1       0.788  -4.729  -2.457  1.00  0.00     0.030 A 
ATOM     22  C   UNL     1       2.402  -3.074  -3.193  1.00  0.00     0.030 A 
BRANCH  18  23
ATOM     23  S   UNL     1       0.521  -1.680   0.150  1.00  0.00     0.175 S 
ATOM     24  C   UNL     1       1.072  -0.026  -0.148  1.00  0.00     0.163 C 
ATOM     25  O   UNL     1       1.213  -2.182   1.323  1.00  0.00    -0.224 OA
ATOM     26  O   UNL     1      -0.932  -1.667   0.103  1.00  0.00    -0.224 OA
ENDBRANCH  18  23
ENDBRANCH  13  17
BRANCH  15  27
ATOM     27  C   UNL     1       4.472  -6.478  -6.791  1.00  0.00     0.435 C 
ATOM     28  F   UNL     1       5.305  -5.460  -7.123  1.00  0.00    -0.164 F 
ATOM     29  F   UNL     1       5.210  -7.387  -6.095  1.00  0.00    -0.164 F 
ATOM     30  F   UNL     1       4.129  -7.095  -7.958  1.00  0.00    -0.164 F 
ENDBRANCH  15  27
ENDBRANCH   7  12
ENDBRANCH   5   6
ENDBRANCH   3   5
ENDBRANCH   2   3
ENDBRANCH   1   2
BRANCH   1  31
ATOM     31  C   UNL     1      -4.260  -3.623  -0.536  1.00  0.00     0.275 C 
BRANCH  31  32
ATOM     32  O   UNL     1      -4.562  -2.502  -1.370  1.00  0.00    -0.458 OA
BRANCH  32  33
ATOM     33  C   UNL     1      -3.677  -2.352  -2.380  1.00  0.00     0.338 C 
ATOM     34  O   UNL     1      -2.853  -3.164  -2.758  1.00  0.00    -0.246 OA
BRANCH  33  35
ATOM     35  C   UNL     1      -3.726  -1.000  -2.932  1.00  0.00     0.060 A 
ATOM     36  C   UNL     1      -3.354  -0.833  -4.270  1.00  0.00     0.016 A 
ATOM     37  C   UNL     1      -3.867   0.087  -2.067  1.00  0.00     0.016 A 
ATOM     38  C   UNL     1      -2.992   0.419  -4.719  1.00  0.00     0.010 A 
ATOM     39  C   UNL     1      -3.515   1.343  -2.520  1.00  0.00     0.010 A 
ATOM     40  C   UNL     1      -3.018   1.486  -3.820  1.00  0.00    -0.014 A 
BRANCH  40  41
ATOM     41  C   UNL     1      -2.542   2.775  -4.296  1.00  0.00     0.031 A 
ATOM     42  C   UNL     1      -3.437   3.462  -5.261  1.00  0.00     0.074 A 
ATOM     43  C   UNL     1      -1.450   3.358  -3.766  1.00  0.00     0.049 A 
ATOM     44  N   UNL     1      -3.161   3.936  -6.432  1.00  0.00    -0.248 NA
ATOM     45  C   UNL     1      -4.859   3.558  -4.892  1.00  0.00     0.031 C 
ATOM     46  C   UNL     1      -0.685   2.895  -2.603  1.00  0.00     0.029 A 
ATOM     47  N   UNL     1      -0.880   4.559  -4.059  1.00  0.00    -0.354 N 
ATOM     48  C   UNL     1      -4.324   4.572  -6.858  1.00  0.00     0.074 A 
ATOM     49  C   UNL     1      -5.370   4.181  -5.950  1.00  0.00     0.031 C 
ATOM     50  C   UNL     1       0.086   3.906  -2.152  1.00  0.00     0.029 A 
ATOM     51  C   UNL     1      -0.047   5.036  -3.057  1.00  0.00     0.049 A 
ATOM     52  H   UNL     1      -1.043   5.042  -4.901  1.00  0.00     0.167 HD
ATOM     53  C   UNL     1      -4.309   5.568  -7.784  1.00  0.00     0.037 A 
ATOM     54  C   UNL     1       0.421   6.300  -2.923  1.00  0.00     0.037 A 
ATOM     55  C   UNL     1      -3.110   5.556  -8.574  1.00  0.00     0.049 A 
ATOM     56  C   UNL     1       0.293   6.980  -4.234  1.00  0.00     0.074 A 
ATOM     57  C   UNL     1      -2.526   4.662  -9.448  1.00  0.00     0.029 A 
ATOM     58  N   UNL     1      -2.146   6.487  -8.277  1.00  0.00    -0.354 N 
ATOM     59  N   UNL     1       0.978   6.666  -5.299  1.00  0.00    -0.248 NA
ATOM     60  C   UNL     1      -0.882   7.806  -4.477  1.00  0.00     0.031 C 
ATOM     61  C   UNL     1      -1.122   4.860  -9.313  1.00  0.00     0.029 A 
ATOM     62  C   UNL     1      -0.923   5.873  -8.373  1.00  0.00     0.049 A 
ATOM     63  H   UNL     1      -2.304   7.428  -8.037  1.00  0.00     0.167 HD
ATOM     64  C   UNL     1       0.117   6.900  -6.360  1.00  0.00     0.074 A 
ATOM     65  C   UNL     1      -0.947   7.728  -5.808  1.00  0.00     0.031 C 
ATOM     66  C   UNL     1       0.201   6.169  -7.510  1.00  0.00     0.037 A 
BRANCH  53  67
ATOM     67  C   UNL     1      -5.226   6.764  -7.715  1.00  0.00     0.058 A 
ATOM     68  C   UNL     1      -5.341   7.625  -8.823  1.00  0.00     0.135 A 
ATOM     69  C   UNL     1      -5.774   7.246  -6.504  1.00  0.00     0.135 A 
ATOM     70  F   UNL     1      -4.833   7.274 -10.015  1.00  0.00    -0.206 F 
ATOM     71  C   UNL     1      -5.907   8.897  -8.720  1.00  0.00     0.059 A 
ATOM     72  C   UNL     1      -6.394   8.483  -6.393  1.00  0.00     0.059 A 
ATOM     73  F   UNL     1      -5.641   6.583  -5.348  1.00  0.00    -0.206 F 
ATOM     74  C   UNL     1      -6.413   9.322  -7.495  1.00  0.00     0.060 A 
BRANCH  74  75
ATOM     75  S   UNL     1      -7.021  11.008  -7.316  1.00  0.00     0.124 S 
ATOM     76  O   UNL     1      -5.773  11.763  -7.317  1.00  0.00    -0.237 OA
ATOM     77  O   UNL     1      -7.862  11.158  -8.500  1.00  0.00    -0.237 OA
ATOM     78  O   UNL     1      -7.739  10.972  -6.046  1.00  0.00    -0.744 OA
ENDBRANCH  74  75
ENDBRANCH  53  67
BRANCH  54  79
ATOM     79  C   UNL     1       0.693   7.025  -1.658  1.00  0.00     0.058 A 
ATOM     80  C   UNL     1       1.517   8.161  -1.626  1.00  0.00     0.135 A 
ATOM     81  C   UNL     1      -0.043   6.753  -0.486  1.00  0.00     0.135 A 
ATOM     82  F   UNL     1       2.224   8.512  -2.710  1.00  0.00    -0.206 F 
ATOM     83  C   UNL     1       1.592   8.991  -0.503  1.00  0.00     0.059 A 
ATOM     84  C   UNL     1       0.028   7.554   0.650  1.00  0.00     0.059 A 
ATOM     85  F   UNL     1      -0.922   5.740  -0.439  1.00  0.00    -0.206 F 
ATOM     86  C   UNL     1       0.834   8.685   0.627  1.00  0.00     0.060 A 
BRANCH  86  87
ATOM     87  S   UNL     1       0.824   9.827   2.028  1.00  0.00     0.124 S 
ATOM     88  O   UNL     1       2.184   9.688   2.537  1.00  0.00    -0.237 OA
ATOM     89  O   UNL     1       0.509  11.097   1.385  1.00  0.00    -0.237 OA
ATOM     90  O   UNL     1      -0.224   9.292   2.894  1.00  0.00    -0.744 OA
ENDBRANCH  86  87
ENDBRANCH  54  79
BRANCH  66  91
ATOM     91  C   UNL     1       1.472   5.403  -7.762  1.00  0.00     0.058 A 
ATOM     92  C   UNL     1       1.908   4.319  -6.980  1.00  0.00     0.135 A 
ATOM     93  C   UNL     1       2.203   5.690  -8.926  1.00  0.00     0.135 A 
ATOM     94  F   UNL     1       1.208   3.914  -5.911  1.00  0.00    -0.206 F 
ATOM     95  C   UNL     1       3.044   3.583  -7.316  1.00  0.00     0.059 A 
ATOM     96  C   UNL     1       3.320   4.947  -9.298  1.00  0.00     0.059 A 
ATOM     97  F   UNL     1       1.799   6.673  -9.748  1.00  0.00    -0.206 F 
ATOM     98  C   UNL     1       3.743   3.902  -8.480  1.00  0.00     0.060 A 
BRANCH  98  99
ATOM     99  S   UNL     1       5.153   2.882  -8.961  1.00  0.00     0.124 S 
ATOM    100  O   UNL     1       6.182   3.322  -8.026  1.00  0.00    -0.237 OA
ATOM    101  O   UNL     1       4.648   1.526  -8.757  1.00  0.00    -0.237 OA
ATOM    102  O   UNL     1       5.377   3.248 -10.358  1.00  0.00    -0.744 OA
ENDBRANCH  98  99
ENDBRANCH  66  91
ENDBRANCH  40  41
ENDBRANCH  33  35
ENDBRANCH  32  33
ENDBRANCH  31  32
ENDBRANCH   1  31
TORSDOF 19
