REMARK SMILES C[C@@H](Nc1cccc(C(=O)OCCOC(=O)c2ccc(-c3c4nc(c(-c5c(F)cc(S(=O)(=O)[O-])cc5F)c5ccc([nH]5)c(-c5c(F)cc(S(=O)(=O)[O-])cc5F)c5nc(c(-c6c(F)cc(S(=O)(=O)[O-])cc6F)c6ccc3[nH]6)C=C5)C=C4)cc2)c1)C1CC[NH+](C)CC1
REMARK SMILES IDX 12 1 11 2 9 3 10 4 8 5 4 6 5 7 83 8 6 9 7 10 3 11 2 13 1 14
REMARK SMILES IDX 84 15 85 16 90 17 86 18 89 19 87 20 88 21 13 23 14 24 15 25
REMARK SMILES IDX 16 26 17 27 18 28 82 29 19 30 81 31 20 32 21 33 22 34 75 35
REMARK SMILES IDX 23 36 80 37 74 38 76 39 24 40 79 41 73 42 72 43 25 45 59 46
REMARK SMILES IDX 38 47 58 48 39 49 42 50 57 51 77 52 40 53 41 54 56 56 78 57
REMARK SMILES IDX 43 58 26 59 27 60 36 61 28 62 29 63 35 64 37 65 30 66 31 67
REMARK SMILES IDX 32 68 33 69 34 70 60 71 61 72 70 73 62 74 63 75 69 76 71 77
REMARK SMILES IDX 64 78 65 79 66 80 67 81 68 82 44 83 45 84 54 85 46 86 47 87
REMARK SMILES IDX 53 88 55 89 48 90 49 91 50 92 51 93 52 94
REMARK H PARENT 3 12 87 22 76 44 42 55
REMARK Flexibility Score: inf
ROOT
ATOM      1  C   UNL     1      -3.481  -5.415  -3.127  1.00  0.00     0.275 C 
ENDROOT
BRANCH   1   2
ATOM      2  O   UNL     1      -2.108  -5.542  -2.683  1.00  0.00    -0.458 OA
BRANCH   2   3
ATOM      3  C   UNL     1      -2.000  -5.655  -1.339  1.00  0.00     0.338 C 
ATOM      4  O   UNL     1      -2.943  -5.646  -0.565  1.00  0.00    -0.246 OA
BRANCH   3   5
ATOM      5  C   UNL     1      -0.626  -5.573  -0.796  1.00  0.00     0.062 A 
ATOM      6  C   UNL     1       0.789  -3.785  -0.025  1.00  0.00     0.035 A 
ATOM      7  C   UNL     1       1.079  -4.567   1.113  1.00  0.00     0.026 A 
ATOM      8  C   UNL     1       0.084  -4.388  -1.063  1.00  0.00     0.041 A 
ATOM      9  C   UNL     1       0.527  -5.834   1.303  1.00  0.00     0.003 A 
ATOM     10  C   UNL     1      -0.387  -6.308   0.375  1.00  0.00     0.016 A 
BRANCH   6  11
ATOM     11  N   UNL     1       1.016  -2.426   0.075  1.00  0.00    -0.382 N 
ATOM     12  H   UNL     1       1.468  -2.165   0.910  1.00  0.00     0.160 HD
BRANCH  11  13
ATOM     13  C   UNL     1       0.721  -1.293  -0.806  1.00  0.00     0.079 C 
ATOM     14  C   UNL     1       1.661  -0.166  -0.308  1.00  0.00     0.031 C 
BRANCH  13  15
ATOM     15  C   UNL     1      -0.733  -0.698  -0.867  1.00  0.00     0.022 C 
ATOM     16  C   UNL     1      -1.303  -0.062   0.409  1.00  0.00     0.067 C 
ATOM     17  C   UNL     1      -1.853  -1.559  -1.452  1.00  0.00     0.067 C 
ATOM     18  C   UNL     1      -1.704  -1.110   1.435  1.00  0.00     0.262 C 
ATOM     19  C   UNL     1      -2.485  -2.506  -0.435  1.00  0.00     0.262 C 
ATOM     20  N   UNL     1      -2.721  -2.037   0.931  1.00  0.00    -0.337 N 
ATOM     21  C   UNL     1      -2.743  -3.221   1.819  1.00  0.00     0.332 C 
ATOM     22  H   UNL     1      -3.603  -1.525   0.921  1.00  0.00     0.347 HD
ENDBRANCH  13  15
ENDBRANCH  11  13
ENDBRANCH   6  11
ENDBRANCH   3   5
ENDBRANCH   2   3
ENDBRANCH   1   2
BRANCH   1  23
ATOM     23  C   UNL     1      -4.114  -6.770  -3.456  1.00  0.00     0.275 C 
BRANCH  23  24
ATOM     24  O   UNL     1      -4.345  -7.540  -2.260  1.00  0.00    -0.458 OA
BRANCH  24  25
ATOM     25  C   UNL     1      -3.414  -8.482  -1.995  1.00  0.00     0.338 C 
ATOM     26  O   UNL     1      -2.471  -8.799  -2.714  1.00  0.00    -0.246 OA
BRANCH  25  27
ATOM     27  C   UNL     1      -3.611  -9.085  -0.664  1.00  0.00     0.060 A 
ATOM     28  C   UNL     1      -3.737  -8.278   0.464  1.00  0.00     0.016 A 
ATOM     29  C   UNL     1      -3.457 -10.461  -0.510  1.00  0.00     0.016 A 
ATOM     30  C   UNL     1      -3.521  -8.809   1.729  1.00  0.00     0.010 A 
ATOM     31  C   UNL     1      -3.425 -11.014   0.773  1.00  0.00     0.010 A 
ATOM     32  C   UNL     1      -3.402 -10.190   1.913  1.00  0.00    -0.014 A 
BRANCH  32  33
ATOM     33  C   UNL     1      -3.236 -10.768   3.278  1.00  0.00     0.031 A 
ATOM     34  C   UNL     1      -2.122 -11.749   3.546  1.00  0.00     0.074 A 
ATOM     35  C   UNL     1      -4.079 -10.428   4.276  1.00  0.00     0.049 A 
ATOM     36  N   UNL     1      -1.972 -12.578   4.545  1.00  0.00    -0.248 NA
ATOM     37  C   UNL     1      -1.048 -11.827   2.541  1.00  0.00     0.031 C 
ATOM     38  C   UNL     1      -5.160  -9.440   4.184  1.00  0.00     0.029 A 
ATOM     39  N   UNL     1      -4.164 -10.876   5.572  1.00  0.00    -0.354 N 
ATOM     40  C   UNL     1      -0.835 -13.326   4.253  1.00  0.00     0.074 A 
ATOM     41  C   UNL     1      -0.335 -12.855   2.981  1.00  0.00     0.031 C 
ATOM     42  C   UNL     1      -5.759  -9.320   5.376  1.00  0.00     0.029 A 
ATOM     43  C   UNL     1      -5.206 -10.319   6.278  1.00  0.00     0.049 A 
ATOM     44  H   UNL     1      -3.540 -11.532   5.958  1.00  0.00     0.167 HD
ATOM     45  C   UNL     1      -0.270 -14.318   4.983  1.00  0.00     0.037 A 
ATOM     46  C   UNL     1      -5.718 -10.624   7.485  1.00  0.00     0.037 A 
ATOM     47  C   UNL     1      -0.753 -14.728   6.278  1.00  0.00     0.049 A 
ATOM     48  C   UNL     1      -5.113 -11.765   8.251  1.00  0.00     0.074 A 
ATOM     49  C   UNL     1      -0.260 -15.718   7.110  1.00  0.00     0.029 A 
ATOM     50  N   UNL     1      -1.831 -14.154   6.939  1.00  0.00    -0.354 N 
ATOM     51  N   UNL     1      -4.093 -12.524   7.928  1.00  0.00    -0.248 NA
ATOM     52  C   UNL     1      -5.743 -12.110   9.531  1.00  0.00     0.031 C 
ATOM     53  C   UNL     1      -1.066 -15.772   8.251  1.00  0.00     0.029 A 
ATOM     54  C   UNL     1      -2.026 -14.777   8.160  1.00  0.00     0.049 A 
ATOM     55  H   UNL     1      -2.377 -13.413   6.590  1.00  0.00     0.167 HD
ATOM     56  C   UNL     1      -3.944 -13.423   8.976  1.00  0.00     0.074 A 
ATOM     57  C   UNL     1      -4.968 -13.100   9.950  1.00  0.00     0.031 C 
ATOM     58  C   UNL     1      -3.045 -14.427   9.120  1.00  0.00     0.037 A 
BRANCH  45  59
ATOM     59  C   UNL     1       0.902 -15.055   4.389  1.00  0.00     0.058 A 
ATOM     60  C   UNL     1       2.163 -14.460   4.231  1.00  0.00     0.135 A 
ATOM     61  C   UNL     1       0.767 -16.400   4.001  1.00  0.00     0.135 A 
ATOM     62  F   UNL     1       2.350 -13.173   4.567  1.00  0.00    -0.206 F 
ATOM     63  C   UNL     1       3.238 -15.159   3.686  1.00  0.00     0.059 A 
ATOM     64  C   UNL     1       1.835 -17.128   3.484  1.00  0.00     0.059 A 
ATOM     65  F   UNL     1      -0.416 -17.023   4.127  1.00  0.00    -0.206 F 
ATOM     66  C   UNL     1       3.064 -16.494   3.317  1.00  0.00     0.060 A 
BRANCH  66  67
ATOM     67  S   UNL     1       4.469 -17.388   2.620  1.00  0.00     0.124 S 
ATOM     68  O   UNL     1       4.592 -16.763   1.307  1.00  0.00    -0.237 OA
ATOM     69  O   UNL     1       5.535 -17.081   3.569  1.00  0.00    -0.237 OA
ATOM     70  O   UNL     1       4.021 -18.777   2.613  1.00  0.00    -0.744 OA
ENDBRANCH  66  67
ENDBRANCH  45  59
BRANCH  46  71
ATOM     71  C   UNL     1      -6.900  -9.883   8.007  1.00  0.00     0.058 A 
ATOM     72  C   UNL     1      -6.796  -9.068   9.143  1.00  0.00     0.135 A 
ATOM     73  C   UNL     1      -8.153  -9.962   7.376  1.00  0.00     0.135 A 
ATOM     74  F   UNL     1      -5.625  -8.964   9.790  1.00  0.00    -0.206 F 
ATOM     75  C   UNL     1      -7.892  -8.371   9.644  1.00  0.00     0.059 A 
ATOM     76  C   UNL     1      -9.253  -9.246   7.835  1.00  0.00     0.059 A 
ATOM     77  F   UNL     1      -8.307 -10.717   6.277  1.00  0.00    -0.206 F 
ATOM     78  C   UNL     1      -9.116  -8.464   8.980  1.00  0.00     0.060 A 
BRANCH  78  79
ATOM     79  S   UNL     1     -10.522  -7.528   9.617  1.00  0.00     0.124 S 
ATOM     80  O   UNL     1     -10.850  -8.278  10.824  1.00  0.00    -0.237 OA
ATOM     81  O   UNL     1      -9.941  -6.205   9.824  1.00  0.00    -0.237 OA
ATOM     82  O   UNL     1     -11.500  -7.612   8.536  1.00  0.00    -0.744 OA
ENDBRANCH  78  79
ENDBRANCH  46  71
BRANCH  58  83
ATOM     83  C   UNL     1      -3.094 -15.211  10.401  1.00  0.00     0.058 A 
ATOM     84  C   UNL     1      -4.127 -16.121  10.674  1.00  0.00     0.135 A 
ATOM     85  C   UNL     1      -2.069 -15.074  11.350  1.00  0.00     0.135 A 
ATOM     86  F   UNL     1      -5.137 -16.279   9.803  1.00  0.00    -0.206 F 
ATOM     87  C   UNL     1      -4.155 -16.851  11.857  1.00  0.00     0.059 A 
ATOM     88  C   UNL     1      -2.059 -15.818  12.525  1.00  0.00     0.059 A 
ATOM     89  F   UNL     1      -1.054 -14.222  11.133  1.00  0.00    -0.206 F 
ATOM     90  C   UNL     1      -3.114 -16.695  12.774  1.00  0.00     0.060 A 
BRANCH  90  91
ATOM     91  S   UNL     1      -3.144 -17.674  14.289  1.00  0.00     0.124 S 
ATOM     92  O   UNL     1      -4.216 -17.025  15.038  1.00  0.00    -0.237 OA
ATOM     93  O   UNL     1      -3.441 -19.013  13.788  1.00  0.00    -0.237 OA
ATOM     94  O   UNL     1      -1.802 -17.498  14.835  1.00  0.00    -0.744 OA
ENDBRANCH  90  91
ENDBRANCH  58  83
ENDBRANCH  32  33
ENDBRANCH  25  27
ENDBRANCH  24  25
ENDBRANCH  23  24
ENDBRANCH   1  23
TORSDOF 17
