REMARK SMILES O=C(C[C@@H]([NH2+]Cc1ccccc1)C(=O)OCCOC(=O)c1ccc(-c2c3nc(c(-c4c(F)cc(S(=O)(=O)[O-])cc4F)c4ccc([nH]4)c(-c4c(F)cc(S(=O)(=O)[O-])cc4F)c4nc(c(-c5c(F)cc(S(=O)(=O)[O-])cc5F)c5ccc2[nH]5)C=C4)C=C3)cc1)Nc1cccc(Cl)c1Cl
REMARK SMILES IDX 16 1 15 2 13 3 14 4 4 5 3 6 2 7 1 8 87 9 88 11 89 12 94 13
REMARK SMILES IDX 90 14 92 15 95 16 91 17 93 18 5 19 6 22 7 23 8 24 12 25 9 26
REMARK SMILES IDX 11 27 10 28 17 29 18 30 19 31 20 32 21 33 22 34 86 35 23 36
REMARK SMILES IDX 85 37 24 38 25 39 26 40 79 41 27 42 84 43 78 44 80 45 28 46
REMARK SMILES IDX 83 47 77 48 76 49 29 51 63 52 42 53 62 54 43 55 46 56 61 57
REMARK SMILES IDX 81 58 44 59 45 60 60 62 82 63 47 64 30 65 31 66 40 67 32 68
REMARK SMILES IDX 33 69 39 70 41 71 34 72 35 73 36 74 37 75 38 76 64 77 65 78
REMARK SMILES IDX 74 79 66 80 67 81 73 82 75 83 68 84 69 85 70 86 71 87 72 88
REMARK SMILES IDX 48 89 49 90 58 91 50 92 51 93 57 94 59 95 52 96 53 97 54 98
REMARK SMILES IDX 55 99 56 100
REMARK H PARENT 87 10 5 20 5 21 80 50 46 61
REMARK Flexibility Score: inf
ROOT
ATOM      1  C   UNL     1       5.923  -1.342  -4.167  1.00  0.00     0.274 C 
ENDROOT
BRANCH   1   2
ATOM      2  O   UNL     1       5.264  -1.041  -2.920  1.00  0.00    -0.458 OA
BRANCH   2   3
ATOM      3  C   UNL     1       5.097   0.283  -2.645  1.00  0.00     0.365 C 
ATOM      4  O   UNL     1       5.528   1.178  -3.365  1.00  0.00    -0.245 OA
BRANCH   3   5
ATOM      5  C   UNL     1       4.265   0.547  -1.371  1.00  0.00     0.303 C 
BRANCH   5   6
ATOM      6  C   UNL     1       3.671  -0.735  -0.762  1.00  0.00     0.177 C 
BRANCH   6   7
ATOM      7  C   UNL     1       2.579  -0.371   0.223  1.00  0.00     0.231 C 
ATOM      8  O   UNL     1       1.424  -0.179  -0.138  1.00  0.00    -0.274 OA
ATOM      9  N   UNL     1       3.079  -0.106   1.490  1.00  0.00    -0.325 N 
ATOM     10  H   UNL     1       4.037  -0.267   1.651  1.00  0.00     0.169 HD
BRANCH   9  11
ATOM     11  C   UNL     1       2.300   0.379   2.565  1.00  0.00     0.061 A 
ATOM     12  C   UNL     1       2.851   1.464   3.267  1.00  0.00     0.028 A 
ATOM     13  C   UNL     1       1.060  -0.156   2.973  1.00  0.00     0.083 A 
ATOM     14  C   UNL     1       2.152   2.066   4.312  1.00  0.00     0.004 A 
ATOM     15  C   UNL     1       0.371   0.452   4.037  1.00  0.00     0.061 A 
ATOM     16  Cl  UNL     1       0.484  -1.665   2.329  1.00  0.00    -0.080 Cl
ATOM     17  C   UNL     1       0.910   1.566   4.691  1.00  0.00     0.022 A 
ATOM     18  Cl  UNL     1      -1.138  -0.149   4.641  1.00  0.00    -0.083 Cl
ENDBRANCH   9  11
ENDBRANCH   6   7
ENDBRANCH   5   6
BRANCH   5  19
ATOM     19  N   UNL     1       4.998   1.316  -0.314  1.00  0.00    -0.330 N 
ATOM     20  H   UNL     1       5.729   0.712   0.062  1.00  0.00     0.347 HD
ATOM     21  H   UNL     1       4.291   1.588   0.369  1.00  0.00     0.347 HD
BRANCH  19  22
ATOM     22  C   UNL     1       5.631   2.571  -0.754  1.00  0.00     0.298 C 
BRANCH  22  23
ATOM     23  C   UNL     1       4.733   3.739  -1.113  1.00  0.00     0.006 A 
ATOM     24  C   UNL     1       5.354   4.888  -1.640  1.00  0.00     0.009 A 
ATOM     25  C   UNL     1       3.347   3.788  -0.899  1.00  0.00     0.009 A 
ATOM     26  C   UNL     1       4.618   6.030  -1.964  1.00  0.00     0.001 A 
ATOM     27  C   UNL     1       2.608   4.927  -1.239  1.00  0.00     0.001 A 
ATOM     28  C   UNL     1       3.242   6.046  -1.771  1.00  0.00     0.000 A 
ENDBRANCH  22  23
ENDBRANCH  19  22
ENDBRANCH   5  19
ENDBRANCH   3   5
ENDBRANCH   2   3
ENDBRANCH   1   2
BRANCH   1  29
ATOM     29  C   UNL     1       4.931  -1.641  -5.300  1.00  0.00     0.275 C 
BRANCH  29  30
ATOM     30  O   UNL     1       4.168  -0.487  -5.700  1.00  0.00    -0.458 OA
BRANCH  30  31
ATOM     31  C   UNL     1       2.999  -0.323  -5.043  1.00  0.00     0.338 C 
ATOM     32  O   UNL     1       2.554  -1.051  -4.157  1.00  0.00    -0.246 OA
BRANCH  31  33
ATOM     33  C   UNL     1       2.360   0.947  -5.412  1.00  0.00     0.060 A 
ATOM     34  C   UNL     1       2.215   1.908  -4.412  1.00  0.00     0.016 A 
ATOM     35  C   UNL     1       1.813   1.166  -6.677  1.00  0.00     0.016 A 
ATOM     36  C   UNL     1       1.514   3.080  -4.651  1.00  0.00     0.010 A 
ATOM     37  C   UNL     1       1.116   2.357  -6.926  1.00  0.00     0.010 A 
ATOM     38  C   UNL     1       0.953   3.316  -5.910  1.00  0.00    -0.014 A 
BRANCH  38  39
ATOM     39  C   UNL     1       0.175   4.560  -6.121  1.00  0.00     0.031 A 
ATOM     40  C   UNL     1      -1.322   4.506  -6.225  1.00  0.00     0.074 A 
ATOM     41  C   UNL     1       0.813   5.746  -6.145  1.00  0.00     0.049 A 
ATOM     42  N   UNL     1      -2.167   5.474  -6.471  1.00  0.00    -0.248 NA
ATOM     43  C   UNL     1      -1.952   3.193  -6.020  1.00  0.00     0.031 C 
ATOM     44  C   UNL     1       2.256   5.933  -5.979  1.00  0.00     0.029 A 
ATOM     45  N   UNL     1       0.328   7.019  -6.309  1.00  0.00    -0.354 N 
ATOM     46  C   UNL     1      -3.426   4.887  -6.473  1.00  0.00     0.074 A 
ATOM     47  C   UNL     1      -3.234   3.476  -6.210  1.00  0.00     0.031 C 
ATOM     48  C   UNL     1       2.538   7.244  -6.043  1.00  0.00     0.029 A 
ATOM     49  C   UNL     1       1.306   7.984  -6.303  1.00  0.00     0.049 A 
ATOM     50  H   UNL     1      -0.629   7.222  -6.419  1.00  0.00     0.167 HD
ATOM     51  C   UNL     1      -4.630   5.473  -6.676  1.00  0.00     0.037 A 
ATOM     52  C   UNL     1       1.224   9.311  -6.516  1.00  0.00     0.037 A 
ATOM     53  C   UNL     1      -4.817   6.881  -6.914  1.00  0.00     0.049 A 
ATOM     54  C   UNL     1      -0.116   9.928  -6.803  1.00  0.00     0.074 A 
ATOM     55  C   UNL     1      -5.998   7.569  -7.133  1.00  0.00     0.029 A 
ATOM     56  N   UNL     1      -3.796   7.819  -6.958  1.00  0.00    -0.354 N 
ATOM     57  N   UNL     1      -1.294   9.354  -6.847  1.00  0.00    -0.248 NA
ATOM     58  C   UNL     1      -0.136  11.370  -7.086  1.00  0.00     0.031 C 
ATOM     59  C   UNL     1      -5.688   8.919  -7.339  1.00  0.00     0.029 A 
ATOM     60  C   UNL     1      -4.316   9.076  -7.217  1.00  0.00     0.049 A 
ATOM     61  H   UNL     1      -2.841   7.620  -6.824  1.00  0.00     0.167 HD
ATOM     62  C   UNL     1      -2.196  10.364  -7.157  1.00  0.00     0.074 A 
ATOM     63  C   UNL     1      -1.431  11.588  -7.273  1.00  0.00     0.031 C 
ATOM     64  C   UNL     1      -3.538  10.283  -7.336  1.00  0.00     0.037 A 
BRANCH  51  65
ATOM     65  C   UNL     1      -5.838   4.583  -6.687  1.00  0.00     0.058 A 
ATOM     66  C   UNL     1      -6.397   4.080  -5.502  1.00  0.00     0.135 A 
ATOM     67  C   UNL     1      -6.459   4.247  -7.901  1.00  0.00     0.135 A 
ATOM     68  F   UNL     1      -5.832   4.359  -4.317  1.00  0.00    -0.206 F 
ATOM     69  C   UNL     1      -7.519   3.257  -5.521  1.00  0.00     0.059 A 
ATOM     70  C   UNL     1      -7.591   3.440  -7.942  1.00  0.00     0.059 A 
ATOM     71  F   UNL     1      -5.961   4.700  -9.062  1.00  0.00    -0.206 F 
ATOM     72  C   UNL     1      -8.106   2.938  -6.748  1.00  0.00     0.060 A 
BRANCH  72  73
ATOM     73  S   UNL     1      -9.561   1.868  -6.766  1.00  0.00     0.124 S 
ATOM     74  O   UNL     1      -8.957   0.554  -6.566  1.00  0.00    -0.237 OA
ATOM     75  O   UNL     1     -10.345   2.381  -5.647  1.00  0.00    -0.237 OA
ATOM     76  O   UNL     1     -10.136   2.101  -8.087  1.00  0.00    -0.744 OA
ENDBRANCH  72  73
ENDBRANCH  51  65
BRANCH  52  77
ATOM     77  C   UNL     1       2.458  10.136  -6.504  1.00  0.00     0.058 A 
ATOM     78  C   UNL     1       2.727  11.021  -5.451  1.00  0.00     0.135 A 
ATOM     79  C   UNL     1       3.403  10.036  -7.537  1.00  0.00     0.135 A 
ATOM     80  F   UNL     1       1.848  11.155  -4.446  1.00  0.00    -0.206 F 
ATOM     81  C   UNL     1       3.891  11.782  -5.422  1.00  0.00     0.059 A 
ATOM     82  C   UNL     1       4.584  10.770  -7.520  1.00  0.00     0.059 A 
ATOM     83  F   UNL     1       3.193   9.194  -8.561  1.00  0.00    -0.206 F 
ATOM     84  C   UNL     1       4.815  11.647  -6.461  1.00  0.00     0.060 A 
BRANCH  84  85
ATOM     85  S   UNL     1       6.357  12.585  -6.385  1.00  0.00     0.124 S 
ATOM     86  O   UNL     1       5.921  13.901  -6.836  1.00  0.00    -0.237 OA
ATOM     87  O   UNL     1       6.717  12.479  -4.974  1.00  0.00    -0.237 OA
ATOM     88  O   UNL     1       7.232  11.859  -7.301  1.00  0.00    -0.744 OA
ENDBRANCH  84  85
ENDBRANCH  52  77
BRANCH  64  89
ATOM     89  C   UNL     1      -4.261  11.555  -7.668  1.00  0.00     0.058 A 
ATOM     90  C   UNL     1      -4.216  12.104  -8.959  1.00  0.00     0.135 A 
ATOM     91  C   UNL     1      -5.036  12.211  -6.699  1.00  0.00     0.135 A 
ATOM     92  F   UNL     1      -3.481  11.517  -9.917  1.00  0.00    -0.206 F 
ATOM     93  C   UNL     1      -4.901  13.273  -9.274  1.00  0.00     0.059 A 
ATOM     94  C   UNL     1      -5.744  13.371  -6.997  1.00  0.00     0.059 A 
ATOM     95  F   UNL     1      -5.115  11.722  -5.452  1.00  0.00    -0.206 F 
ATOM     96  C   UNL     1      -5.661  13.901  -8.285  1.00  0.00     0.060 A 
BRANCH  96  97
ATOM     97  S   UNL     1      -6.570  15.402  -8.709  1.00  0.00     0.124 S 
ATOM     98  O   UNL     1      -5.512  16.406  -8.671  1.00  0.00    -0.237 OA
ATOM     99  O   UNL     1      -7.100  15.089 -10.033  1.00  0.00    -0.237 OA
ATOM    100  O   UNL     1      -7.570  15.501  -7.650  1.00  0.00    -0.744 OA
ENDBRANCH  96  97
ENDBRANCH  64  89
ENDBRANCH  38  39
ENDBRANCH  31  33
ENDBRANCH  30  31
ENDBRANCH  29  30
ENDBRANCH   1  29
TORSDOF 20
