REMARK SMILES CC1(C)S[C@@H](c2ccsc2)[NH2+][C@@H]1C(=O)OCCOC(=O)c1ccc(-c2c3nc(c(-c4c(F)cc(S(=O)(=O)[O-])cc4F)c4ccc([nH]4)c(-c4c(F)cc(S(=O)(=O)[O-])cc4F)c4nc(c(-c5c(F)cc(S(=O)(=O)[O-])cc5F)c5ccc2[nH]5)C=C4)C=C3)cc1
REMARK SMILES IDX 17 1 16 2 15 3 13 4 14 5 12 6 1 7 2 8 3 9 4 10 5 11 11 12
REMARK SMILES IDX 6 15 7 16 10 17 8 18 9 19 18 20 19 21 20 22 21 23 22 24
REMARK SMILES IDX 86 25 23 26 85 27 24 28 25 29 26 30 79 31 27 32 84 33 78 34
REMARK SMILES IDX 80 35 28 36 83 37 77 38 76 39 29 41 63 42 42 43 62 44 43 45
REMARK SMILES IDX 46 46 61 47 81 48 44 49 45 50 60 52 82 53 47 54 30 55 31 56
REMARK SMILES IDX 40 57 32 58 33 59 39 60 41 61 34 62 35 63 36 64 37 65 38 66
REMARK SMILES IDX 64 67 65 68 74 69 66 70 67 71 73 72 75 73 68 74 69 75 70 76
REMARK SMILES IDX 71 77 72 78 48 79 49 80 58 81 50 82 51 83 57 84 59 85 52 86
REMARK SMILES IDX 53 87 54 88 55 89 56 90
REMARK H PARENT 11 13 11 14 80 40 46 51
REMARK Flexibility Score: inf
ROOT
ATOM      1  C   UNL     1      -0.234   2.524  -4.733  1.00  0.00     0.275 C 
ENDROOT
BRANCH   1   2
ATOM      2  C   UNL     1      -1.174   1.486  -4.110  1.00  0.00     0.274 C 
BRANCH   2   3
ATOM      3  O   UNL     1      -1.093   1.498  -2.672  1.00  0.00    -0.458 OA
BRANCH   3   4
ATOM      4  C   UNL     1      -0.392   0.470  -2.100  1.00  0.00     0.366 C 
ATOM      5  O   UNL     1       0.091  -0.453  -2.738  1.00  0.00    -0.245 OA
BRANCH   4   6
ATOM      6  C   UNL     1      -0.265   0.683  -0.571  1.00  0.00     0.310 C 
ATOM      7  C   UNL     1       0.977   0.239   1.600  1.00  0.00     0.030 C 
ATOM      8  C   UNL     1       0.548  -0.363   0.242  1.00  0.00     0.079 C 
ATOM      9  C   UNL     1       1.793  -1.001  -0.378  1.00  0.00     0.030 C 
ATOM     10  S   UNL     1      -0.675  -1.678   0.542  1.00  0.00    -0.081 SA
ATOM     11  C   UNL     1      -2.097  -0.604   0.241  1.00  0.00     0.275 C 
ATOM     12  N   UNL     1      -1.631   0.772   0.050  1.00  0.00    -0.319 N 
ATOM     13  H   UNL     1      -1.578   1.253   0.948  1.00  0.00     0.348 HD
ATOM     14  H   UNL     1      -2.271   1.297  -0.546  1.00  0.00     0.348 HD
BRANCH  11  15
ATOM     15  C   UNL     1      -3.061  -0.675   1.396  1.00  0.00     0.031 A 
ATOM     16  C   UNL     1      -2.745  -0.437   2.784  1.00  0.00     0.022 A 
ATOM     17  C   UNL     1      -4.389  -1.050   1.274  1.00  0.00     0.075 A 
ATOM     18  C   UNL     1      -3.804  -0.681   3.629  1.00  0.00     0.065 A 
ATOM     19  S   UNL     1      -5.204  -1.149   2.774  1.00  0.00    -0.152 S 
ENDBRANCH  11  15
ENDBRANCH   4   6
ENDBRANCH   3   4
ENDBRANCH   2   3
ENDBRANCH   1   2
BRANCH   1  20
ATOM     20  O   UNL     1       1.146   2.276  -4.402  1.00  0.00    -0.458 OA
BRANCH  20  21
ATOM     21  C   UNL     1       1.592   2.928  -3.298  1.00  0.00     0.338 C 
ATOM     22  O   UNL     1       0.961   3.708  -2.608  1.00  0.00    -0.246 OA
BRANCH  21  23
ATOM     23  C   UNL     1       2.922   2.417  -2.904  1.00  0.00     0.060 A 
ATOM     24  C   UNL     1       3.102   2.107  -1.554  1.00  0.00     0.016 A 
ATOM     25  C   UNL     1       3.980   2.266  -3.803  1.00  0.00     0.016 A 
ATOM     26  C   UNL     1       4.311   1.583  -1.105  1.00  0.00     0.010 A 
ATOM     27  C   UNL     1       5.210   1.769  -3.344  1.00  0.00     0.010 A 
ATOM     28  C   UNL     1       5.372   1.406  -1.996  1.00  0.00    -0.014 A 
BRANCH  28  29
ATOM     29  C   UNL     1       6.670   0.933  -1.461  1.00  0.00     0.031 A 
ATOM     30  C   UNL     1       7.664   1.945  -0.975  1.00  0.00     0.074 A 
ATOM     31  C   UNL     1       6.919  -0.383  -1.324  1.00  0.00     0.049 A 
ATOM     32  N   UNL     1       8.866   1.760  -0.496  1.00  0.00    -0.248 NA
ATOM     33  C   UNL     1       7.237   3.352  -1.017  1.00  0.00     0.031 C 
ATOM     34  C   UNL     1       5.984  -1.459  -1.651  1.00  0.00     0.029 A 
ATOM     35  N   UNL     1       8.036  -1.037  -0.865  1.00  0.00    -0.354 N 
ATOM     36  C   UNL     1       9.344   3.026  -0.184  1.00  0.00     0.074 A 
ATOM     37  C   UNL     1       8.304   3.971  -0.534  1.00  0.00     0.031 C 
ATOM     38  C   UNL     1       6.575  -2.641  -1.400  1.00  0.00     0.029 A 
ATOM     39  C   UNL     1       7.942  -2.408  -0.938  1.00  0.00     0.049 A 
ATOM     40  H   UNL     1       8.829  -0.569  -0.516  1.00  0.00     0.167 HD
ATOM     41  C   UNL     1      10.544   3.368   0.340  1.00  0.00     0.037 A 
ATOM     42  C   UNL     1       8.867  -3.359  -0.694  1.00  0.00     0.037 A 
ATOM     43  C   UNL     1      11.581   2.423   0.663  1.00  0.00     0.049 A 
ATOM     44  C   UNL     1      10.244  -2.945  -0.233  1.00  0.00     0.074 A 
ATOM     45  C   UNL     1      12.845   2.674   1.167  1.00  0.00     0.029 A 
ATOM     46  N   UNL     1      11.481   1.048   0.502  1.00  0.00    -0.354 N 
ATOM     47  N   UNL     1      10.698  -1.743   0.035  1.00  0.00    -0.248 NA
ATOM     48  C   UNL     1      11.236  -4.013  -0.048  1.00  0.00     0.031 C 
ATOM     49  C   UNL     1      13.529   1.458   1.255  1.00  0.00     0.029 A 
ATOM     50  C   UNL     1      12.671   0.441   0.869  1.00  0.00     0.049 A 
ATOM     51  H   UNL     1      10.682   0.575   0.175  1.00  0.00     0.167 HD
ATOM     52  C   UNL     1      12.017  -1.915   0.448  1.00  0.00     0.074 A 
ATOM     53  C   UNL     1      12.284  -3.337   0.404  1.00  0.00     0.031 C 
ATOM     54  C   UNL     1      12.922  -0.980   0.832  1.00  0.00     0.037 A 
BRANCH  41  55
ATOM     55  C   UNL     1      10.821   4.832   0.531  1.00  0.00     0.058 A 
ATOM     56  C   UNL     1      10.195   5.583   1.536  1.00  0.00     0.135 A 
ATOM     57  C   UNL     1      11.740   5.488  -0.304  1.00  0.00     0.135 A 
ATOM     58  F   UNL     1       9.289   5.010   2.345  1.00  0.00    -0.206 F 
ATOM     59  C   UNL     1      10.451   6.942   1.692  1.00  0.00     0.059 A 
ATOM     60  C   UNL     1      12.033   6.839  -0.148  1.00  0.00     0.059 A 
ATOM     61  F   UNL     1      12.361   4.816  -1.286  1.00  0.00    -0.206 F 
ATOM     62  C   UNL     1      11.372   7.561   0.844  1.00  0.00     0.060 A 
BRANCH  62  63
ATOM     63  S   UNL     1      11.689   9.325   1.054  1.00  0.00     0.124 S 
ATOM     64  O   UNL     1      10.442   9.905   0.564  1.00  0.00    -0.237 OA
ATOM     65  O   UNL     1      11.915   9.431   2.492  1.00  0.00    -0.237 OA
ATOM     66  O   UNL     1      12.861   9.562   0.218  1.00  0.00    -0.744 OA
ENDBRANCH  62  63
ENDBRANCH  41  55
BRANCH  42  67
ATOM     67  C   UNL     1       8.549  -4.796  -0.930  1.00  0.00     0.058 A 
ATOM     68  C   UNL     1       8.508  -5.720   0.124  1.00  0.00     0.135 A 
ATOM     69  C   UNL     1       8.311  -5.279  -2.227  1.00  0.00     0.135 A 
ATOM     70  F   UNL     1       8.747  -5.315   1.381  1.00  0.00    -0.206 F 
ATOM     71  C   UNL     1       8.260  -7.072  -0.098  1.00  0.00     0.059 A 
ATOM     72  C   UNL     1       8.031  -6.620  -2.472  1.00  0.00     0.059 A 
ATOM     73  F   UNL     1       8.338  -4.440  -3.274  1.00  0.00    -0.206 F 
ATOM     74  C   UNL     1       8.020  -7.512  -1.401  1.00  0.00     0.060 A 
BRANCH  74  75
ATOM     75  S   UNL     1       7.667  -9.262  -1.677  1.00  0.00     0.124 S 
ATOM     76  O   UNL     1       8.973  -9.866  -1.442  1.00  0.00    -0.237 OA
ATOM     77  O   UNL     1       6.648  -9.531  -0.667  1.00  0.00    -0.237 OA
ATOM     78  O   UNL     1       7.195  -9.297  -3.058  1.00  0.00    -0.744 OA
ENDBRANCH  74  75
ENDBRANCH  42  67
BRANCH  54  79
ATOM     79  C   UNL     1      14.278  -1.457   1.281  1.00  0.00     0.058 A 
ATOM     80  C   UNL     1      15.226  -1.962   0.378  1.00  0.00     0.135 A 
ATOM     81  C   UNL     1      14.659  -1.337   2.629  1.00  0.00     0.135 A 
ATOM     82  F   UNL     1      14.914  -2.103  -0.920  1.00  0.00    -0.206 F 
ATOM     83  C   UNL     1      16.496  -2.346   0.796  1.00  0.00     0.059 A 
ATOM     84  C   UNL     1      15.934  -1.686   3.063  1.00  0.00     0.059 A 
ATOM     85  F   UNL     1      13.796  -0.849   3.535  1.00  0.00    -0.206 F 
ATOM     86  C   UNL     1      16.843  -2.199   2.140  1.00  0.00     0.060 A 
BRANCH  86  87
ATOM     87  S   UNL     1      18.511  -2.657   2.660  1.00  0.00     0.124 S 
ATOM     88  O   UNL     1      18.453  -4.113   2.589  1.00  0.00    -0.237 OA
ATOM     89  O   UNL     1      19.341  -2.005   1.652  1.00  0.00    -0.237 OA
ATOM     90  O   UNL     1      18.615  -2.098   4.005  1.00  0.00    -0.744 OA
ENDBRANCH  86  87
ENDBRANCH  54  79
ENDBRANCH  28  29
ENDBRANCH  21  23
ENDBRANCH  20  21
ENDBRANCH   1  20
TORSDOF 15
