REMARK SMILES Cc1ccc(Cn2c(C)c(C[NH2+]Cc3ccco3)c(C(=O)OCCOC(=O)c3ccc(-c4c5nc(c(-c6c(F)cc(S(=O)(=O)[O-])cc6F)c6ccc([nH]6)c(-c6c(F)cc(S(=O)(=O)[O-])cc6F)c6nc(c(-c7c(F)cc(S(=O)(=O)[O-])cc7F)c7ccc4[nH]7)C=C6)C=C5)cc3)c2C)cc1
REMARK SMILES IDX 23 1 22 2 20 3 21 4 19 5 7 6 8 7 94 8 9 9 10 10 95 11 6 12
REMARK SMILES IDX 5 13 1 14 2 15 3 16 97 17 4 18 96 19 11 20 12 21 13 24 14 25
REMARK SMILES IDX 15 26 18 27 16 28 17 29 24 30 25 31 26 32 27 33 28 34 29 35
REMARK SMILES IDX 93 36 30 37 92 38 31 39 32 40 33 41 86 42 34 43 91 44 85 45
REMARK SMILES IDX 87 46 35 47 90 48 84 49 83 50 36 52 70 53 49 54 69 55 50 56
REMARK SMILES IDX 53 57 68 58 88 59 51 60 52 61 67 63 89 64 54 65 37 66 38 67
REMARK SMILES IDX 47 68 39 69 40 70 46 71 48 72 41 73 42 74 43 75 44 76 45 77
REMARK SMILES IDX 71 78 72 79 81 80 73 81 74 82 80 83 82 84 75 85 76 86 77 87
REMARK SMILES IDX 78 88 79 89 55 90 56 91 65 92 57 93 58 94 64 95 66 96 59 97
REMARK SMILES IDX 60 98 61 99 62 100 63 101
REMARK H PARENT 12 22 12 23 87 51 53 62
REMARK Flexibility Score: inf
ROOT
ATOM      1  C   UNL     1      -3.954  -5.887  -1.282  1.00  0.00     0.275 C 
ENDROOT
BRANCH   1   2
ATOM      2  O   UNL     1      -4.738  -4.683  -1.196  1.00  0.00    -0.458 OA
BRANCH   2   3
ATOM      3  C   UNL     1      -4.133  -3.588  -1.756  1.00  0.00     0.340 C 
ATOM      4  O   UNL     1      -3.015  -3.625  -2.263  1.00  0.00    -0.246 OA
BRANCH   3   5
ATOM      5  C   UNL     1      -4.709  -2.306  -1.386  1.00  0.00     0.089 A 
ATOM      6  N   UNL     1      -4.196  -0.411  -0.394  1.00  0.00    -0.343 N 
ATOM      7  C   UNL     1      -5.053  -0.085  -1.436  1.00  0.00     0.025 A 
ATOM      8  C   UNL     1      -4.322  -1.764  -0.165  1.00  0.00     0.030 A 
ATOM      9  C   UNL     1      -5.410   1.310  -1.833  1.00  0.00     0.065 C 
ATOM     10  C   UNL     1      -5.404  -1.270  -2.110  1.00  0.00     0.042 A 
ATOM     11  C   UNL     1      -3.848  -2.508   1.036  1.00  0.00     0.065 C 
BRANCH   6  12
ATOM     12  C   UNL     1      -3.346   0.501   0.385  1.00  0.00     0.157 C 
BRANCH  12  13
ATOM     13  C   UNL     1      -1.844   0.437   0.118  1.00  0.00    -0.028 A 
ATOM     14  C   UNL     1       2.506   0.458  -0.132  1.00  0.00     0.044 C 
ATOM     15  C   UNL     1       1.007   0.466  -0.053  1.00  0.00    -0.051 A 
ATOM     16  C   UNL     1       0.323  -0.706   0.262  1.00  0.00     0.004 A 
ATOM     17  C   UNL     1       0.260   1.615  -0.330  1.00  0.00     0.004 A 
ATOM     18  C   UNL     1      -1.075  -0.713   0.350  1.00  0.00     0.006 A 
ATOM     19  C   UNL     1      -1.143   1.601  -0.242  1.00  0.00     0.006 A 
ENDBRANCH  12  13
ENDBRANCH   6  12
BRANCH  10  20
ATOM     20  C   UNL     1      -6.171  -1.286  -3.432  1.00  0.00     0.300 C 
BRANCH  20  21
ATOM     21  N   UNL     1      -7.503  -1.917  -3.345  1.00  0.00    -0.336 N 
ATOM     22  H   UNL     1      -7.927  -1.693  -2.445  1.00  0.00     0.346 HD
ATOM     23  H   UNL     1      -7.406  -2.929  -3.433  1.00  0.00     0.346 HD
BRANCH  21  24
ATOM     24  C   UNL     1      -8.370  -1.405  -4.443  1.00  0.00     0.337 C 
BRANCH  24  25
ATOM     25  C   UNL     1      -9.415  -2.339  -4.996  1.00  0.00     0.157 A 
ATOM     26  C   UNL     1     -10.068  -2.344  -6.220  1.00  0.00     0.052 A 
ATOM     27  O   UNL     1      -9.720  -3.483  -4.315  1.00  0.00    -0.463 OA
ATOM     28  C   UNL     1     -10.725  -3.594  -6.328  1.00  0.00     0.042 A 
ATOM     29  C   UNL     1     -10.457  -4.259  -5.156  1.00  0.00     0.195 A 
ENDBRANCH  24  25
ENDBRANCH  21  24
ENDBRANCH  20  21
ENDBRANCH  10  20
ENDBRANCH   3   5
ENDBRANCH   2   3
ENDBRANCH   1   2
BRANCH   1  30
ATOM     30  C   UNL     1      -4.825  -7.140  -1.457  1.00  0.00     0.275 C 
BRANCH  30  31
ATOM     31  O   UNL     1      -5.663  -7.268  -2.630  1.00  0.00    -0.458 OA
BRANCH  31  32
ATOM     32  C   UNL     1      -5.978  -6.141  -3.320  1.00  0.00     0.338 C 
ATOM     33  O   UNL     1      -6.940  -5.439  -3.053  1.00  0.00    -0.246 OA
BRANCH  32  34
ATOM     34  C   UNL     1      -4.873  -5.805  -4.254  1.00  0.00     0.060 A 
ATOM     35  C   UNL     1      -4.670  -4.464  -4.595  1.00  0.00     0.016 A 
ATOM     36  C   UNL     1      -3.905  -6.758  -4.555  1.00  0.00     0.016 A 
ATOM     37  C   UNL     1      -3.454  -4.030  -5.117  1.00  0.00     0.010 A 
ATOM     38  C   UNL     1      -2.683  -6.333  -5.026  1.00  0.00     0.010 A 
ATOM     39  C   UNL     1      -2.450  -4.971  -5.288  1.00  0.00    -0.014 A 
BRANCH  39  40
ATOM     40  C   UNL     1      -1.177  -4.688  -5.928  1.00  0.00     0.031 A 
ATOM     41  C   UNL     1      -0.032  -4.043  -5.253  1.00  0.00     0.074 A 
ATOM     42  C   UNL     1      -1.085  -5.236  -7.158  1.00  0.00     0.049 A 
ATOM     43  N   UNL     1       0.989  -3.577  -5.892  1.00  0.00    -0.248 NA
ATOM     44  C   UNL     1       0.075  -3.843  -3.809  1.00  0.00     0.031 C 
ATOM     45  C   UNL     1       0.087  -5.532  -7.951  1.00  0.00     0.029 A 
ATOM     46  N   UNL     1      -2.153  -5.501  -8.024  1.00  0.00    -0.354 N 
ATOM     47  C   UNL     1       1.991  -3.344  -4.973  1.00  0.00     0.074 A 
ATOM     48  C   UNL     1       1.339  -3.407  -3.686  1.00  0.00     0.031 C 
ATOM     49  C   UNL     1      -0.291  -5.629  -9.238  1.00  0.00     0.029 A 
ATOM     50  C   UNL     1      -1.686  -5.216  -9.310  1.00  0.00     0.049 A 
ATOM     51  H   UNL     1      -3.050  -5.822  -7.777  1.00  0.00     0.167 HD
ATOM     52  C   UNL     1       3.284  -3.302  -5.409  1.00  0.00     0.037 A 
ATOM     53  C   UNL     1      -2.179  -4.168 -10.040  1.00  0.00     0.037 A 
ATOM     54  C   UNL     1       3.339  -3.407  -6.863  1.00  0.00     0.049 A 
ATOM     55  C   UNL     1      -1.148  -3.107 -10.311  1.00  0.00     0.074 A 
ATOM     56  C   UNL     1       3.474  -4.479  -7.729  1.00  0.00     0.029 A 
ATOM     57  N   UNL     1       2.889  -2.349  -7.624  1.00  0.00    -0.354 N 
ATOM     58  N   UNL     1       0.032  -3.107  -9.767  1.00  0.00    -0.248 NA
ATOM     59  C   UNL     1      -1.383  -1.927 -11.142  1.00  0.00     0.031 C 
ATOM     60  C   UNL     1       3.028  -4.066  -9.014  1.00  0.00     0.029 A 
ATOM     61  C   UNL     1       2.635  -2.744  -8.922  1.00  0.00     0.049 A 
ATOM     62  H   UNL     1       2.766  -1.432  -7.287  1.00  0.00     0.167 HD
ATOM     63  C   UNL     1       0.722  -2.015 -10.185  1.00  0.00     0.074 A 
ATOM     64  C   UNL     1      -0.209  -1.283 -11.021  1.00  0.00     0.031 C 
ATOM     65  C   UNL     1       2.013  -1.800  -9.826  1.00  0.00     0.037 A 
BRANCH  52  66
ATOM     66  C   UNL     1       4.514  -3.443  -4.542  1.00  0.00     0.058 A 
ATOM     67  C   UNL     1       5.646  -4.133  -5.040  1.00  0.00     0.135 A 
ATOM     68  C   UNL     1       4.652  -2.949  -3.232  1.00  0.00     0.135 A 
ATOM     69  F   UNL     1       5.681  -4.630  -6.283  1.00  0.00    -0.206 F 
ATOM     70  C   UNL     1       6.792  -4.369  -4.288  1.00  0.00     0.059 A 
ATOM     71  C   UNL     1       5.787  -3.199  -2.443  1.00  0.00     0.059 A 
ATOM     72  F   UNL     1       3.703  -2.179  -2.679  1.00  0.00    -0.206 F 
ATOM     73  C   UNL     1       6.851  -3.917  -2.981  1.00  0.00     0.060 A 
BRANCH  73  74
ATOM     74  S   UNL     1       8.335  -4.289  -2.027  1.00  0.00     0.124 S 
ATOM     75  O   UNL     1       8.385  -5.747  -2.096  1.00  0.00    -0.237 OA
ATOM     76  O   UNL     1       9.367  -3.585  -2.781  1.00  0.00    -0.237 OA
ATOM     77  O   UNL     1       8.038  -3.741  -0.707  1.00  0.00    -0.744 OA
ENDBRANCH  73  74
ENDBRANCH  52  66
BRANCH  53  78
ATOM     78  C   UNL     1      -3.609  -3.881  -9.774  1.00  0.00     0.058 A 
ATOM     79  C   UNL     1      -4.524  -4.912 -10.062  1.00  0.00     0.135 A 
ATOM     80  C   UNL     1      -3.980  -2.891  -8.852  1.00  0.00     0.135 A 
ATOM     81  F   UNL     1      -4.215  -5.859 -10.962  1.00  0.00    -0.206 F 
ATOM     82  C   UNL     1      -5.666  -5.081  -9.307  1.00  0.00     0.059 A 
ATOM     83  C   UNL     1      -5.138  -3.027  -8.104  1.00  0.00     0.059 A 
ATOM     84  F   UNL     1      -3.153  -1.877  -8.559  1.00  0.00    -0.206 F 
ATOM     85  C   UNL     1      -5.929  -4.163  -8.299  1.00  0.00     0.060 A 
BRANCH  85  86
ATOM     86  S   UNL     1      -7.270  -4.544  -7.178  1.00  0.00     0.124 S 
ATOM     87  O   UNL     1      -8.409  -4.388  -8.075  1.00  0.00    -0.237 OA
ATOM     88  O   UNL     1      -6.957  -5.909  -6.768  1.00  0.00    -0.237 OA
ATOM     89  O   UNL     1      -7.081  -3.517  -6.164  1.00  0.00    -0.744 OA
ENDBRANCH  85  86
ENDBRANCH  53  78
BRANCH  65  90
ATOM     90  C   UNL     1       2.809  -0.680 -10.382  1.00  0.00     0.058 A 
ATOM     91  C   UNL     1       2.906  -0.484 -11.766  1.00  0.00     0.135 A 
ATOM     92  C   UNL     1       3.609   0.124  -9.552  1.00  0.00     0.135 A 
ATOM     93  F   UNL     1       2.205  -1.249 -12.620  1.00  0.00    -0.206 F 
ATOM     94  C   UNL     1       3.731   0.492 -12.304  1.00  0.00     0.059 A 
ATOM     95  C   UNL     1       4.482   1.068 -10.070  1.00  0.00     0.059 A 
ATOM     96  F   UNL     1       3.546   0.024  -8.215  1.00  0.00    -0.206 F 
ATOM     97  C   UNL     1       4.517   1.260 -11.447  1.00  0.00     0.060 A 
BRANCH  97  98
ATOM     98  S   UNL     1       5.600   2.515 -12.142  1.00  0.00     0.124 S 
ATOM     99  O   UNL     1       6.026   1.909 -13.401  1.00  0.00    -0.237 OA
ATOM    100  O   UNL     1       4.685   3.645 -12.263  1.00  0.00    -0.237 OA
ATOM    101  O   UNL     1       6.646   2.652 -11.134  1.00  0.00    -0.744 OA
ENDBRANCH  97  98
ENDBRANCH  65  90
ENDBRANCH  39  40
ENDBRANCH  32  34
ENDBRANCH  31  32
ENDBRANCH  30  31
ENDBRANCH   1  30
TORSDOF 20
