REMARK SMILES Cc1cc(C(=O)N[C@H]2C=C[C@H](C(=O)OCCOC(=O)c3ccc(-c4c5nc(c(-c6c(F)cc(S(=O)(=O)[O-])cc6F)c6ccc([nH]6)c(-c6c(F)cc(S(=O)(=O)[O-])cc6F)c6nc(c(-c7c(F)cc(S(=O)(=O)[O-])cc7F)c7ccc4[nH]7)C=C6)C=C5)cc3)C2)ccc1F
REMARK SMILES IDX 16 1 15 2 14 3 12 4 13 5 11 6 8 7 9 8 86 9 10 10 7 11 5 12
REMARK SMILES IDX 6 13 4 15 1 16 2 17 3 18 89 19 88 20 90 21 87 22 17 23 18 24
REMARK SMILES IDX 19 25 20 26 21 27 85 28 22 29 84 30 23 31 24 32 25 33 78 34
REMARK SMILES IDX 26 35 83 36 77 37 79 38 27 39 82 40 76 41 75 42 28 44 62 45
REMARK SMILES IDX 41 46 61 47 42 48 45 49 60 50 80 51 43 52 44 53 59 55 81 56
REMARK SMILES IDX 46 57 29 58 30 59 39 60 31 61 32 62 38 63 40 64 33 65 34 66
REMARK SMILES IDX 35 67 36 68 37 69 63 70 64 71 73 72 65 73 66 74 72 75 74 76
REMARK SMILES IDX 67 77 68 78 69 79 70 80 71 81 47 82 48 83 57 84 49 85 50 86
REMARK SMILES IDX 56 87 58 88 51 89 52 90 53 91 54 92 55 93
REMARK H PARENT 7 14 79 43 45 54
REMARK Flexibility Score: inf
ROOT
ATOM      1  C   UNL     1       3.074   5.506   1.461  1.00  0.00     0.275 C 
ENDROOT
BRANCH   1   2
ATOM      2  C   UNL     1       2.103   5.891   0.346  1.00  0.00     0.274 C 
BRANCH   2   3
ATOM      3  O   UNL     1       0.760   5.861   0.857  1.00  0.00    -0.462 OA
BRANCH   3   4
ATOM      4  C   UNL     1      -0.220   5.536  -0.029  1.00  0.00     0.312 C 
ATOM      5  O   UNL     1      -0.043   5.380  -1.234  1.00  0.00    -0.252 OA
BRANCH   4   6
ATOM      6  C   UNL     1      -1.563   5.352   0.680  1.00  0.00     0.124 C 
ATOM      7  C   UNL     1      -2.607   3.526  -0.486  1.00  0.00     0.106 C 
ATOM      8  C   UNL     1      -3.352   4.802  -0.748  1.00  0.00    -0.006 C 
ATOM      9  C   UNL     1      -1.901   3.865   0.824  1.00  0.00     0.048 C 
ATOM     10  C   UNL     1      -2.735   5.825  -0.142  1.00  0.00    -0.014 C 
BRANCH   7  11
ATOM     11  N   UNL     1      -3.505   2.407  -0.405  1.00  0.00    -0.346 N 
ATOM     12  C   UNL     1      -3.279   1.054  -0.391  1.00  0.00     0.251 C 
ATOM     13  O   UNL     1      -4.283   0.333  -0.395  1.00  0.00    -0.269 OA
ATOM     14  H   UNL     1      -4.456   2.656  -0.351  1.00  0.00     0.164 HD
BRANCH  12  15
ATOM     15  C   UNL     1      -1.929   0.393  -0.345  1.00  0.00     0.040 A 
ATOM     16  C   UNL     1       1.831   0.883  -0.895  1.00  0.00     0.047 C 
ATOM     17  C   UNL     1       0.509   0.248  -0.581  1.00  0.00    -0.015 A 
ATOM     18  C   UNL     1      -0.696   0.976  -0.669  1.00  0.00     0.020 A 
ATOM     19  C   UNL     1       0.469  -1.079  -0.164  1.00  0.00     0.126 A 
ATOM     20  C   UNL     1      -0.736  -1.693   0.138  1.00  0.00     0.040 A 
ATOM     21  F   UNL     1       1.606  -1.783  -0.061  1.00  0.00    -0.207 F 
ATOM     22  C   UNL     1      -1.924  -0.963   0.043  1.00  0.00     0.017 A 
ENDBRANCH  12  15
ENDBRANCH   7  11
ENDBRANCH   4   6
ENDBRANCH   3   4
ENDBRANCH   2   3
ENDBRANCH   1   2
BRANCH   1  23
ATOM     23  O   UNL     1       3.304   4.089   1.589  1.00  0.00    -0.458 OA
BRANCH  23  24
ATOM     24  C   UNL     1       2.179   3.329   1.681  1.00  0.00     0.338 C 
ATOM     25  O   UNL     1       1.382   3.161   0.796  1.00  0.00    -0.246 OA
BRANCH  24  26
ATOM     26  C   UNL     1       2.087   2.714   3.019  1.00  0.00     0.060 A 
ATOM     27  C   UNL     1       0.835   2.261   3.464  1.00  0.00     0.016 A 
ATOM     28  C   UNL     1       3.201   2.693   3.853  1.00  0.00     0.016 A 
ATOM     29  C   UNL     1       0.657   1.924   4.800  1.00  0.00     0.010 A 
ATOM     30  C   UNL     1       3.029   2.349   5.171  1.00  0.00     0.010 A 
ATOM     31  C   UNL     1       1.752   2.022   5.649  1.00  0.00    -0.014 A 
BRANCH  31  32
ATOM     32  C   UNL     1       1.729   1.683   7.056  1.00  0.00     0.031 A 
ATOM     33  C   UNL     1       1.839   0.255   7.430  1.00  0.00     0.074 A 
ATOM     34  C   UNL     1       1.890   2.690   7.942  1.00  0.00     0.049 A 
ATOM     35  N   UNL     1       1.749  -0.201   8.631  1.00  0.00    -0.248 NA
ATOM     36  C   UNL     1       2.001  -0.804   6.432  1.00  0.00     0.031 C 
ATOM     37  C   UNL     1       2.439   2.584   9.285  1.00  0.00     0.029 A 
ATOM     38  N   UNL     1       1.509   4.031   7.861  1.00  0.00    -0.354 N 
ATOM     39  C   UNL     1       2.151  -1.522   8.606  1.00  0.00     0.074 A 
ATOM     40  C   UNL     1       2.127  -1.882   7.212  1.00  0.00     0.031 C 
ATOM     41  C   UNL     1       2.107   3.690   9.972  1.00  0.00     0.029 A 
ATOM     42  C   UNL     1       1.138   4.410   9.162  1.00  0.00     0.049 A 
ATOM     43  H   UNL     1       1.502   4.597   7.055  1.00  0.00     0.167 HD
ATOM     44  C   UNL     1       2.600  -2.088   9.765  1.00  0.00     0.037 A 
ATOM     45  C   UNL     1      -0.158   4.643   9.558  1.00  0.00     0.037 A 
ATOM     46  C   UNL     1       2.353  -1.180  10.889  1.00  0.00     0.049 A 
ATOM     47  C   UNL     1      -0.674   3.661  10.593  1.00  0.00     0.074 A 
ATOM     48  C   UNL     1       3.121  -0.232  11.542  1.00  0.00     0.029 A 
ATOM     49  N   UNL     1       1.046  -0.953  11.277  1.00  0.00    -0.354 N 
ATOM     50  N   UNL     1       0.001   2.636  11.032  1.00  0.00    -0.248 NA
ATOM     51  C   UNL     1      -2.032   3.705  11.138  1.00  0.00     0.031 C 
ATOM     52  C   UNL     1       2.231   0.642  12.237  1.00  0.00     0.029 A 
ATOM     53  C   UNL     1       0.935   0.197  12.037  1.00  0.00     0.049 A 
ATOM     54  H   UNL     1       0.289  -1.536  11.042  1.00  0.00     0.167 HD
ATOM     55  C   UNL     1      -0.796   1.872  11.831  1.00  0.00     0.074 A 
ATOM     56  C   UNL     1      -2.060   2.585  11.880  1.00  0.00     0.031 C 
ATOM     57  C   UNL     1      -0.390   0.690  12.372  1.00  0.00     0.037 A 
BRANCH  44  58
ATOM     58  C   UNL     1       3.448  -3.345   9.907  1.00  0.00     0.058 A 
ATOM     59  C   UNL     1       4.016  -3.659  11.166  1.00  0.00     0.135 A 
ATOM     60  C   UNL     1       3.825  -4.231   8.875  1.00  0.00     0.135 A 
ATOM     61  F   UNL     1       3.728  -2.941  12.262  1.00  0.00    -0.206 F 
ATOM     62  C   UNL     1       4.919  -4.708  11.364  1.00  0.00     0.059 A 
ATOM     63  C   UNL     1       4.719  -5.292   9.050  1.00  0.00     0.059 A 
ATOM     64  F   UNL     1       3.360  -4.127   7.629  1.00  0.00    -0.206 F 
ATOM     65  C   UNL     1       5.278  -5.514  10.295  1.00  0.00     0.060 A 
BRANCH  65  66
ATOM     66  S   UNL     1       6.466  -6.841  10.551  1.00  0.00     0.124 S 
ATOM     67  O   UNL     1       7.674  -6.102  10.904  1.00  0.00    -0.237 OA
ATOM     68  O   UNL     1       5.848  -7.603  11.631  1.00  0.00    -0.237 OA
ATOM     69  O   UNL     1       6.507  -7.518   9.257  1.00  0.00    -0.744 OA
ENDBRANCH  65  66
ENDBRANCH  44  58
BRANCH  45  70
ATOM     70  C   UNL     1      -1.024   5.236   8.504  1.00  0.00     0.058 A 
ATOM     71  C   UNL     1      -0.688   6.532   8.083  1.00  0.00     0.135 A 
ATOM     72  C   UNL     1      -1.655   4.372   7.598  1.00  0.00     0.135 A 
ATOM     73  F   UNL     1      -0.169   7.414   8.951  1.00  0.00    -0.206 F 
ATOM     74  C   UNL     1      -0.655   6.839   6.736  1.00  0.00     0.059 A 
ATOM     75  C   UNL     1      -1.633   4.659   6.243  1.00  0.00     0.059 A 
ATOM     76  F   UNL     1      -2.071   3.159   7.986  1.00  0.00    -0.206 F 
ATOM     77  C   UNL     1      -1.011   5.840   5.832  1.00  0.00     0.060 A 
BRANCH  77  78
ATOM     78  S   UNL     1      -0.269   5.924   4.196  1.00  0.00     0.124 S 
ATOM     79  O   UNL     1      -0.727   7.217   3.704  1.00  0.00    -0.237 OA
ATOM     80  O   UNL     1       1.151   5.829   4.521  1.00  0.00    -0.237 OA
ATOM     81  O   UNL     1      -0.834   4.756   3.535  1.00  0.00    -0.744 OA
ENDBRANCH  77  78
ENDBRANCH  45  70
BRANCH  57  82
ATOM     82  C   UNL     1      -1.285  -0.078  13.285  1.00  0.00     0.058 A 
ATOM     83  C   UNL     1      -1.860   0.534  14.410  1.00  0.00     0.135 A 
ATOM     84  C   UNL     1      -1.523  -1.454  13.114  1.00  0.00     0.135 A 
ATOM     85  F   UNL     1      -1.643   1.835  14.667  1.00  0.00    -0.206 F 
ATOM     86  C   UNL     1      -2.680  -0.166  15.286  1.00  0.00     0.059 A 
ATOM     87  C   UNL     1      -2.295  -2.187  14.008  1.00  0.00     0.059 A 
ATOM     88  F   UNL     1      -1.042  -2.117  12.051  1.00  0.00    -0.206 F 
ATOM     89  C   UNL     1      -2.895  -1.526  15.073  1.00  0.00     0.060 A 
BRANCH  89  90
ATOM     90  S   UNL     1      -3.973  -2.427  16.198  1.00  0.00     0.124 S 
ATOM     91  O   UNL     1      -3.680  -1.809  17.487  1.00  0.00    -0.237 OA
ATOM     92  O   UNL     1      -5.287  -2.125  15.638  1.00  0.00    -0.237 OA
ATOM     93  O   UNL     1      -3.528  -3.809  16.055  1.00  0.00    -0.744 OA
ENDBRANCH  89  90
ENDBRANCH  57  82
ENDBRANCH  31  32
ENDBRANCH  24  26
ENDBRANCH  23  24
ENDBRANCH   1  23
TORSDOF 16
