REMARK SMILES O=C1NC(=O)/C(=C/c2ccc(OCc3cn(-c4ccc(C(=O)OCCOC(=O)c5ccc(-c6c7nc(c(-c8c(F)cc(S(=O)(=O)[O-])cc8F)c8ccc([nH]8)c(-c8c(F)cc(S(=O)(=O)[O-])cc8F)c8nc(c(-c9c(F)cc(S(=O)(=O)[O-])cc9F)c9ccc6[nH]9)C=C8)C=C7)cc5)cc4)nn3)cc2)S1
REMARK SMILES IDX 24 1 23 2 21 3 22 4 20 5 17 6 18 7 96 8 19 9 95 10 16 11
REMARK SMILES IDX 14 12 15 13 98 14 97 15 13 16 12 17 11 18 8 19 9 20 100 21
REMARK SMILES IDX 10 22 99 23 7 24 1 25 2 26 3 27 101 28 4 29 6 31 5 32 25 33
REMARK SMILES IDX 26 34 27 35 28 36 29 37 30 38 94 39 31 40 93 41 32 42 33 43
REMARK SMILES IDX 34 44 87 45 35 46 92 47 86 48 88 49 36 50 91 51 85 52 84 53
REMARK SMILES IDX 37 55 71 56 50 57 70 58 51 59 54 60 69 61 89 62 52 63 53 64
REMARK SMILES IDX 68 66 90 67 55 68 38 69 39 70 48 71 40 72 41 73 47 74 49 75
REMARK SMILES IDX 42 76 43 77 44 78 45 79 46 80 72 81 73 82 82 83 74 84 75 85
REMARK SMILES IDX 81 86 83 87 76 88 77 89 78 90 79 91 80 92 56 93 57 94 66 95
REMARK SMILES IDX 58 96 59 97 65 98 67 99 60 100 61 101 62 102 63 103 64 104
REMARK H PARENT 3 30 88 54 54 65
REMARK Flexibility Score: inf
ROOT
ATOM      1  C   UNL     1      -9.575  10.140  -0.156  1.00  0.00     0.275 C 
ENDROOT
BRANCH   1   2
ATOM      2  O   UNL     1      -8.169   9.851  -0.120  1.00  0.00    -0.458 OA
BRANCH   2   3
ATOM      3  C   UNL     1      -7.702   9.456   1.090  1.00  0.00     0.338 C 
ATOM      4  O   UNL     1      -8.307   9.489   2.150  1.00  0.00    -0.246 OA
BRANCH   3   5
ATOM      5  C   UNL     1      -6.341   8.891   0.958  1.00  0.00     0.060 A 
ATOM      6  C   UNL     1      -3.740   7.894   0.920  1.00  0.00     0.066 A 
ATOM      7  C   UNL     1      -4.679   7.359   1.814  1.00  0.00     0.029 A 
ATOM      8  C   UNL     1      -4.121   8.872  -0.007  1.00  0.00     0.029 A 
ATOM      9  C   UNL     1      -5.968   7.881   1.852  1.00  0.00     0.018 A 
ATOM     10  C   UNL     1      -5.433   9.353  -0.002  1.00  0.00     0.018 A 
BRANCH   6  11
ATOM     11  N   UNL     1      -2.396   7.477   1.026  1.00  0.00    -0.220 N 
ATOM     12  C   UNL     1      -0.218   7.405   1.174  1.00  0.00     0.120 A 
ATOM     13  C   UNL     1      -1.254   8.173   0.684  1.00  0.00     0.144 A 
ATOM     14  N   UNL     1      -0.744   6.284   1.754  1.00  0.00    -0.131 NA
ATOM     15  N   UNL     1      -2.059   6.340   1.668  1.00  0.00    -0.062 NA
BRANCH  12  16
ATOM     16  C   UNL     1       1.247   7.677   1.264  1.00  0.00     0.289 C 
BRANCH  16  17
ATOM     17  O   UNL     1       2.064   7.007   0.290  1.00  0.00    -0.487 OA
BRANCH  17  18
ATOM     18  C   UNL     1       2.164   5.644   0.358  1.00  0.00     0.119 A 
ATOM     19  C   UNL     1       2.196   2.841   0.133  1.00  0.00    -0.024 A 
ATOM     20  C   UNL     1       2.702   3.635  -0.899  1.00  0.00     0.012 A 
ATOM     21  C   UNL     1       1.762   3.455   1.310  1.00  0.00     0.012 A 
ATOM     22  C   UNL     1       2.680   5.030  -0.786  1.00  0.00     0.047 A 
ATOM     23  C   UNL     1       1.774   4.846   1.431  1.00  0.00     0.047 A 
BRANCH  19  24
ATOM     24  C   UNL     1       2.131   1.383  -0.004  1.00  0.00     0.029 C 
ATOM     25  O   UNL     1      -2.455  -0.694   0.084  1.00  0.00    -0.261 OA
ATOM     26  C   UNL     1      -1.265  -0.419   0.012  1.00  0.00     0.290 C 
ATOM     27  N   UNL     1      -0.248  -1.311  -0.058  1.00  0.00    -0.282 N 
ATOM     28  S   UNL     1      -0.629   1.211   0.013  1.00  0.00    -0.022 SA
ATOM     29  C   UNL     1       1.027  -0.829  -0.085  1.00  0.00     0.265 C 
ATOM     30  H   UNL     1      -0.425  -2.279  -0.088  1.00  0.00     0.174 HD
ATOM     31  C   UNL     1       1.004   0.657  -0.032  1.00  0.00     0.083 C 
ATOM     32  O   UNL     1       2.037  -1.514  -0.122  1.00  0.00    -0.268 OA
ENDBRANCH  19  24
ENDBRANCH  17  18
ENDBRANCH  16  17
ENDBRANCH  12  16
ENDBRANCH   6  11
ENDBRANCH   3   5
ENDBRANCH   2   3
ENDBRANCH   1   2
BRANCH   1  33
ATOM     33  C   UNL     1     -10.387   8.899  -0.500  1.00  0.00     0.275 C 
BRANCH  33  34
ATOM     34  O   UNL     1     -10.410   7.940   0.560  1.00  0.00    -0.458 OA
BRANCH  34  35
ATOM     35  C   UNL     1      -9.511   6.936   0.432  1.00  0.00     0.338 C 
ATOM     36  O   UNL     1      -8.454   6.969  -0.176  1.00  0.00    -0.246 OA
BRANCH  35  37
ATOM     37  C   UNL     1     -10.097   5.689   0.937  1.00  0.00     0.060 A 
ATOM     38  C   UNL     1      -9.250   4.600   1.159  1.00  0.00     0.016 A 
ATOM     39  C   UNL     1     -11.492   5.547   0.957  1.00  0.00     0.016 A 
ATOM     40  C   UNL     1      -9.809   3.342   1.303  1.00  0.00     0.010 A 
ATOM     41  C   UNL     1     -12.046   4.291   1.087  1.00  0.00     0.010 A 
ATOM     42  C   UNL     1     -11.201   3.191   1.212  1.00  0.00    -0.014 A 
BRANCH  42  43
ATOM     43  C   UNL     1     -11.778   1.882   1.486  1.00  0.00     0.031 A 
ATOM     44  C   UNL     1     -11.565   1.477   2.899  1.00  0.00     0.074 A 
ATOM     45  C   UNL     1     -12.549   1.202   0.611  1.00  0.00     0.049 A 
ATOM     46  N   UNL     1     -10.832   0.507   3.334  1.00  0.00    -0.248 NA
ATOM     47  C   UNL     1     -12.049   2.378   3.963  1.00  0.00     0.031 C 
ATOM     48  C   UNL     1     -13.015   1.655  -0.702  1.00  0.00     0.029 A 
ATOM     49  N   UNL     1     -13.172  -0.005   0.745  1.00  0.00    -0.354 N 
ATOM     50  C   UNL     1     -11.002   0.510   4.714  1.00  0.00     0.074 A 
ATOM     51  C   UNL     1     -11.550   1.794   5.054  1.00  0.00     0.031 C 
ATOM     52  C   UNL     1     -14.020   0.854  -1.125  1.00  0.00     0.029 A 
ATOM     53  C   UNL     1     -14.191  -0.237  -0.180  1.00  0.00     0.049 A 
ATOM     54  H   UNL     1     -12.923  -0.659   1.438  1.00  0.00     0.167 HD
ATOM     55  C   UNL     1     -10.990  -0.661   5.406  1.00  0.00     0.037 A 
ATOM     56  C   UNL     1     -15.136  -1.217  -0.139  1.00  0.00     0.037 A 
ATOM     57  C   UNL     1     -10.337  -1.699   4.646  1.00  0.00     0.049 A 
ATOM     58  C   UNL     1     -14.619  -2.281   0.758  1.00  0.00     0.074 A 
ATOM     59  C   UNL     1      -9.091  -1.851   4.068  1.00  0.00     0.029 A 
ATOM     60  N   UNL     1     -11.146  -2.634   4.051  1.00  0.00    -0.354 N 
ATOM     61  N   UNL     1     -13.588  -3.029   0.479  1.00  0.00    -0.248 NA
ATOM     62  C   UNL     1     -14.975  -2.213   2.166  1.00  0.00     0.031 C 
ATOM     63  C   UNL     1      -9.327  -2.551   2.849  1.00  0.00     0.029 A 
ATOM     64  C   UNL     1     -10.685  -2.866   2.784  1.00  0.00     0.049 A 
ATOM     65  H   UNL     1     -11.928  -3.065   4.467  1.00  0.00     0.167 HD
ATOM     66  C   UNL     1     -12.897  -3.129   1.677  1.00  0.00     0.074 A 
ATOM     67  C   UNL     1     -13.852  -2.702   2.698  1.00  0.00     0.031 C 
ATOM     68  C   UNL     1     -11.538  -3.266   1.686  1.00  0.00     0.037 A 
BRANCH  55  69
ATOM     69  C   UNL     1     -11.961  -0.968   6.527  1.00  0.00     0.058 A 
ATOM     70  C   UNL     1     -11.811  -2.168   7.252  1.00  0.00     0.135 A 
ATOM     71  C   UNL     1     -13.190  -0.294   6.721  1.00  0.00     0.135 A 
ATOM     72  F   UNL     1     -10.695  -2.904   7.128  1.00  0.00    -0.206 F 
ATOM     73  C   UNL     1     -12.828  -2.691   8.052  1.00  0.00     0.059 A 
ATOM     74  C   UNL     1     -14.193  -0.769   7.557  1.00  0.00     0.059 A 
ATOM     75  F   UNL     1     -13.529   0.806   6.041  1.00  0.00    -0.206 F 
ATOM     76  C   UNL     1     -14.019  -1.985   8.191  1.00  0.00     0.060 A 
BRANCH  76  77
ATOM     77  S   UNL     1     -15.355  -2.679   9.177  1.00  0.00     0.124 S 
ATOM     78  O   UNL     1     -15.763  -3.812   8.356  1.00  0.00    -0.237 OA
ATOM     79  O   UNL     1     -14.669  -3.002  10.424  1.00  0.00    -0.237 OA
ATOM     80  O   UNL     1     -16.313  -1.581   9.263  1.00  0.00    -0.744 OA
ENDBRANCH  76  77
ENDBRANCH  55  69
BRANCH  56  81
ATOM     81  C   UNL     1     -16.578  -1.154  -0.525  1.00  0.00     0.058 A 
ATOM     82  C   UNL     1     -17.384  -2.312  -0.533  1.00  0.00     0.135 A 
ATOM     83  C   UNL     1     -17.270   0.071  -0.593  1.00  0.00     0.135 A 
ATOM     84  F   UNL     1     -16.821  -3.528  -0.460  1.00  0.00    -0.206 F 
ATOM     85  C   UNL     1     -18.785  -2.255  -0.534  1.00  0.00     0.059 A 
ATOM     86  C   UNL     1     -18.663   0.152  -0.606  1.00  0.00     0.059 A 
ATOM     87  F   UNL     1     -16.615   1.240  -0.550  1.00  0.00    -0.206 F 
ATOM     88  C   UNL     1     -19.417  -1.014  -0.544  1.00  0.00     0.060 A 
BRANCH  88  89
ATOM     89  S   UNL     1     -21.214  -0.917  -0.341  1.00  0.00     0.124 S 
ATOM     90  O   UNL     1     -21.691  -1.427  -1.622  1.00  0.00    -0.237 OA
ATOM     91  O   UNL     1     -21.444  -1.778   0.814  1.00  0.00    -0.237 OA
ATOM     92  O   UNL     1     -21.452   0.506  -0.109  1.00  0.00    -0.744 OA
ENDBRANCH  88  89
ENDBRANCH  56  81
BRANCH  68  93
ATOM     93  C   UNL     1     -10.861  -3.710   0.414  1.00  0.00     0.058 A 
ATOM     94  C   UNL     1     -10.888  -3.025  -0.815  1.00  0.00     0.135 A 
ATOM     95  C   UNL     1     -10.067  -4.866   0.481  1.00  0.00     0.135 A 
ATOM     96  F   UNL     1     -11.530  -1.854  -0.942  1.00  0.00    -0.206 F 
ATOM     97  C   UNL     1     -10.214  -3.509  -1.940  1.00  0.00     0.059 A 
ATOM     98  C   UNL     1      -9.357  -5.344  -0.614  1.00  0.00     0.059 A 
ATOM     99  F   UNL     1      -9.948  -5.535   1.640  1.00  0.00    -0.206 F 
ATOM    100  C   UNL     1      -9.457  -4.676  -1.831  1.00  0.00     0.060 A 
BRANCH 100 101
ATOM    101  S   UNL     1      -8.583  -5.309  -3.278  1.00  0.00     0.124 S 
ATOM    102  O   UNL     1      -9.681  -5.765  -4.125  1.00  0.00    -0.237 OA
ATOM    103  O   UNL     1      -7.861  -4.133  -3.755  1.00  0.00    -0.237 OA
ATOM    104  O   UNL     1      -7.738  -6.368  -2.732  1.00  0.00    -0.744 OA
ENDBRANCH 100 101
ENDBRANCH  68  93
ENDBRANCH  42  43
ENDBRANCH  35  37
ENDBRANCH  34  35
ENDBRANCH  33  34
ENDBRANCH   1  33
TORSDOF 19
