REMARK SMILES NC(=O)c1c(NC(=O)[C@H]2[C@@H](C(=O)OCCOC(=O)c3ccc(-c4c5nc(c(-c6c(F)cc(S(=O)(=O)[O-])cc6F)c6ccc([nH]6)c(-c6c(F)cc(S(=O)(=O)[O-])cc6F)c6nc(c(-c7c(F)cc(S(=O)(=O)[O-])cc7F)c7ccc4[nH]7)C=C6)C=C5)cc3)[C@@H]3C=C[C@H]2C3)sc2c1CCCCCC2
REMARK SMILES IDX 13 1 11 2 12 3 10 4 9 5 88 6 85 7 87 8 89 9 86 10 7 11 6 12
REMARK SMILES IDX 8 14 5 15 4 16 92 17 90 18 91 19 2 20 1 21 3 24 93 25 94 26
REMARK SMILES IDX 95 27 96 28 98 30 97 31 14 33 15 34 16 35 17 36 18 37 19 38
REMARK SMILES IDX 20 39 84 40 21 41 83 42 22 43 23 44 24 45 77 46 25 47 82 48
REMARK SMILES IDX 76 49 78 50 26 51 81 52 75 53 74 54 27 56 61 57 40 58 60 59
REMARK SMILES IDX 41 60 44 61 59 62 79 63 42 64 43 65 58 67 80 68 45 69 28 70
REMARK SMILES IDX 29 71 38 72 30 73 31 74 37 75 39 76 32 77 33 78 34 79 35 80
REMARK SMILES IDX 36 81 62 82 63 83 72 84 64 85 65 86 71 87 73 88 66 89 67 90
REMARK SMILES IDX 68 91 69 92 70 93 46 94 47 95 56 96 48 97 49 98 55 99 57 100
REMARK SMILES IDX 50 101 51 102 52 103 53 104 54 105
REMARK H PARENT 6 13 1 22 1 23 78 55 44 66
REMARK Flexibility Score: 90.00
ROOT
ATOM      1  O   UNL     1       2.223  -2.120  -1.189  1.00  0.00    -0.462 OA
ENDROOT
BRANCH   1   2
ATOM      2  C   UNL     1       1.409  -1.036  -1.352  1.00  0.00     0.310 C 
ATOM      3  O   UNL     1       0.208  -1.157  -1.602  1.00  0.00    -0.252 OA
BRANCH   2   4
ATOM      4  C   UNL     1       2.159   0.312  -1.399  1.00  0.00     0.119 C 
ATOM      5  C   UNL     1       2.222   1.425  -0.234  1.00  0.00     0.100 C 
ATOM      6  C   UNL     1       1.176   2.444  -0.721  1.00  0.00     0.025 C 
ATOM      7  C   UNL     1       1.321   1.077  -2.477  1.00  0.00     0.027 C 
ATOM      8  C   UNL     1       1.863   3.204  -1.849  1.00  0.00    -0.027 C 
ATOM      9  C   UNL     1       0.210   1.664  -1.594  1.00  0.00     0.017 C 
ATOM     10  C   UNL     1       2.005   2.355  -2.876  1.00  0.00    -0.027 C 
BRANCH   5  11
ATOM     11  C   UNL     1       2.306   1.044   1.238  1.00  0.00     0.229 C 
ATOM     12  N   UNL     1       1.962   1.776   2.337  1.00  0.00    -0.317 N 
ATOM     13  H   UNL     1       1.855   1.174   3.109  1.00  0.00     0.170 HD
ATOM     14  O   UNL     1       2.907  -0.010   1.510  1.00  0.00    -0.274 OA
BRANCH  12  15
ATOM     15  C   UNL     1       1.711   3.082   2.736  1.00  0.00     0.108 A 
ATOM     16  C   UNL     1       1.711   4.385   2.274  1.00  0.00     0.077 A 
ATOM     17  C   UNL     1       1.474   5.376   3.336  1.00  0.00    -0.019 A 
ATOM     18  S   UNL     1       1.290   3.070   4.412  1.00  0.00    -0.122 S 
ATOM     19  C   UNL     1       1.156   4.779   4.543  1.00  0.00     0.011 A 
BRANCH  16  20
ATOM     20  C   UNL     1       1.956   4.848   0.932  1.00  0.00     0.251 C 
ATOM     21  N   UNL     1       0.820   5.347   0.344  1.00  0.00    -0.365 N 
ATOM     22  H   UNL     1       0.854   5.696  -0.576  1.00  0.00     0.159 HD
ATOM     23  H   UNL     1      -0.029   5.355   0.842  1.00  0.00     0.159 HD
ATOM     24  O   UNL     1       3.055   4.884   0.403  1.00  0.00    -0.269 OA
ENDBRANCH  16  20
BRANCH  17  25
ATOM     25  C   UNL     1       1.595   6.864   3.089  1.00  0.00     0.037 C 
BRANCH  25  26
ATOM     26  C   UNL     1       0.263   7.591   2.954  1.00  0.00     0.005 C 
BRANCH  26  27
ATOM     27  C   UNL     1      -0.692   7.455   4.136  1.00  0.00     0.000 C 
BRANCH  27  28
ATOM     28  C   UNL     1      -0.099   7.813   5.496  1.00  0.00     0.000 CG0
ATOM     29  G   UNL     1       0.942   6.859   6.108  1.00  0.00     0.000 G0
ENDBRANCH  27  28
ENDBRANCH  26  27
ENDBRANCH  25  26
ENDBRANCH  17  25
BRANCH  19  30
ATOM     30  C   UNL     1       0.732   5.356   5.885  1.00  0.00     0.047 C 
BRANCH  30  31
ATOM     31  C   UNL     1       0.942   6.859   6.108  1.00  0.00     0.006 CG0
ATOM     32  G   UNL     1      -0.099   7.813   5.496  1.00  0.00     0.000 G0
ENDBRANCH  30  31
ENDBRANCH  19  30
ENDBRANCH  12  15
ENDBRANCH   5  11
ENDBRANCH   2   4
ENDBRANCH   1   2
BRANCH   1  33
ATOM     33  C   UNL     1       1.540  -3.399  -1.261  1.00  0.00     0.274 C 
BRANCH  33  34
ATOM     34  C   UNL     1       1.254  -4.027   0.109  1.00  0.00     0.275 C 
BRANCH  34  35
ATOM     35  O   UNL     1       0.055  -3.595   0.777  1.00  0.00    -0.458 OA
BRANCH  35  36
ATOM     36  C   UNL     1       0.162  -2.366   1.314  1.00  0.00     0.338 C 
ATOM     37  O   UNL     1       0.867  -1.459   0.923  1.00  0.00    -0.246 OA
BRANCH  36  38
ATOM     38  C   UNL     1      -0.394  -2.220   2.646  1.00  0.00     0.060 A 
ATOM     39  C   UNL     1      -0.283  -0.924   3.171  1.00  0.00     0.016 A 
ATOM     40  C   UNL     1      -0.607  -3.335   3.450  1.00  0.00     0.016 A 
ATOM     41  C   UNL     1      -0.170  -0.765   4.526  1.00  0.00     0.010 A 
ATOM     42  C   UNL     1      -0.581  -3.158   4.818  1.00  0.00     0.010 A 
ATOM     43  C   UNL     1      -0.284  -1.891   5.343  1.00  0.00    -0.014 A 
BRANCH  43  44
ATOM     44  C   UNL     1      -0.303  -1.640   6.778  1.00  0.00     0.031 A 
ATOM     45  C   UNL     1      -1.375  -0.679   7.181  1.00  0.00     0.074 A 
ATOM     46  C   UNL     1       0.458  -2.355   7.627  1.00  0.00     0.049 A 
ATOM     47  N   UNL     1      -1.301   0.345   7.967  1.00  0.00    -0.248 NA
ATOM     48  C   UNL     1      -2.671  -0.790   6.474  1.00  0.00     0.031 C 
ATOM     49  C   UNL     1       1.363  -3.457   7.280  1.00  0.00     0.029 A 
ATOM     50  N   UNL     1       0.451  -2.382   8.989  1.00  0.00    -0.354 N 
ATOM     51  C   UNL     1      -2.599   0.851   8.031  1.00  0.00     0.074 A 
ATOM     52  C   UNL     1      -3.333   0.260   6.949  1.00  0.00     0.031 C 
ATOM     53  C   UNL     1       1.569  -4.213   8.377  1.00  0.00     0.029 A 
ATOM     54  C   UNL     1       0.891  -3.599   9.506  1.00  0.00     0.049 A 
ATOM     55  H   UNL     1       0.165  -1.624   9.548  1.00  0.00     0.167 HD
ATOM     56  C   UNL     1      -3.065   1.461   9.152  1.00  0.00     0.037 A 
ATOM     57  C   UNL     1       0.593  -4.123  10.722  1.00  0.00     0.037 A 
ATOM     58  C   UNL     1      -1.996   2.044   9.917  1.00  0.00     0.049 A 
ATOM     59  C   UNL     1       0.093  -3.015  11.577  1.00  0.00     0.074 A 
ATOM     60  C   UNL     1      -0.990   2.951   9.636  1.00  0.00     0.029 A 
ATOM     61  N   UNL     1      -1.638   1.444  11.099  1.00  0.00    -0.354 N 
ATOM     62  N   UNL     1       0.825  -2.024  12.006  1.00  0.00    -0.248 NA
ATOM     63  C   UNL     1      -1.345  -2.786  11.625  1.00  0.00     0.031 C 
ATOM     64  C   UNL     1       0.129   2.520  10.404  1.00  0.00     0.029 A 
ATOM     65  C   UNL     1      -0.269   1.406  11.142  1.00  0.00     0.049 A 
ATOM     66  H   UNL     1      -2.253   1.103  11.789  1.00  0.00     0.167 HD
ATOM     67  C   UNL     1      -0.013  -0.920  11.965  1.00  0.00     0.074 A 
ATOM     68  C   UNL     1      -1.359  -1.468  11.836  1.00  0.00     0.031 C 
ATOM     69  C   UNL     1       0.484   0.335  11.753  1.00  0.00     0.037 A 
BRANCH  56  70
ATOM     70  C   UNL     1      -4.421   1.124   9.741  1.00  0.00     0.058 A 
ATOM     71  C   UNL     1      -4.888   1.855  10.850  1.00  0.00     0.135 A 
ATOM     72  C   UNL     1      -5.132  -0.069   9.458  1.00  0.00     0.135 A 
ATOM     73  F   UNL     1      -4.290   3.001  11.212  1.00  0.00    -0.206 F 
ATOM     74  C   UNL     1      -5.913   1.386  11.673  1.00  0.00     0.059 A 
ATOM     75  C   UNL     1      -6.192  -0.522  10.229  1.00  0.00     0.059 A 
ATOM     76  F   UNL     1      -4.779  -0.913   8.483  1.00  0.00    -0.206 F 
ATOM     77  C   UNL     1      -6.542   0.183  11.364  1.00  0.00     0.060 A 
BRANCH  77  78
ATOM     78  S   UNL     1      -7.767  -0.501  12.489  1.00  0.00     0.124 S 
ATOM     79  O   UNL     1      -6.926  -0.916  13.606  1.00  0.00    -0.237 OA
ATOM     80  O   UNL     1      -8.632   0.649  12.728  1.00  0.00    -0.237 OA
ATOM     81  O   UNL     1      -8.368  -1.581  11.712  1.00  0.00    -0.744 OA
ENDBRANCH  77  78
ENDBRANCH  56  70
BRANCH  57  82
ATOM     82  C   UNL     1       0.401  -5.557  11.079  1.00  0.00     0.058 A 
ATOM     83  C   UNL     1       0.318  -5.961  12.424  1.00  0.00     0.135 A 
ATOM     84  C   UNL     1       0.047  -6.532  10.122  1.00  0.00     0.135 A 
ATOM     85  F   UNL     1       0.607  -5.096  13.407  1.00  0.00    -0.206 F 
ATOM     86  C   UNL     1      -0.127  -7.235  12.797  1.00  0.00     0.059 A 
ATOM     87  C   UNL     1      -0.373  -7.815  10.469  1.00  0.00     0.059 A 
ATOM     88  F   UNL     1       0.004  -6.247   8.813  1.00  0.00    -0.206 F 
ATOM     89  C   UNL     1      -0.485  -8.152  11.810  1.00  0.00     0.060 A 
BRANCH  89  90
ATOM     90  S   UNL     1      -1.217  -9.736  12.280  1.00  0.00     0.124 S 
ATOM     91  O   UNL     1      -0.080 -10.430  12.875  1.00  0.00    -0.237 OA
ATOM     92  O   UNL     1      -2.270  -9.327  13.203  1.00  0.00    -0.237 OA
ATOM     93  O   UNL     1      -1.685 -10.284  11.009  1.00  0.00    -0.744 OA
ENDBRANCH  89  90
ENDBRANCH  57  82
BRANCH  69  94
ATOM     94  C   UNL     1       1.960   0.558  11.942  1.00  0.00     0.058 A 
ATOM     95  C   UNL     1       2.969  -0.079  11.200  1.00  0.00     0.135 A 
ATOM     96  C   UNL     1       2.360   1.557  12.844  1.00  0.00     0.135 A 
ATOM     97  F   UNL     1       2.667  -0.960  10.235  1.00  0.00    -0.206 F 
ATOM     98  C   UNL     1       4.319   0.219  11.392  1.00  0.00     0.059 A 
ATOM     99  C   UNL     1       3.697   1.895  13.026  1.00  0.00     0.059 A 
ATOM    100  F   UNL     1       1.440   2.251  13.534  1.00  0.00    -0.206 F 
ATOM    101  C   UNL     1       4.674   1.206  12.312  1.00  0.00     0.060 A 
BRANCH 101 102
ATOM    102  S   UNL     1       6.416   1.627  12.524  1.00  0.00     0.124 S 
ATOM    103  O   UNL     1       6.926   0.467  13.246  1.00  0.00    -0.237 OA
ATOM    104  O   UNL     1       6.879   1.773  11.147  1.00  0.00    -0.237 OA
ATOM    105  O   UNL     1       6.375   2.870  13.290  1.00  0.00    -0.744 OA
ENDBRANCH 101 102
ENDBRANCH  69  94
ENDBRANCH  43  44
ENDBRANCH  36  38
ENDBRANCH  35  36
ENDBRANCH  34  35
ENDBRANCH  33  34
ENDBRANCH   1  33
TORSDOF 17
