REMARK SMILES Cc1nsc(N[C@H](C)c2cccc(Br)c2)c1C(=O)OCCOC(=O)c1ccc(-c2c3nc(c(-c4c(F)cc(S(=O)(=O)[O-])cc4F)c4ccc([nH]4)c(-c4c(F)cc(S(=O)(=O)[O-])cc4F)c4nc(c(-c5c(F)cc(S(=O)(=O)[O-])cc5F)c5ccc2[nH]5)C=C4)C=C3)cc1
REMARK SMILES IDX 20 1 19 2 17 3 18 4 16 5 1 6 2 7 3 8 4 9 5 10 6 11 7 13 8 14
REMARK SMILES IDX 9 15 10 16 15 17 11 18 13 19 12 20 14 21 21 22 22 23 23 24
REMARK SMILES IDX 24 25 25 26 26 27 90 28 27 29 89 30 28 31 29 32 30 33 83 34
REMARK SMILES IDX 31 35 88 36 82 37 84 38 32 39 87 40 81 41 80 42 33 44 67 45
REMARK SMILES IDX 46 46 66 47 47 48 50 49 65 50 85 51 48 52 49 53 64 55 86 56
REMARK SMILES IDX 51 57 34 58 35 59 44 60 36 61 37 62 43 63 45 64 38 65 39 66
REMARK SMILES IDX 40 67 41 68 42 69 68 70 69 71 78 72 70 73 71 74 77 75 79 76
REMARK SMILES IDX 72 77 73 78 74 79 75 80 76 81 52 82 53 83 62 84 54 85 55 86
REMARK SMILES IDX 61 87 63 88 56 89 57 90 58 91 59 92 60 93
REMARK H PARENT 6 12 84 43 50 54
REMARK Flexibility Score: inf
ROOT
ATOM      1  C   UNL     1      -7.143   2.824  -7.173  1.00  0.00     0.275 C 
ENDROOT
BRANCH   1   2
ATOM      2  O   UNL     1      -6.432   2.985  -5.934  1.00  0.00    -0.458 OA
BRANCH   2   3
ATOM      3  C   UNL     1      -5.199   2.405  -5.832  1.00  0.00     0.343 C 
ATOM      4  O   UNL     1      -4.724   1.667  -6.694  1.00  0.00    -0.246 OA
BRANCH   3   5
ATOM      5  C   UNL     1      -4.503   2.754  -4.595  1.00  0.00     0.117 A 
ATOM      6  C   UNL     1      -6.539   3.696  -3.199  1.00  0.00     0.069 C 
ATOM      7  C   UNL     1      -5.115   3.299  -3.397  1.00  0.00     0.068 A 
ATOM      8  N   UNL     1      -4.306   3.464  -2.354  1.00  0.00    -0.195 NA
ATOM      9  S   UNL     1      -2.777   3.090  -2.803  1.00  0.00    -0.018 S 
ATOM     10  C   UNL     1      -3.114   2.628  -4.426  1.00  0.00     0.124 A 
BRANCH  10  11
ATOM     11  N   UNL     1      -2.195   2.294  -5.389  1.00  0.00    -0.368 N 
ATOM     12  H   UNL     1      -2.483   2.473  -6.313  1.00  0.00     0.162 HD
BRANCH  11  13
ATOM     13  C   UNL     1      -0.856   1.714  -5.265  1.00  0.00     0.107 C 
ATOM     14  C   UNL     1      -0.138   1.832  -3.925  1.00  0.00     0.036 C 
BRANCH  13  15
ATOM     15  C   UNL     1       0.068   2.281  -6.342  1.00  0.00    -0.025 A 
ATOM     16  C   UNL     1       0.359   3.655  -6.406  1.00  0.00     0.006 A 
ATOM     17  C   UNL     1       0.745   1.414  -7.216  1.00  0.00     0.021 A 
ATOM     18  C   UNL     1       1.317   4.144  -7.301  1.00  0.00     0.002 A 
ATOM     19  C   UNL     1       1.703   1.910  -8.105  1.00  0.00     0.018 A 
ATOM     20  C   UNL     1       1.997   3.269  -8.147  1.00  0.00     0.016 A 
ATOM     21  Br  UNL     1       2.638   0.715  -9.235  1.00  0.00    -0.051 Br
ENDBRANCH  13  15
ENDBRANCH  11  13
ENDBRANCH  10  11
ENDBRANCH   3   5
ENDBRANCH   2   3
ENDBRANCH   1   2
BRANCH   1  22
ATOM     22  C   UNL     1      -6.834   3.953  -8.147  1.00  0.00     0.275 C 
BRANCH  22  23
ATOM     23  O   UNL     1      -5.569   3.777  -8.784  1.00  0.00    -0.458 OA
BRANCH  23  24
ATOM     24  C   UNL     1      -4.540   4.400  -8.165  1.00  0.00     0.338 C 
ATOM     25  O   UNL     1      -4.515   4.790  -7.010  1.00  0.00    -0.246 OA
BRANCH  24  26
ATOM     26  C   UNL     1      -3.506   4.742  -9.147  1.00  0.00     0.060 A 
ATOM     27  C   UNL     1      -2.321   5.288  -8.653  1.00  0.00     0.016 A 
ATOM     28  C   UNL     1      -3.799   4.743 -10.519  1.00  0.00     0.016 A 
ATOM     29  C   UNL     1      -1.490   5.960  -9.525  1.00  0.00     0.010 A 
ATOM     30  C   UNL     1      -2.962   5.411 -11.391  1.00  0.00     0.010 A 
ATOM     31  C   UNL     1      -1.847   6.066 -10.878  1.00  0.00    -0.014 A 
BRANCH  31  32
ATOM     32  C   UNL     1      -0.924   6.761 -11.761  1.00  0.00     0.031 A 
ATOM     33  C   UNL     1       0.406   6.100 -11.825  1.00  0.00     0.074 A 
ATOM     34  C   UNL     1      -1.254   7.837 -12.502  1.00  0.00     0.049 A 
ATOM     35  N   UNL     1       1.525   6.537 -11.352  1.00  0.00    -0.248 NA
ATOM     36  C   UNL     1       0.458   4.702 -12.287  1.00  0.00     0.031 C 
ATOM     37  C   UNL     1      -2.574   8.433 -12.719  1.00  0.00     0.029 A 
ATOM     38  N   UNL     1      -0.452   8.594 -13.300  1.00  0.00    -0.354 N 
ATOM     39  C   UNL     1       2.472   5.566 -11.661  1.00  0.00     0.074 A 
ATOM     40  C   UNL     1       1.736   4.396 -12.060  1.00  0.00     0.031 C 
ATOM     41  C   UNL     1      -2.511   9.297 -13.761  1.00  0.00     0.029 A 
ATOM     42  C   UNL     1      -1.129   9.421 -14.190  1.00  0.00     0.049 A 
ATOM     43  H   UNL     1       0.531   8.560 -13.249  1.00  0.00     0.167 HD
ATOM     44  C   UNL     1       3.790   5.884 -11.784  1.00  0.00     0.037 A 
ATOM     45  C   UNL     1      -0.583  10.102 -15.233  1.00  0.00     0.037 A 
ATOM     46  C   UNL     1       4.075   7.156 -11.169  1.00  0.00     0.049 A 
ATOM     47  C   UNL     1       0.872  10.233 -14.949  1.00  0.00     0.074 A 
ATOM     48  C   UNL     1       4.005   7.657  -9.884  1.00  0.00     0.029 A 
ATOM     49  N   UNL     1       4.160   8.249 -11.996  1.00  0.00    -0.354 N 
ATOM     50  N   UNL     1       1.353  10.948 -13.969  1.00  0.00    -0.248 NA
ATOM     51  C   UNL     1       1.755   9.194 -15.456  1.00  0.00     0.031 C 
ATOM     52  C   UNL     1       3.578   9.009 -10.037  1.00  0.00     0.029 A 
ATOM     53  C   UNL     1       3.470   9.274 -11.403  1.00  0.00     0.049 A 
ATOM     54  H   UNL     1       4.632   8.290 -12.859  1.00  0.00     0.167 HD
ATOM     55  C   UNL     1       2.392  10.186 -13.452  1.00  0.00     0.074 A 
ATOM     56  C   UNL     1       2.640   9.152 -14.455  1.00  0.00     0.031 C 
ATOM     57  C   UNL     1       2.760  10.294 -12.142  1.00  0.00     0.037 A 
BRANCH  44  58
ATOM     58  C   UNL     1       4.723   5.251 -12.790  1.00  0.00     0.058 A 
ATOM     59  C   UNL     1       6.091   5.598 -12.767  1.00  0.00     0.135 A 
ATOM     60  C   UNL     1       4.291   4.566 -13.947  1.00  0.00     0.135 A 
ATOM     61  F   UNL     1       6.614   6.251 -11.716  1.00  0.00    -0.206 F 
ATOM     62  C   UNL     1       6.940   5.363 -13.848  1.00  0.00     0.059 A 
ATOM     63  C   UNL     1       5.133   4.275 -15.014  1.00  0.00     0.059 A 
ATOM     64  F   UNL     1       3.012   4.231 -14.150  1.00  0.00    -0.206 F 
ATOM     65  C   UNL     1       6.445   4.715 -14.975  1.00  0.00     0.060 A 
BRANCH  65  66
ATOM     66  S   UNL     1       7.508   4.502 -16.411  1.00  0.00     0.124 S 
ATOM     67  O   UNL     1       7.664   5.879 -16.865  1.00  0.00    -0.237 OA
ATOM     68  O   UNL     1       8.690   3.883 -15.820  1.00  0.00    -0.237 OA
ATOM     69  O   UNL     1       6.723   3.633 -17.284  1.00  0.00    -0.744 OA
ENDBRANCH  65  66
ENDBRANCH  44  58
BRANCH  45  70
ATOM     70  C   UNL     1      -1.137  10.275 -16.606  1.00  0.00     0.058 A 
ATOM     71  C   UNL     1      -0.545  11.158 -17.530  1.00  0.00     0.135 A 
ATOM     72  C   UNL     1      -2.066   9.359 -17.140  1.00  0.00     0.135 A 
ATOM     73  F   UNL     1       0.368  12.051 -17.118  1.00  0.00    -0.206 F 
ATOM     74  C   UNL     1      -0.815  11.099 -18.904  1.00  0.00     0.059 A 
ATOM     75  C   UNL     1      -2.356   9.287 -18.502  1.00  0.00     0.059 A 
ATOM     76  F   UNL     1      -2.652   8.437 -16.362  1.00  0.00    -0.206 F 
ATOM     77  C   UNL     1      -1.707  10.142 -19.384  1.00  0.00     0.060 A 
BRANCH  77  78
ATOM     78  S   UNL     1      -1.925   9.934 -21.169  1.00  0.00     0.124 S 
ATOM     79  O   UNL     1      -2.647  11.149 -21.529  1.00  0.00    -0.237 OA
ATOM     80  O   UNL     1      -0.547   9.848 -21.642  1.00  0.00    -0.237 OA
ATOM     81  O   UNL     1      -2.694   8.697 -21.275  1.00  0.00    -0.744 OA
ENDBRANCH  77  78
ENDBRANCH  45  70
BRANCH  57  82
ATOM     82  C   UNL     1       2.228  11.460 -11.351  1.00  0.00     0.058 A 
ATOM     83  C   UNL     1       0.872  11.664 -11.034  1.00  0.00     0.135 A 
ATOM     84  C   UNL     1       3.159  12.336 -10.774  1.00  0.00     0.135 A 
ATOM     85  F   UNL     1      -0.071  10.814 -11.463  1.00  0.00    -0.206 F 
ATOM     86  C   UNL     1       0.460  12.719 -10.216  1.00  0.00     0.059 A 
ATOM     87  C   UNL     1       2.774  13.374  -9.932  1.00  0.00     0.059 A 
ATOM     88  F   UNL     1       4.473  12.157 -10.989  1.00  0.00    -0.206 F 
ATOM     89  C   UNL     1       1.421  13.570  -9.669  1.00  0.00     0.060 A 
BRANCH  89  90
ATOM     90  S   UNL     1       0.899  14.899  -8.562  1.00  0.00     0.124 S 
ATOM     91  O   UNL     1       0.235  15.819  -9.478  1.00  0.00    -0.237 OA
ATOM     92  O   UNL     1       0.028  14.203  -7.619  1.00  0.00    -0.237 OA
ATOM     93  O   UNL     1       2.156  15.383  -7.994  1.00  0.00    -0.744 OA
ENDBRANCH  89  90
ENDBRANCH  57  82
ENDBRANCH  31  32
ENDBRANCH  24  26
ENDBRANCH  23  24
ENDBRANCH  22  23
ENDBRANCH   1  22
TORSDOF 17
