REMARK SMILES Cc1ccc(C(=O)NC2(CC(=O)OCCOC(=O)c3ccc(-c4c5nc(c(-c6c(F)cc(S(=O)(=O)[O-])cc6F)c6ccc([nH]6)c(-c6c(F)cc(S(=O)(=O)[O-])cc6F)c6nc(c(-c7c(F)cc(S(=O)(=O)[O-])cc7F)c7ccc4[nH]7)C=C6)C=C5)cc3)CCC2)cc1
REMARK SMILES IDX 14 1 13 2 11 3 12 4 10 5 9 6 85 7 87 8 86 9 8 10 6 11 7 12
REMARK SMILES IDX 5 14 1 15 2 16 3 17 89 18 4 19 88 20 15 21 16 22 17 23 18 24
REMARK SMILES IDX 19 25 20 26 84 27 21 28 83 29 22 30 23 31 24 32 77 33 25 34
REMARK SMILES IDX 82 35 76 36 78 37 26 38 81 39 75 40 74 41 27 43 61 44 40 45
REMARK SMILES IDX 60 46 41 47 44 48 59 49 79 50 42 51 43 52 58 54 80 55 45 56
REMARK SMILES IDX 28 57 29 58 38 59 30 60 31 61 37 62 39 63 32 64 33 65 34 66
REMARK SMILES IDX 35 67 36 68 62 69 63 70 72 71 64 72 65 73 71 74 73 75 66 76
REMARK SMILES IDX 67 77 68 78 69 79 70 80 46 81 47 82 56 83 48 84 49 85 55 86
REMARK SMILES IDX 57 87 50 88 51 89 52 90 53 91 54 92
REMARK H PARENT 8 13 78 42 44 53
REMARK Flexibility Score: inf
ROOT
ATOM      1  C   UNL     1      -0.692  -0.438   2.213  1.00  0.00     0.274 C 
ENDROOT
BRANCH   1   2
ATOM      2  O   UNL     1      -0.400   1.366   1.269  1.00  0.00    -0.462 OA
BRANCH   2   3
ATOM      3  C   UNL     1      -0.821   2.425   0.369  1.00  0.00     0.308 C 
ATOM      4  O   UNL     1      -0.045   2.848  -0.496  1.00  0.00    -0.252 OA
BRANCH   3   5
ATOM      5  C   UNL     1      -2.168   3.053   0.111  1.00  0.00     0.151 C 
BRANCH   5   6
ATOM      6  C   UNL     1      -3.389   3.233   0.982  1.00  0.00     0.051 C 
ATOM      7  C   UNL     1      -4.318   4.339   0.382  1.00  0.00     0.029 C 
ATOM      8  C   UNL     1      -3.266   4.150   2.230  1.00  0.00     0.029 C 
ATOM      9  C   UNL     1      -3.631   5.342   1.327  1.00  0.00     0.005 C 
BRANCH   6  10
ATOM     10  N   UNL     1      -4.148   2.000   1.232  1.00  0.00    -0.346 N 
ATOM     11  C   UNL     1      -3.611   0.981   1.940  1.00  0.00     0.251 C 
ATOM     12  O   UNL     1      -4.207   0.257   2.719  1.00  0.00    -0.269 OA
ATOM     13  H   UNL     1      -5.062   1.915   0.877  1.00  0.00     0.164 HD
BRANCH  11  14
ATOM     14  C   UNL     1      -2.179   0.903   1.765  1.00  0.00     0.039 A 
ATOM     15  C   UNL     1       2.893   0.427   1.478  1.00  0.00     0.044 C 
ATOM     16  C   UNL     1       1.397   0.525   1.644  1.00  0.00    -0.051 A 
ATOM     17  C   UNL     1       0.452  -0.160   0.353  1.00  0.00     0.004 A 
ATOM     18  C   UNL     1       0.618   1.381   2.966  1.00  0.00     0.004 A 
ATOM     19  C   UNL     1      -1.324   0.064   0.354  1.00  0.00     0.014 A 
ATOM     20  C   UNL     1      -1.149   1.599   3.052  1.00  0.00     0.014 A 
ENDBRANCH  11  14
ENDBRANCH   6  10
ENDBRANCH   5   6
ENDBRANCH   3   5
ENDBRANCH   2   3
ENDBRANCH   1   2
BRANCH   1  21
ATOM     21  C   UNL     1      -1.984  -1.696   1.673  1.00  0.00     0.275 C 
BRANCH  21  22
ATOM     22  O   UNL     1      -3.318  -1.461   0.725  1.00  0.00    -0.458 OA
BRANCH  22  23
ATOM     23  C   UNL     1      -3.880  -1.024  -0.512  1.00  0.00     0.338 C 
ATOM     24  O   UNL     1      -5.051  -0.648  -0.522  1.00  0.00    -0.246 OA
BRANCH  23  25
ATOM     25  C   UNL     1      -3.034  -0.802  -1.804  1.00  0.00     0.060 A 
ATOM     26  C   UNL     1      -2.749   0.500  -2.321  1.00  0.00     0.016 A 
ATOM     27  C   UNL     1      -2.088  -1.768  -2.043  1.00  0.00     0.016 A 
ATOM     28  C   UNL     1      -1.416   0.892  -2.773  1.00  0.00     0.010 A 
ATOM     29  C   UNL     1      -0.788  -1.333  -2.358  1.00  0.00     0.010 A 
ATOM     30  C   UNL     1      -0.341   0.003  -2.669  1.00  0.00    -0.014 A 
BRANCH  30  31
ATOM     31  C   UNL     1       1.206   0.271  -2.748  1.00  0.00     0.031 A 
ATOM     32  C   UNL     1       2.099   1.520  -2.451  1.00  0.00     0.074 A 
ATOM     33  C   UNL     1       1.942  -0.824  -3.079  1.00  0.00     0.049 A 
ATOM     34  N   UNL     1       3.037   2.033  -3.217  1.00  0.00    -0.248 NA
ATOM     35  C   UNL     1       2.179   2.188  -1.157  1.00  0.00     0.031 C 
ATOM     36  C   UNL     1       3.374  -1.002  -3.240  1.00  0.00     0.029 A 
ATOM     37  N   UNL     1       1.447  -2.035  -3.590  1.00  0.00    -0.354 N 
ATOM     38  C   UNL     1       3.829   2.909  -2.428  1.00  0.00     0.074 A 
ATOM     39  C   UNL     1       3.068   3.173  -1.261  1.00  0.00     0.031 C 
ATOM     40  C   UNL     1       3.553  -1.968  -4.171  1.00  0.00     0.029 A 
ATOM     41  C   UNL     1       2.232  -2.331  -4.687  1.00  0.00     0.049 A 
ATOM     42  H   UNL     1       0.695  -2.564  -3.238  1.00  0.00     0.167 HD
ATOM     43  C   UNL     1       5.189   3.078  -2.554  1.00  0.00     0.037 A 
ATOM     44  C   UNL     1       1.674  -2.144  -5.921  1.00  0.00     0.037 A 
ATOM     45  C   UNL     1       5.686   2.126  -3.517  1.00  0.00     0.049 A 
ATOM     46  C   UNL     1       2.476  -1.164  -6.736  1.00  0.00     0.074 A 
ATOM     47  C   UNL     1       6.351   0.917  -3.431  1.00  0.00     0.029 A 
ATOM     48  N   UNL     1       5.232   2.235  -4.800  1.00  0.00    -0.354 N 
ATOM     49  N   UNL     1       3.465  -0.481  -6.234  1.00  0.00    -0.248 NA
ATOM     50  C   UNL     1       2.255  -0.847  -8.143  1.00  0.00     0.031 C 
ATOM     51  C   UNL     1       6.265   0.289  -4.706  1.00  0.00     0.029 A 
ATOM     52  C   UNL     1       5.560   1.133  -5.545  1.00  0.00     0.049 A 
ATOM     53  H   UNL     1       4.733   3.009  -5.147  1.00  0.00     0.167 HD
ATOM     54  C   UNL     1       4.014   0.321  -7.183  1.00  0.00     0.074 A 
ATOM     55  C   UNL     1       3.212   0.074  -8.366  1.00  0.00     0.031 C 
ATOM     56  C   UNL     1       5.080   1.121  -6.908  1.00  0.00     0.037 A 
BRANCH  43  57
ATOM     57  C   UNL     1       6.151   3.879  -1.644  1.00  0.00     0.058 A 
ATOM     58  C   UNL     1       7.539   3.581  -1.618  1.00  0.00     0.135 A 
ATOM     59  C   UNL     1       5.803   4.982  -0.829  1.00  0.00     0.135 A 
ATOM     60  F   UNL     1       8.070   2.638  -2.407  1.00  0.00    -0.206 F 
ATOM     61  C   UNL     1       8.469   4.235  -0.800  1.00  0.00     0.059 A 
ATOM     62  C   UNL     1       6.716   5.638   0.029  1.00  0.00     0.059 A 
ATOM     63  F   UNL     1       4.569   5.506  -0.863  1.00  0.00    -0.206 F 
ATOM     64  C   UNL     1       8.050   5.249   0.043  1.00  0.00     0.060 A 
BRANCH  64  65
ATOM     65  S   UNL     1       9.276   6.041   1.112  1.00  0.00     0.124 S 
ATOM     66  O   UNL     1       9.790   4.910   1.880  1.00  0.00    -0.237 OA
ATOM     67  O   UNL     1      10.203   6.621   0.146  1.00  0.00    -0.237 OA
ATOM     68  O   UNL     1       8.491   7.002   1.881  1.00  0.00    -0.744 OA
ENDBRANCH  64  65
ENDBRANCH  43  57
BRANCH  44  69
ATOM     69  C   UNL     1       0.173  -2.369  -5.964  1.00  0.00     0.058 A 
ATOM     70  C   UNL     1      -0.345  -3.599  -5.484  1.00  0.00     0.135 A 
ATOM     71  C   UNL     1      -0.770  -1.343  -6.146  1.00  0.00     0.135 A 
ATOM     72  F   UNL     1       0.486  -4.630  -5.254  1.00  0.00    -0.206 F 
ATOM     73  C   UNL     1      -1.686  -3.775  -5.125  1.00  0.00     0.059 A 
ATOM     74  C   UNL     1      -2.129  -1.502  -5.803  1.00  0.00     0.059 A 
ATOM     75  F   UNL     1      -0.378  -0.140  -6.589  1.00  0.00    -0.206 F 
ATOM     76  C   UNL     1      -2.575  -2.715  -5.271  1.00  0.00     0.060 A 
BRANCH  76  77
ATOM     77  S   UNL     1      -4.262  -2.904  -4.614  1.00  0.00     0.124 S 
ATOM     78  O   UNL     1      -4.902  -3.703  -5.652  1.00  0.00    -0.237 OA
ATOM     79  O   UNL     1      -4.035  -3.600  -3.348  1.00  0.00    -0.237 OA
ATOM     80  O   UNL     1      -4.733  -1.528  -4.493  1.00  0.00    -0.744 OA
ENDBRANCH  76  77
ENDBRANCH  44  69
BRANCH  56  81
ATOM     81  C   UNL     1       5.734   2.015  -7.906  1.00  0.00     0.058 A 
ATOM     82  C   UNL     1       6.080   1.548  -9.177  1.00  0.00     0.135 A 
ATOM     83  C   UNL     1       6.146   3.328  -7.576  1.00  0.00     0.135 A 
ATOM     84  F   UNL     1       5.806   0.287  -9.545  1.00  0.00    -0.206 F 
ATOM     85  C   UNL     1       6.730   2.361 -10.098  1.00  0.00     0.059 A 
ATOM     86  C   UNL     1       6.850   4.132  -8.455  1.00  0.00     0.059 A 
ATOM     87  F   UNL     1       5.848   3.896  -6.399  1.00  0.00    -0.206 F 
ATOM     88  C   UNL     1       7.104   3.653  -9.729  1.00  0.00     0.060 A 
BRANCH  88  89
ATOM     89  S   UNL     1       7.920   4.711 -10.928  1.00  0.00     0.124 S 
ATOM     90  O   UNL     1       8.824   3.783 -11.601  1.00  0.00    -0.237 OA
ATOM     91  O   UNL     1       6.783   5.173 -11.718  1.00  0.00    -0.237 OA
ATOM     92  O   UNL     1       8.569   5.724 -10.103  1.00  0.00    -0.744 OA
ENDBRANCH  88  89
ENDBRANCH  56  81
ENDBRANCH  30  31
ENDBRANCH  23  25
ENDBRANCH  22  23
ENDBRANCH  21  22
ENDBRANCH   1  21
TORSDOF 17
