REMARK SMILES Cc1ccc(-c2cnnc(-n3nc(C)c4c3NC(=O)C[C@@H]4c3ccc(C(=O)OCCOC(=O)c4ccc(-c5c6nc(c(-c7c(F)cc(S(=O)(=O)[O-])cc7F)c7ccc([nH]7)c(-c7c(F)cc(S(=O)(=O)[O-])cc7F)c7nc(c(-c8c(F)cc(S(=O)(=O)[O-])cc8F)c8ccc5[nH]8)C=C7)C=C6)cc4)cc3)n2)cc1
REMARK SMILES IDX 29 1 28 2 26 3 27 4 25 5 22 6 23 7 101 8 24 9 100 10 21 11
REMARK SMILES IDX 11 12 12 13 16 14 13 15 15 16 17 17 14 18 18 19 20 21 19 22
REMARK SMILES IDX 10 23 6 24 7 25 102 26 8 27 9 28 5 29 1 30 2 31 3 32 104 33
REMARK SMILES IDX 4 34 103 35 30 36 31 37 32 38 33 39 34 40 35 41 99 42 36 43
REMARK SMILES IDX 98 44 37 45 38 46 39 47 92 48 40 49 97 50 91 51 93 52 41 53
REMARK SMILES IDX 96 54 90 55 89 56 42 58 76 59 55 60 75 61 56 62 59 63 74 64
REMARK SMILES IDX 94 65 57 66 58 67 73 69 95 70 60 71 43 72 44 73 53 74 45 75
REMARK SMILES IDX 46 76 52 77 54 78 47 79 48 80 49 81 50 82 51 83 77 84 78 85
REMARK SMILES IDX 87 86 79 87 80 88 86 89 88 90 81 91 82 92 83 93 84 94 85 95
REMARK SMILES IDX 61 96 62 97 71 98 63 99 64 100 70 101 72 102 65 103 66 104
REMARK SMILES IDX 67 105 68 106 69 107
REMARK H PARENT 17 20 93 57 59 68
REMARK Flexibility Score: inf
ROOT
ATOM      1  C   UNL     1     -11.210   7.551  -7.440  1.00  0.00     0.275 C 
ENDROOT
BRANCH   1   2
ATOM      2  O   UNL     1     -10.049   6.707  -7.496  1.00  0.00    -0.458 OA
BRANCH   2   3
ATOM      3  C   UNL     1     -10.255   5.490  -6.947  1.00  0.00     0.338 C 
ATOM      4  O   UNL     1     -11.261   5.124  -6.362  1.00  0.00    -0.246 OA
BRANCH   3   5
ATOM      5  C   UNL     1      -9.040   4.669  -6.946  1.00  0.00     0.060 A 
ATOM      6  C   UNL     1      -7.279   2.680  -6.146  1.00  0.00    -0.040 A 
ATOM      7  C   UNL     1      -8.084   2.469  -7.260  1.00  0.00     0.005 A 
ATOM      8  C   UNL     1      -7.199   3.978  -5.597  1.00  0.00     0.005 A 
ATOM      9  C   UNL     1      -8.972   3.459  -7.638  1.00  0.00     0.016 A 
ATOM     10  C   UNL     1      -8.108   4.959  -5.965  1.00  0.00     0.016 A 
BRANCH   6  11
ATOM     11  C   UNL     1      -6.683   1.448  -5.506  1.00  0.00     0.064 C 
ATOM     12  N   UNL     1      -5.699   2.048  -2.094  1.00  0.00    -0.180 N 
ATOM     13  N   UNL     1      -7.003   2.387  -1.917  1.00  0.00    -0.168 NA
ATOM     14  C   UNL     1      -5.392   2.043  -3.440  1.00  0.00     0.143 A 
ATOM     15  C   UNL     1      -7.578   2.066  -3.080  1.00  0.00     0.066 A 
ATOM     16  C   UNL     1      -6.589   1.752  -4.057  1.00  0.00     0.026 A 
ATOM     17  N   UNL     1      -4.244   2.251  -4.183  1.00  0.00    -0.310 N 
ATOM     18  C   UNL     1      -9.048   2.232  -3.218  1.00  0.00     0.069 C 
ATOM     19  C   UNL     1      -4.259   1.981  -5.601  1.00  0.00     0.226 C 
ATOM     20  H   UNL     1      -3.424   2.579  -3.748  1.00  0.00     0.171 HD
ATOM     21  C   UNL     1      -5.339   1.046  -6.093  1.00  0.00     0.113 C 
ATOM     22  O   UNL     1      -3.337   2.402  -6.252  1.00  0.00    -0.275 OA
BRANCH  12  23
ATOM     23  C   UNL     1      -4.994   1.357  -1.078  1.00  0.00     0.272 A 
ATOM     24  C   UNL     1      -3.163   0.240  -0.330  1.00  0.00     0.095 A 
ATOM     25  C   UNL     1      -3.958  -0.423   0.588  1.00  0.00     0.164 A 
ATOM     26  N   UNL     1      -3.677   1.115  -1.230  1.00  0.00    -0.208 NA
ATOM     27  N   UNL     1      -5.264  -0.150   0.695  1.00  0.00    -0.153 NA
ATOM     28  N   UNL     1      -5.775   0.788  -0.122  1.00  0.00    -0.109 NA
BRANCH  24  29
ATOM     29  C   UNL     1      -1.706   0.134  -0.292  1.00  0.00     0.002 A 
ATOM     30  C   UNL     1       2.594  -0.065   0.065  1.00  0.00     0.044 C 
ATOM     31  C   UNL     1       1.102   0.010  -0.052  1.00  0.00    -0.051 A 
ATOM     32  C   UNL     1       0.342  -1.163  -0.097  1.00  0.00     0.004 A 
ATOM     33  C   UNL     1       0.457   1.246  -0.130  1.00  0.00     0.004 A 
ATOM     34  C   UNL     1      -1.049  -1.103  -0.216  1.00  0.00     0.011 A 
ATOM     35  C   UNL     1      -0.930   1.304  -0.253  1.00  0.00     0.011 A 
ENDBRANCH  24  29
ENDBRANCH  12  23
ENDBRANCH   6  11
ENDBRANCH   3   5
ENDBRANCH   2   3
ENDBRANCH   1   2
BRANCH   1  36
ATOM     36  C   UNL     1     -11.142   8.663  -8.500  1.00  0.00     0.275 C 
BRANCH  36  37
ATOM     37  O   UNL     1     -11.258   8.275  -9.885  1.00  0.00    -0.458 OA
BRANCH  37  38
ATOM     38  C   UNL     1     -10.538   7.186 -10.261  1.00  0.00     0.338 C 
ATOM     39  O   UNL     1      -9.328   7.176 -10.377  1.00  0.00    -0.246 OA
BRANCH  38  40
ATOM     40  C   UNL     1     -11.447   6.011 -10.213  1.00  0.00     0.060 A 
ATOM     41  C   UNL     1     -10.894   4.732 -10.123  1.00  0.00     0.016 A 
ATOM     42  C   UNL     1     -12.800   6.223  -9.928  1.00  0.00     0.016 A 
ATOM     43  C   UNL     1     -11.665   3.685  -9.633  1.00  0.00     0.010 A 
ATOM     44  C   UNL     1     -13.510   5.231  -9.303  1.00  0.00     0.010 A 
ATOM     45  C   UNL     1     -12.936   3.962  -9.160  1.00  0.00    -0.014 A 
BRANCH  45  46
ATOM     46  C   UNL     1     -13.903   2.925  -8.874  1.00  0.00     0.031 A 
ATOM     47  C   UNL     1     -14.232   2.504  -7.504  1.00  0.00     0.074 A 
ATOM     48  C   UNL     1     -14.643   2.751  -9.989  1.00  0.00     0.049 A 
ATOM     49  N   UNL     1     -15.204   1.711  -7.236  1.00  0.00    -0.248 NA
ATOM     50  C   UNL     1     -13.501   2.889  -6.301  1.00  0.00     0.031 C 
ATOM     51  C   UNL     1     -16.014   2.342 -10.197  1.00  0.00     0.029 A 
ATOM     52  N   UNL     1     -14.114   2.829 -11.289  1.00  0.00    -0.354 N 
ATOM     53  C   UNL     1     -15.438   1.753  -5.875  1.00  0.00     0.074 A 
ATOM     54  C   UNL     1     -14.286   2.414  -5.322  1.00  0.00     0.031 C 
ATOM     55  C   UNL     1     -16.128   1.902 -11.467  1.00  0.00     0.029 A 
ATOM     56  C   UNL     1     -14.779   1.851 -12.028  1.00  0.00     0.049 A 
ATOM     57  H   UNL     1     -13.418   3.447 -11.611  1.00  0.00     0.167 HD
ATOM     58  C   UNL     1     -16.664   1.334  -5.447  1.00  0.00     0.037 A 
ATOM     59  C   UNL     1     -14.069   0.706 -12.285  1.00  0.00     0.037 A 
ATOM     60  C   UNL     1     -17.364   0.724  -6.577  1.00  0.00     0.049 A 
ATOM     61  C   UNL     1     -14.626  -0.481 -11.514  1.00  0.00     0.074 A 
ATOM     62  C   UNL     1     -18.252   1.198  -7.527  1.00  0.00     0.029 A 
ATOM     63  N   UNL     1     -16.838  -0.440  -7.090  1.00  0.00    -0.354 N 
ATOM     64  N   UNL     1     -15.343  -0.389 -10.425  1.00  0.00    -0.248 NA
ATOM     65  C   UNL     1     -14.437  -1.865 -11.933  1.00  0.00     0.031 C 
ATOM     66  C   UNL     1     -18.195   0.315  -8.650  1.00  0.00     0.029 A 
ATOM     67  C   UNL     1     -17.267  -0.676  -8.376  1.00  0.00     0.049 A 
ATOM     68  H   UNL     1     -16.227  -1.034  -6.596  1.00  0.00     0.167 HD
ATOM     69  C   UNL     1     -15.808  -1.624 -10.069  1.00  0.00     0.074 A 
ATOM     70  C   UNL     1     -15.146  -2.525 -11.000  1.00  0.00     0.031 C 
ATOM     71  C   UNL     1     -16.722  -1.829  -9.073  1.00  0.00     0.037 A 
BRANCH  58  72
ATOM     72  C   UNL     1     -17.346   1.619  -4.126  1.00  0.00     0.058 A 
ATOM     73  C   UNL     1     -18.758   1.527  -4.055  1.00  0.00     0.135 A 
ATOM     74  C   UNL     1     -16.727   2.026  -2.927  1.00  0.00     0.135 A 
ATOM     75  F   UNL     1     -19.491   1.117  -5.099  1.00  0.00    -0.206 F 
ATOM     76  C   UNL     1     -19.496   1.866  -2.924  1.00  0.00     0.059 A 
ATOM     77  C   UNL     1     -17.451   2.384  -1.777  1.00  0.00     0.059 A 
ATOM     78  F   UNL     1     -15.396   2.073  -2.806  1.00  0.00    -0.206 F 
ATOM     79  C   UNL     1     -18.839   2.312  -1.791  1.00  0.00     0.060 A 
BRANCH  79  80
ATOM     80  S   UNL     1     -19.835   2.775  -0.362  1.00  0.00     0.124 S 
ATOM     81  O   UNL     1     -20.634   3.874  -0.896  1.00  0.00    -0.237 OA
ATOM     82  O   UNL     1     -20.561   1.541  -0.082  1.00  0.00    -0.237 OA
ATOM     83  O   UNL     1     -18.841   3.157   0.637  1.00  0.00    -0.744 OA
ENDBRANCH  79  80
ENDBRANCH  58  72
BRANCH  59  84
ATOM     84  C   UNL     1     -12.611   0.962 -12.587  1.00  0.00     0.058 A 
ATOM     85  C   UNL     1     -12.280   1.906 -13.591  1.00  0.00     0.135 A 
ATOM     86  C   UNL     1     -11.568   0.576 -11.733  1.00  0.00     0.135 A 
ATOM     87  F   UNL     1     -13.221   2.321 -14.457  1.00  0.00    -0.206 F 
ATOM     88  C   UNL     1     -11.031   2.527 -13.661  1.00  0.00     0.059 A 
ATOM     89  C   UNL     1     -10.296   1.166 -11.804  1.00  0.00     0.059 A 
ATOM     90  F   UNL     1     -11.787  -0.304 -10.746  1.00  0.00    -0.206 F 
ATOM     91  C   UNL     1     -10.050   2.171 -12.742  1.00  0.00     0.060 A 
BRANCH  91  92
ATOM     92  S   UNL     1      -8.537   3.168 -12.653  1.00  0.00     0.124 S 
ATOM     93  O   UNL     1      -7.755   2.635 -13.760  1.00  0.00    -0.237 OA
ATOM     94  O   UNL     1      -9.052   4.522 -12.832  1.00  0.00    -0.237 OA
ATOM     95  O   UNL     1      -8.032   2.869 -11.314  1.00  0.00    -0.744 OA
ENDBRANCH  91  92
ENDBRANCH  59  84
BRANCH  71  96
ATOM     96  C   UNL     1     -17.194  -3.188  -8.648  1.00  0.00     0.058 A 
ATOM     97  C   UNL     1     -17.600  -4.166  -9.564  1.00  0.00     0.135 A 
ATOM     98  C   UNL     1     -17.344  -3.513  -7.279  1.00  0.00     0.135 A 
ATOM     99  F   UNL     1     -17.588  -3.920 -10.884  1.00  0.00    -0.206 F 
ATOM    100  C   UNL     1     -18.031  -5.424  -9.149  1.00  0.00     0.059 A 
ATOM    101  C   UNL     1     -17.847  -4.727  -6.843  1.00  0.00     0.059 A 
ATOM    102  F   UNL     1     -16.957  -2.680  -6.303  1.00  0.00    -0.206 F 
ATOM    103  C   UNL     1     -18.142  -5.696  -7.786  1.00  0.00     0.060 A 
BRANCH 103 104
ATOM    104  S   UNL     1     -18.648  -7.332  -7.243  1.00  0.00     0.124 S 
ATOM    105  O   UNL     1     -19.710  -7.661  -8.188  1.00  0.00    -0.237 OA
ATOM    106  O   UNL     1     -17.404  -8.079  -7.401  1.00  0.00    -0.237 OA
ATOM    107  O   UNL     1     -19.081  -7.115  -5.867  1.00  0.00    -0.744 OA
ENDBRANCH 103 104
ENDBRANCH  71  96
ENDBRANCH  45  46
ENDBRANCH  38  40
ENDBRANCH  37  38
ENDBRANCH  36  37
ENDBRANCH   1  36
TORSDOF 17
