REMARK SMILES CC(C)C(=O)Nc1ccc2c([C@H](C(=O)OCCOC(=O)c3ccc(-c4c5nc(c(-c6c(F)cc(S(=O)(=O)[O-])cc6F)c6ccc([nH]6)c(-c6c(F)cc(S(=O)(=O)[O-])cc6F)c6nc(c(-c7c(F)cc(S(=O)(=O)[O-])cc7F)c7ccc4[nH]7)C=C6)C=C5)cc3)[NH+]3CC[NH+](CC(=O)N(C)C)CC3)c[nH]c2c1
REMARK SMILES IDX 16 1 15 2 13 3 14 4 12 5 11 6 7 7 8 8 102 9 9 10 101 11
REMARK SMILES IDX 10 12 100 13 99 14 6 16 4 17 5 18 2 20 1 21 3 22 87 23 88 24
REMARK SMILES IDX 98 25 89 27 97 28 90 29 91 31 92 32 93 33 94 34 95 35 96 36
REMARK SMILES IDX 17 37 18 38 19 39 20 40 21 41 22 42 86 43 23 44 85 45 24 46
REMARK SMILES IDX 25 47 26 48 79 49 27 50 84 51 78 52 80 53 28 54 83 55 77 56
REMARK SMILES IDX 76 57 29 59 63 60 42 61 62 62 43 63 46 64 61 65 81 66 44 67
REMARK SMILES IDX 45 68 60 70 82 71 47 72 30 73 31 74 40 75 32 76 33 77 39 78
REMARK SMILES IDX 41 79 34 80 35 81 36 82 37 83 38 84 64 85 65 86 74 87 66 88
REMARK SMILES IDX 67 89 73 90 75 91 68 92 69 93 70 94 71 95 72 96 48 97 49 98
REMARK SMILES IDX 58 99 50 100 51 101 57 102 59 103 52 104 53 105 54 106
REMARK SMILES IDX 55 107 56 108
REMARK H PARENT 100 15 6 19 87 26 90 30 80 58 46 69
REMARK Flexibility Score: inf
ROOT
ATOM      1  C   UNL     1      -0.870   0.455  -5.117  1.00  0.00     0.274 C 
ENDROOT
BRANCH   1   2
ATOM      2  O   UNL     1       0.162  -0.099  -5.969  1.00  0.00    -0.457 OA
BRANCH   2   3
ATOM      3  C   UNL     1       0.976  -1.009  -5.369  1.00  0.00     0.370 C 
ATOM      4  O   UNL     1       0.767  -1.452  -4.238  1.00  0.00    -0.245 OA
BRANCH   3   5
ATOM      5  C   UNL     1       2.259  -1.339  -6.138  1.00  0.00     0.328 C 
BRANCH   5   6
ATOM      6  C   UNL     1       2.123  -2.059  -7.455  1.00  0.00     0.046 A 
ATOM      7  C   UNL     1       4.051  -5.485  -8.950  1.00  0.00     0.043 A 
ATOM      8  C   UNL     1       4.700  -4.824  -7.915  1.00  0.00     0.027 A 
ATOM      9  C   UNL     1       2.971  -4.867  -9.599  1.00  0.00     0.052 A 
ATOM     10  C   UNL     1       4.164  -3.676  -7.336  1.00  0.00     0.013 A 
ATOM     11  C   UNL     1       2.469  -3.681  -9.036  1.00  0.00     0.048 A 
ATOM     12  C   UNL     1       2.988  -3.127  -7.870  1.00  0.00     0.009 A 
ATOM     13  N   UNL     1       1.457  -2.844  -9.439  1.00  0.00    -0.361 N 
ATOM     14  C   UNL     1       1.242  -1.864  -8.501  1.00  0.00     0.094 A 
ATOM     15  H   UNL     1       0.956  -2.933 -10.282  1.00  0.00     0.166 HD
BRANCH   7  16
ATOM     16  N   UNL     1       4.489  -6.732  -9.413  1.00  0.00    -0.326 N 
ATOM     17  C   UNL     1       5.112  -7.770  -8.779  1.00  0.00     0.226 C 
ATOM     18  O   UNL     1       5.685  -8.606  -9.490  1.00  0.00    -0.274 OA
ATOM     19  H   UNL     1       4.317  -6.890 -10.370  1.00  0.00     0.169 HD
BRANCH  17  20
ATOM     20  C   UNL     1       5.084  -7.993  -7.257  1.00  0.00     0.072 C 
ATOM     21  C   UNL     1       6.231  -7.341  -6.491  1.00  0.00     0.018 C 
ATOM     22  C   UNL     1       3.725  -7.786  -6.595  1.00  0.00     0.018 C 
ENDBRANCH  17  20
ENDBRANCH   7  16
ENDBRANCH   5   6
BRANCH   5  23
ATOM     23  N   UNL     1       3.275  -0.268  -6.196  1.00  0.00    -0.310 N 
ATOM     24  C   UNL     1       3.158   0.737  -7.254  1.00  0.00     0.325 C 
ATOM     25  C   UNL     1       3.559   0.340  -4.896  1.00  0.00     0.325 C 
ATOM     26  H   UNL     1       4.091  -0.805  -6.488  1.00  0.00     0.349 HD
ATOM     27  C   UNL     1       2.311   1.983  -6.927  1.00  0.00     0.325 C 
ATOM     28  C   UNL     1       2.723   1.592  -4.543  1.00  0.00     0.325 C 
ATOM     29  N   UNL     1       2.520   2.589  -5.600  1.00  0.00    -0.318 N 
ATOM     30  H   UNL     1       1.641   3.043  -5.352  1.00  0.00     0.348 HD
BRANCH  29  31
ATOM     31  C   UNL     1       3.496   3.696  -5.608  1.00  0.00     0.364 C 
BRANCH  31  32
ATOM     32  C   UNL     1       4.910   3.292  -6.044  1.00  0.00     0.277 C 
ATOM     33  O   UNL     1       5.205   3.327  -7.244  1.00  0.00    -0.268 OA
ATOM     34  N   UNL     1       5.815   2.845  -5.090  1.00  0.00    -0.344 N 
ATOM     35  C   UNL     1       5.717   3.051  -3.655  1.00  0.00     0.146 C 
ATOM     36  C   UNL     1       6.988   2.119  -5.551  1.00  0.00     0.146 C 
ENDBRANCH  31  32
ENDBRANCH  29  31
ENDBRANCH   5  23
ENDBRANCH   3   5
ENDBRANCH   2   3
ENDBRANCH   1   2
BRANCH   1  37
ATOM     37  C   UNL     1      -2.078   0.849  -5.954  1.00  0.00     0.275 C 
BRANCH  37  38
ATOM     38  O   UNL     1      -2.636  -0.372  -6.455  1.00  0.00    -0.458 OA
BRANCH  38  39
ATOM     39  C   UNL     1      -2.559  -0.541  -7.790  1.00  0.00     0.338 C 
ATOM     40  O   UNL     1      -2.474   0.328  -8.645  1.00  0.00    -0.246 OA
BRANCH  39  41
ATOM     41  C   UNL     1      -2.458  -1.983  -8.073  1.00  0.00     0.060 A 
ATOM     42  C   UNL     1      -1.618  -2.783  -7.292  1.00  0.00     0.016 A 
ATOM     43  C   UNL     1      -3.068  -2.508  -9.208  1.00  0.00     0.016 A 
ATOM     44  C   UNL     1      -1.306  -4.075  -7.701  1.00  0.00     0.010 A 
ATOM     45  C   UNL     1      -2.849  -3.845  -9.544  1.00  0.00     0.010 A 
ATOM     46  C   UNL     1      -1.939  -4.635  -8.815  1.00  0.00    -0.014 A 
BRANCH  46  47
ATOM     47  C   UNL     1      -1.663  -6.032  -9.246  1.00  0.00     0.031 A 
ATOM     48  C   UNL     1      -1.257  -6.309 -10.669  1.00  0.00     0.074 A 
ATOM     49  C   UNL     1      -1.824  -7.059  -8.388  1.00  0.00     0.049 A 
ATOM     50  N   UNL     1      -1.282  -7.432 -11.337  1.00  0.00    -0.248 NA
ATOM     51  C   UNL     1      -0.759  -5.164 -11.449  1.00  0.00     0.031 C 
ATOM     52  C   UNL     1      -2.125  -6.944  -6.959  1.00  0.00     0.029 A 
ATOM     53  N   UNL     1      -1.788  -8.415  -8.607  1.00  0.00    -0.354 N 
ATOM     54  C   UNL     1      -0.853  -7.121 -12.622  1.00  0.00     0.074 A 
ATOM     55  C   UNL     1      -0.545  -5.708 -12.638  1.00  0.00     0.031 C 
ATOM     56  C   UNL     1      -2.251  -8.170  -6.432  1.00  0.00     0.029 A 
ATOM     57  C   UNL     1      -2.161  -9.149  -7.505  1.00  0.00     0.049 A 
ATOM     58  H   UNL     1      -1.524  -8.819  -9.464  1.00  0.00     0.167 HD
ATOM     59  C   UNL     1      -0.764  -7.936 -13.699  1.00  0.00     0.037 A 
ATOM     60  C   UNL     1      -2.494 -10.448  -7.383  1.00  0.00     0.037 A 
ATOM     61  C   UNL     1      -1.098  -9.335 -13.671  1.00  0.00     0.049 A 
ATOM     62  C   UNL     1      -2.499 -11.316  -8.606  1.00  0.00     0.074 A 
ATOM     63  C   UNL     1      -1.090 -10.247 -14.712  1.00  0.00     0.029 A 
ATOM     64  N   UNL     1      -1.506 -10.023 -12.538  1.00  0.00    -0.354 N 
ATOM     65  N   UNL     1      -2.191 -10.996  -9.840  1.00  0.00    -0.248 NA
ATOM     66  C   UNL     1      -2.930 -12.707  -8.429  1.00  0.00     0.031 C 
ATOM     67  C   UNL     1      -1.529 -11.480 -14.213  1.00  0.00     0.029 A 
ATOM     68  C   UNL     1      -1.770 -11.343 -12.855  1.00  0.00     0.049 A 
ATOM     69  H   UNL     1      -1.595  -9.630 -11.640  1.00  0.00     0.167 HD
ATOM     70  C   UNL     1      -2.385 -12.150 -10.588  1.00  0.00     0.074 A 
ATOM     71  C   UNL     1      -2.828 -13.177  -9.665  1.00  0.00     0.031 C 
ATOM     72  C   UNL     1      -2.213 -12.344 -11.918  1.00  0.00     0.037 A 
BRANCH  59  73
ATOM     73  C   UNL     1      -0.357  -7.322 -15.007  1.00  0.00     0.058 A 
ATOM     74  C   UNL     1       0.975  -6.979 -15.285  1.00  0.00     0.135 A 
ATOM     75  C   UNL     1      -1.317  -7.093 -16.007  1.00  0.00     0.135 A 
ATOM     76  F   UNL     1       1.925  -7.149 -14.352  1.00  0.00    -0.206 F 
ATOM     77  C   UNL     1       1.340  -6.421 -16.507  1.00  0.00     0.059 A 
ATOM     78  C   UNL     1      -0.972  -6.551 -17.241  1.00  0.00     0.059 A 
ATOM     79  F   UNL     1      -2.607  -7.389 -15.785  1.00  0.00    -0.206 F 
ATOM     80  C   UNL     1       0.358  -6.208 -17.478  1.00  0.00     0.060 A 
BRANCH  80  81
ATOM     81  S   UNL     1       0.842  -5.480 -19.058  1.00  0.00     0.124 S 
ATOM     82  O   UNL     1       1.039  -4.083 -18.683  1.00  0.00    -0.237 OA
ATOM     83  O   UNL     1       2.053  -6.224 -19.390  1.00  0.00    -0.237 OA
ATOM     84  O   UNL     1      -0.307  -5.743 -19.919  1.00  0.00    -0.744 OA
ENDBRANCH  80  81
ENDBRANCH  59  73
BRANCH  60  85
ATOM     85  C   UNL     1      -2.948 -10.962  -6.065  1.00  0.00     0.058 A 
ATOM     86  C   UNL     1      -2.136 -11.808  -5.301  1.00  0.00     0.135 A 
ATOM     87  C   UNL     1      -4.178 -10.559  -5.516  1.00  0.00     0.135 A 
ATOM     88  F   UNL     1      -0.959 -12.229  -5.789  1.00  0.00    -0.206 F 
ATOM     89  C   UNL     1      -2.517 -12.228  -4.030  1.00  0.00     0.059 A 
ATOM     90  C   UNL     1      -4.569 -10.944  -4.239  1.00  0.00     0.059 A 
ATOM     91  F   UNL     1      -4.986  -9.739  -6.206  1.00  0.00    -0.206 F 
ATOM     92  C   UNL     1      -3.732 -11.782  -3.504  1.00  0.00     0.060 A 
BRANCH  92  93
ATOM     93  S   UNL     1      -4.177 -12.243  -1.815  1.00  0.00     0.124 S 
ATOM     94  O   UNL     1      -4.689 -13.594  -2.006  1.00  0.00    -0.237 OA
ATOM     95  O   UNL     1      -2.901 -12.136  -1.115  1.00  0.00    -0.237 OA
ATOM     96  O   UNL     1      -5.168 -11.236  -1.447  1.00  0.00    -0.744 OA
ENDBRANCH  92  93
ENDBRANCH  60  85
BRANCH  72  97
ATOM     97  C   UNL     1      -2.475 -13.721 -12.446  1.00  0.00     0.058 A 
ATOM     98  C   UNL     1      -3.779 -14.185 -12.668  1.00  0.00     0.135 A 
ATOM     99  C   UNL     1      -1.405 -14.568 -12.773  1.00  0.00     0.135 A 
ATOM    100  F   UNL     1      -4.833 -13.412 -12.362  1.00  0.00    -0.206 F 
ATOM    101  C   UNL     1      -4.016 -15.454 -13.184  1.00  0.00     0.059 A 
ATOM    102  C   UNL     1      -1.617 -15.833 -13.307  1.00  0.00     0.059 A 
ATOM    103  F   UNL     1      -0.139 -14.162 -12.583  1.00  0.00    -0.206 F 
ATOM    104  C   UNL     1      -2.928 -16.271 -13.500  1.00  0.00     0.060 A 
BRANCH 104 105
ATOM    105  S   UNL     1      -3.241 -17.905 -14.199  1.00  0.00     0.124 S 
ATOM    106  O   UNL     1      -3.611 -18.666 -13.011  1.00  0.00    -0.237 OA
ATOM    107  O   UNL     1      -4.322 -17.642 -15.144  1.00  0.00    -0.237 OA
ATOM    108  O   UNL     1      -1.963 -18.264 -14.805  1.00  0.00    -0.744 OA
ENDBRANCH 104 105
ENDBRANCH  72  97
ENDBRANCH  46  47
ENDBRANCH  39  41
ENDBRANCH  38  39
ENDBRANCH  37  38
ENDBRANCH   1  37
TORSDOF 20
