REMARK SMILES C[C@H]1CC[C@H](CNC(=O)NCc2ccc(C(=O)OCCOC(=O)c3ccc(-c4c5nc(c(-c6c(F)cc(S(=O)(=O)[O-])cc6F)c6ccc([nH]6)c(-c6c(F)cc(S(=O)(=O)[O-])cc6F)c6nc(c(-c7c(F)cc(S(=O)(=O)[O-])cc7F)c7ccc4[nH]7)C=C6)C=C5)cc3)o2)CC1
REMARK SMILES IDX 19 1 18 2 16 3 17 4 15 5 12 6 13 7 90 8 14 9 11 10 10 11
REMARK SMILES IDX 7 12 8 13 9 15 6 17 5 18 1 19 2 20 92 21 3 22 91 23 4 24
REMARK SMILES IDX 20 25 21 26 22 27 23 28 24 29 25 30 89 31 26 32 88 33 27 34
REMARK SMILES IDX 28 35 29 36 82 37 30 38 87 39 81 40 83 41 31 42 86 43 80 44
REMARK SMILES IDX 79 45 32 47 66 48 45 49 65 50 46 51 49 52 64 53 84 54 47 55
REMARK SMILES IDX 48 56 63 58 85 59 50 60 33 61 34 62 43 63 35 64 36 65 42 66
REMARK SMILES IDX 44 67 37 68 38 69 39 70 40 71 41 72 67 73 68 74 77 75 69 76
REMARK SMILES IDX 70 77 76 78 78 79 71 80 72 81 73 82 74 83 75 84 51 85 52 86
REMARK SMILES IDX 61 87 53 88 54 89 60 90 62 91 55 92 56 93 57 94 58 95 59 96
REMARK H PARENT 7 14 10 16 83 46 49 57
REMARK Flexibility Score: inf
ROOT
ATOM      1  C   UNL     1     -10.252  -3.868   3.177  1.00  0.00     0.275 C 
ENDROOT
BRANCH   1   2
ATOM      2  O   UNL     1      -9.139  -4.114   2.296  1.00  0.00    -0.456 OA
BRANCH   2   3
ATOM      3  C   UNL     1      -8.992  -3.238   1.256  1.00  0.00     0.374 C 
ATOM      4  O   UNL     1      -9.815  -2.382   0.956  1.00  0.00    -0.242 OA
BRANCH   3   5
ATOM      5  C   UNL     1      -7.702  -3.425   0.630  1.00  0.00     0.211 A 
ATOM      6  C   UNL     1      -5.975  -2.762  -0.591  1.00  0.00     0.124 A 
ATOM      7  C   UNL     1      -5.614  -3.964  -0.018  1.00  0.00     0.048 A 
ATOM      8  O   UNL     1      -7.265  -2.467  -0.249  1.00  0.00    -0.452 OA
ATOM      9  C   UNL     1      -6.716  -4.386   0.767  1.00  0.00     0.058 A 
BRANCH   6  10
ATOM     10  C   UNL     1      -5.255  -1.804  -1.477  1.00  0.00     0.193 C 
BRANCH  10  11
ATOM     11  N   UNL     1      -5.827  -0.483  -1.365  1.00  0.00    -0.331 N 
ATOM     12  N   UNL     1      -4.162   0.926  -0.467  1.00  0.00    -0.338 N 
ATOM     13  C   UNL     1      -5.306   0.722  -1.127  1.00  0.00     0.315 C 
ATOM     14  H   UNL     1      -3.803   1.835  -0.583  1.00  0.00     0.165 HD
ATOM     15  O   UNL     1      -5.937   1.706  -1.514  1.00  0.00    -0.249 OA
ATOM     16  H   UNL     1      -6.803  -0.469  -1.492  1.00  0.00     0.165 HD
BRANCH  12  17
ATOM     17  C   UNL     1      -3.339   0.088   0.385  1.00  0.00     0.121 C 
BRANCH  17  18
ATOM     18  C   UNL     1      -1.894   0.033  -0.139  1.00  0.00     0.008 C 
ATOM     19  C   UNL     1       2.494  -0.051  -0.176  1.00  0.00     0.007 C 
ATOM     20  C   UNL     1       1.051   0.001   0.323  1.00  0.00    -0.014 C 
ATOM     21  C   UNL     1       0.284  -1.262  -0.086  1.00  0.00     0.003 C 
ATOM     22  C   UNL     1       0.341   1.255  -0.201  1.00  0.00     0.003 C 
ATOM     23  C   UNL     1      -1.169  -1.214   0.386  1.00  0.00     0.006 C 
ATOM     24  C   UNL     1      -1.119   1.307   0.247  1.00  0.00     0.006 C 
ENDBRANCH  17  18
ENDBRANCH  12  17
ENDBRANCH  10  11
ENDBRANCH   6  10
ENDBRANCH   3   5
ENDBRANCH   2   3
ENDBRANCH   1   2
BRANCH   1  25
ATOM     25  C   UNL     1      -9.806  -3.120   4.439  1.00  0.00     0.275 C 
BRANCH  25  26
ATOM     26  O   UNL     1      -9.519  -1.736   4.168  1.00  0.00    -0.458 OA
BRANCH  26  27
ATOM     27  C   UNL     1      -8.234  -1.463   3.834  1.00  0.00     0.338 C 
ATOM     28  O   UNL     1      -7.310  -2.258   3.775  1.00  0.00    -0.246 OA
BRANCH  27  29
ATOM     29  C   UNL     1      -8.124  -0.055   3.419  1.00  0.00     0.060 A 
ATOM     30  C   UNL     1      -7.626   0.218   2.144  1.00  0.00     0.016 A 
ATOM     31  C   UNL     1      -8.456   0.988   4.288  1.00  0.00     0.016 A 
ATOM     32  C   UNL     1      -7.455   1.537   1.733  1.00  0.00     0.010 A 
ATOM     33  C   UNL     1      -8.272   2.312   3.875  1.00  0.00     0.010 A 
ATOM     34  C   UNL     1      -7.757   2.593   2.598  1.00  0.00    -0.014 A 
BRANCH  34  35
ATOM     35  C   UNL     1      -7.466   3.986   2.184  1.00  0.00     0.031 A 
ATOM     36  C   UNL     1      -6.268   4.691   2.752  1.00  0.00     0.074 A 
ATOM     37  C   UNL     1      -8.254   4.604   1.285  1.00  0.00     0.049 A 
ATOM     38  N   UNL     1      -5.889   5.934   2.604  1.00  0.00    -0.248 NA
ATOM     39  C   UNL     1      -5.378   3.888   3.606  1.00  0.00     0.031 C 
ATOM     40  C   UNL     1      -9.403   3.998   0.613  1.00  0.00     0.029 A 
ATOM     41  N   UNL     1      -8.207   5.880   0.783  1.00  0.00    -0.354 N 
ATOM     42  C   UNL     1      -4.732   6.071   3.361  1.00  0.00     0.074 A 
ATOM     43  C   UNL     1      -4.477   4.786   3.979  1.00  0.00     0.031 C 
ATOM     44  C   UNL     1      -9.957   4.905  -0.209  1.00  0.00     0.029 A 
ATOM     45  C   UNL     1      -9.228   6.165  -0.091  1.00  0.00     0.049 A 
ATOM     46  H   UNL     1      -7.508   6.530   1.027  1.00  0.00     0.167 HD
ATOM     47  C   UNL     1      -3.958   7.169   3.525  1.00  0.00     0.037 A 
ATOM     48  C   UNL     1      -9.553   7.319  -0.706  1.00  0.00     0.037 A 
ATOM     49  C   UNL     1      -4.212   8.438   2.893  1.00  0.00     0.049 A 
ATOM     50  C   UNL     1      -8.704   8.539  -0.471  1.00  0.00     0.074 A 
ATOM     51  C   UNL     1      -3.491   9.615   3.000  1.00  0.00     0.029 A 
ATOM     52  N   UNL     1      -5.269   8.694   2.030  1.00  0.00    -0.354 N 
ATOM     53  N   UNL     1      -7.631   8.667   0.273  1.00  0.00    -0.248 NA
ATOM     54  C   UNL     1      -9.113   9.776  -1.152  1.00  0.00     0.031 C 
ATOM     55  C   UNL     1      -4.130  10.591   2.227  1.00  0.00     0.029 A 
ATOM     56  C   UNL     1      -5.227  10.012   1.607  1.00  0.00     0.049 A 
ATOM     57  H   UNL     1      -5.948   8.035   1.759  1.00  0.00     0.167 HD
ATOM     58  C   UNL     1      -7.223   9.988   0.131  1.00  0.00     0.074 A 
ATOM     59  C   UNL     1      -8.162  10.620  -0.774  1.00  0.00     0.031 C 
ATOM     60  C   UNL     1      -6.166  10.620   0.698  1.00  0.00     0.037 A 
BRANCH  47  61
ATOM     61  C   UNL     1      -2.781   7.055   4.452  1.00  0.00     0.058 A 
ATOM     62  C   UNL     1      -1.619   6.355   4.092  1.00  0.00     0.135 A 
ATOM     63  C   UNL     1      -2.812   7.670   5.715  1.00  0.00     0.135 A 
ATOM     64  F   UNL     1      -1.546   5.731   2.905  1.00  0.00    -0.206 F 
ATOM     65  C   UNL     1      -0.538   6.248   4.961  1.00  0.00     0.059 A 
ATOM     66  C   UNL     1      -1.734   7.593   6.591  1.00  0.00     0.059 A 
ATOM     67  F   UNL     1      -3.901   8.348   6.110  1.00  0.00    -0.206 F 
ATOM     68  C   UNL     1      -0.607   6.866   6.211  1.00  0.00     0.060 A 
BRANCH  68  69
ATOM     69  S   UNL     1       0.799   6.710   7.334  1.00  0.00     0.124 S 
ATOM     70  O   UNL     1       0.640   5.338   7.808  1.00  0.00    -0.237 OA
ATOM     71  O   UNL     1       1.936   6.945   6.450  1.00  0.00    -0.237 OA
ATOM     72  O   UNL     1       0.556   7.750   8.329  1.00  0.00    -0.744 OA
ENDBRANCH  68  69
ENDBRANCH  47  61
BRANCH  48  73
ATOM     73  C   UNL     1     -10.753   7.378  -1.581  1.00  0.00     0.058 A 
ATOM     74  C   UNL     1     -10.633   7.505  -2.972  1.00  0.00     0.135 A 
ATOM     75  C   UNL     1     -12.047   7.298  -1.041  1.00  0.00     0.135 A 
ATOM     76  F   UNL     1      -9.418   7.600  -3.534  1.00  0.00    -0.206 F 
ATOM     77  C   UNL     1     -11.752   7.559  -3.798  1.00  0.00     0.059 A 
ATOM     78  C   UNL     1     -13.180   7.328  -1.848  1.00  0.00     0.059 A 
ATOM     79  F   UNL     1     -12.216   7.170   0.284  1.00  0.00    -0.206 F 
ATOM     80  C   UNL     1     -13.022   7.469  -3.226  1.00  0.00     0.060 A 
BRANCH  80  81
ATOM     81  S   UNL     1     -14.469   7.495  -4.306  1.00  0.00     0.124 S 
ATOM     82  O   UNL     1     -14.562   8.911  -4.639  1.00  0.00    -0.237 OA
ATOM     83  O   UNL     1     -14.063   6.609  -5.393  1.00  0.00    -0.237 OA
ATOM     84  O   UNL     1     -15.534   6.976  -3.453  1.00  0.00    -0.744 OA
ENDBRANCH  80  81
ENDBRANCH  48  73
BRANCH  60  85
ATOM     85  C   UNL     1      -5.945  12.060   0.331  1.00  0.00     0.058 A 
ATOM     86  C   UNL     1      -6.736  13.086   0.869  1.00  0.00     0.135 A 
ATOM     87  C   UNL     1      -4.890  12.421  -0.524  1.00  0.00     0.135 A 
ATOM     88  F   UNL     1      -7.760  12.793   1.685  1.00  0.00    -0.206 F 
ATOM     89  C   UNL     1      -6.498  14.422   0.561  1.00  0.00     0.059 A 
ATOM     90  C   UNL     1      -4.622  13.751  -0.829  1.00  0.00     0.059 A 
ATOM     91  F   UNL     1      -4.099  11.476  -1.056  1.00  0.00    -0.206 F 
ATOM     92  C   UNL     1      -5.437  14.745  -0.288  1.00  0.00     0.060 A 
BRANCH  92  93
ATOM     93  S   UNL     1      -5.108  16.484  -0.646  1.00  0.00     0.124 S 
ATOM     94  O   UNL     1      -6.154  16.788  -1.617  1.00  0.00    -0.237 OA
ATOM     95  O   UNL     1      -5.259  17.110   0.664  1.00  0.00    -0.237 OA
ATOM     96  O   UNL     1      -3.747  16.470  -1.172  1.00  0.00    -0.744 OA
ENDBRANCH  92  93
ENDBRANCH  60  85
ENDBRANCH  34  35
ENDBRANCH  27  29
ENDBRANCH  26  27
ENDBRANCH  25  26
ENDBRANCH   1  25
TORSDOF 18
