REMARK SMILES C[C@H](NC(=O)c1ccc(C(C)(C)C)cc1)C(=O)N[C@@H](C(=O)OCCOC(=O)c1ccc(-c2c3nc(c(-c4c(F)cc(S(=O)(=O)[O-])cc4F)c4ccc([nH]4)c(-c4c(F)cc(S(=O)(=O)[O-])cc4F)c4nc(c(-c5c(F)cc(S(=O)(=O)[O-])cc5F)c5ccc2[nH]5)C=C4)C=C3)cc1)[C@H](C)O
REMARK SMILES IDX 23 1 22 2 20 3 21 4 19 5 18 6 16 7 17 8 2 10 1 11 3 12 4 13
REMARK SMILES IDX 5 15 6 16 7 17 15 18 8 19 14 20 9 21 10 22 11 23 12 24 13 25
REMARK SMILES IDX 94 26 95 27 96 28 24 30 25 31 26 32 27 33 28 34 29 35 93 36
REMARK SMILES IDX 30 37 92 38 31 39 32 40 33 41 86 42 34 43 91 44 85 45 87 46
REMARK SMILES IDX 35 47 90 48 84 49 83 50 36 52 70 53 49 54 69 55 50 56 53 57
REMARK SMILES IDX 68 58 88 59 51 60 52 61 67 63 89 64 54 65 37 66 38 67 47 68
REMARK SMILES IDX 39 69 40 70 46 71 48 72 41 73 42 74 43 75 44 76 45 77 71 78
REMARK SMILES IDX 72 79 81 80 73 81 74 82 80 83 82 84 75 85 76 86 77 87 78 88
REMARK SMILES IDX 79 89 55 90 56 91 65 92 57 93 58 94 64 95 66 96 59 97 60 98
REMARK SMILES IDX 61 99 62 100 63 101
REMARK H PARENT 18 9 3 14 96 29 87 51 53 62
REMARK Flexibility Score: inf
ROOT
ATOM      1  C   UNL     1       1.242   6.065  -3.322  1.00  0.00     0.274 C 
ENDROOT
BRANCH   1   2
ATOM      2  O   UNL     1       0.764   5.128  -2.333  1.00  0.00    -0.460 OA
BRANCH   2   3
ATOM      3  C   UNL     1      -0.412   4.504  -2.614  1.00  0.00     0.331 C 
ATOM      4  O   UNL     1      -1.050   4.662  -3.649  1.00  0.00    -0.250 OA
BRANCH   3   5
ATOM      5  C   UNL     1      -0.848   3.513  -1.528  1.00  0.00     0.221 C 
BRANCH   5   6
ATOM      6  N   UNL     1      -0.156   3.654  -0.241  1.00  0.00    -0.339 N 
ATOM      7  C   UNL     1      -0.619   4.151   0.941  1.00  0.00     0.243 C 
ATOM      8  O   UNL     1       0.106   4.097   1.935  1.00  0.00    -0.273 OA
ATOM      9  H   UNL     1       0.779   3.346  -0.231  1.00  0.00     0.164 HD
BRANCH   7  10
ATOM     10  C   UNL     1      -2.041   4.742   1.027  1.00  0.00     0.168 C 
ATOM     11  C   UNL     1      -3.094   3.646   0.845  1.00  0.00     0.041 C 
BRANCH  10  12
ATOM     12  N   UNL     1      -2.096   5.885   0.102  1.00  0.00    -0.341 N 
ATOM     13  C   UNL     1      -3.122   6.700  -0.293  1.00  0.00     0.251 C 
ATOM     14  H   UNL     1      -1.231   6.105  -0.311  1.00  0.00     0.164 HD
ATOM     15  O   UNL     1      -2.895   7.654  -1.031  1.00  0.00    -0.269 OA
BRANCH  13  16
ATOM     16  C   UNL     1      -4.505   6.390   0.099  1.00  0.00     0.039 A 
ATOM     17  C   UNL     1      -5.438   6.167  -0.910  1.00  0.00     0.014 A 
ATOM     18  C   UNL     1      -4.876   6.279   1.436  1.00  0.00     0.014 A 
ATOM     19  C   UNL     1      -6.718   5.720  -0.579  1.00  0.00     0.005 A 
ATOM     20  C   UNL     1      -6.154   5.813   1.760  1.00  0.00     0.005 A 
ATOM     21  C   UNL     1      -7.085   5.476   0.760  1.00  0.00    -0.043 A 
BRANCH  21  22
ATOM     22  C   UNL     1      -8.460   4.868   1.091  1.00  0.00    -0.013 C 
ATOM     23  C   UNL     1      -9.530   5.967   0.966  1.00  0.00     0.016 C 
ATOM     24  C   UNL     1      -8.803   3.711   0.122  1.00  0.00     0.016 C 
ATOM     25  C   UNL     1      -8.534   4.275   2.517  1.00  0.00     0.016 C 
ENDBRANCH  21  22
ENDBRANCH  13  16
ENDBRANCH  10  12
ENDBRANCH   7  10
ENDBRANCH   5   6
BRANCH   5  26
ATOM     26  C   UNL     1      -0.717   2.063  -2.038  1.00  0.00     0.145 C 
ATOM     27  C   UNL     1      -1.651   1.109  -1.298  1.00  0.00     0.041 C 
BRANCH  26  28
ATOM     28  O   UNL     1       0.610   1.560  -1.848  1.00  0.00    -0.391 OA
ATOM     29  H   UNL     1       0.814   1.535  -0.900  1.00  0.00     0.211 HD
ENDBRANCH  26  28
ENDBRANCH   5  26
ENDBRANCH   3   5
ENDBRANCH   2   3
ENDBRANCH   1   2
BRANCH   1  30
ATOM     30  C   UNL     1       2.452   5.511  -4.078  1.00  0.00     0.275 C 
BRANCH  30  31
ATOM     31  O   UNL     1       2.074   4.407  -4.921  1.00  0.00    -0.458 OA
BRANCH  31  32
ATOM     32  C   UNL     1       2.319   3.180  -4.412  1.00  0.00     0.338 C 
ATOM     33  O   UNL     1       2.826   2.916  -3.331  1.00  0.00    -0.246 OA
BRANCH  32  34
ATOM     34  C   UNL     1       1.698   2.139  -5.242  1.00  0.00     0.060 A 
ATOM     35  C   UNL     1       0.311   2.143  -5.345  1.00  0.00     0.016 A 
ATOM     36  C   UNL     1       2.431   1.048  -5.705  1.00  0.00     0.016 A 
ATOM     37  C   UNL     1      -0.354   1.010  -5.794  1.00  0.00     0.010 A 
ATOM     38  C   UNL     1       1.760  -0.027  -6.303  1.00  0.00     0.010 A 
ATOM     39  C   UNL     1       0.354  -0.071  -6.334  1.00  0.00    -0.014 A 
BRANCH  39  40
ATOM     40  C   UNL     1      -0.382  -1.212  -6.951  1.00  0.00     0.031 A 
ATOM     41  C   UNL     1      -0.107  -2.631  -6.528  1.00  0.00     0.074 A 
ATOM     42  C   UNL     1      -1.310  -0.976  -7.904  1.00  0.00     0.049 A 
ATOM     43  N   UNL     1      -0.447  -3.747  -7.121  1.00  0.00    -0.248 NA
ATOM     44  C   UNL     1       0.660  -2.823  -5.287  1.00  0.00     0.031 C 
ATOM     45  C   UNL     1      -1.727   0.347  -8.378  1.00  0.00     0.029 A 
ATOM     46  N   UNL     1      -2.078  -1.841  -8.645  1.00  0.00    -0.354 N 
ATOM     47  C   UNL     1       0.123  -4.769  -6.370  1.00  0.00     0.074 A 
ATOM     48  C   UNL     1       0.815  -4.141  -5.264  1.00  0.00     0.031 C 
ATOM     49  C   UNL     1      -2.708   0.210  -9.278  1.00  0.00     0.029 A 
ATOM     50  C   UNL     1      -2.896  -1.207  -9.551  1.00  0.00     0.049 A 
ATOM     51  H   UNL     1      -2.046  -2.819  -8.537  1.00  0.00     0.167 HD
ATOM     52  C   UNL     1       0.078  -6.104  -6.596  1.00  0.00     0.037 A 
ATOM     53  C   UNL     1      -3.658  -1.693 -10.548  1.00  0.00     0.037 A 
ATOM     54  C   UNL     1      -0.669  -6.719  -7.665  1.00  0.00     0.049 A 
ATOM     55  C   UNL     1      -3.649  -3.166 -10.817  1.00  0.00     0.074 A 
ATOM     56  C   UNL     1      -0.798  -8.064  -7.965  1.00  0.00     0.029 A 
ATOM     57  N   UNL     1      -1.429  -6.029  -8.599  1.00  0.00    -0.354 N 
ATOM     58  N   UNL     1      -3.025  -4.114 -10.161  1.00  0.00    -0.248 NA
ATOM     59  C   UNL     1      -4.405  -3.631 -11.986  1.00  0.00     0.031 C 
ATOM     60  C   UNL     1      -1.609  -8.185  -9.100  1.00  0.00     0.029 A 
ATOM     61  C   UNL     1      -2.012  -6.918  -9.487  1.00  0.00     0.049 A 
ATOM     62  H   UNL     1      -1.537  -5.051  -8.626  1.00  0.00     0.167 HD
ATOM     63  C   UNL     1      -3.298  -5.289 -10.848  1.00  0.00     0.074 A 
ATOM     64  C   UNL     1      -4.168  -4.936 -11.953  1.00  0.00     0.031 C 
ATOM     65  C   UNL     1      -2.858  -6.544 -10.592  1.00  0.00     0.037 A 
BRANCH  52  66
ATOM     66  C   UNL     1       0.896  -6.995  -5.702  1.00  0.00     0.058 A 
ATOM     67  C   UNL     1       0.508  -7.301  -4.390  1.00  0.00     0.135 A 
ATOM     68  C   UNL     1       2.073  -7.589  -6.191  1.00  0.00     0.135 A 
ATOM     69  F   UNL     1      -0.601  -6.751  -3.869  1.00  0.00    -0.206 F 
ATOM     70  C   UNL     1       1.268  -8.145  -3.584  1.00  0.00     0.059 A 
ATOM     71  C   UNL     1       2.837  -8.452  -5.411  1.00  0.00     0.059 A 
ATOM     72  F   UNL     1       2.490  -7.332  -7.441  1.00  0.00    -0.206 F 
ATOM     73  C   UNL     1       2.433  -8.713  -4.103  1.00  0.00     0.060 A 
BRANCH  73  74
ATOM     74  S   UNL     1       3.412  -9.809  -3.051  1.00  0.00     0.124 S 
ATOM     75  O   UNL     1       4.086  -8.850  -2.182  1.00  0.00    -0.237 OA
ATOM     76  O   UNL     1       2.388 -10.631  -2.414  1.00  0.00    -0.237 OA
ATOM     77  O   UNL     1       4.272 -10.510  -3.999  1.00  0.00    -0.744 OA
ENDBRANCH  73  74
ENDBRANCH  52  66
BRANCH  53  78
ATOM     78  C   UNL     1      -4.413  -0.751 -11.415  1.00  0.00     0.058 A 
ATOM     79  C   UNL     1      -5.807  -0.649 -11.324  1.00  0.00     0.135 A 
ATOM     80  C   UNL     1      -3.746   0.118 -12.294  1.00  0.00     0.135 A 
ATOM     81  F   UNL     1      -6.488  -1.466 -10.507  1.00  0.00    -0.206 F 
ATOM     82  C   UNL     1      -6.514   0.294 -12.063  1.00  0.00     0.059 A 
ATOM     83  C   UNL     1      -4.428   1.085 -13.022  1.00  0.00     0.059 A 
ATOM     84  F   UNL     1      -2.409   0.066 -12.405  1.00  0.00    -0.206 F 
ATOM     85  C   UNL     1      -5.814   1.165 -12.901  1.00  0.00     0.060 A 
BRANCH  85  86
ATOM     86  S   UNL     1      -6.723   2.458 -13.774  1.00  0.00     0.124 S 
ATOM     87  O   UNL     1      -7.284   1.714 -14.895  1.00  0.00    -0.237 OA
ATOM     88  O   UNL     1      -7.675   2.906 -12.763  1.00  0.00    -0.237 OA
ATOM     89  O   UNL     1      -5.682   3.425 -14.112  1.00  0.00    -0.744 OA
ENDBRANCH  85  86
ENDBRANCH  53  78
BRANCH  65  90
ATOM     90  C   UNL     1      -3.306  -7.623 -11.532  1.00  0.00     0.058 A 
ATOM     91  C   UNL     1      -2.713  -7.778 -12.794  1.00  0.00     0.135 A 
ATOM     92  C   UNL     1      -4.312  -8.527 -11.159  1.00  0.00     0.135 A 
ATOM     93  F   UNL     1      -1.756  -6.929 -13.200  1.00  0.00    -0.206 F 
ATOM     94  C   UNL     1      -3.112  -8.788 -13.662  1.00  0.00     0.059 A 
ATOM     95  C   UNL     1      -4.715  -9.555 -12.004  1.00  0.00     0.059 A 
ATOM     96  F   UNL     1      -4.906  -8.419  -9.960  1.00  0.00    -0.206 F 
ATOM     97  C   UNL     1      -4.115  -9.671 -13.258  1.00  0.00     0.060 A 
BRANCH  97  98
ATOM     98  S   UNL     1      -4.605 -10.998 -14.380  1.00  0.00     0.124 S 
ATOM     99  O   UNL     1      -5.424 -10.275 -15.348  1.00  0.00    -0.237 OA
ATOM    100  O   UNL     1      -3.321 -11.484 -14.873  1.00  0.00    -0.237 OA
ATOM    101  O   UNL     1      -5.327 -11.924 -13.513  1.00  0.00    -0.744 OA
ENDBRANCH  97  98
ENDBRANCH  65  90
ENDBRANCH  39  40
ENDBRANCH  32  34
ENDBRANCH  31  32
ENDBRANCH  30  31
ENDBRANCH   1  30
TORSDOF 21
