REMARK SMILES CCCCc1[nH]ncc1C(=O)OCCOC(=O)c1ccc(-c2c3nc(c(-c4c(F)cc(S(=O)(=O)[O-])cc4F)c4ccc([nH]4)c(-c4c(F)cc(S(=O)(=O)[O-])cc4F)c4nc(c(-c5c(F)cc(S(=O)(=O)[O-])cc5F)c5ccc2[nH]5)C=C4)C=C3)cc1
REMARK SMILES IDX 13 1 12 2 10 3 11 4 9 5 5 6 6 7 7 8 8 10 4 11 3 12 2 13 1 14
REMARK SMILES IDX 14 15 15 16 16 17 17 18 18 19 19 20 83 21 20 22 82 23 21 24
REMARK SMILES IDX 22 25 23 26 76 27 24 28 81 29 75 30 77 31 25 32 80 33 74 34
REMARK SMILES IDX 73 35 26 37 60 38 39 39 59 40 40 41 43 42 58 43 78 44 41 45
REMARK SMILES IDX 42 46 57 48 79 49 44 50 27 51 28 52 37 53 29 54 30 55 36 56
REMARK SMILES IDX 38 57 31 58 32 59 33 60 34 61 35 62 61 63 62 64 71 65 63 66
REMARK SMILES IDX 64 67 70 68 72 69 65 70 66 71 67 72 68 73 69 74 45 75 46 76
REMARK SMILES IDX 55 77 47 78 48 79 54 80 56 81 49 82 50 83 51 84 52 85 53 86
REMARK H PARENT 6 9 77 36 43 47
REMARK Flexibility Score: inf
ROOT
ATOM      1  C   UNL     1       0.003   0.834  -6.950  1.00  0.00     0.275 C 
ENDROOT
BRANCH   1   2
ATOM      2  O   UNL     1      -0.213   0.667  -5.536  1.00  0.00    -0.458 OA
BRANCH   2   3
ATOM      3  C   UNL     1      -1.284   1.327  -5.003  1.00  0.00     0.341 C 
ATOM      4  O   UNL     1      -1.994   2.100  -5.623  1.00  0.00    -0.246 OA
BRANCH   3   5
ATOM      5  C   UNL     1      -1.578   0.925  -3.636  1.00  0.00     0.100 A 
ATOM      6  C   UNL     1      -0.774   0.347  -2.666  1.00  0.00     0.050 A 
ATOM      7  N   UNL     1      -1.625  -0.004  -1.649  1.00  0.00    -0.282 N 
ATOM      8  N   UNL     1      -2.855   0.503  -1.780  1.00  0.00    -0.183 NA
ATOM      9  H   UNL     1      -1.356  -0.576  -0.894  1.00  0.00     0.190 HD
ATOM     10  C   UNL     1      -2.824   1.081  -2.980  1.00  0.00     0.150 A 
BRANCH   6  11
ATOM     11  C   UNL     1       0.693   0.122  -2.553  1.00  0.00     0.056 C 
BRANCH  11  12
ATOM     12  C   UNL     1       1.378   1.281  -1.806  1.00  0.00     0.006 C 
BRANCH  12  13
ATOM     13  C   UNL     1       0.987   1.450  -0.331  1.00  0.00    -0.003 C 
ATOM     14  C   UNL     1       1.305   0.236   0.528  1.00  0.00     0.004 C 
ENDBRANCH  12  13
ENDBRANCH  11  12
ENDBRANCH   6  11
ENDBRANCH   3   5
ENDBRANCH   2   3
ENDBRANCH   1   2
BRANCH   1  15
ATOM     15  C   UNL     1      -0.472  -0.396  -7.729  1.00  0.00     0.275 C 
BRANCH  15  16
ATOM     16  O   UNL     1      -1.909  -0.481  -7.725  1.00  0.00    -0.458 OA
BRANCH  16  17
ATOM     17  C   UNL     1      -2.438  -1.427  -6.914  1.00  0.00     0.338 C 
ATOM     18  O   UNL     1      -1.836  -2.233  -6.225  1.00  0.00    -0.246 OA
BRANCH  17  19
ATOM     19  C   UNL     1      -3.899  -1.259  -6.874  1.00  0.00     0.060 A 
ATOM     20  C   UNL     1      -4.437  -0.571  -5.789  1.00  0.00     0.016 A 
ATOM     21  C   UNL     1      -4.736  -1.833  -7.829  1.00  0.00     0.016 A 
ATOM     22  C   UNL     1      -5.814  -0.452  -5.638  1.00  0.00     0.010 A 
ATOM     23  C   UNL     1      -6.125  -1.699  -7.689  1.00  0.00     0.010 A 
ATOM     24  C   UNL     1      -6.674  -1.017  -6.586  1.00  0.00    -0.014 A 
BRANCH  24  25
ATOM     25  C   UNL     1      -8.143  -0.941  -6.376  1.00  0.00     0.031 A 
ATOM     26  C   UNL     1      -8.915  -2.184  -6.033  1.00  0.00     0.074 A 
ATOM     27  C   UNL     1      -8.777   0.246  -6.447  1.00  0.00     0.049 A 
ATOM     28  N   UNL     1     -10.207  -2.350  -5.915  1.00  0.00    -0.248 NA
ATOM     29  C   UNL     1      -8.128  -3.404  -5.795  1.00  0.00     0.031 C 
ATOM     30  C   UNL     1      -8.132   1.534  -6.712  1.00  0.00     0.029 A 
ATOM     31  N   UNL     1     -10.104   0.564  -6.295  1.00  0.00    -0.354 N 
ATOM     32  C   UNL     1     -10.392  -3.697  -5.625  1.00  0.00     0.074 A 
ATOM     33  C   UNL     1      -9.079  -4.305  -5.592  1.00  0.00     0.031 C 
ATOM     34  C   UNL     1      -9.062   2.503  -6.691  1.00  0.00     0.029 A 
ATOM     35  C   UNL     1     -10.373   1.901  -6.469  1.00  0.00     0.049 A 
ATOM     36  H   UNL     1     -10.796  -0.102  -6.082  1.00  0.00     0.167 HD
ATOM     37  C   UNL     1     -11.552  -4.363  -5.407  1.00  0.00     0.037 A 
ATOM     38  C   UNL     1     -11.547   2.563  -6.479  1.00  0.00     0.037 A 
ATOM     39  C   UNL     1     -12.852  -3.744  -5.405  1.00  0.00     0.049 A 
ATOM     40  C   UNL     1     -12.824   1.797  -6.269  1.00  0.00     0.074 A 
ATOM     41  C   UNL     1     -14.087  -4.333  -5.196  1.00  0.00     0.029 A 
ATOM     42  N   UNL     1     -13.085  -2.392  -5.612  1.00  0.00    -0.354 N 
ATOM     43  N   UNL     1     -12.988   0.515  -6.045  1.00  0.00    -0.248 NA
ATOM     44  C   UNL     1     -14.077   2.562  -6.328  1.00  0.00     0.031 C 
ATOM     45  C   UNL     1     -15.069  -3.342  -5.306  1.00  0.00     0.029 A 
ATOM     46  C   UNL     1     -14.444  -2.130  -5.546  1.00  0.00     0.049 A 
ATOM     47  H   UNL     1     -12.388  -1.718  -5.781  1.00  0.00     0.167 HD
ATOM     48  C   UNL     1     -14.359   0.322  -5.924  1.00  0.00     0.074 A 
ATOM     49  C   UNL     1     -14.980   1.621  -6.084  1.00  0.00     0.031 C 
ATOM     50  C   UNL     1     -15.043  -0.828  -5.705  1.00  0.00     0.037 A 
BRANCH  37  51
ATOM     51  C   UNL     1     -11.468  -5.848  -5.189  1.00  0.00     0.058 A 
ATOM     52  C   UNL     1     -10.995  -6.397  -3.988  1.00  0.00     0.135 A 
ATOM     53  C   UNL     1     -11.888  -6.734  -6.194  1.00  0.00     0.135 A 
ATOM     54  F   UNL     1     -10.564  -5.595  -3.001  1.00  0.00    -0.206 F 
ATOM     55  C   UNL     1     -10.915  -7.774  -3.800  1.00  0.00     0.059 A 
ATOM     56  C   UNL     1     -11.839  -8.114  -6.020  1.00  0.00     0.059 A 
ATOM     57  F   UNL     1     -12.348  -6.261  -7.363  1.00  0.00    -0.206 F 
ATOM     58  C   UNL     1     -11.335  -8.625  -4.825  1.00  0.00     0.060 A 
BRANCH  58  59
ATOM     59  S   UNL     1     -11.221 -10.409  -4.574  1.00  0.00     0.124 S 
ATOM     60  O   UNL     1      -9.789 -10.635  -4.742  1.00  0.00    -0.237 OA
ATOM     61  O   UNL     1     -11.732 -10.570  -3.216  1.00  0.00    -0.237 OA
ATOM     62  O   UNL     1     -12.071 -10.955  -5.627  1.00  0.00    -0.744 OA
ENDBRANCH  58  59
ENDBRANCH  37  51
BRANCH  38  63
ATOM     63  C   UNL     1     -11.568   4.029  -6.732  1.00  0.00     0.058 A 
ATOM     64  C   UNL     1     -11.895   4.937  -5.716  1.00  0.00     0.135 A 
ATOM     65  C   UNL     1     -11.246   4.550  -7.996  1.00  0.00     0.135 A 
ATOM     66  F   UNL     1     -12.223   4.487  -4.495  1.00  0.00    -0.206 F 
ATOM     67  C   UNL     1     -11.908   6.310  -5.942  1.00  0.00     0.059 A 
ATOM     68  C   UNL     1     -11.229   5.919  -8.240  1.00  0.00     0.059 A 
ATOM     69  F   UNL     1     -10.919   3.723  -9.001  1.00  0.00    -0.206 F 
ATOM     70  C   UNL     1     -11.570   6.792  -7.208  1.00  0.00     0.060 A 
BRANCH  70  71
ATOM     71  S   UNL     1     -11.531   8.577  -7.481  1.00  0.00     0.124 S 
ATOM     72  O   UNL     1     -12.951   8.887  -7.599  1.00  0.00    -0.237 OA
ATOM     73  O   UNL     1     -10.870   9.062  -6.274  1.00  0.00    -0.237 OA
ATOM     74  O   UNL     1     -10.750   8.710  -8.708  1.00  0.00    -0.744 OA
ENDBRANCH  70  71
ENDBRANCH  38  63
BRANCH  50  75
ATOM     75  C   UNL     1     -16.539  -0.730  -5.603  1.00  0.00     0.058 A 
ATOM     76  C   UNL     1     -17.342  -0.555  -6.741  1.00  0.00     0.135 A 
ATOM     77  C   UNL     1     -17.178  -0.859  -4.360  1.00  0.00     0.135 A 
ATOM     78  F   UNL     1     -16.778  -0.420  -7.952  1.00  0.00    -0.206 F 
ATOM     79  C   UNL     1     -18.728  -0.493  -6.647  1.00  0.00     0.059 A 
ATOM     80  C   UNL     1     -18.564  -0.821  -4.246  1.00  0.00     0.059 A 
ATOM     81  F   UNL     1     -16.454  -1.037  -3.243  1.00  0.00    -0.206 F 
ATOM     82  C   UNL     1     -19.330  -0.626  -5.394  1.00  0.00     0.060 A 
BRANCH  82  83
ATOM     83  S   UNL     1     -21.132  -0.577  -5.287  1.00  0.00     0.124 S 
ATOM     84  O   UNL     1     -21.395   0.852  -5.417  1.00  0.00    -0.237 OA
ATOM     85  O   UNL     1     -21.538  -1.402  -6.421  1.00  0.00    -0.237 OA
ATOM     86  O   UNL     1     -21.409  -1.150  -3.973  1.00  0.00    -0.744 OA
ENDBRANCH  82  83
ENDBRANCH  50  75
ENDBRANCH  24  25
ENDBRANCH  17  19
ENDBRANCH  16  17
ENDBRANCH  15  16
ENDBRANCH   1  15
TORSDOF 17
