REMARK SMILES NS(=O)(=O)CCNC(=O)N1[C@@H]2CC[C@H]1C[C@H](CC(=O)OCCOC(=O)c1ccc(-c3c4nc(c(-c5c(F)cc(S(=O)(=O)[O-])cc5F)c5ccc([nH]5)c(-c5c(F)cc(S(=O)(=O)[O-])cc5F)c5nc(c(-c6c(F)cc(S(=O)(=O)[O-])cc6F)c6ccc3[nH]6)C=C5)C=C4)cc1)C2
REMARK SMILES IDX 20 1 18 2 19 3 17 4 16 5 10 6 11 7 14 8 12 9 92 10 13 11
REMARK SMILES IDX 15 12 8 13 7 14 9 16 6 17 5 18 2 19 3 20 4 21 1 22 21 25
REMARK SMILES IDX 22 26 23 27 24 28 25 29 26 30 27 31 91 32 28 33 90 34 29 35
REMARK SMILES IDX 30 36 31 37 84 38 32 39 89 40 83 41 85 42 33 43 88 44 82 45
REMARK SMILES IDX 81 46 34 48 68 49 47 50 67 51 48 52 51 53 66 54 86 55 49 56
REMARK SMILES IDX 50 57 65 59 87 60 52 61 35 62 36 63 45 64 37 65 38 66 44 67
REMARK SMILES IDX 46 68 39 69 40 70 41 71 42 72 43 73 69 74 70 75 79 76 71 77
REMARK SMILES IDX 72 78 78 79 80 80 73 81 74 82 75 83 76 84 77 85 53 86 54 87
REMARK SMILES IDX 63 88 55 89 56 90 62 91 64 92 57 93 58 94 59 95 60 96 61 97
REMARK H PARENT 7 15 1 23 1 24 85 47 51 58
REMARK Flexibility Score: inf
ROOT
ATOM      1  O   UNL     1       1.173   1.415  -7.454  1.00  0.00    -0.462 OA
ENDROOT
BRANCH   1   2
ATOM      2  C   UNL     1       2.437   0.937  -7.344  1.00  0.00     0.306 C 
ATOM      3  O   UNL     1       2.977   0.203  -8.161  1.00  0.00    -0.252 OA
BRANCH   2   4
ATOM      4  C   UNL     1       3.104   1.352  -6.045  1.00  0.00     0.126 C 
BRANCH   4   5
ATOM      5  C   UNL     1       2.912   2.819  -5.596  1.00  0.00     0.004 C 
ATOM      6  N   UNL     1       2.073   3.763  -3.041  1.00  0.00    -0.319 N 
ATOM      7  C   UNL     1       3.390   4.208  -3.459  1.00  0.00     0.087 C 
ATOM      8  C   UNL     1       1.179   4.095  -4.130  1.00  0.00     0.087 C 
ATOM      9  C   UNL     1       3.125   5.546  -4.156  1.00  0.00     0.027 C 
ATOM     10  C   UNL     1       3.898   3.133  -4.432  1.00  0.00     0.029 C 
ATOM     11  C   UNL     1       1.644   5.497  -4.543  1.00  0.00     0.027 C 
ATOM     12  C   UNL     1       1.421   3.099  -5.265  1.00  0.00     0.029 C 
BRANCH   6  13
ATOM     13  C   UNL     1       1.850   3.231  -1.818  1.00  0.00     0.317 C 
ATOM     14  N   UNL     1       0.760   2.472  -1.567  1.00  0.00    -0.337 N 
ATOM     15  H   UNL     1       0.424   2.538  -0.644  1.00  0.00     0.165 HD
ATOM     16  O   UNL     1       2.640   3.377  -0.883  1.00  0.00    -0.249 OA
BRANCH  14  17
ATOM     17  C   UNL     1      -0.002   1.575  -2.423  1.00  0.00     0.135 C 
BRANCH  17  18
ATOM     18  C   UNL     1       0.728   0.268  -2.694  1.00  0.00     0.175 C 
BRANCH  18  19
ATOM     19  S   UNL     1       0.430  -0.951  -1.420  1.00  0.00     0.210 S 
ATOM     20  O   UNL     1       1.295  -2.088  -1.633  1.00  0.00    -0.213 OA
ATOM     21  O   UNL     1      -0.991  -1.109  -1.220  1.00  0.00    -0.213 OA
BRANCH  19  22
ATOM     22  N   UNL     1       1.006  -0.209  -0.035  1.00  0.00    -0.229 NA
ATOM     23  H   UNL     1       0.880  -0.832   0.762  1.00  0.00     0.137 HD
ATOM     24  H   UNL     1       0.492   0.657   0.125  1.00  0.00     0.137 HD
ENDBRANCH  19  22
ENDBRANCH  18  19
ENDBRANCH  17  18
ENDBRANCH  14  17
ENDBRANCH   6  13
ENDBRANCH   4   5
ENDBRANCH   2   4
ENDBRANCH   1   2
BRANCH   1  25
ATOM     25  C   UNL     1       0.478   1.159  -8.687  1.00  0.00     0.274 C 
BRANCH  25  26
ATOM     26  C   UNL     1       0.599   2.350  -9.640  1.00  0.00     0.275 C 
BRANCH  26  27
ATOM     27  O   UNL     1       1.949   2.494 -10.114  1.00  0.00    -0.458 OA
BRANCH  27  28
ATOM     28  C   UNL     1       2.691   3.433  -9.482  1.00  0.00     0.338 C 
ATOM     29  O   UNL     1       2.321   4.205  -8.614  1.00  0.00    -0.246 OA
BRANCH  28  30
ATOM     30  C   UNL     1       4.090   3.320  -9.916  1.00  0.00     0.060 A 
ATOM     31  C   UNL     1       5.021   2.749  -9.046  1.00  0.00     0.016 A 
ATOM     32  C   UNL     1       4.496   3.849 -11.140  1.00  0.00     0.016 A 
ATOM     33  C   UNL     1       6.369   2.711  -9.388  1.00  0.00     0.010 A 
ATOM     34  C   UNL     1       5.848   3.795 -11.491  1.00  0.00     0.010 A 
ATOM     35  C   UNL     1       6.795   3.237 -10.613  1.00  0.00    -0.014 A 
BRANCH  35  36
ATOM     36  C   UNL     1       8.238   3.242 -10.955  1.00  0.00     0.031 A 
ATOM     37  C   UNL     1       8.988   4.544 -11.008  1.00  0.00     0.074 A 
ATOM     38  C   UNL     1       8.869   2.081 -11.215  1.00  0.00     0.049 A 
ATOM     39  N   UNL     1      10.217   4.776 -11.388  1.00  0.00    -0.248 NA
ATOM     40  C   UNL     1       8.253   5.745 -10.581  1.00  0.00     0.031 C 
ATOM     41  C   UNL     1       8.254   0.754 -11.155  1.00  0.00     0.029 A 
ATOM     42  N   UNL     1      10.165   1.831 -11.591  1.00  0.00    -0.354 N 
ATOM     43  C   UNL     1      10.398   6.149 -11.271  1.00  0.00     0.074 A 
ATOM     44  C   UNL     1       9.143   6.701 -10.806  1.00  0.00     0.031 C 
ATOM     45  C   UNL     1       9.171  -0.170 -11.484  1.00  0.00     0.029 A 
ATOM     46  C   UNL     1      10.419   0.501 -11.833  1.00  0.00     0.049 A 
ATOM     47  H   UNL     1      10.847   2.536 -11.680  1.00  0.00     0.167 HD
ATOM     48  C   UNL     1      11.511   6.878 -11.525  1.00  0.00     0.037 A 
ATOM     49  C   UNL     1      11.522  -0.103 -12.316  1.00  0.00     0.037 A 
ATOM     50  C   UNL     1      12.756   6.310 -11.977  1.00  0.00     0.049 A 
ATOM     51  C   UNL     1      12.727   0.736 -12.650  1.00  0.00     0.074 A 
ATOM     52  C   UNL     1      13.949   6.958 -12.247  1.00  0.00     0.029 A 
ATOM     53  N   UNL     1      12.969   4.962 -12.231  1.00  0.00    -0.354 N 
ATOM     54  N   UNL     1      12.886   2.033 -12.533  1.00  0.00    -0.248 NA
ATOM     55  C   UNL     1      13.899   0.031 -13.185  1.00  0.00     0.031 C 
ATOM     56  C   UNL     1      14.865   6.011 -12.716  1.00  0.00     0.029 A 
ATOM     57  C   UNL     1      14.265   4.763 -12.678  1.00  0.00     0.049 A 
ATOM     58  H   UNL     1      12.298   4.252 -12.110  1.00  0.00     0.167 HD
ATOM     59  C   UNL     1      14.186   2.296 -12.952  1.00  0.00     0.074 A 
ATOM     60  C   UNL     1      14.772   1.022 -13.314  1.00  0.00     0.031 C 
ATOM     61  C   UNL     1      14.836   3.484 -13.028  1.00  0.00     0.037 A 
BRANCH  48  62
ATOM     62  C   UNL     1      11.426   8.371 -11.353  1.00  0.00     0.058 A 
ATOM     63  C   UNL     1      11.319   8.970 -10.088  1.00  0.00     0.135 A 
ATOM     64  C   UNL     1      11.489   9.218 -12.472  1.00  0.00     0.135 A 
ATOM     65  F   UNL     1      11.237   8.209  -8.984  1.00  0.00    -0.206 F 
ATOM     66  C   UNL     1      11.248  10.352  -9.940  1.00  0.00     0.059 A 
ATOM     67  C   UNL     1      11.450  10.604 -12.346  1.00  0.00     0.059 A 
ATOM     68  F   UNL     1      11.590   8.701 -13.707  1.00  0.00    -0.206 F 
ATOM     69  C   UNL     1      11.315  11.161 -11.076  1.00  0.00     0.060 A 
BRANCH  69  70
ATOM     70  S   UNL     1      11.224  12.952 -10.866  1.00  0.00     0.124 S 
ATOM     71  O   UNL     1       9.824  13.130 -10.493  1.00  0.00    -0.237 OA
ATOM     72  O   UNL     1      12.197  13.191  -9.805  1.00  0.00    -0.237 OA
ATOM     73  O   UNL     1      11.594  13.469 -12.180  1.00  0.00    -0.744 OA
ENDBRANCH  69  70
ENDBRANCH  48  62
BRANCH  49  74
ATOM     74  C   UNL     1      11.529  -1.576 -12.530  1.00  0.00     0.058 A 
ATOM     75  C   UNL     1      12.334  -2.419 -11.750  1.00  0.00     0.135 A 
ATOM     76  C   UNL     1      10.723  -2.171 -13.515  1.00  0.00     0.135 A 
ATOM     77  F   UNL     1      13.129  -1.899 -10.803  1.00  0.00    -0.206 F 
ATOM     78  C   UNL     1      12.352  -3.796 -11.947  1.00  0.00     0.059 A 
ATOM     79  C   UNL     1      10.701  -3.548 -13.710  1.00  0.00     0.059 A 
ATOM     80  F   UNL     1       9.926  -1.411 -14.282  1.00  0.00    -0.206 F 
ATOM     81  C   UNL     1      11.528  -4.352 -12.927  1.00  0.00     0.060 A 
BRANCH  81  82
ATOM     82  S   UNL     1      11.527  -6.145 -13.143  1.00  0.00     0.124 S 
ATOM     83  O   UNL     1      12.830  -6.367 -13.759  1.00  0.00    -0.237 OA
ATOM     84  O   UNL     1      11.380  -6.617 -11.770  1.00  0.00    -0.237 OA
ATOM     85  O   UNL     1      10.373  -6.379 -14.006  1.00  0.00    -0.744 OA
ENDBRANCH  81  82
ENDBRANCH  49  74
BRANCH  61  86
ATOM     86  C   UNL     1      16.271   3.461 -13.480  1.00  0.00     0.058 A 
ATOM     87  C   UNL     1      16.625   3.198 -14.813  1.00  0.00     0.135 A 
ATOM     88  C   UNL     1      17.304   3.757 -12.575  1.00  0.00     0.135 A 
ATOM     89  F   UNL     1      15.679   2.902 -15.718  1.00  0.00    -0.206 F 
ATOM     90  C   UNL     1      17.954   3.205 -15.226  1.00  0.00     0.059 A 
ATOM     91  C   UNL     1      18.636   3.801 -12.973  1.00  0.00     0.059 A 
ATOM     92  F   UNL     1      17.021   4.026 -11.290  1.00  0.00    -0.206 F 
ATOM     93  C   UNL     1      18.952   3.511 -14.299  1.00  0.00     0.060 A 
BRANCH  93  94
ATOM     94  S   UNL     1      20.668   3.552 -14.858  1.00  0.00     0.124 S 
ATOM     95  O   UNL     1      20.951   2.133 -15.045  1.00  0.00    -0.237 OA
ATOM     96  O   UNL     1      20.580   4.348 -16.079  1.00  0.00    -0.237 OA
ATOM     97  O   UNL     1      21.372   4.192 -13.750  1.00  0.00    -0.744 OA
ENDBRANCH  93  94
ENDBRANCH  61  86
ENDBRANCH  35  36
ENDBRANCH  28  30
ENDBRANCH  27  28
ENDBRANCH  26  27
ENDBRANCH  25  26
ENDBRANCH   1  25
TORSDOF 20
