REMARK SMILES Cc1c(C(=O)OCCOC(=O)c2ccc(-c3c4nc(c(-c5c(F)cc(S(=O)(=O)[O-])cc5F)c5ccc([nH]5)c(-c5c(F)cc(S(=O)(=O)[O-])cc5F)c5nc(c(-c6c(F)cc(S(=O)(=O)[O-])cc6F)c6ccc3[nH]6)C=C5)C=C4)cc2)cccc1-n1c(C)cc(/C=C2/C(=O)NC(=S)N=C2O)c1C
REMARK SMILES IDX 7 1 6 2 4 3 5 4 3 5 1 6 2 7 81 8 78 9 80 10 79 11 82 12
REMARK SMILES IDX 83 13 97 14 84 15 85 16 86 17 98 18 87 19 88 20 89 21 95 22
REMARK SMILES IDX 90 23 91 24 94 25 92 26 93 28 96 29 8 31 9 32 10 33 11 34
REMARK SMILES IDX 12 35 13 36 77 37 14 38 76 39 15 40 16 41 17 42 70 43 18 44
REMARK SMILES IDX 75 45 69 46 71 47 19 48 74 49 68 50 67 51 20 53 54 54 33 55
REMARK SMILES IDX 53 56 34 57 37 58 52 59 72 60 35 61 36 62 51 64 73 65 38 66
REMARK SMILES IDX 21 67 22 68 31 69 23 70 24 71 30 72 32 73 25 74 26 75 27 76
REMARK SMILES IDX 28 77 29 78 55 79 56 80 65 81 57 82 58 83 64 84 66 85 59 86
REMARK SMILES IDX 60 87 61 88 62 89 63 90 39 91 40 92 49 93 41 94 42 95 48 96
REMARK SMILES IDX 50 97 43 98 44 99 45 100 46 101 47 102
REMARK H PARENT 91 27 96 30 71 52 37 63
REMARK Flexibility Score: inf
ROOT
ATOM      1  C   UNL     1       3.271  -5.014   0.633  1.00  0.00     0.275 C 
ENDROOT
BRANCH   1   2
ATOM      2  O   UNL     1       3.063  -3.735   0.009  1.00  0.00    -0.458 OA
BRANCH   2   3
ATOM      3  C   UNL     1       1.632  -3.312  -0.251  1.00  0.00     0.338 C 
ATOM      4  O   UNL     1       1.135  -4.469  -0.430  1.00  0.00    -0.246 OA
BRANCH   3   5
ATOM      5  C   UNL     1       0.841  -1.310  -0.319  1.00  0.00     0.065 A 
ATOM      6  C   UNL     1       2.888   0.595   0.191  1.00  0.00     0.047 C 
ATOM      7  C   UNL     1       1.434   0.167  -0.219  1.00  0.00    -0.012 A 
ATOM      8  C   UNL     1       0.607   1.393  -0.387  1.00  0.00     0.049 A 
ATOM      9  C   UNL     1      -0.703  -0.912  -0.531  1.00  0.00     0.016 A 
ATOM     10  C   UNL     1      -0.768   1.457  -0.579  1.00  0.00     0.027 A 
ATOM     11  C   UNL     1      -1.437   0.290  -0.634  1.00  0.00     0.003 A 
BRANCH   8  12
ATOM     12  N   UNL     1       1.150   2.682  -0.192  1.00  0.00    -0.318 N 
ATOM     13  C   UNL     1       1.849   3.408  -1.130  1.00  0.00     0.020 A 
ATOM     14  C   UNL     1       1.062   3.379   1.006  1.00  0.00     0.027 A 
ATOM     15  C   UNL     1       2.179   2.862  -2.479  1.00  0.00     0.065 C 
ATOM     16  C   UNL     1       2.157   4.616  -0.539  1.00  0.00     0.031 A 
ATOM     17  C   UNL     1       1.598   4.636   0.779  1.00  0.00    -0.003 A 
ATOM     18  C   UNL     1       0.496   2.690   2.209  1.00  0.00     0.065 C 
BRANCH  17  19
ATOM     19  C   UNL     1       1.749   5.751   1.663  1.00  0.00     0.029 C 
ATOM     20  C   UNL     1       1.032   6.203   2.710  1.00  0.00     0.102 C 
ATOM     21  C   UNL     1       1.606   7.368   3.435  1.00  0.00     0.262 C 
ATOM     22  C   UNL     1      -0.206   5.711   3.317  1.00  0.00     0.226 C 
ATOM     23  O   UNL     1       2.478   8.107   2.992  1.00  0.00    -0.269 OA
ATOM     24  N   UNL     1       1.090   7.553   4.690  1.00  0.00    -0.297 N 
ATOM     25  N   UNL     1      -0.644   5.966   4.496  1.00  0.00    -0.184 NA
ATOM     26  C   UNL     1       0.068   6.842   5.268  1.00  0.00     0.203 C 
ATOM     27  H   UNL     1       1.493   8.268   5.234  1.00  0.00     0.172 HD
ATOM     28  S   UNL     1      -0.302   7.174   6.869  1.00  0.00    -0.038 S 
BRANCH  22  29
ATOM     29  O   UNL     1      -1.012   5.002   2.530  1.00  0.00    -0.493 OA
ATOM     30  H   UNL     1      -0.745   4.785   1.659  1.00  0.00     0.295 HD
ENDBRANCH  22  29
ENDBRANCH  17  19
ENDBRANCH   8  12
ENDBRANCH   3   5
ENDBRANCH   2   3
ENDBRANCH   1   2
BRANCH   1  31
ATOM     31  C   UNL     1       2.949  -4.885   2.130  1.00  0.00     0.275 C 
BRANCH  31  32
ATOM     32  O   UNL     1       1.561  -4.553   2.395  1.00  0.00    -0.458 OA
BRANCH  32  33
ATOM     33  C   UNL     1       1.259  -3.277   2.761  1.00  0.00     0.338 C 
ATOM     34  O   UNL     1       1.486  -2.760   3.842  1.00  0.00    -0.246 OA
BRANCH  33  35
ATOM     35  C   UNL     1       0.997  -2.492   1.537  1.00  0.00     0.060 A 
ATOM     36  C   UNL     1      -0.277  -3.036   0.393  1.00  0.00     0.016 A 
ATOM     37  C   UNL     1       2.533  -1.850   0.904  1.00  0.00     0.016 A 
ATOM     38  C   UNL     1       0.007  -2.958  -1.442  1.00  0.00     0.010 A 
ATOM     39  C   UNL     1       2.838  -1.811  -0.904  1.00  0.00     0.010 A 
ATOM     40  C   UNL     1       1.587  -2.373  -2.070  1.00  0.00    -0.014 A 
BRANCH  40  41
ATOM     41  C   UNL     1       2.191  -2.874  -3.308  1.00  0.00     0.031 A 
ATOM     42  C   UNL     1       2.874  -1.844  -4.124  1.00  0.00     0.074 A 
ATOM     43  C   UNL     1       2.152  -4.201  -3.571  1.00  0.00     0.049 A 
ATOM     44  N   UNL     1       2.512  -1.488  -5.319  1.00  0.00    -0.248 NA
ATOM     45  C   UNL     1       3.877  -0.922  -3.562  1.00  0.00     0.031 C 
ATOM     46  C   UNL     1       2.909  -4.988  -4.534  1.00  0.00     0.029 A 
ATOM     47  N   UNL     1       1.268  -5.139  -3.047  1.00  0.00    -0.354 N 
ATOM     48  C   UNL     1       3.520  -0.626  -5.728  1.00  0.00     0.074 A 
ATOM     49  C   UNL     1       4.012  -0.024  -4.531  1.00  0.00     0.031 C 
ATOM     50  C   UNL     1       2.289  -6.170  -4.731  1.00  0.00     0.029 A 
ATOM     51  C   UNL     1       1.059  -6.177  -3.955  1.00  0.00     0.049 A 
ATOM     52  H   UNL     1       0.848  -5.078  -2.159  1.00  0.00     0.167 HD
ATOM     53  C   UNL     1       4.306  -0.929  -6.806  1.00  0.00     0.037 A 
ATOM     54  C   UNL     1      -0.198  -6.376  -4.460  1.00  0.00     0.037 A 
ATOM     55  C   UNL     1       3.932  -2.237  -7.330  1.00  0.00     0.049 A 
ATOM     56  C   UNL     1      -0.330  -5.817  -5.873  1.00  0.00     0.074 A 
ATOM     57  C   UNL     1       4.484  -3.504  -7.255  1.00  0.00     0.029 A 
ATOM     58  N   UNL     1       2.629  -2.427  -7.728  1.00  0.00    -0.354 N 
ATOM     59  N   UNL     1       0.610  -5.126  -6.464  1.00  0.00    -0.248 NA
ATOM     60  C   UNL     1      -1.504  -5.963  -6.732  1.00  0.00     0.031 C 
ATOM     61  C   UNL     1       3.508  -4.440  -7.712  1.00  0.00     0.029 A 
ATOM     62  C   UNL     1       2.365  -3.736  -8.036  1.00  0.00     0.049 A 
ATOM     63  H   UNL     1       1.963  -1.705  -7.785  1.00  0.00     0.167 HD
ATOM     64  C   UNL     1       0.216  -4.743  -7.718  1.00  0.00     0.074 A 
ATOM     65  C   UNL     1      -1.142  -5.251  -7.817  1.00  0.00     0.031 C 
ATOM     66  C   UNL     1       1.044  -4.041  -8.556  1.00  0.00     0.037 A 
BRANCH  53  67
ATOM     67  C   UNL     1       5.624  -0.234  -7.114  1.00  0.00     0.058 A 
ATOM     68  C   UNL     1       6.604  -0.874  -7.897  1.00  0.00     0.135 A 
ATOM     69  C   UNL     1       5.970   1.075  -6.697  1.00  0.00     0.135 A 
ATOM     70  F   UNL     1       6.390  -2.076  -8.446  1.00  0.00    -0.206 F 
ATOM     71  C   UNL     1       7.845  -0.306  -8.179  1.00  0.00     0.059 A 
ATOM     72  C   UNL     1       7.230   1.645  -6.919  1.00  0.00     0.059 A 
ATOM     73  F   UNL     1       5.078   1.881  -6.099  1.00  0.00    -0.206 F 
ATOM     74  C   UNL     1       8.159   0.948  -7.676  1.00  0.00     0.060 A 
BRANCH  74  75
ATOM     75  S   UNL     1       9.757   1.665  -8.095  1.00  0.00     0.124 S 
ATOM     76  O   UNL     1      10.685   0.635  -7.641  1.00  0.00    -0.237 OA
ATOM     77  O   UNL     1       9.642   1.825  -9.541  1.00  0.00    -0.237 OA
ATOM     78  O   UNL     1       9.785   2.907  -7.328  1.00  0.00    -0.744 OA
ENDBRANCH  74  75
ENDBRANCH  53  67
BRANCH  54  79
ATOM     79  C   UNL     1      -1.227  -6.396  -3.367  1.00  0.00     0.058 A 
ATOM     80  C   UNL     1      -1.048  -7.361  -2.346  1.00  0.00     0.135 A 
ATOM     81  C   UNL     1      -2.062  -5.316  -3.064  1.00  0.00     0.135 A 
ATOM     82  F   UNL     1      -0.313  -8.460  -2.590  1.00  0.00    -0.206 F 
ATOM     83  C   UNL     1      -1.501  -7.167  -1.043  1.00  0.00     0.059 A 
ATOM     84  C   UNL     1      -2.570  -5.124  -1.765  1.00  0.00     0.059 A 
ATOM     85  F   UNL     1      -2.271  -4.349  -3.970  1.00  0.00    -0.206 F 
ATOM     86  C   UNL     1      -2.237  -6.025  -0.749  1.00  0.00     0.060 A 
BRANCH  86  87
ATOM     87  S   UNL     1      -2.676  -5.719   0.985  1.00  0.00     0.124 S 
ATOM     88  O   UNL     1      -3.559  -6.839   1.282  1.00  0.00    -0.237 OA
ATOM     89  O   UNL     1      -1.381  -5.749   1.658  1.00  0.00    -0.237 OA
ATOM     90  O   UNL     1      -3.319  -4.407   0.941  1.00  0.00    -0.744 OA
ENDBRANCH  86  87
ENDBRANCH  54  79
BRANCH  66  91
ATOM     91  C   UNL     1       0.690  -3.511  -9.933  1.00  0.00     0.058 A 
ATOM     92  C   UNL     1      -0.185  -4.174 -10.800  1.00  0.00     0.135 A 
ATOM     93  C   UNL     1       1.286  -2.336 -10.474  1.00  0.00     0.135 A 
ATOM     94  F   UNL     1      -0.653  -5.396 -10.509  1.00  0.00    -0.206 F 
ATOM     95  C   UNL     1      -0.565  -3.633 -12.030  1.00  0.00     0.059 A 
ATOM     96  C   UNL     1       0.966  -1.809 -11.715  1.00  0.00     0.059 A 
ATOM     97  F   UNL     1       2.217  -1.621  -9.834  1.00  0.00    -0.206 F 
ATOM     98  C   UNL     1       0.004  -2.442 -12.470  1.00  0.00     0.060 A 
BRANCH  98  99
ATOM     99  S   UNL     1      -0.474  -1.760 -14.060  1.00  0.00     0.124 S 
ATOM    100  O   UNL     1      -0.365  -2.925 -14.933  1.00  0.00    -0.237 OA
ATOM    101  O   UNL     1      -1.830  -1.298 -13.782  1.00  0.00    -0.237 OA
ATOM    102  O   UNL     1       0.510  -0.709 -14.297  1.00  0.00    -0.744 OA
ENDBRANCH  98  99
ENDBRANCH  66  91
ENDBRANCH  40  41
ENDBRANCH  33  35
ENDBRANCH  32  33
ENDBRANCH  31  32
ENDBRANCH   1  31
TORSDOF 17
