REMARK SMILES CC(C)(C)c1cc2c(cc1Cl)C=C(C(=O)OCCOC(=O)c1ccc(-c3c4nc(c(-c5c(F)cc(S(=O)(=O)[O-])cc5F)c5ccc([nH]5)c(-c5c(F)cc(S(=O)(=O)[O-])cc5F)c5nc(c(-c6c(F)cc(S(=O)(=O)[O-])cc6F)c6ccc3[nH]6)C=C5)C=C4)cc1)[C@@H](C(F)(F)F)O2
REMARK SMILES IDX 18 1 17 2 16 3 14 4 15 5 13 6 5 7 6 8 10 9 7 10 9 11 11 12
REMARK SMILES IDX 8 13 93 14 12 15 88 16 2 17 1 18 3 19 4 20 89 21 90 22 91 23
REMARK SMILES IDX 92 24 19 25 20 26 21 27 22 28 23 29 87 30 24 31 86 32 25 33
REMARK SMILES IDX 26 34 27 35 80 36 28 37 85 38 79 39 81 40 29 41 84 42 78 43
REMARK SMILES IDX 77 44 30 46 64 47 43 48 63 49 44 50 47 51 62 52 82 53 45 54
REMARK SMILES IDX 46 55 61 57 83 58 48 59 31 60 32 61 41 62 33 63 34 64 40 65
REMARK SMILES IDX 42 66 35 67 36 68 37 69 38 70 39 71 65 72 66 73 75 74 67 75
REMARK SMILES IDX 68 76 74 77 76 78 69 79 70 80 71 81 72 82 73 83 49 84 50 85
REMARK SMILES IDX 59 86 51 87 52 88 58 89 60 90 53 91 54 92 55 93 56 94 57 95
REMARK H PARENT 81 45 47 56
REMARK Flexibility Score: inf
ROOT
ATOM      1  C   UNL     1       3.000  10.757  -1.497  1.00  0.00     0.275 C 
ENDROOT
BRANCH   1   2
ATOM      2  C   UNL     1       1.610  10.373  -2.006  1.00  0.00     0.275 C 
BRANCH   2   3
ATOM      3  O   UNL     1       1.261   9.022  -1.627  1.00  0.00    -0.459 OA
BRANCH   3   4
ATOM      4  C   UNL     1       1.350   8.104  -2.615  1.00  0.00     0.338 C 
ATOM      5  O   UNL     1       1.660   8.315  -3.778  1.00  0.00    -0.246 OA
BRANCH   4   6
ATOM      6  C   UNL     1       1.044   6.755  -2.108  1.00  0.00     0.087 C 
ATOM      7  C   UNL     1       0.877   1.721  -1.568  1.00  0.00    -0.020 A 
ATOM      8  C   UNL     1       0.031   2.808  -1.216  1.00  0.00     0.053 A 
ATOM      9  C   UNL     1       2.147   2.062  -2.085  1.00  0.00     0.045 A 
ATOM     10  C   UNL     1       0.381   4.142  -1.447  1.00  0.00     0.128 A 
ATOM     11  C   UNL     1       2.488   3.397  -2.330  1.00  0.00     0.032 A 
ATOM     12  Cl  UNL     1       3.413   0.934  -2.416  1.00  0.00    -0.084 Cl
ATOM     13  C   UNL     1       1.599   4.428  -2.033  1.00  0.00     0.019 A 
ATOM     14  O   UNL     1      -0.517   5.100  -1.065  1.00  0.00    -0.475 OA
ATOM     15  C   UNL     1       1.934   5.792  -2.366  1.00  0.00     0.027 C 
ATOM     16  C   UNL     1      -0.284   6.486  -1.465  1.00  0.00     0.316 C 
BRANCH   7  17
ATOM     17  C   UNL     1       0.389   0.270  -1.330  1.00  0.00    -0.012 C 
ATOM     18  C   UNL     1       0.970  -0.222   0.008  1.00  0.00     0.016 C 
ATOM     19  C   UNL     1       0.774  -0.720  -2.458  1.00  0.00     0.016 C 
ATOM     20  C   UNL     1      -1.159   0.174  -1.238  1.00  0.00     0.016 C 
ENDBRANCH   7  17
BRANCH  16  21
ATOM     21  C   UNL     1      -1.450   6.932  -2.360  1.00  0.00     0.430 C 
ATOM     22  F   UNL     1      -2.644   6.692  -1.764  1.00  0.00    -0.167 F 
ATOM     23  F   UNL     1      -1.410   8.263  -2.610  1.00  0.00    -0.167 F 
ATOM     24  F   UNL     1      -1.458   6.294  -3.551  1.00  0.00    -0.167 F 
ENDBRANCH  16  21
ENDBRANCH   4   6
ENDBRANCH   3   4
ENDBRANCH   2   3
ENDBRANCH   1   2
BRANCH   1  25
ATOM     25  O   UNL     1       4.019  10.028  -2.204  1.00  0.00    -0.458 OA
BRANCH  25  26
ATOM     26  C   UNL     1       4.567   8.998  -1.521  1.00  0.00     0.338 C 
ATOM     27  O   UNL     1       4.313   8.647  -0.381  1.00  0.00    -0.246 OA
BRANCH  26  28
ATOM     28  C   UNL     1       5.486   8.255  -2.395  1.00  0.00     0.060 A 
ATOM     29  C   UNL     1       6.856   8.250  -2.165  1.00  0.00     0.016 A 
ATOM     30  C   UNL     1       4.938   7.406  -3.348  1.00  0.00     0.016 A 
ATOM     31  C   UNL     1       7.666   7.381  -2.907  1.00  0.00     0.010 A 
ATOM     32  C   UNL     1       5.718   6.423  -3.946  1.00  0.00     0.010 A 
ATOM     33  C   UNL     1       7.105   6.416  -3.769  1.00  0.00    -0.014 A 
BRANCH  33  34
ATOM     34  C   UNL     1       7.949   5.417  -4.491  1.00  0.00     0.031 A 
ATOM     35  C   UNL     1       7.843   5.245  -5.993  1.00  0.00     0.074 A 
ATOM     36  C   UNL     1       8.789   4.622  -3.794  1.00  0.00     0.049 A 
ATOM     37  N   UNL     1       8.492   4.421  -6.778  1.00  0.00    -0.248 NA
ATOM     38  C   UNL     1       6.848   6.068  -6.702  1.00  0.00     0.031 C 
ATOM     39  C   UNL     1       8.918   4.599  -2.334  1.00  0.00     0.029 A 
ATOM     40  N   UNL     1       9.710   3.694  -4.215  1.00  0.00    -0.354 N 
ATOM     41  C   UNL     1       7.963   4.609  -8.052  1.00  0.00     0.074 A 
ATOM     42  C   UNL     1       6.884   5.559  -7.923  1.00  0.00     0.031 C 
ATOM     43  C   UNL     1       9.916   3.773  -1.990  1.00  0.00     0.029 A 
ATOM     44  C   UNL     1      10.469   3.166  -3.195  1.00  0.00     0.049 A 
ATOM     45  H   UNL     1       9.816   3.430  -5.158  1.00  0.00     0.167 HD
ATOM     46  C   UNL     1       8.366   4.081  -9.234  1.00  0.00     0.037 A 
ATOM     47  C   UNL     1      11.507   2.306  -3.224  1.00  0.00     0.037 A 
ATOM     48  C   UNL     1       9.485   3.187  -9.371  1.00  0.00     0.049 A 
ATOM     49  C   UNL     1      11.986   1.784  -4.550  1.00  0.00     0.074 A 
ATOM     50  C   UNL     1      10.026   2.656 -10.528  1.00  0.00     0.029 A 
ATOM     51  N   UNL     1      10.246   2.706  -8.315  1.00  0.00    -0.354 N 
ATOM     52  N   UNL     1      11.513   2.026  -5.749  1.00  0.00    -0.248 NA
ATOM     53  C   UNL     1      13.142   0.878  -4.529  1.00  0.00     0.031 C 
ATOM     54  C   UNL     1      11.095   1.828 -10.170  1.00  0.00     0.029 A 
ATOM     55  C   UNL     1      11.249   1.880  -8.794  1.00  0.00     0.049 A 
ATOM     56  H   UNL     1      10.095   2.921  -7.366  1.00  0.00     0.167 HD
ATOM     57  C   UNL     1      12.324   1.318  -6.628  1.00  0.00     0.074 A 
ATOM     58  C   UNL     1      13.328   0.652  -5.823  1.00  0.00     0.031 C 
ATOM     59  C   UNL     1      12.243   1.228  -7.979  1.00  0.00     0.037 A 
BRANCH  46  60
ATOM     60  C   UNL     1       7.617   4.489 -10.477  1.00  0.00     0.058 A 
ATOM     61  C   UNL     1       7.682   5.801 -10.978  1.00  0.00     0.135 A 
ATOM     62  C   UNL     1       6.852   3.557 -11.197  1.00  0.00     0.135 A 
ATOM     63  F   UNL     1       8.387   6.739 -10.326  1.00  0.00    -0.206 F 
ATOM     64  C   UNL     1       6.988   6.182 -12.121  1.00  0.00     0.059 A 
ATOM     65  C   UNL     1       6.175   3.908 -12.363  1.00  0.00     0.059 A 
ATOM     66  F   UNL     1       6.756   2.287 -10.771  1.00  0.00    -0.206 F 
ATOM     67  C   UNL     1       6.237   5.228 -12.808  1.00  0.00     0.060 A 
BRANCH  67  68
ATOM     68  S   UNL     1       5.350   5.742 -14.294  1.00  0.00     0.124 S 
ATOM     69  O   UNL     1       4.283   6.561 -13.729  1.00  0.00    -0.237 OA
ATOM     70  O   UNL     1       6.378   6.466 -15.035  1.00  0.00    -0.237 OA
ATOM     71  O   UNL     1       4.923   4.480 -14.891  1.00  0.00    -0.744 OA
ENDBRANCH  67  68
ENDBRANCH  46  60
BRANCH  47  72
ATOM     72  C   UNL     1      12.203   1.954  -1.957  1.00  0.00     0.058 A 
ATOM     73  C   UNL     1      13.475   2.473  -1.672  1.00  0.00     0.135 A 
ATOM     74  C   UNL     1      11.592   1.153  -0.981  1.00  0.00     0.135 A 
ATOM     75  F   UNL     1      14.105   3.240  -2.576  1.00  0.00    -0.206 F 
ATOM     76  C   UNL     1      14.116   2.215  -0.464  1.00  0.00     0.059 A 
ATOM     77  C   UNL     1      12.201   0.900   0.245  1.00  0.00     0.059 A 
ATOM     78  F   UNL     1      10.368   0.647  -1.197  1.00  0.00    -0.206 F 
ATOM     79  C   UNL     1      13.465   1.435   0.493  1.00  0.00     0.060 A 
BRANCH  79  80
ATOM     80  S   UNL     1      14.269   1.183   2.091  1.00  0.00     0.124 S 
ATOM     81  O   UNL     1      15.372   0.300   1.731  1.00  0.00    -0.237 OA
ATOM     82  O   UNL     1      14.638   2.545   2.465  1.00  0.00    -0.237 OA
ATOM     83  O   UNL     1      13.219   0.581   2.906  1.00  0.00    -0.744 OA
ENDBRANCH  79  80
ENDBRANCH  47  72
BRANCH  59  84
ATOM     84  C   UNL     1      13.281   0.400  -8.682  1.00  0.00     0.058 A 
ATOM     85  C   UNL     1      13.265  -1.002  -8.628  1.00  0.00     0.135 A 
ATOM     86  C   UNL     1      14.264   1.017  -9.473  1.00  0.00     0.135 A 
ATOM     87  F   UNL     1      12.348  -1.639  -7.883  1.00  0.00    -0.206 F 
ATOM     88  C   UNL     1      14.202  -1.764  -9.317  1.00  0.00     0.059 A 
ATOM     89  C   UNL     1      15.194   0.273 -10.193  1.00  0.00     0.059 A 
ATOM     90  F   UNL     1      14.315   2.355  -9.569  1.00  0.00    -0.206 F 
ATOM     91  C   UNL     1      15.161  -1.117 -10.099  1.00  0.00     0.060 A 
BRANCH  91  92
ATOM     92  S   UNL     1      16.350  -2.123 -11.012  1.00  0.00     0.124 S 
ATOM     93  O   UNL     1      17.203  -2.619  -9.937  1.00  0.00    -0.237 OA
ATOM     94  O   UNL     1      15.492  -3.116 -11.651  1.00  0.00    -0.237 OA
ATOM     95  O   UNL     1      16.977  -1.167 -11.921  1.00  0.00    -0.744 OA
ENDBRANCH  91  92
ENDBRANCH  59  84
ENDBRANCH  33  34
ENDBRANCH  26  28
ENDBRANCH  25  26
ENDBRANCH   1  25
TORSDOF 16
