REMARK SMILES O=C(Nc1ccc2nc(N3CCCCCC3)cc(C(=O)OCCOC(=O)c3ccc(-c4c5nc(c(-c6c(F)cc(S(=O)(=O)[O-])cc6F)c6ccc([nH]6)c(-c6c(F)cc(S(=O)(=O)[O-])cc6F)c6nc(c(-c7c(F)cc(S(=O)(=O)[O-])cc7F)c7ccc4[nH]7)C=C6)C=C5)cc3)c2c1)c1ccc(F)cc1
REMARK SMILES IDX 22 1 21 2 19 3 20 4 18 5 4 6 5 7 94 8 6 9 93 10 7 11 8 12
REMARK SMILES IDX 17 13 9 14 3 15 1 16 2 17 95 19 96 20 101 21 97 22 100 23
REMARK SMILES IDX 98 24 99 25 10 26 11 27 12 28 13 29 16 31 15 32 14 33 23 35
REMARK SMILES IDX 24 36 25 37 26 38 27 39 28 40 92 41 29 42 91 43 30 44 31 45
REMARK SMILES IDX 32 46 85 47 33 48 90 49 84 50 86 51 34 52 89 53 83 54 82 55
REMARK SMILES IDX 35 57 69 58 48 59 68 60 49 61 52 62 67 63 87 64 50 65 51 66
REMARK SMILES IDX 66 68 88 69 53 70 36 71 37 72 46 73 38 74 39 75 45 76 47 77
REMARK SMILES IDX 40 78 41 79 42 80 43 81 44 82 70 83 71 84 80 85 72 86 73 87
REMARK SMILES IDX 79 88 81 89 74 90 75 91 76 92 77 93 78 94 54 95 55 96 64 97
REMARK SMILES IDX 56 98 57 99 63 100 65 101 58 102 59 103 60 104 61 105 62 106
REMARK H PARENT 3 18 86 56 52 67
REMARK Flexibility Score: 90.00
ROOT
ATOM      1  C   UNL     1       4.819   5.522  -1.904  1.00  0.00     0.275 C 
ENDROOT
BRANCH   1   2
ATOM      2  O   UNL     1       5.531   4.336  -1.492  1.00  0.00    -0.458 OA
BRANCH   2   3
ATOM      3  C   UNL     1       6.538   3.932  -2.303  1.00  0.00     0.339 C 
ATOM      4  O   UNL     1       6.946   4.509  -3.298  1.00  0.00    -0.246 OA
BRANCH   3   5
ATOM      5  C   UNL     1       7.152   2.681  -1.810  1.00  0.00     0.073 A 
ATOM      6  C   UNL     1       4.357   0.269  -1.065  1.00  0.00     0.042 A 
ATOM      7  C   UNL     1       5.119  -0.873  -0.852  1.00  0.00     0.028 A 
ATOM      8  C   UNL     1       4.993   1.432  -1.490  1.00  0.00     0.037 A 
ATOM      9  C   UNL     1       6.511  -0.805  -0.914  1.00  0.00     0.031 A 
ATOM     10  C   UNL     1       6.410   1.522  -1.508  1.00  0.00     0.017 A 
ATOM     11  C   UNL     1       7.170   0.379  -1.191  1.00  0.00     0.074 A 
ATOM     12  N   UNL     1       8.508   0.364  -1.142  1.00  0.00    -0.231 NA
ATOM     13  C   UNL     1       8.545   2.663  -1.739  1.00  0.00     0.063 A 
ATOM     14  C   UNL     1       9.192   1.496  -1.380  1.00  0.00     0.130 A 
BRANCH   6  15
ATOM     15  N   UNL     1       2.974   0.328  -0.822  1.00  0.00    -0.322 N 
ATOM     16  O   UNL     1       1.002  -0.358   0.068  1.00  0.00    -0.269 OA
ATOM     17  C   UNL     1       2.229  -0.364   0.112  1.00  0.00     0.255 C 
ATOM     18  H   UNL     1       2.468   0.948  -1.395  1.00  0.00     0.170 HD
BRANCH  17  19
ATOM     19  C   UNL     1       2.907  -1.054   1.238  1.00  0.00     0.040 A 
ATOM     20  C   UNL     1       3.891  -0.402   1.999  1.00  0.00     0.017 A 
ATOM     21  C   UNL     1       2.572  -2.385   1.506  1.00  0.00     0.017 A 
ATOM     22  C   UNL     1       4.601  -1.112   2.968  1.00  0.00     0.040 A 
ATOM     23  C   UNL     1       3.278  -3.086   2.485  1.00  0.00     0.040 A 
ATOM     24  C   UNL     1       4.294  -2.449   3.194  1.00  0.00     0.123 A 
ATOM     25  F   UNL     1       4.990  -3.139   4.106  1.00  0.00    -0.207 F 
ENDBRANCH  17  19
ENDBRANCH   6  15
BRANCH  14  26
ATOM     26  N   UNL     1      10.572   1.484  -1.314  1.00  0.00    -0.357 N 
BRANCH  26  27
ATOM     27  C   UNL     1      11.197   1.873  -0.057  1.00  0.00     0.118 C 
BRANCH  27  28
ATOM     28  C   UNL     1      11.950   3.183  -0.252  1.00  0.00     0.021 C 
BRANCH  28  29
ATOM     29  C   UNL     1      13.162   3.116  -1.184  1.00  0.00     0.002 CG0
ATOM     30  G   UNL     1      12.926   2.458  -2.548  1.00  0.00     0.000 G0
ENDBRANCH  28  29
ENDBRANCH  27  28
ENDBRANCH  26  27
BRANCH  26  31
ATOM     31  C   UNL     1      11.250   0.536  -2.180  1.00  0.00     0.118 C 
BRANCH  31  32
ATOM     32  C   UNL     1      12.702   0.945  -2.446  1.00  0.00     0.021 C 
BRANCH  32  33
ATOM     33  C   UNL     1      12.926   2.458  -2.548  1.00  0.00     0.002 CG0
ATOM     34  G   UNL     1      13.162   3.116  -1.184  1.00  0.00     0.000 G0
ENDBRANCH  32  33
ENDBRANCH  31  32
ENDBRANCH  26  31
ENDBRANCH  14  26
ENDBRANCH   3   5
ENDBRANCH   2   3
ENDBRANCH   1   2
BRANCH   1  35
ATOM     35  C   UNL     1       5.067   6.656  -0.916  1.00  0.00     0.275 C 
BRANCH  35  36
ATOM     36  O   UNL     1       6.452   7.024  -0.987  1.00  0.00    -0.458 OA
BRANCH  36  37
ATOM     37  C   UNL     1       7.155   6.925   0.161  1.00  0.00     0.338 C 
ATOM     38  O   UNL     1       6.723   6.680   1.279  1.00  0.00    -0.246 OA
BRANCH  37  39
ATOM     39  C   UNL     1       8.583   7.132  -0.131  1.00  0.00     0.060 A 
ATOM     40  C   UNL     1       9.193   6.391  -1.141  1.00  0.00     0.016 A 
ATOM     41  C   UNL     1       9.347   7.979   0.670  1.00  0.00     0.016 A 
ATOM     42  C   UNL     1      10.579   6.416  -1.279  1.00  0.00     0.010 A 
ATOM     43  C   UNL     1      10.729   8.070   0.462  1.00  0.00     0.010 A 
ATOM     44  C   UNL     1      11.377   7.245  -0.475  1.00  0.00    -0.014 A 
BRANCH  44  45
ATOM     45  C   UNL     1      12.872   7.180  -0.548  1.00  0.00     0.031 A 
ATOM     46  C   UNL     1      13.685   6.953   0.708  1.00  0.00     0.074 A 
ATOM     47  C   UNL     1      13.527   7.264  -1.726  1.00  0.00     0.049 A 
ATOM     48  N   UNL     1      14.975   7.084   0.895  1.00  0.00    -0.248 NA
ATOM     49  C   UNL     1      12.951   6.543   1.916  1.00  0.00     0.031 C 
ATOM     50  C   UNL     1      12.903   7.417  -3.041  1.00  0.00     0.029 A 
ATOM     51  N   UNL     1      14.871   7.198  -2.010  1.00  0.00    -0.354 N 
ATOM     52  C   UNL     1      15.189   6.878   2.254  1.00  0.00     0.074 A 
ATOM     53  C   UNL     1      13.901   6.580   2.841  1.00  0.00     0.031 C 
ATOM     54  C   UNL     1      13.848   7.342  -3.991  1.00  0.00     0.029 A 
ATOM     55  C   UNL     1      15.157   7.256  -3.354  1.00  0.00     0.049 A 
ATOM     56  H   UNL     1      15.564   7.117  -1.315  1.00  0.00     0.167 HD
ATOM     57  C   UNL     1      16.350   6.945   2.951  1.00  0.00     0.037 A 
ATOM     58  C   UNL     1      16.335   7.283  -4.008  1.00  0.00     0.037 A 
ATOM     59  C   UNL     1      17.647   7.134   2.353  1.00  0.00     0.049 A 
ATOM     60  C   UNL     1      17.616   7.317  -3.224  1.00  0.00     0.074 A 
ATOM     61  C   UNL     1      18.880   7.221   2.978  1.00  0.00     0.029 A 
ATOM     62  N   UNL     1      17.884   7.222   0.991  1.00  0.00    -0.354 N 
ATOM     63  N   UNL     1      17.788   7.268  -1.926  1.00  0.00    -0.248 NA
ATOM     64  C   UNL     1      18.861   7.457  -3.994  1.00  0.00     0.031 C 
ATOM     65  C   UNL     1      19.862   7.375   1.992  1.00  0.00     0.029 A 
ATOM     66  C   UNL     1      19.242   7.356   0.754  1.00  0.00     0.049 A 
ATOM     67  H   UNL     1      17.189   7.194   0.294  1.00  0.00     0.167 HD
ATOM     68  C   UNL     1      19.158   7.392  -1.721  1.00  0.00     0.074 A 
ATOM     69  C   UNL     1      19.772   7.478  -3.030  1.00  0.00     0.031 C 
ATOM     70  C   UNL     1      19.841   7.450  -0.552  1.00  0.00     0.037 A 
BRANCH  57  71
ATOM     71  C   UNL     1      16.271   6.865   4.450  1.00  0.00     0.058 A 
ATOM     72  C   UNL     1      16.060   5.656   5.128  1.00  0.00     0.135 A 
ATOM     73  C   UNL     1      16.450   8.027   5.220  1.00  0.00     0.135 A 
ATOM     74  F   UNL     1      15.864   4.521   4.440  1.00  0.00    -0.206 F 
ATOM     75  C   UNL     1      16.007   5.605   6.519  1.00  0.00     0.059 A 
ATOM     76  C   UNL     1      16.423   7.996   6.611  1.00  0.00     0.059 A 
ATOM     77  F   UNL     1      16.655   9.210   4.620  1.00  0.00    -0.206 F 
ATOM     78  C   UNL     1      16.186   6.781   7.251  1.00  0.00     0.060 A 
BRANCH  78  79
ATOM     79  S   UNL     1      16.119   6.705   9.054  1.00  0.00     0.124 S 
ATOM     80  O   UNL     1      14.680   6.632   9.287  1.00  0.00    -0.237 OA
ATOM     81  O   UNL     1      16.870   5.489   9.348  1.00  0.00    -0.237 OA
ATOM     82  O   UNL     1      16.761   7.949   9.469  1.00  0.00    -0.744 OA
ENDBRANCH  78  79
ENDBRANCH  57  71
BRANCH  58  83
ATOM     83  C   UNL     1      16.354   7.330  -5.494  1.00  0.00     0.058 A 
ATOM     84  C   UNL     1      16.772   6.221  -6.243  1.00  0.00     0.135 A 
ATOM     85  C   UNL     1      15.921   8.468  -6.193  1.00  0.00     0.135 A 
ATOM     86  F   UNL     1      17.210   5.117  -5.619  1.00  0.00    -0.206 F 
ATOM     87  C   UNL     1      16.753   6.233  -7.634  1.00  0.00     0.059 A 
ATOM     88  C   UNL     1      15.868   8.495  -7.582  1.00  0.00     0.059 A 
ATOM     89  F   UNL     1      15.505   9.553  -5.521  1.00  0.00    -0.206 F 
ATOM     90  C   UNL     1      16.291   7.373  -8.295  1.00  0.00     0.060 A 
BRANCH  90  91
ATOM     91  S   UNL     1      16.175   7.359 -10.097  1.00  0.00     0.124 S 
ATOM     92  O   UNL     1      17.539   7.702 -10.481  1.00  0.00    -0.237 OA
ATOM     93  O   UNL     1      15.758   5.988 -10.376  1.00  0.00    -0.237 OA
ATOM     94  O   UNL     1      15.164   8.377 -10.369  1.00  0.00    -0.744 OA
ENDBRANCH  90  91
ENDBRANCH  58  83
BRANCH  70  95
ATOM     95  C   UNL     1      21.329   7.621  -0.636  1.00  0.00     0.058 A 
ATOM     96  C   UNL     1      21.902   8.869  -0.929  1.00  0.00     0.135 A 
ATOM     97  C   UNL     1      22.191   6.542  -0.388  1.00  0.00     0.135 A 
ATOM     98  F   UNL     1      21.119   9.930  -1.179  1.00  0.00    -0.206 F 
ATOM     99  C   UNL     1      23.281   9.036  -0.993  1.00  0.00     0.059 A 
ATOM    100  C   UNL     1      23.574   6.691  -0.430  1.00  0.00     0.059 A 
ATOM    101  F   UNL     1      21.691   5.331  -0.096  1.00  0.00    -0.206 F 
ATOM    102  C   UNL     1      24.109   7.940  -0.746  1.00  0.00     0.060 A 
BRANCH 102 103
ATOM    103  S   UNL     1      25.899   8.171  -0.812  1.00  0.00     0.124 S 
ATOM    104  O   UNL     1      26.140   8.179  -2.251  1.00  0.00    -0.237 OA
ATOM    105  O   UNL     1      26.079   9.449  -0.132  1.00  0.00    -0.237 OA
ATOM    106  O   UNL     1      26.416   7.009  -0.095  1.00  0.00    -0.744 OA
ENDBRANCH 102 103
ENDBRANCH  70  95
ENDBRANCH  44  45
ENDBRANCH  37  39
ENDBRANCH  36  37
ENDBRANCH  35  36
ENDBRANCH   1  35
TORSDOF 17
