REMARK SMILES Cc1nccn1C1(C(=O)OCCOC(=O)c2ccc(-c3c4nc(c(-c5c(F)cc(S(=O)(=O)[O-])cc5F)c5ccc([nH]5)c(-c5c(F)cc(S(=O)(=O)[O-])cc5F)c5nc(c(-c6c(F)cc(S(=O)(=O)[O-])cc6F)c6ccc3[nH]6)C=C5)C=C4)cc2)CCN(C(=O)[C@@H]2C[C@H]2c2ccccc2)CC1
REMARK SMILES IDX 12 1 11 2 10 3 8 4 9 5 7 6 82 7 97 8 83 9 96 10 84 11 85 12
REMARK SMILES IDX 86 13 6 14 1 15 2 16 3 17 4 18 5 19 87 20 88 21 89 22 90 23
REMARK SMILES IDX 91 24 95 25 92 26 94 27 93 28 13 29 14 30 15 31 16 32 17 33
REMARK SMILES IDX 81 34 18 35 80 36 19 37 20 38 21 39 74 40 22 41 79 42 73 43
REMARK SMILES IDX 75 44 23 45 78 46 72 47 71 48 24 50 58 51 37 52 57 53 38 54
REMARK SMILES IDX 41 55 56 56 76 57 39 58 40 59 55 61 77 62 42 63 25 64 26 65
REMARK SMILES IDX 35 66 27 67 28 68 34 69 36 70 29 71 30 72 31 73 32 74 33 75
REMARK SMILES IDX 59 76 60 77 69 78 61 79 62 80 68 81 70 82 63 83 64 84 65 85
REMARK SMILES IDX 66 86 67 87 43 88 44 89 53 90 45 91 46 92 52 93 54 94 47 95
REMARK SMILES IDX 48 96 49 97 50 98 51 99
REMARK H PARENT 75 49 41 60
REMARK Flexibility Score: inf
ROOT
ATOM      1  C   UNL     1       4.694   5.746  -1.797  1.00  0.00     0.275 C 
ENDROOT
BRANCH   1   2
ATOM      2  C   UNL     1       5.173   4.764  -0.726  1.00  0.00     0.274 C 
BRANCH   2   3
ATOM      3  O   UNL     1       4.439   3.516  -0.764  1.00  0.00    -0.460 OA
BRANCH   3   4
ATOM      4  C   UNL     1       3.380   3.387   0.094  1.00  0.00     0.332 C 
ATOM      5  O   UNL     1       3.243   4.150   1.047  1.00  0.00    -0.249 OA
BRANCH   4   6
ATOM      6  C   UNL     1       2.493   2.093  -0.151  1.00  0.00     0.146 C 
ATOM      7  C   UNL     1       2.709   1.513  -1.592  1.00  0.00     0.062 C 
ATOM      8  C   UNL     1       3.055   1.179   0.967  1.00  0.00     0.062 C 
ATOM      9  C   UNL     1       3.066   0.025  -1.753  1.00  0.00     0.122 C 
ATOM     10  C   UNL     1       2.854  -0.282   0.661  1.00  0.00     0.122 C 
ATOM     11  N   UNL     1       3.587  -0.597  -0.545  1.00  0.00    -0.342 N 
ATOM     12  C   UNL     1       4.622  -1.528  -0.689  1.00  0.00     0.226 C 
ATOM     13  O   UNL     1       4.871  -2.040  -1.765  1.00  0.00    -0.275 OA
BRANCH   6  14
ATOM     14  N   UNL     1       1.028   2.351   0.127  1.00  0.00    -0.318 N 
ATOM     15  C   UNL     1      -0.246   0.148  -0.520  1.00  0.00     0.087 C 
ATOM     16  C   UNL     1      -0.084   1.497   0.074  1.00  0.00     0.106 A 
ATOM     17  N   UNL     1      -1.136   2.051   0.650  1.00  0.00    -0.242 NA
ATOM     18  C   UNL     1      -0.791   3.319   0.953  1.00  0.00     0.131 A 
ATOM     19  C   UNL     1       0.514   3.542   0.611  1.00  0.00     0.108 A 
ENDBRANCH   6  14
BRANCH  12  20
ATOM     20  C   UNL     1       5.551  -1.864   0.439  1.00  0.00     0.087 C 
ATOM     21  C   UNL     1       5.113  -2.703   1.610  1.00  0.00     0.023 C 
ATOM     22  C   UNL     1       5.544  -1.274   1.820  1.00  0.00     0.032 C 
BRANCH  22  23
ATOM     23  C   UNL     1       6.770  -0.880   2.577  1.00  0.00    -0.044 A 
ATOM     24  C   UNL     1       6.898  -1.245   3.926  1.00  0.00     0.004 A 
ATOM     25  C   UNL     1       7.642   0.095   2.069  1.00  0.00     0.004 A 
ATOM     26  C   UNL     1       7.807  -0.601   4.762  1.00  0.00     0.000 A 
ATOM     27  C   UNL     1       8.555   0.741   2.903  1.00  0.00     0.000 A 
ATOM     28  C   UNL     1       8.620   0.409   4.254  1.00  0.00     0.000 A 
ENDBRANCH  22  23
ENDBRANCH  12  20
ENDBRANCH   4   6
ENDBRANCH   3   4
ENDBRANCH   2   3
ENDBRANCH   1   2
BRANCH   1  29
ATOM     29  O   UNL     1       3.360   6.192  -1.543  1.00  0.00    -0.458 OA
BRANCH  29  30
ATOM     30  C   UNL     1       2.426   5.365  -2.052  1.00  0.00     0.338 C 
ATOM     31  O   UNL     1       2.616   4.246  -2.513  1.00  0.00    -0.246 OA
BRANCH  30  32
ATOM     32  C   UNL     1       1.123   6.004  -2.157  1.00  0.00     0.060 A 
ATOM     33  C   UNL     1       0.060   5.150  -2.475  1.00  0.00     0.016 A 
ATOM     34  C   UNL     1       1.065   7.388  -2.348  1.00  0.00     0.016 A 
ATOM     35  C   UNL     1      -0.973   5.651  -3.222  1.00  0.00     0.010 A 
ATOM     36  C   UNL     1       0.022   7.889  -3.089  1.00  0.00     0.010 A 
ATOM     37  C   UNL     1      -0.912   6.990  -3.609  1.00  0.00    -0.014 A 
BRANCH  37  38
ATOM     38  C   UNL     1      -1.826   7.402  -4.651  1.00  0.00     0.031 A 
ATOM     39  C   UNL     1      -3.246   7.459  -4.237  1.00  0.00     0.074 A 
ATOM     40  C   UNL     1      -1.357   7.774  -5.856  1.00  0.00     0.049 A 
ATOM     41  N   UNL     1      -4.269   6.858  -4.749  1.00  0.00    -0.248 NA
ATOM     42  C   UNL     1      -3.534   8.193  -2.993  1.00  0.00     0.031 C 
ATOM     43  C   UNL     1       0.038   7.983  -6.266  1.00  0.00     0.029 A 
ATOM     44  N   UNL     1      -2.056   8.177  -6.944  1.00  0.00    -0.354 N 
ATOM     45  C   UNL     1      -5.362   7.287  -4.003  1.00  0.00     0.074 A 
ATOM     46  C   UNL     1      -4.838   7.976  -2.852  1.00  0.00     0.031 C 
ATOM     47  C   UNL     1       0.056   8.712  -7.404  1.00  0.00     0.029 A 
ATOM     48  C   UNL     1      -1.311   8.910  -7.850  1.00  0.00     0.049 A 
ATOM     49  H   UNL     1      -3.008   7.966  -7.078  1.00  0.00     0.167 HD
ATOM     50  C   UNL     1      -6.635   7.240  -4.476  1.00  0.00     0.037 A 
ATOM     51  C   UNL     1      -1.818   9.734  -8.798  1.00  0.00     0.037 A 
ATOM     52  C   UNL     1      -6.779   6.318  -5.567  1.00  0.00     0.049 A 
ATOM     53  C   UNL     1      -3.233   9.323  -9.022  1.00  0.00     0.074 A 
ATOM     54  C   UNL     1      -6.624   4.951  -5.697  1.00  0.00     0.029 A 
ATOM     55  N   UNL     1      -6.788   6.815  -6.848  1.00  0.00    -0.354 N 
ATOM     56  N   UNL     1      -3.585   8.164  -9.515  1.00  0.00    -0.248 NA
ATOM     57  C   UNL     1      -4.275  10.014  -8.274  1.00  0.00     0.031 C 
ATOM     58  C   UNL     1      -6.082   4.758  -7.000  1.00  0.00     0.029 A 
ATOM     59  C   UNL     1      -5.959   6.014  -7.596  1.00  0.00     0.049 A 
ATOM     60  H   UNL     1      -7.292   7.597  -7.169  1.00  0.00     0.167 HD
ATOM     61  C   UNL     1      -4.739   7.806  -8.828  1.00  0.00     0.074 A 
ATOM     62  C   UNL     1      -5.164   9.024  -8.144  1.00  0.00     0.031 C 
ATOM     63  C   UNL     1      -5.089   6.496  -8.649  1.00  0.00     0.037 A 
BRANCH  50  64
ATOM     64  C   UNL     1      -7.661   8.280  -4.125  1.00  0.00     0.058 A 
ATOM     65  C   UNL     1      -9.027   8.038  -4.351  1.00  0.00     0.135 A 
ATOM     66  C   UNL     1      -7.314   9.614  -3.806  1.00  0.00     0.135 A 
ATOM     67  F   UNL     1      -9.456   6.810  -4.684  1.00  0.00    -0.206 F 
ATOM     68  C   UNL     1      -9.976   9.060  -4.308  1.00  0.00     0.059 A 
ATOM     69  C   UNL     1      -8.248  10.633  -3.699  1.00  0.00     0.059 A 
ATOM     70  F   UNL     1      -6.038  10.006  -3.682  1.00  0.00    -0.206 F 
ATOM     71  C   UNL     1      -9.571  10.358  -3.998  1.00  0.00     0.060 A 
BRANCH  71  72
ATOM     72  S   UNL     1     -10.761  11.707  -4.080  1.00  0.00     0.124 S 
ATOM     73  O   UNL     1     -10.950  11.835  -5.521  1.00  0.00    -0.237 OA
ATOM     74  O   UNL     1     -11.891  11.167  -3.332  1.00  0.00    -0.237 OA
ATOM     75  O   UNL     1     -10.060  12.813  -3.434  1.00  0.00    -0.744 OA
ENDBRANCH  71  72
ENDBRANCH  50  64
BRANCH  51  76
ATOM     76  C   UNL     1      -1.268  11.071  -9.152  1.00  0.00     0.058 A 
ATOM     77  C   UNL     1      -1.665  11.745 -10.317  1.00  0.00     0.135 A 
ATOM     78  C   UNL     1      -0.500  11.822  -8.234  1.00  0.00     0.135 A 
ATOM     79  F   UNL     1      -2.433  11.123 -11.225  1.00  0.00    -0.206 F 
ATOM     80  C   UNL     1      -1.329  13.084 -10.553  1.00  0.00     0.059 A 
ATOM     81  C   UNL     1      -0.136  13.147  -8.456  1.00  0.00     0.059 A 
ATOM     82  F   UNL     1      -0.145  11.319  -7.042  1.00  0.00    -0.206 F 
ATOM     83  C   UNL     1      -0.570  13.780  -9.611  1.00  0.00     0.060 A 
BRANCH  83  84
ATOM     84  S   UNL     1      -0.242  15.542  -9.843  1.00  0.00     0.124 S 
ATOM     85  O   UNL     1       0.665  15.531 -10.985  1.00  0.00    -0.237 OA
ATOM     86  O   UNL     1      -1.578  16.072 -10.093  1.00  0.00    -0.237 OA
ATOM     87  O   UNL     1       0.358  15.946  -8.574  1.00  0.00    -0.744 OA
ENDBRANCH  83  84
ENDBRANCH  51  76
BRANCH  63  88
ATOM     88  C   UNL     1      -4.297   5.450  -9.396  1.00  0.00     0.058 A 
ATOM     89  C   UNL     1      -2.955   5.153  -9.098  1.00  0.00     0.135 A 
ATOM     90  C   UNL     1      -4.949   4.601 -10.300  1.00  0.00     0.135 A 
ATOM     91  F   UNL     1      -2.297   5.835  -8.154  1.00  0.00    -0.206 F 
ATOM     92  C   UNL     1      -2.276   4.093  -9.699  1.00  0.00     0.059 A 
ATOM     93  C   UNL     1      -4.301   3.515 -10.891  1.00  0.00     0.059 A 
ATOM     94  F   UNL     1      -6.253   4.780 -10.569  1.00  0.00    -0.206 F 
ATOM     95  C   UNL     1      -2.959   3.275 -10.594  1.00  0.00     0.060 A 
BRANCH  95  96
ATOM     96  S   UNL     1      -2.110   1.836 -11.282  1.00  0.00     0.124 S 
ATOM     97  O   UNL     1      -1.233   2.445 -12.277  1.00  0.00    -0.237 OA
ATOM     98  O   UNL     1      -1.442   1.268 -10.114  1.00  0.00    -0.237 OA
ATOM     99  O   UNL     1      -3.198   1.024 -11.821  1.00  0.00    -0.744 OA
ENDBRANCH  95  96
ENDBRANCH  63  88
ENDBRANCH  37  38
ENDBRANCH  30  32
ENDBRANCH  29  30
ENDBRANCH   1  29
TORSDOF 17
