REMARK SMILES C=CCN(CC(=O)OCCOC(=O)c1ccc(-c2c3nc(c(-c4c(F)cc(S(=O)(=O)[O-])cc4F)c4ccc([nH]4)c(-c4c(F)cc(S(=O)(=O)[O-])cc4F)c4nc(c(-c5c(F)cc(S(=O)(=O)[O-])cc5F)c5ccc2[nH]5)C=C4)C=C3)cc1)C(=O)NCC(C)C
REMARK SMILES IDX 9 1 8 2 6 3 7 4 5 5 4 6 3 7 2 8 1 9 80 10 81 11 82 12 83 14
REMARK SMILES IDX 84 15 85 16 86 17 10 18 11 19 12 20 13 21 14 22 15 23 79 24
REMARK SMILES IDX 16 25 78 26 17 27 18 28 19 29 72 30 20 31 77 32 71 33 73 34
REMARK SMILES IDX 21 35 76 36 70 37 69 38 22 40 56 41 35 42 55 43 36 44 39 45
REMARK SMILES IDX 54 46 74 47 37 48 38 49 53 51 75 52 40 53 23 54 24 55 33 56
REMARK SMILES IDX 25 57 26 58 32 59 34 60 27 61 28 62 29 63 30 64 31 65 57 66
REMARK SMILES IDX 58 67 67 68 59 69 60 70 66 71 68 72 61 73 62 74 63 75 64 76
REMARK SMILES IDX 65 77 41 78 42 79 51 80 43 81 44 82 50 83 52 84 45 85 46 86
REMARK SMILES IDX 47 87 48 88 49 89
REMARK H PARENT 82 13 73 39 39 50
REMARK Flexibility Score: inf
ROOT
ATOM      1  C   UNL     1      -5.801   1.300  -2.269  1.00  0.00     0.274 C 
ENDROOT
BRANCH   1   2
ATOM      2  O   UNL     1      -4.449   1.386  -1.745  1.00  0.00    -0.461 OA
BRANCH   2   3
ATOM      3  C   UNL     1      -3.451   1.371  -2.676  1.00  0.00     0.325 C 
ATOM      4  O   UNL     1      -3.641   1.113  -3.864  1.00  0.00    -0.250 OA
BRANCH   3   5
ATOM      5  C   UNL     1      -2.092   1.911  -2.180  1.00  0.00     0.244 C 
BRANCH   5   6
ATOM      6  N   UNL     1      -1.702   1.706  -0.785  1.00  0.00    -0.310 N 
BRANCH   6   7
ATOM      7  C   UNL     1      -1.309   0.326  -0.488  1.00  0.00     0.149 C 
BRANCH   7   8
ATOM      8  C   UNL     1       0.141   0.134  -0.862  1.00  0.00    -0.013 C 
ATOM      9  C   UNL     1       1.134  -0.057   0.017  1.00  0.00     0.006 C 
ENDBRANCH   7   8
ENDBRANCH   6   7
BRANCH   6  10
ATOM     10  C   UNL     1      -1.533   2.604   0.224  1.00  0.00     0.318 C 
ATOM     11  O   UNL     1      -1.148   2.227   1.342  1.00  0.00    -0.249 OA
ATOM     12  N   UNL     1      -1.706   3.927   0.171  1.00  0.00    -0.338 N 
ATOM     13  H   UNL     1      -1.382   4.312   1.018  1.00  0.00     0.165 HD
BRANCH  12  14
ATOM     14  C   UNL     1      -2.196   5.025  -0.670  1.00  0.00     0.120 C 
BRANCH  14  15
ATOM     15  C   UNL     1      -3.329   5.788   0.080  1.00  0.00     0.002 C 
ATOM     16  C   UNL     1      -2.736   6.975   0.846  1.00  0.00     0.009 C 
ATOM     17  C   UNL     1      -4.471   6.346  -0.773  1.00  0.00     0.009 C 
ENDBRANCH  14  15
ENDBRANCH  12  14
ENDBRANCH   6  10
ENDBRANCH   5   6
ENDBRANCH   3   5
ENDBRANCH   2   3
ENDBRANCH   1   2
BRANCH   1  18
ATOM     18  C   UNL     1      -6.459   2.666  -2.593  1.00  0.00     0.275 C 
BRANCH  18  19
ATOM     19  O   UNL     1      -5.895   3.361  -3.736  1.00  0.00    -0.458 OA
BRANCH  19  20
ATOM     20  C   UNL     1      -4.758   3.985  -3.402  1.00  0.00     0.338 C 
ATOM     21  O   UNL     1      -4.237   3.878  -2.289  1.00  0.00    -0.246 OA
BRANCH  20  22
ATOM     22  C   UNL     1      -4.096   4.879  -4.345  1.00  0.00     0.060 A 
ATOM     23  C   UNL     1      -2.890   4.471  -4.933  1.00  0.00     0.016 A 
ATOM     24  C   UNL     1      -4.410   6.236  -4.251  1.00  0.00     0.016 A 
ATOM     25  C   UNL     1      -1.996   5.427  -5.432  1.00  0.00     0.010 A 
ATOM     26  C   UNL     1      -3.511   7.187  -4.732  1.00  0.00     0.010 A 
ATOM     27  C   UNL     1      -2.301   6.793  -5.332  1.00  0.00    -0.014 A 
BRANCH  27  28
ATOM     28  C   UNL     1      -1.548   7.816  -6.096  1.00  0.00     0.031 A 
ATOM     29  C   UNL     1      -0.520   8.722  -5.486  1.00  0.00     0.074 A 
ATOM     30  C   UNL     1      -1.989   8.021  -7.351  1.00  0.00     0.049 A 
ATOM     31  N   UNL     1       0.043   9.782  -6.009  1.00  0.00    -0.248 NA
ATOM     32  C   UNL     1      -0.059   8.407  -4.127  1.00  0.00     0.031 C 
ATOM     33  C   UNL     1      -3.011   7.204  -8.015  1.00  0.00     0.029 A 
ATOM     34  N   UNL     1      -1.713   9.013  -8.252  1.00  0.00    -0.354 N 
ATOM     35  C   UNL     1       0.929  10.265  -5.053  1.00  0.00     0.074 A 
ATOM     36  C   UNL     1       0.817   9.384  -3.906  1.00  0.00     0.031 C 
ATOM     37  C   UNL     1      -3.349   7.783  -9.172  1.00  0.00     0.029 A 
ATOM     38  C   UNL     1      -2.570   9.006  -9.325  1.00  0.00     0.049 A 
ATOM     39  H   UNL     1      -0.980   9.661  -8.143  1.00  0.00     0.167 HD
ATOM     40  C   UNL     1       1.755  11.339  -5.141  1.00  0.00     0.037 A 
ATOM     41  C   UNL     1      -2.749   9.903 -10.309  1.00  0.00     0.037 A 
ATOM     42  C   UNL     1       1.836  12.203  -6.297  1.00  0.00     0.049 A 
ATOM     43  C   UNL     1      -1.853  11.095 -10.374  1.00  0.00     0.074 A 
ATOM     44  C   UNL     1       2.702  13.261  -6.525  1.00  0.00     0.029 A 
ATOM     45  N   UNL     1       1.008  12.126  -7.409  1.00  0.00    -0.354 N 
ATOM     46  N   UNL     1      -0.951  11.484  -9.506  1.00  0.00    -0.248 NA
ATOM     47  C   UNL     1      -1.965  11.944 -11.563  1.00  0.00     0.031 C 
ATOM     48  C   UNL     1       2.370  13.847  -7.753  1.00  0.00     0.029 A 
ATOM     49  C   UNL     1       1.325  13.130  -8.311  1.00  0.00     0.049 A 
ATOM     50  H   UNL     1       0.299  11.456  -7.538  1.00  0.00     0.167 HD
ATOM     51  C   UNL     1      -0.352  12.603 -10.065  1.00  0.00     0.074 A 
ATOM     52  C   UNL     1      -1.009  12.837 -11.337  1.00  0.00     0.031 C 
ATOM     53  C   UNL     1       0.665  13.351  -9.575  1.00  0.00     0.037 A 
BRANCH  40  54
ATOM     54  C   UNL     1       2.649  11.661  -3.971  1.00  0.00     0.058 A 
ATOM     55  C   UNL     1       3.788  10.892  -3.681  1.00  0.00     0.135 A 
ATOM     56  C   UNL     1       2.431  12.815  -3.199  1.00  0.00     0.135 A 
ATOM     57  F   UNL     1       4.050   9.781  -4.386  1.00  0.00    -0.206 F 
ATOM     58  C   UNL     1       4.669  11.248  -2.661  1.00  0.00     0.059 A 
ATOM     59  C   UNL     1       3.309  13.200  -2.187  1.00  0.00     0.059 A 
ATOM     60  F   UNL     1       1.365  13.595  -3.438  1.00  0.00    -0.206 F 
ATOM     61  C   UNL     1       4.421  12.403  -1.919  1.00  0.00     0.060 A 
BRANCH  61  62
ATOM     62  S   UNL     1       5.584  12.867  -0.615  1.00  0.00     0.124 S 
ATOM     63  O   UNL     1       5.222  11.929   0.443  1.00  0.00    -0.237 OA
ATOM     64  O   UNL     1       6.878  12.637  -1.249  1.00  0.00    -0.237 OA
ATOM     65  O   UNL     1       5.259  14.266  -0.352  1.00  0.00    -0.744 OA
ENDBRANCH  61  62
ENDBRANCH  40  54
BRANCH  41  66
ATOM     66  C   UNL     1      -3.809   9.646 -11.309  1.00  0.00     0.058 A 
ATOM     67  C   UNL     1      -3.494   9.064 -12.542  1.00  0.00     0.135 A 
ATOM     68  C   UNL     1      -5.163   9.831 -10.987  1.00  0.00     0.135 A 
ATOM     69  F   UNL     1      -2.212   8.855 -12.877  1.00  0.00    -0.206 F 
ATOM     70  C   UNL     1      -4.488   8.660 -13.424  1.00  0.00     0.059 A 
ATOM     71  C   UNL     1      -6.175   9.423 -11.847  1.00  0.00     0.059 A 
ATOM     72  F   UNL     1      -5.507  10.351  -9.798  1.00  0.00    -0.206 F 
ATOM     73  C   UNL     1      -5.826   8.834 -13.063  1.00  0.00     0.060 A 
BRANCH  73  74
ATOM     74  S   UNL     1      -7.106   8.201 -14.168  1.00  0.00     0.124 S 
ATOM     75  O   UNL     1      -7.096   9.200 -15.229  1.00  0.00    -0.237 OA
ATOM     76  O   UNL     1      -6.582   6.886 -14.523  1.00  0.00    -0.237 OA
ATOM     77  O   UNL     1      -8.298   8.184 -13.324  1.00  0.00    -0.744 OA
ENDBRANCH  73  74
ENDBRANCH  41  66
BRANCH  53  78
ATOM     78  C   UNL     1       1.163  14.470 -10.441  1.00  0.00     0.058 A 
ATOM     79  C   UNL     1       0.464  15.680 -10.556  1.00  0.00     0.135 A 
ATOM     80  C   UNL     1       2.373  14.337 -11.140  1.00  0.00     0.135 A 
ATOM     81  F   UNL     1      -0.706  15.847  -9.919  1.00  0.00    -0.206 F 
ATOM     82  C   UNL     1       0.943  16.720 -11.344  1.00  0.00     0.059 A 
ATOM     83  C   UNL     1       2.881  15.370 -11.919  1.00  0.00     0.059 A 
ATOM     84  F   UNL     1       3.077  13.196 -11.062  1.00  0.00    -0.206 F 
ATOM     85  C   UNL     1       2.154  16.556 -12.022  1.00  0.00     0.060 A 
BRANCH  85  86
ATOM     86  S   UNL     1       2.788  17.926 -13.011  1.00  0.00     0.124 S 
ATOM     87  O   UNL     1       1.961  17.831 -14.209  1.00  0.00    -0.237 OA
ATOM     88  O   UNL     1       2.532  19.079 -12.153  1.00  0.00    -0.237 OA
ATOM     89  O   UNL     1       4.197  17.589 -13.191  1.00  0.00    -0.744 OA
ENDBRANCH  85  86
ENDBRANCH  53  78
ENDBRANCH  27  28
ENDBRANCH  20  22
ENDBRANCH  19  20
ENDBRANCH  18  19
ENDBRANCH   1  18
TORSDOF 20
