REMARK SMILES CC/C=C/C/C=C/C/C=C/C/C=C/CC/C=C/COCC(=O)OCCOC(=O)c1ccc(-c2c3nc(c(-c4c(F)cc(S(=O)(=O)[O-])cc4F)c4ccc([nH]4)c(-c4c(F)cc(S(=O)(=O)[O-])cc4F)c4nc(c(-c5c(F)cc(S(=O)(=O)[O-])cc5F)c5ccc2[nH]5)C=C4)C=C3)cc1
REMARK SMILES IDX 18 1 17 2 16 3 15 4 14 5 13 6 12 7 11 8 10 9 9 10 8 11 7 12
REMARK SMILES IDX 6 13 5 14 4 15 3 16 2 17 1 18 19 19 20 20 21 21 22 22 23 23
REMARK SMILES IDX 24 24 25 25 26 26 27 27 28 28 29 29 30 30 94 31 31 32 93 33
REMARK SMILES IDX 32 34 33 35 34 36 87 37 35 38 92 39 86 40 88 41 36 42 91 43
REMARK SMILES IDX 85 44 84 45 37 47 71 48 50 49 70 50 51 51 54 52 69 53 89 54
REMARK SMILES IDX 52 55 53 56 68 58 90 59 55 60 38 61 39 62 48 63 40 64 41 65
REMARK SMILES IDX 47 66 49 67 42 68 43 69 44 70 45 71 46 72 72 73 73 74 82 75
REMARK SMILES IDX 74 76 75 77 81 78 83 79 76 80 77 81 78 82 79 83 80 84 56 85
REMARK SMILES IDX 57 86 66 87 58 88 59 89 65 90 67 91 60 92 61 93 62 94 63 95
REMARK SMILES IDX 64 96
REMARK H PARENT 88 46 54 57
REMARK Flexibility Score: inf
ROOT
ATOM      1  C   UNL     1      -8.405  -9.045  12.789  1.00  0.00     0.188 C 
ENDROOT
BRANCH   1   2
ATOM      2  C   UNL     1      -7.699  -9.411  11.516  1.00  0.00    -0.003 C 
ATOM      3  C   UNL     1      -6.456  -8.988  11.228  1.00  0.00    -0.029 C 
BRANCH   3   4
ATOM      4  C   UNL     1      -5.862  -9.014   9.843  1.00  0.00     0.031 C 
BRANCH   4   5
ATOM      5  C   UNL     1      -6.573  -7.818   8.793  1.00  0.00     0.031 C 
BRANCH   5   6
ATOM      6  C   UNL     1      -6.089  -5.833   8.107  1.00  0.00    -0.031 C 
ATOM      7  C   UNL     1      -5.388  -5.140   7.113  1.00  0.00    -0.027 C 
BRANCH   7   8
ATOM      8  C   UNL     1      -4.959  -3.693   7.153  1.00  0.00     0.054 C 
BRANCH   8   9
ATOM      9  C   UNL     1      -3.450  -3.692   7.192  1.00  0.00    -0.027 C 
ATOM     10  C   UNL     1      -2.653  -3.283   6.192  1.00  0.00    -0.027 C 
BRANCH  10  11
ATOM     11  C   UNL     1      -1.162  -3.482   6.185  1.00  0.00     0.054 C 
BRANCH  11  12
ATOM     12  C   UNL     1      -0.686  -4.020   4.865  1.00  0.00    -0.027 C 
ATOM     13  C   UNL     1       0.154  -3.361   4.049  1.00  0.00    -0.027 C 
BRANCH  13  14
ATOM     14  C   UNL     1       0.627  -3.871   2.717  1.00  0.00     0.054 C 
BRANCH  14  15
ATOM     15  C   UNL     1       0.187  -2.954   1.611  1.00  0.00    -0.027 C 
ATOM     16  C   UNL     1       1.021  -2.268   0.812  1.00  0.00    -0.031 C 
BRANCH  16  17
ATOM     17  C   UNL     1       0.559  -1.363  -0.293  1.00  0.00     0.023 C 
ATOM     18  C   UNL     1       1.046   0.062  -0.081  1.00  0.00     0.008 C 
ENDBRANCH  16  17
ENDBRANCH  14  15
ENDBRANCH  13  14
ENDBRANCH  11  12
ENDBRANCH  10  11
ENDBRANCH   8   9
ENDBRANCH   7   8
ENDBRANCH   5   6
ENDBRANCH   4   5
ENDBRANCH   3   4
ENDBRANCH   1   2
BRANCH   1  19
ATOM     19  O   UNL     1      -9.798  -8.778  12.610  1.00  0.00    -0.366 OA
BRANCH  19  20
ATOM     20  C   UNL     1     -10.167  -7.855  11.607  1.00  0.00     0.283 C 
BRANCH  20  21
ATOM     21  C   UNL     1     -10.217  -6.333  11.785  1.00  0.00     0.332 C 
ATOM     22  O   UNL     1     -10.745  -5.608  10.944  1.00  0.00    -0.250 OA
BRANCH  21  23
ATOM     23  O   UNL     1      -9.597  -5.879  12.906  1.00  0.00    -0.460 OA
BRANCH  23  24
ATOM     24  C   UNL     1      -9.478  -4.440  12.994  1.00  0.00     0.274 C 
BRANCH  24  25
ATOM     25  C   UNL     1      -8.056  -4.000  12.658  1.00  0.00     0.275 C 
BRANCH  25  26
ATOM     26  O   UNL     1      -7.686  -4.548  11.384  1.00  0.00    -0.458 OA
BRANCH  26  27
ATOM     27  C   UNL     1      -6.856  -5.609  11.460  1.00  0.00     0.338 C 
ATOM     28  O   UNL     1      -6.302  -6.053  12.449  1.00  0.00    -0.246 OA
BRANCH  27  29
ATOM     29  C   UNL     1      -6.676  -6.172  10.126  1.00  0.00     0.060 A 
ATOM     30  C   UNL     1      -8.022  -6.221   8.903  1.00  0.00     0.016 A 
ATOM     31  C   UNL     1      -5.004  -6.697   9.667  1.00  0.00     0.016 A 
ATOM     32  C   UNL     1      -7.705  -6.920   7.261  1.00  0.00     0.010 A 
ATOM     33  C   UNL     1      -4.688  -7.396   8.014  1.00  0.00     0.010 A 
ATOM     34  C   UNL     1      -6.037  -7.503   6.775  1.00  0.00    -0.014 A 
BRANCH  34  35
ATOM     35  C   UNL     1      -5.736  -7.957   5.383  1.00  0.00     0.031 A 
ATOM     36  C   UNL     1      -4.688  -9.018   5.159  1.00  0.00     0.074 A 
ATOM     37  C   UNL     1      -6.300  -7.314   4.338  1.00  0.00     0.049 A 
ATOM     38  N   UNL     1      -4.011  -9.301   4.077  1.00  0.00    -0.248 NA
ATOM     39  C   UNL     1      -4.285  -9.817   6.326  1.00  0.00     0.031 C 
ATOM     40  C   UNL     1      -7.247  -6.199   4.426  1.00  0.00     0.029 A 
ATOM     41  N   UNL     1      -6.142  -7.472   2.984  1.00  0.00    -0.354 N 
ATOM     42  C   UNL     1      -3.053 -10.237   4.461  1.00  0.00     0.074 A 
ATOM     43  C   UNL     1      -3.193 -10.423   5.885  1.00  0.00     0.031 C 
ATOM     44  C   UNL     1      -7.664  -5.846   3.207  1.00  0.00     0.029 A 
ATOM     45  C   UNL     1      -6.898  -6.595   2.234  1.00  0.00     0.049 A 
ATOM     46  H   UNL     1      -5.546  -8.147   2.586  1.00  0.00     0.167 HD
ATOM     47  C   UNL     1      -2.162 -10.902   3.684  1.00  0.00     0.037 A 
ATOM     48  C   UNL     1      -6.928  -6.359   0.911  1.00  0.00     0.037 A 
ATOM     49  C   UNL     1      -2.136 -10.755   2.251  1.00  0.00     0.049 A 
ATOM     50  C   UNL     1      -5.974  -7.137   0.062  1.00  0.00     0.074 A 
ATOM     51  C   UNL     1      -1.345 -11.407   1.324  1.00  0.00     0.029 A 
ATOM     52  N   UNL     1      -2.976  -9.905   1.536  1.00  0.00    -0.354 N 
ATOM     53  N   UNL     1      -5.062  -8.001   0.444  1.00  0.00    -0.248 NA
ATOM     54  C   UNL     1      -6.031  -6.904  -1.382  1.00  0.00     0.031 C 
ATOM     55  C   UNL     1      -1.685 -10.928   0.054  1.00  0.00     0.029 A 
ATOM     56  C   UNL     1      -2.722 -10.014   0.182  1.00  0.00     0.049 A 
ATOM     57  H   UNL     1      -3.653  -9.313   1.937  1.00  0.00     0.167 HD
ATOM     58  C   UNL     1      -4.441  -8.431  -0.716  1.00  0.00     0.074 A 
ATOM     59  C   UNL     1      -5.098  -7.742  -1.814  1.00  0.00     0.031 C 
ATOM     60  C   UNL     1      -3.417  -9.307  -0.867  1.00  0.00     0.037 A 
BRANCH  47  61
ATOM     61  C   UNL     1      -1.179 -11.835   4.356  1.00  0.00     0.058 A 
ATOM     62  C   UNL     1      -1.591 -12.992   5.042  1.00  0.00     0.135 A 
ATOM     63  C   UNL     1       0.202 -11.570   4.322  1.00  0.00     0.135 A 
ATOM     64  F   UNL     1      -2.895 -13.303   5.121  1.00  0.00    -0.206 F 
ATOM     65  C   UNL     1      -0.686 -13.812   5.713  1.00  0.00     0.059 A 
ATOM     66  C   UNL     1       1.130 -12.398   4.954  1.00  0.00     0.059 A 
ATOM     67  F   UNL     1       0.667 -10.488   3.679  1.00  0.00    -0.206 F 
ATOM     68  C   UNL     1       0.674 -13.505   5.668  1.00  0.00     0.060 A 
BRANCH  68  69
ATOM     69  S   UNL     1       1.829 -14.570   6.558  1.00  0.00     0.124 S 
ATOM     70  O   UNL     1       1.534 -14.226   7.946  1.00  0.00    -0.237 OA
ATOM     71  O   UNL     1       1.413 -15.904   6.136  1.00  0.00    -0.237 OA
ATOM     72  O   UNL     1       3.136 -14.141   6.071  1.00  0.00    -0.744 OA
ENDBRANCH  68  69
ENDBRANCH  47  61
BRANCH  48  73
ATOM     73  C   UNL     1      -7.882  -5.360   0.352  1.00  0.00     0.058 A 
ATOM     74  C   UNL     1      -8.996  -5.776  -0.392  1.00  0.00     0.135 A 
ATOM     75  C   UNL     1      -7.771  -3.987   0.636  1.00  0.00     0.135 A 
ATOM     76  F   UNL     1      -9.154  -7.075  -0.691  1.00  0.00    -0.206 F 
ATOM     77  C   UNL     1      -9.963  -4.875  -0.831  1.00  0.00     0.059 A 
ATOM     78  C   UNL     1      -8.742  -3.071   0.236  1.00  0.00     0.059 A 
ATOM     79  F   UNL     1      -6.742  -3.533   1.370  1.00  0.00    -0.206 F 
ATOM     80  C   UNL     1      -9.833  -3.525  -0.502  1.00  0.00     0.060 A 
BRANCH  80  81
ATOM     81  S   UNL     1     -11.135  -2.380  -1.011  1.00  0.00     0.124 S 
ATOM     82  O   UNL     1     -10.921  -2.314  -2.452  1.00  0.00    -0.237 OA
ATOM     83  O   UNL     1     -12.342  -3.076  -0.576  1.00  0.00    -0.237 OA
ATOM     84  O   UNL     1     -10.822  -1.162  -0.270  1.00  0.00    -0.744 OA
ENDBRANCH  80  81
ENDBRANCH  48  73
BRANCH  60  85
ATOM     85  C   UNL     1      -2.991  -9.586  -2.273  1.00  0.00     0.058 A 
ATOM     86  C   UNL     1      -2.246  -8.655  -3.010  1.00  0.00     0.135 A 
ATOM     87  C   UNL     1      -3.295 -10.821  -2.866  1.00  0.00     0.135 A 
ATOM     88  F   UNL     1      -1.950  -7.456  -2.485  1.00  0.00    -0.206 F 
ATOM     89  C   UNL     1      -1.829  -8.934  -4.304  1.00  0.00     0.059 A 
ATOM     90  C   UNL     1      -2.861 -11.132  -4.147  1.00  0.00     0.059 A 
ATOM     91  F   UNL     1      -4.003 -11.741  -2.192  1.00  0.00    -0.206 F 
ATOM     92  C   UNL     1      -2.136 -10.178  -4.860  1.00  0.00     0.060 A 
BRANCH  92  93
ATOM     93  S   UNL     1      -1.543 -10.544  -6.522  1.00  0.00     0.124 S 
ATOM     94  O   UNL     1      -2.419  -9.709  -7.336  1.00  0.00    -0.237 OA
ATOM     95  O   UNL     1      -0.147 -10.122  -6.453  1.00  0.00    -0.237 OA
ATOM     96  O   UNL     1      -1.751 -11.983  -6.647  1.00  0.00    -0.744 OA
ENDBRANCH  92  93
ENDBRANCH  60  85
ENDBRANCH  34  35
ENDBRANCH  27  29
ENDBRANCH  26  27
ENDBRANCH  25  26
ENDBRANCH  24  25
ENDBRANCH  23  24
ENDBRANCH  21  23
ENDBRANCH  20  21
ENDBRANCH  19  20
ENDBRANCH   1  19
TORSDOF 27
