REMARK SMILES Cc1ccc(Nc2c(Cl)cc(Cl)cc2Cl)c(CC(=O)OCCOC(=O)c2ccc(-c3c4nc(c(-c5c(F)cc(S(=O)(=O)[O-])cc5F)c5ccc([nH]5)c(-c5c(F)cc(S(=O)(=O)[O-])cc5F)c5nc(c(-c6c(F)cc(S(=O)(=O)[O-])cc6F)c6ccc3[nH]6)C=C5)C=C4)cc2)c1
REMARK SMILES IDX 21 1 20 2 18 3 19 4 17 5 16 6 1 7 2 8 3 9 92 10 4 11 5 12
REMARK SMILES IDX 6 13 7 15 8 16 14 17 9 18 10 19 13 20 15 21 11 22 12 23
REMARK SMILES IDX 22 24 23 25 24 26 25 27 26 28 27 29 91 30 28 31 90 32 29 33
REMARK SMILES IDX 30 34 31 35 84 36 32 37 89 38 83 39 85 40 33 41 88 42 82 43
REMARK SMILES IDX 81 44 34 46 68 47 47 48 67 49 48 50 51 51 66 52 86 53 49 54
REMARK SMILES IDX 50 55 65 57 87 58 52 59 35 60 36 61 45 62 37 63 38 64 44 65
REMARK SMILES IDX 46 66 39 67 40 68 41 69 42 70 43 71 69 72 70 73 79 74 71 75
REMARK SMILES IDX 72 76 78 77 80 78 73 79 74 80 75 81 76 82 77 83 53 84 54 85
REMARK SMILES IDX 63 86 55 87 56 88 62 89 64 90 57 91 58 92 59 93 60 94 61 95
REMARK H PARENT 6 14 85 45 51 56
REMARK Flexibility Score: inf
ROOT
ATOM      1  C   UNL     1      -2.804   0.794  -3.958  1.00  0.00     0.274 C 
ENDROOT
BRANCH   1   2
ATOM      2  O   UNL     1      -1.951   1.376  -2.973  1.00  0.00    -0.462 OA
BRANCH   2   3
ATOM      3  C   UNL     1      -0.997   0.553  -2.465  1.00  0.00     0.310 C 
ATOM      4  O   UNL     1      -0.502  -0.376  -3.059  1.00  0.00    -0.252 OA
BRANCH   3   5
ATOM      5  C   UNL     1      -0.675   1.014  -1.051  1.00  0.00     0.160 C 
BRANCH   5   6
ATOM      6  C   UNL     1      -0.050  -0.106  -0.260  1.00  0.00    -0.013 A 
ATOM      7  C   UNL     1       3.533  -1.065   0.506  1.00  0.00     0.044 C 
ATOM      8  C   UNL     1       2.041  -1.131   0.423  1.00  0.00    -0.051 A 
ATOM      9  C   UNL     1       1.342  -2.308   0.699  1.00  0.00     0.005 A 
ATOM     10  C   UNL     1       1.337  -0.034  -0.061  1.00  0.00     0.009 A 
ATOM     11  C   UNL     1      -0.049  -2.368   0.552  1.00  0.00     0.026 A 
ATOM     12  C   UNL     1      -0.778  -1.260   0.115  1.00  0.00     0.042 A 
BRANCH  12  13
ATOM     13  N   UNL     1      -2.167  -1.333  -0.093  1.00  0.00    -0.353 N 
ATOM     14  H   UNL     1      -2.560  -0.513  -0.471  1.00  0.00     0.167 HD
BRANCH  13  15
ATOM     15  C   UNL     1      -3.108  -2.369   0.141  1.00  0.00     0.076 A 
ATOM     16  C   UNL     1      -3.638  -2.603   1.425  1.00  0.00     0.067 A 
ATOM     17  C   UNL     1      -3.756  -2.990  -0.948  1.00  0.00     0.067 A 
ATOM     18  Cl  UNL     1      -2.936  -1.893   2.840  1.00  0.00    -0.082 Cl
ATOM     19  C   UNL     1      -4.758  -3.422   1.610  1.00  0.00     0.043 A 
ATOM     20  C   UNL     1      -4.906  -3.766  -0.772  1.00  0.00     0.043 A 
ATOM     21  Cl  UNL     1      -3.106  -2.904  -2.549  1.00  0.00    -0.082 Cl
ATOM     22  C   UNL     1      -5.398  -3.979   0.508  1.00  0.00     0.044 A 
ATOM     23  Cl  UNL     1      -6.790  -4.966   0.735  1.00  0.00    -0.084 Cl
ENDBRANCH  13  15
ENDBRANCH  12  13
ENDBRANCH   5   6
ENDBRANCH   3   5
ENDBRANCH   2   3
ENDBRANCH   1   2
BRANCH   1  24
ATOM     24  C   UNL     1      -4.121   0.289  -3.332  1.00  0.00     0.275 C 
BRANCH  24  25
ATOM     25  O   UNL     1      -4.180   0.213  -1.870  1.00  0.00    -0.458 OA
BRANCH  25  26
ATOM     26  C   UNL     1      -4.280   1.160  -0.886  1.00  0.00     0.338 C 
ATOM     27  O   UNL     1      -4.219   0.801   0.289  1.00  0.00    -0.246 OA
BRANCH  26  28
ATOM     28  C   UNL     1      -4.048   2.588  -1.206  1.00  0.00     0.060 A 
ATOM     29  C   UNL     1      -3.367   3.438  -0.311  1.00  0.00     0.016 A 
ATOM     30  C   UNL     1      -4.247   3.010  -2.494  1.00  0.00     0.016 A 
ATOM     31  C   UNL     1      -2.767   4.615  -0.788  1.00  0.00     0.010 A 
ATOM     32  C   UNL     1      -3.375   3.924  -3.014  1.00  0.00     0.010 A 
ATOM     33  C   UNL     1      -2.729   4.822  -2.169  1.00  0.00    -0.014 A 
BRANCH  33  34
ATOM     34  C   UNL     1      -2.345   6.049  -2.865  1.00  0.00     0.031 A 
ATOM     35  C   UNL     1      -1.014   6.661  -2.788  1.00  0.00     0.074 A 
ATOM     36  C   UNL     1      -3.316   6.618  -3.625  1.00  0.00     0.049 A 
ATOM     37  N   UNL     1      -0.811   7.903  -2.503  1.00  0.00    -0.248 NA
ATOM     38  C   UNL     1       0.204   5.921  -3.116  1.00  0.00     0.031 C 
ATOM     39  C   UNL     1      -3.265   7.803  -4.453  1.00  0.00     0.029 A 
ATOM     40  N   UNL     1      -4.670   6.253  -3.668  1.00  0.00    -0.354 N 
ATOM     41  C   UNL     1       0.469   8.191  -2.929  1.00  0.00     0.074 A 
ATOM     42  C   UNL     1       1.107   6.912  -3.161  1.00  0.00     0.031 C 
ATOM     43  C   UNL     1      -4.528   8.250  -4.613  1.00  0.00     0.029 A 
ATOM     44  C   UNL     1      -5.424   7.401  -3.831  1.00  0.00     0.049 A 
ATOM     45  H   UNL     1      -5.023   5.337  -3.595  1.00  0.00     0.167 HD
ATOM     46  C   UNL     1       0.815   9.455  -3.311  1.00  0.00     0.037 A 
ATOM     47  C   UNL     1      -6.309   7.765  -2.857  1.00  0.00     0.037 A 
ATOM     48  C   UNL     1      -0.365  10.314  -3.393  1.00  0.00     0.049 A 
ATOM     49  C   UNL     1      -5.837   9.013  -2.157  1.00  0.00     0.074 A 
ATOM     50  C   UNL     1      -1.149  10.669  -4.480  1.00  0.00     0.029 A 
ATOM     51  N   UNL     1      -1.117  10.616  -2.259  1.00  0.00    -0.354 N 
ATOM     52  N   UNL     1      -4.635   9.499  -2.298  1.00  0.00    -0.248 NA
ATOM     53  C   UNL     1      -6.656   9.814  -1.256  1.00  0.00     0.031 C 
ATOM     54  C   UNL     1      -2.406  11.101  -4.003  1.00  0.00     0.029 A 
ATOM     55  C   UNL     1      -2.386  11.036  -2.623  1.00  0.00     0.049 A 
ATOM     56  H   UNL     1      -0.792  10.542  -1.333  1.00  0.00     0.167 HD
ATOM     57  C   UNL     1      -4.518  10.661  -1.592  1.00  0.00     0.074 A 
ATOM     58  C   UNL     1      -5.811  10.817  -0.949  1.00  0.00     0.031 C 
ATOM     59  C   UNL     1      -3.377  11.409  -1.625  1.00  0.00     0.037 A 
BRANCH  46  60
ATOM     60  C   UNL     1       2.146   9.756  -3.966  1.00  0.00     0.058 A 
ATOM     61  C   UNL     1       2.260  10.568  -5.114  1.00  0.00     0.135 A 
ATOM     62  C   UNL     1       3.365   9.242  -3.474  1.00  0.00     0.135 A 
ATOM     63  F   UNL     1       1.196  11.158  -5.669  1.00  0.00    -0.206 F 
ATOM     64  C   UNL     1       3.472  10.793  -5.768  1.00  0.00     0.059 A 
ATOM     65  C   UNL     1       4.592   9.438  -4.124  1.00  0.00     0.059 A 
ATOM     66  F   UNL     1       3.388   8.516  -2.344  1.00  0.00    -0.206 F 
ATOM     67  C   UNL     1       4.633  10.212  -5.279  1.00  0.00     0.060 A 
BRANCH  67  68
ATOM     68  S   UNL     1       6.168  10.458  -6.198  1.00  0.00     0.124 S 
ATOM     69  O   UNL     1       5.776  10.096  -7.557  1.00  0.00    -0.237 OA
ATOM     70  O   UNL     1       6.434  11.874  -5.972  1.00  0.00    -0.237 OA
ATOM     71  O   UNL     1       7.098   9.533  -5.558  1.00  0.00    -0.744 OA
ENDBRANCH  67  68
ENDBRANCH  46  60
BRANCH  47  72
ATOM     72  C   UNL     1      -7.069   6.628  -2.238  1.00  0.00     0.058 A 
ATOM     73  C   UNL     1      -7.996   5.954  -3.061  1.00  0.00     0.135 A 
ATOM     74  C   UNL     1      -6.659   5.961  -1.071  1.00  0.00     0.135 A 
ATOM     75  F   UNL     1      -8.444   6.543  -4.182  1.00  0.00    -0.206 F 
ATOM     76  C   UNL     1      -8.381   4.637  -2.825  1.00  0.00     0.059 A 
ATOM     77  C   UNL     1      -7.040   4.636  -0.808  1.00  0.00     0.059 A 
ATOM     78  F   UNL     1      -5.767   6.530  -0.248  1.00  0.00    -0.206 F 
ATOM     79  C   UNL     1      -7.849   3.965  -1.729  1.00  0.00     0.060 A 
BRANCH  79  80
ATOM     80  S   UNL     1      -8.064   2.167  -1.665  1.00  0.00     0.124 S 
ATOM     81  O   UNL     1      -9.514   2.027  -1.614  1.00  0.00    -0.237 OA
ATOM     82  O   UNL     1      -7.425   1.756  -2.913  1.00  0.00    -0.237 OA
ATOM     83  O   UNL     1      -7.344   1.787  -0.457  1.00  0.00    -0.744 OA
ENDBRANCH  79  80
ENDBRANCH  47  72
BRANCH  59  84
ATOM     84  C   UNL     1      -3.138  12.658  -0.832  1.00  0.00     0.058 A 
ATOM     85  C   UNL     1      -3.581  12.841   0.484  1.00  0.00     0.135 A 
ATOM     86  C   UNL     1      -2.312  13.678  -1.364  1.00  0.00     0.135 A 
ATOM     87  F   UNL     1      -4.297  11.896   1.112  1.00  0.00    -0.206 F 
ATOM     88  C   UNL     1      -3.270  13.987   1.214  1.00  0.00     0.059 A 
ATOM     89  C   UNL     1      -1.944  14.799  -0.636  1.00  0.00     0.059 A 
ATOM     90  F   UNL     1      -1.829  13.610  -2.614  1.00  0.00    -0.206 F 
ATOM     91  C   UNL     1      -2.448  14.958   0.645  1.00  0.00     0.060 A 
BRANCH  91  92
ATOM     92  S   UNL     1      -1.980  16.419   1.585  1.00  0.00     0.124 S 
ATOM     93  O   UNL     1      -2.952  17.395   1.104  1.00  0.00    -0.237 OA
ATOM     94  O   UNL     1      -2.152  15.988   2.970  1.00  0.00    -0.237 OA
ATOM     95  O   UNL     1      -0.598  16.643   1.174  1.00  0.00    -0.744 OA
ENDBRANCH  91  92
ENDBRANCH  59  84
ENDBRANCH  33  34
ENDBRANCH  26  28
ENDBRANCH  25  26
ENDBRANCH  24  25
ENDBRANCH   1  24
TORSDOF 17
