REMARK SMILES Cc1ccc(C(=O)N2C[C@@H](C(=O)OCCOC(=O)c3ccc(-c4c5nc(c(-c6c(F)cc(S(=O)(=O)[O-])cc6F)c6ccc([nH]6)c(-c6c(F)cc(S(=O)(=O)[O-])cc6F)c6nc(c(-c7c(F)cc(S(=O)(=O)[O-])cc7F)c7ccc4[nH]7)C=C6)C=C5)cc3)C[C@H](C(=O)N3CCOCC3)C2)cc1F
REMARK SMILES IDX 15 1 14 2 13 3 11 4 12 5 10 6 8 7 9 8 95 9 86 10 85 11 6 12
REMARK SMILES IDX 7 13 5 14 1 15 2 16 3 17 97 18 4 19 96 20 98 21 87 22 88 23
REMARK SMILES IDX 89 24 90 25 94 26 91 27 93 28 92 29 16 30 17 31 18 32 19 33
REMARK SMILES IDX 20 34 84 35 21 36 83 37 22 38 23 39 24 40 77 41 25 42 82 43
REMARK SMILES IDX 76 44 78 45 26 46 81 47 75 48 74 49 27 51 61 52 40 53 60 54
REMARK SMILES IDX 41 55 44 56 59 57 79 58 42 59 43 60 58 62 80 63 45 64 28 65
REMARK SMILES IDX 29 66 38 67 30 68 31 69 37 70 39 71 32 72 33 73 34 74 35 75
REMARK SMILES IDX 36 76 62 77 63 78 72 79 64 80 65 81 71 82 73 83 66 84 67 85
REMARK SMILES IDX 68 86 69 87 70 88 46 89 47 90 56 91 48 92 49 93 55 94 57 95
REMARK SMILES IDX 50 96 51 97 52 98 53 99 54 100
REMARK H PARENT 78 50 44 61
REMARK Flexibility Score: inf
ROOT
ATOM      1  C   UNL     1     -10.397  -1.657   2.815  1.00  0.00     0.275 C 
ENDROOT
BRANCH   1   2
ATOM      2  C   UNL     1      -9.217  -0.903   3.416  1.00  0.00     0.274 C 
BRANCH   2   3
ATOM      3  O   UNL     1      -8.216  -0.787   2.394  1.00  0.00    -0.462 OA
BRANCH   3   4
ATOM      4  C   UNL     1      -6.949  -1.087   2.760  1.00  0.00     0.310 C 
ATOM      5  O   UNL     1      -6.560  -1.143   3.923  1.00  0.00    -0.252 OA
BRANCH   4   6
ATOM      6  C   UNL     1      -6.050  -1.367   1.567  1.00  0.00     0.119 C 
ATOM      7  N   UNL     1      -3.865  -0.724   0.682  1.00  0.00    -0.337 N 
ATOM      8  C   UNL     1      -4.777  -0.603   1.799  1.00  0.00     0.135 C 
ATOM      9  C   UNL     1      -4.356  -0.306  -0.636  1.00  0.00     0.133 C 
ATOM     10  C   UNL     1      -5.678  -0.990  -1.011  1.00  0.00     0.099 C 
ATOM     11  C   UNL     1      -6.635  -1.020   0.195  1.00  0.00     0.032 C 
BRANCH   7  12
ATOM     12  C   UNL     1      -2.582  -1.149   0.956  1.00  0.00     0.254 C 
ATOM     13  O   UNL     1      -2.305  -1.972   1.825  1.00  0.00    -0.269 OA
BRANCH  12  14
ATOM     14  C   UNL     1      -1.466  -0.412   0.335  1.00  0.00     0.042 A 
ATOM     15  C   UNL     1       2.070   1.912  -0.257  1.00  0.00     0.047 C 
ATOM     16  C   UNL     1       0.814   1.104  -0.167  1.00  0.00    -0.015 A 
ATOM     17  C   UNL     1      -0.428   1.735  -0.070  1.00  0.00     0.007 A 
ATOM     18  C   UNL     1       0.885  -0.292  -0.080  1.00  0.00     0.126 A 
ATOM     19  C   UNL     1      -1.564   0.980   0.192  1.00  0.00     0.014 A 
ATOM     20  C   UNL     1      -0.243  -1.058   0.171  1.00  0.00     0.053 A 
ATOM     21  F   UNL     1       2.076  -0.902  -0.165  1.00  0.00    -0.207 F 
ENDBRANCH  12  14
ENDBRANCH   7  12
BRANCH  10  22
ATOM     22  C   UNL     1      -5.311  -2.167  -1.947  1.00  0.00     0.227 C 
ATOM     23  O   UNL     1      -5.130  -1.913  -3.149  1.00  0.00    -0.275 OA
ATOM     24  N   UNL     1      -4.839  -3.350  -1.437  1.00  0.00    -0.338 N 
ATOM     25  C   UNL     1      -5.501  -4.150  -0.427  1.00  0.00     0.148 C 
ATOM     26  C   UNL     1      -3.733  -4.059  -2.076  1.00  0.00     0.148 C 
ATOM     27  C   UNL     1      -4.488  -4.628   0.618  1.00  0.00     0.181 C 
ATOM     28  C   UNL     1      -2.744  -4.491  -0.986  1.00  0.00     0.181 C 
ATOM     29  O   UNL     1      -3.387  -5.324  -0.004  1.00  0.00    -0.378 OA
ENDBRANCH  10  22
ENDBRANCH   4   6
ENDBRANCH   3   4
ENDBRANCH   2   3
ENDBRANCH   1   2
BRANCH   1  30
ATOM     30  O   UNL     1     -10.340  -3.082   3.027  1.00  0.00    -0.458 OA
BRANCH  30  31
ATOM     31  C   UNL     1      -9.271  -3.730   2.498  1.00  0.00     0.338 C 
ATOM     32  O   UNL     1      -8.110  -3.576   2.811  1.00  0.00    -0.246 OA
BRANCH  31  33
ATOM     33  C   UNL     1      -9.710  -4.658   1.444  1.00  0.00     0.060 A 
ATOM     34  C   UNL     1      -8.726  -5.181   0.594  1.00  0.00     0.016 A 
ATOM     35  C   UNL     1     -11.062  -4.891   1.213  1.00  0.00     0.016 A 
ATOM     36  C   UNL     1      -9.086  -5.777  -0.601  1.00  0.00     0.010 A 
ATOM     37  C   UNL     1     -11.425  -5.521   0.049  1.00  0.00     0.010 A 
ATOM     38  C   UNL     1     -10.439  -5.902  -0.875  1.00  0.00    -0.014 A 
BRANCH  38  39
ATOM     39  C   UNL     1     -10.930  -6.675  -1.989  1.00  0.00     0.031 A 
ATOM     40  C   UNL     1     -10.841  -8.146  -1.862  1.00  0.00     0.074 A 
ATOM     41  C   UNL     1     -11.694  -6.045  -2.904  1.00  0.00     0.049 A 
ATOM     42  N   UNL     1     -11.167  -8.972  -2.790  1.00  0.00    -0.248 NA
ATOM     43  C   UNL     1     -10.300  -8.821  -0.675  1.00  0.00     0.031 C 
ATOM     44  C   UNL     1     -12.846  -6.604  -3.591  1.00  0.00     0.029 A 
ATOM     45  N   UNL     1     -11.595  -4.763  -3.424  1.00  0.00    -0.354 N 
ATOM     46  C   UNL     1     -11.210 -10.229  -2.224  1.00  0.00     0.074 A 
ATOM     47  C   UNL     1     -10.518 -10.108  -0.968  1.00  0.00     0.031 C 
ATOM     48  C   UNL     1     -13.230  -5.759  -4.563  1.00  0.00     0.029 A 
ATOM     49  C   UNL     1     -12.208  -4.731  -4.687  1.00  0.00     0.049 A 
ATOM     50  H   UNL     1     -11.164  -3.998  -2.979  1.00  0.00     0.167 HD
ATOM     51  C   UNL     1     -11.981 -11.178  -2.822  1.00  0.00     0.037 A 
ATOM     52  C   UNL     1     -11.485  -4.537  -5.843  1.00  0.00     0.037 A 
ATOM     53  C   UNL     1     -12.596 -10.624  -4.023  1.00  0.00     0.049 A 
ATOM     54  C   UNL     1     -11.352  -5.763  -6.718  1.00  0.00     0.074 A 
ATOM     55  C   UNL     1     -13.794  -9.979  -4.274  1.00  0.00     0.029 A 
ATOM     56  N   UNL     1     -11.791 -10.382  -5.108  1.00  0.00    -0.354 N 
ATOM     57  N   UNL     1     -11.854  -6.929  -6.435  1.00  0.00    -0.248 NA
ATOM     58  C   UNL     1     -10.550  -5.784  -7.942  1.00  0.00     0.031 C 
ATOM     59  C   UNL     1     -13.680  -9.332  -5.538  1.00  0.00     0.029 A 
ATOM     60  C   UNL     1     -12.422  -9.599  -6.049  1.00  0.00     0.049 A 
ATOM     61  H   UNL     1     -10.873 -10.725  -5.202  1.00  0.00     0.167 HD
ATOM     62  C   UNL     1     -11.390  -7.853  -7.327  1.00  0.00     0.074 A 
ATOM     63  C   UNL     1     -10.586  -7.088  -8.262  1.00  0.00     0.031 C 
ATOM     64  C   UNL     1     -11.657  -9.185  -7.209  1.00  0.00     0.037 A 
BRANCH  51  65
ATOM     65  C   UNL     1     -12.383 -12.523  -2.272  1.00  0.00     0.058 A 
ATOM     66  C   UNL     1     -13.551 -13.143  -2.774  1.00  0.00     0.135 A 
ATOM     67  C   UNL     1     -11.693 -13.265  -1.294  1.00  0.00     0.135 A 
ATOM     68  F   UNL     1     -14.300 -12.575  -3.729  1.00  0.00    -0.206 F 
ATOM     69  C   UNL     1     -14.018 -14.371  -2.324  1.00  0.00     0.059 A 
ATOM     70  C   UNL     1     -12.161 -14.492  -0.803  1.00  0.00     0.059 A 
ATOM     71  F   UNL     1     -10.515 -12.860  -0.803  1.00  0.00    -0.206 F 
ATOM     72  C   UNL     1     -13.325 -15.038  -1.329  1.00  0.00     0.060 A 
BRANCH  72  73
ATOM     73  S   UNL     1     -13.970 -16.623  -0.777  1.00  0.00     0.124 S 
ATOM     74  O   UNL     1     -15.313 -16.265  -0.328  1.00  0.00    -0.237 OA
ATOM     75  O   UNL     1     -13.902 -17.421  -1.996  1.00  0.00    -0.237 OA
ATOM     76  O   UNL     1     -13.047 -17.018   0.283  1.00  0.00    -0.744 OA
ENDBRANCH  72  73
ENDBRANCH  51  65
BRANCH  52  77
ATOM     77  C   UNL     1     -10.397  -3.520  -5.722  1.00  0.00     0.058 A 
ATOM     78  C   UNL     1     -10.838  -2.208  -5.484  1.00  0.00     0.135 A 
ATOM     79  C   UNL     1      -9.189  -3.942  -5.150  1.00  0.00     0.135 A 
ATOM     80  F   UNL     1     -11.926  -1.735  -6.111  1.00  0.00    -0.206 F 
ATOM     81  C   UNL     1     -10.351  -1.508  -4.399  1.00  0.00     0.059 A 
ATOM     82  C   UNL     1      -8.681  -3.259  -4.060  1.00  0.00     0.059 A 
ATOM     83  F   UNL     1      -8.674  -5.143  -5.450  1.00  0.00    -0.206 F 
ATOM     84  C   UNL     1      -9.386  -2.136  -3.615  1.00  0.00     0.060 A 
BRANCH  84  85
ATOM     85  S   UNL     1      -9.542  -1.884  -1.837  1.00  0.00     0.124 S 
ATOM     86  O   UNL     1      -9.182  -0.482  -1.674  1.00  0.00    -0.237 OA
ATOM     87  O   UNL     1     -10.948  -2.218  -1.614  1.00  0.00    -0.237 OA
ATOM     88  O   UNL     1      -8.596  -2.854  -1.308  1.00  0.00    -0.744 OA
ENDBRANCH  84  85
ENDBRANCH  52  77
BRANCH  64  89
ATOM     89  C   UNL     1     -11.167 -10.202  -8.196  1.00  0.00     0.058 A 
ATOM     90  C   UNL     1     -11.279  -9.987  -9.577  1.00  0.00     0.135 A 
ATOM     91  C   UNL     1     -10.667 -11.463  -7.801  1.00  0.00     0.135 A 
ATOM     92  F   UNL     1     -11.826  -8.858 -10.056  1.00  0.00    -0.206 F 
ATOM     93  C   UNL     1     -10.836 -10.922 -10.507  1.00  0.00     0.059 A 
ATOM     94  C   UNL     1     -10.288 -12.440  -8.710  1.00  0.00     0.059 A 
ATOM     95  F   UNL     1     -10.482 -11.785  -6.513  1.00  0.00    -0.206 F 
ATOM     96  C   UNL     1     -10.336 -12.144 -10.062  1.00  0.00     0.060 A 
BRANCH  96  97
ATOM     97  S   UNL     1      -9.737 -13.338 -11.263  1.00  0.00     0.124 S 
ATOM     98  O   UNL     1     -10.731 -13.239 -12.328  1.00  0.00    -0.237 OA
ATOM     99  O   UNL     1      -8.420 -12.794 -11.575  1.00  0.00    -0.237 OA
ATOM    100  O   UNL     1      -9.740 -14.597 -10.524  1.00  0.00    -0.744 OA
ENDBRANCH  96  97
ENDBRANCH  64  89
ENDBRANCH  38  39
ENDBRANCH  31  33
ENDBRANCH  30  31
ENDBRANCH   1  30
TORSDOF 17
