REMARK SMILES CN(C)C(=O)CCc1cccc(NC(=O)[C@H]2CCCC[C@@H]2C(=O)OCCOC(=O)c2ccc(-c3c4nc(c(-c5c(F)cc(S(=O)(=O)[O-])cc5F)c5ccc([nH]5)c(-c5c(F)cc(S(=O)(=O)[O-])cc5F)c5nc(c(-c6c(F)cc(S(=O)(=O)[O-])cc6F)c6ccc3[nH]6)C=C5)C=C4)cc2)c1
REMARK SMILES IDX 25 1 24 2 22 3 23 4 21 5 16 6 17 7 18 8 20 9 19 10 14 11
REMARK SMILES IDX 13 12 15 14 12 15 8 16 9 17 96 18 10 19 11 20 7 21 6 22 4 23
REMARK SMILES IDX 1 24 2 25 3 26 5 27 26 28 27 29 28 30 29 31 30 32 31 33
REMARK SMILES IDX 95 34 32 35 94 36 33 37 34 38 35 39 88 40 36 41 93 42 87 43
REMARK SMILES IDX 89 44 37 45 92 46 86 47 85 48 38 50 72 51 51 52 71 53 52 54
REMARK SMILES IDX 55 55 70 56 90 57 53 58 54 59 69 61 91 62 56 63 39 64 40 65
REMARK SMILES IDX 49 66 41 67 42 68 48 69 50 70 43 71 44 72 45 73 46 74 47 75
REMARK SMILES IDX 73 76 74 77 83 78 75 79 76 80 82 81 84 82 77 83 78 84 79 85
REMARK SMILES IDX 80 86 81 87 57 88 58 89 67 90 59 91 60 92 66 93 68 94 61 95
REMARK SMILES IDX 62 96 63 97 64 98 65 99
REMARK H PARENT 13 13 89 49 55 60
REMARK Flexibility Score: inf
ROOT
ATOM      1  C   UNL     1      -0.831  -2.856   1.741  1.00  0.00     0.274 C 
ENDROOT
BRANCH   1   2
ATOM      2  O   UNL     1      -0.806  -2.151   3.001  1.00  0.00    -0.462 OA
BRANCH   2   3
ATOM      3  C   UNL     1      -0.184  -2.774   4.031  1.00  0.00     0.309 C 
ATOM      4  O   UNL     1       0.293  -3.902   3.953  1.00  0.00    -0.252 OA
BRANCH   3   5
ATOM      5  C   UNL     1      -0.180  -1.962   5.336  1.00  0.00     0.111 C 
ATOM      6  C   UNL     1      -1.016  -2.709   6.405  1.00  0.00     0.093 C 
ATOM      7  C   UNL     1      -2.495  -2.296   6.205  1.00  0.00     0.014 C 
ATOM      8  C   UNL     1      -2.689  -0.777   6.221  1.00  0.00     0.001 C 
ATOM      9  C   UNL     1      -0.430  -0.465   5.199  1.00  0.00     0.016 C 
ATOM     10  C   UNL     1      -1.892  -0.091   5.122  1.00  0.00     0.001 C 
BRANCH   6  11
ATOM     11  C   UNL     1      -0.624  -2.631   7.920  1.00  0.00     0.228 C 
ATOM     12  N   UNL     1       0.611  -2.883   8.464  1.00  0.00    -0.326 N 
ATOM     13  H   UNL     1       0.622  -2.902   9.449  1.00  0.00     0.169 HD
ATOM     14  O   UNL     1      -1.502  -2.367   8.758  1.00  0.00    -0.274 OA
BRANCH  12  15
ATOM     15  C   UNL     1       1.855  -3.118   7.872  1.00  0.00     0.041 A 
ATOM     16  C   UNL     1       4.106  -2.325   7.672  1.00  0.00    -0.045 A 
ATOM     17  C   UNL     1       3.862  -2.254   6.309  1.00  0.00     0.004 A 
ATOM     18  C   UNL     1       3.026  -2.654   8.489  1.00  0.00     0.029 A 
ATOM     19  C   UNL     1       2.891  -3.067   5.769  1.00  0.00     0.002 A 
ATOM     20  C   UNL     1       1.951  -3.635   6.602  1.00  0.00     0.026 A 
BRANCH  16  21
ATOM     21  C   UNL     1       5.539  -2.138   8.113  1.00  0.00     0.045 C 
BRANCH  21  22
ATOM     22  C   UNL     1       6.473  -3.254   7.548  1.00  0.00     0.105 C 
BRANCH  22  23
ATOM     23  C   UNL     1       6.426  -3.369   6.019  1.00  0.00     0.222 C 
ATOM     24  C   UNL     1       5.389  -4.386   4.027  1.00  0.00     0.146 C 
ATOM     25  N   UNL     1       5.729  -4.432   5.439  1.00  0.00    -0.349 N 
ATOM     26  C   UNL     1       5.310  -5.629   6.138  1.00  0.00     0.146 C 
ATOM     27  O   UNL     1       6.872  -2.435   5.347  1.00  0.00    -0.275 OA
ENDBRANCH  22  23
ENDBRANCH  21  22
ENDBRANCH  16  21
ENDBRANCH  12  15
ENDBRANCH   6  11
ENDBRANCH   3   5
ENDBRANCH   2   3
ENDBRANCH   1   2
BRANCH   1  28
ATOM     28  C   UNL     1      -0.244  -1.978   0.636  1.00  0.00     0.275 C 
BRANCH  28  29
ATOM     29  O   UNL     1       1.187  -1.848   0.774  1.00  0.00    -0.458 OA
BRANCH  29  30
ATOM     30  C   UNL     1       1.619  -0.709   1.360  1.00  0.00     0.338 C 
ATOM     31  O   UNL     1       0.923   0.210   1.781  1.00  0.00    -0.246 OA
BRANCH  30  32
ATOM     32  C   UNL     1       3.080  -0.762   1.546  1.00  0.00     0.060 A 
ATOM     33  C   UNL     1       3.571  -0.668   2.846  1.00  0.00     0.016 A 
ATOM     34  C   UNL     1       3.969  -0.849   0.466  1.00  0.00     0.016 A 
ATOM     35  C   UNL     1       4.949  -0.700   3.064  1.00  0.00     0.010 A 
ATOM     36  C   UNL     1       5.359  -0.863   0.696  1.00  0.00     0.010 A 
ATOM     37  C   UNL     1       5.863  -0.806   2.003  1.00  0.00    -0.014 A 
BRANCH  37  38
ATOM     38  C   UNL     1       7.320  -0.824   2.336  1.00  0.00     0.031 A 
ATOM     39  C   UNL     1       7.963   0.411   2.907  1.00  0.00     0.074 A 
ATOM     40  C   UNL     1       8.024  -1.976   2.320  1.00  0.00     0.049 A 
ATOM     41  N   UNL     1       9.186   0.582   3.340  1.00  0.00    -0.248 NA
ATOM     42  C   UNL     1       7.122   1.616   2.992  1.00  0.00     0.031 C 
ATOM     43  C   UNL     1       7.497  -3.268   1.895  1.00  0.00     0.029 A 
ATOM     44  N   UNL     1       9.290  -2.274   2.777  1.00  0.00    -0.354 N 
ATOM     45  C   UNL     1       9.275   1.918   3.702  1.00  0.00     0.074 A 
ATOM     46  C   UNL     1       7.965   2.500   3.505  1.00  0.00     0.031 C 
ATOM     47  C   UNL     1       8.352  -4.234   2.269  1.00  0.00     0.029 A 
ATOM     48  C   UNL     1       9.547  -3.629   2.850  1.00  0.00     0.049 A 
ATOM     49  H   UNL     1       9.948  -1.587   3.028  1.00  0.00     0.167 HD
ATOM     50  C   UNL     1      10.370   2.613   4.091  1.00  0.00     0.037 A 
ATOM     51  C   UNL     1      10.618  -4.304   3.324  1.00  0.00     0.037 A 
ATOM     52  C   UNL     1      11.680   2.040   4.249  1.00  0.00     0.049 A 
ATOM     53  C   UNL     1      11.833  -3.513   3.745  1.00  0.00     0.074 A 
ATOM     54  C   UNL     1      12.883   2.684   4.479  1.00  0.00     0.029 A 
ATOM     55  N   UNL     1      11.957   0.682   4.195  1.00  0.00    -0.354 N 
ATOM     56  N   UNL     1      11.955  -2.221   3.931  1.00  0.00    -0.248 NA
ATOM     57  C   UNL     1      13.084  -4.265   3.937  1.00  0.00     0.031 C 
ATOM     58  C   UNL     1      13.895   1.719   4.523  1.00  0.00     0.029 A 
ATOM     59  C   UNL     1      13.315   0.470   4.372  1.00  0.00     0.049 A 
ATOM     60  H   UNL     1      11.288  -0.026   4.053  1.00  0.00     0.167 HD
ATOM     61  C   UNL     1      13.299  -2.002   4.215  1.00  0.00     0.074 A 
ATOM     62  C   UNL     1      13.939  -3.299   4.244  1.00  0.00     0.031 C 
ATOM     63  C   UNL     1      13.948  -0.825   4.392  1.00  0.00     0.037 A 
BRANCH  50  64
ATOM     64  C   UNL     1      10.214   4.100   4.205  1.00  0.00     0.058 A 
ATOM     65  C   UNL     1       9.596   4.715   5.302  1.00  0.00     0.135 A 
ATOM     66  C   UNL     1      10.666   4.918   3.156  1.00  0.00     0.135 A 
ATOM     67  F   UNL     1       9.119   3.974   6.314  1.00  0.00    -0.206 F 
ATOM     68  C   UNL     1       9.407   6.094   5.342  1.00  0.00     0.059 A 
ATOM     69  C   UNL     1      10.506   6.298   3.184  1.00  0.00     0.059 A 
ATOM     70  F   UNL     1      11.252   4.373   2.078  1.00  0.00    -0.206 F 
ATOM     71  C   UNL     1       9.857   6.875   4.274  1.00  0.00     0.060 A 
BRANCH  71  72
ATOM     72  S   UNL     1       9.575   8.657   4.317  1.00  0.00     0.124 S 
ATOM     73  O   UNL     1       8.143   8.730   4.041  1.00  0.00    -0.237 OA
ATOM     74  O   UNL     1       9.977   9.006   5.676  1.00  0.00    -0.237 OA
ATOM     75  O   UNL     1      10.444   9.165   3.260  1.00  0.00    -0.744 OA
ENDBRANCH  71  72
ENDBRANCH  50  64
BRANCH  51  76
ATOM     76  C   UNL     1      10.654  -5.800   3.348  1.00  0.00     0.058 A 
ATOM     77  C   UNL     1      10.856  -6.508   4.546  1.00  0.00     0.135 A 
ATOM     78  C   UNL     1      10.533  -6.559   2.173  1.00  0.00     0.135 A 
ATOM     79  F   UNL     1      11.014  -5.844   5.702  1.00  0.00    -0.206 F 
ATOM     80  C   UNL     1      10.935  -7.901   4.577  1.00  0.00     0.059 A 
ATOM     81  C   UNL     1      10.565  -7.951   2.183  1.00  0.00     0.059 A 
ATOM     82  F   UNL     1      10.363  -5.949   0.990  1.00  0.00    -0.206 F 
ATOM     83  C   UNL     1      10.781  -8.614   3.388  1.00  0.00     0.060 A 
BRANCH  83  84
ATOM     84  S   UNL     1      10.817 -10.421   3.424  1.00  0.00     0.124 S 
ATOM     85  O   UNL     1      12.250 -10.687   3.432  1.00  0.00    -0.237 OA
ATOM     86  O   UNL     1      10.103 -10.725   4.660  1.00  0.00    -0.237 OA
ATOM     87  O   UNL     1      10.111 -10.789   2.199  1.00  0.00    -0.744 OA
ENDBRANCH  83  84
ENDBRANCH  51  76
BRANCH  63  88
ATOM     88  C   UNL     1      15.435  -0.871   4.605  1.00  0.00     0.058 A 
ATOM     89  C   UNL     1      16.315  -1.138   3.543  1.00  0.00     0.135 A 
ATOM     90  C   UNL     1      15.992  -0.563   5.856  1.00  0.00     0.135 A 
ATOM     91  F   UNL     1      15.834  -1.441   2.327  1.00  0.00    -0.206 F 
ATOM     92  C   UNL     1      17.695  -1.107   3.716  1.00  0.00     0.059 A 
ATOM     93  C   UNL     1      17.370  -0.506   6.046  1.00  0.00     0.059 A 
ATOM     94  F   UNL     1      15.196  -0.290   6.901  1.00  0.00    -0.206 F 
ATOM     95  C   UNL     1      18.213  -0.785   4.972  1.00  0.00     0.060 A 
BRANCH  95  96
ATOM     96  S   UNL     1      20.006  -0.695   5.171  1.00  0.00     0.124 S 
ATOM     97  O   UNL     1      20.374  -2.107   5.175  1.00  0.00    -0.237 OA
ATOM     98  O   UNL     1      20.416   0.063   3.993  1.00  0.00    -0.237 OA
ATOM     99  O   UNL     1      20.172   0.000   6.444  1.00  0.00    -0.744 OA
ENDBRANCH  95  96
ENDBRANCH  63  88
ENDBRANCH  37  38
ENDBRANCH  30  32
ENDBRANCH  29  30
ENDBRANCH  28  29
ENDBRANCH   1  28
TORSDOF 19
