REMARK SMILES O=C(OCCOC(=O)[C@]1(NC(=O)C2CCN(C(=O)C3CC3)CC2)CCCc2ccccc21)c1ccc(-c2c3nc(c(-c4c(F)cc(S(=O)(=O)[O-])cc4F)c4ccc([nH]4)c(-c4c(F)cc(S(=O)(=O)[O-])cc4F)c4nc(c(-c5c(F)cc(S(=O)(=O)[O-])cc5F)c5ccc2[nH]5)C=C4)C=C3)cc1
REMARK SMILES IDX 4 1 3 2 2 3 1 4 33 5 34 6 98 7 35 8 97 9 36 10 37 11 38 12
REMARK SMILES IDX 91 13 39 14 96 15 90 16 92 17 40 18 95 19 89 20 88 21 41 23
REMARK SMILES IDX 75 24 54 25 74 26 55 27 58 28 73 29 93 30 56 31 57 32 72 34
REMARK SMILES IDX 94 35 59 36 42 37 43 38 52 39 44 40 45 41 51 42 53 43 46 44
REMARK SMILES IDX 47 45 48 46 49 47 50 48 76 49 77 50 86 51 78 52 79 53 85 54
REMARK SMILES IDX 87 55 80 56 81 57 82 58 83 59 84 60 60 61 61 62 70 63 62 64
REMARK SMILES IDX 63 65 69 66 71 67 64 68 65 69 66 70 67 71 68 72 5 73 6 74
REMARK SMILES IDX 7 75 8 76 9 77 24 78 32 79 25 80 27 81 31 82 26 83 28 84
REMARK SMILES IDX 30 85 29 86 10 87 11 88 12 90 13 91 14 92 23 93 15 94 22 95
REMARK SMILES IDX 16 96 17 97 18 98 19 99 20 100 21 101
REMARK H PARENT 92 22 58 33 10 89
REMARK Flexibility Score: inf
ROOT
ATOM      1  C   UNL     1       3.962   0.535   1.409  1.00  0.00     0.275 C 
ENDROOT
BRANCH   1   2
ATOM      2  O   UNL     1       2.821   1.229   0.850  1.00  0.00    -0.458 OA
BRANCH   2   3
ATOM      3  C   UNL     1       2.746   2.114  -0.180  1.00  0.00     0.338 C 
ATOM      4  O   UNL     1       1.937   3.037  -0.110  1.00  0.00    -0.246 OA
BRANCH   3   5
ATOM      5  C   UNL     1       3.389   1.845  -1.509  1.00  0.00     0.060 A 
ATOM      6  C   UNL     1       4.561   1.128  -1.683  1.00  0.00     0.016 A 
ATOM      7  C   UNL     1       2.747   2.301  -2.680  1.00  0.00     0.016 A 
ATOM      8  C   UNL     1       4.996   0.726  -2.954  1.00  0.00     0.010 A 
ATOM      9  C   UNL     1       3.202   1.934  -3.969  1.00  0.00     0.010 A 
ATOM     10  C   UNL     1       4.316   1.098  -4.115  1.00  0.00    -0.014 A 
BRANCH  10  11
ATOM     11  C   UNL     1       5.015   0.845  -5.409  1.00  0.00     0.031 A 
ATOM     12  C   UNL     1       5.937   1.929  -5.876  1.00  0.00     0.074 A 
ATOM     13  C   UNL     1       5.011  -0.342  -6.054  1.00  0.00     0.049 A 
ATOM     14  N   UNL     1       6.674   1.982  -6.950  1.00  0.00    -0.248 NA
ATOM     15  C   UNL     1       6.028   3.118  -5.013  1.00  0.00     0.031 C 
ATOM     16  C   UNL     1       4.236  -1.506  -5.659  1.00  0.00     0.029 A 
ATOM     17  N   UNL     1       5.733  -0.797  -7.138  1.00  0.00    -0.354 N 
ATOM     18  C   UNL     1       7.249   3.243  -6.934  1.00  0.00     0.074 A 
ATOM     19  C   UNL     1       6.809   3.906  -5.728  1.00  0.00     0.031 C 
ATOM     20  C   UNL     1       4.596  -2.568  -6.402  1.00  0.00     0.029 A 
ATOM     21  C   UNL     1       5.582  -2.149  -7.389  1.00  0.00     0.049 A 
ATOM     22  H   UNL     1       6.305  -0.211  -7.684  1.00  0.00     0.167 HD
ATOM     23  C   UNL     1       8.044   3.811  -7.867  1.00  0.00     0.037 A 
ATOM     24  C   UNL     1       6.173  -2.951  -8.304  1.00  0.00     0.037 A 
ATOM     25  C   UNL     1       8.498   3.132  -9.045  1.00  0.00     0.049 A 
ATOM     26  C   UNL     1       7.093  -2.306  -9.315  1.00  0.00     0.074 A 
ATOM     27  C   UNL     1       9.219   3.639 -10.108  1.00  0.00     0.029 A 
ATOM     28  N   UNL     1       8.293   1.784  -9.299  1.00  0.00    -0.354 N 
ATOM     29  N   UNL     1       7.522  -1.066  -9.367  1.00  0.00    -0.248 NA
ATOM     30  C   UNL     1       7.565  -3.147 -10.427  1.00  0.00     0.031 C 
ATOM     31  C   UNL     1       9.435   2.599 -11.018  1.00  0.00     0.029 A 
ATOM     32  C   UNL     1       8.884   1.436 -10.499  1.00  0.00     0.049 A 
ATOM     33  H   UNL     1       7.799   1.166  -8.713  1.00  0.00     0.167 HD
ATOM     34  C   UNL     1       8.297  -0.977 -10.518  1.00  0.00     0.074 A 
ATOM     35  C   UNL     1       8.321  -2.299 -11.109  1.00  0.00     0.031 C 
ATOM     36  C   UNL     1       8.908   0.107 -11.056  1.00  0.00     0.037 A 
BRANCH  23  37
ATOM     37  C   UNL     1       8.345   5.264  -7.673  1.00  0.00     0.058 A 
ATOM     38  C   UNL     1       9.217   5.721  -6.675  1.00  0.00     0.135 A 
ATOM     39  C   UNL     1       7.650   6.218  -8.434  1.00  0.00     0.135 A 
ATOM     40  F   UNL     1       9.863   4.845  -5.888  1.00  0.00    -0.206 F 
ATOM     41  C   UNL     1       9.354   7.077  -6.404  1.00  0.00     0.059 A 
ATOM     42  C   UNL     1       7.795   7.580  -8.200  1.00  0.00     0.059 A 
ATOM     43  F   UNL     1       6.787   5.828  -9.385  1.00  0.00    -0.206 F 
ATOM     44  C   UNL     1       8.630   7.997  -7.165  1.00  0.00     0.060 A 
BRANCH  44  45
ATOM     45  S   UNL     1       8.770   9.754  -6.778  1.00  0.00     0.124 S 
ATOM     46  O   UNL     1       7.958   9.845  -5.563  1.00  0.00    -0.237 OA
ATOM     47  O   UNL     1      10.214   9.913  -6.579  1.00  0.00    -0.237 OA
ATOM     48  O   UNL     1       8.227  10.407  -7.949  1.00  0.00    -0.744 OA
ENDBRANCH  44  45
ENDBRANCH  23  37
BRANCH  24  49
ATOM     49  C   UNL     1       5.907  -4.426  -8.373  1.00  0.00     0.058 A 
ATOM     50  C   UNL     1       6.947  -5.362  -8.224  1.00  0.00     0.135 A 
ATOM     51  C   UNL     1       4.633  -4.937  -8.668  1.00  0.00     0.135 A 
ATOM     52  F   UNL     1       8.195  -4.942  -7.964  1.00  0.00    -0.206 F 
ATOM     53  C   UNL     1       6.742  -6.733  -8.392  1.00  0.00     0.059 A 
ATOM     54  C   UNL     1       4.395  -6.305  -8.807  1.00  0.00     0.059 A 
ATOM     55  F   UNL     1       3.594  -4.104  -8.832  1.00  0.00    -0.206 F 
ATOM     56  C   UNL     1       5.460  -7.196  -8.687  1.00  0.00     0.060 A 
BRANCH  56  57
ATOM     57  S   UNL     1       5.191  -8.973  -8.886  1.00  0.00     0.124 S 
ATOM     58  O   UNL     1       5.740  -9.208 -10.216  1.00  0.00    -0.237 OA
ATOM     59  O   UNL     1       5.952  -9.532  -7.773  1.00  0.00    -0.237 OA
ATOM     60  O   UNL     1       3.741  -9.106  -8.770  1.00  0.00    -0.744 OA
ENDBRANCH  56  57
ENDBRANCH  24  49
BRANCH  36  61
ATOM     61  C   UNL     1       9.665  -0.083 -12.338  1.00  0.00     0.058 A 
ATOM     62  C   UNL     1       9.000  -0.236 -13.564  1.00  0.00     0.135 A 
ATOM     63  C   UNL     1      11.066  -0.006 -12.351  1.00  0.00     0.135 A 
ATOM     64  F   UNL     1       7.661  -0.317 -13.603  1.00  0.00    -0.206 F 
ATOM     65  C   UNL     1       9.701  -0.313 -14.762  1.00  0.00     0.059 A 
ATOM     66  C   UNL     1      11.786  -0.057 -13.540  1.00  0.00     0.059 A 
ATOM     67  F   UNL     1      11.745   0.152 -11.204  1.00  0.00    -0.206 F 
ATOM     68  C   UNL     1      11.094  -0.215 -14.740  1.00  0.00     0.060 A 
BRANCH  68  69
ATOM     69  S   UNL     1      11.988  -0.247 -16.308  1.00  0.00     0.124 S 
ATOM     70  O   UNL     1      11.908  -1.659 -16.664  1.00  0.00    -0.237 OA
ATOM     71  O   UNL     1      11.201   0.662 -17.136  1.00  0.00    -0.237 OA
ATOM     72  O   UNL     1      13.319   0.236 -15.950  1.00  0.00    -0.744 OA
ENDBRANCH  68  69
ENDBRANCH  36  61
ENDBRANCH  10  11
ENDBRANCH   3   5
ENDBRANCH   2   3
ENDBRANCH   1   2
BRANCH   1  73
ATOM     73  C   UNL     1       3.749  -0.981   1.379  1.00  0.00     0.274 C 
BRANCH  73  74
ATOM     74  O   UNL     1       3.564  -1.467   0.037  1.00  0.00    -0.460 OA
BRANCH  74  75
ATOM     75  C   UNL     1       2.354  -2.035  -0.249  1.00  0.00     0.336 C 
ATOM     76  O   UNL     1       1.419  -2.054   0.546  1.00  0.00    -0.249 OA
BRANCH  75  77
ATOM     77  C   UNL     1       2.253  -2.432  -1.756  1.00  0.00     0.164 C 
ATOM     78  C   UNL     1       1.941  -1.156  -2.570  1.00  0.00     0.046 C 
ATOM     79  C   UNL     1       1.012  -3.340  -1.989  1.00  0.00    -0.008 A 
ATOM     80  C   UNL     1       0.658  -0.440  -2.155  1.00  0.00     0.008 C 
ATOM     81  C   UNL     1      -0.273  -2.803  -2.269  1.00  0.00    -0.042 A 
ATOM     82  C   UNL     1       1.158  -4.737  -1.966  1.00  0.00     0.007 A 
ATOM     83  C   UNL     1      -0.550  -1.324  -2.400  1.00  0.00     0.036 C 
ATOM     84  C   UNL     1      -1.352  -3.665  -2.526  1.00  0.00     0.004 A 
ATOM     85  C   UNL     1       0.081  -5.577  -2.253  1.00  0.00     0.000 A 
ATOM     86  C   UNL     1      -1.172  -5.043  -2.529  1.00  0.00     0.000 A 
BRANCH  77  87
ATOM     87  N   UNL     1       3.463  -3.114  -2.381  1.00  0.00    -0.336 N 
ATOM     88  C   UNL     1       4.820  -3.011  -2.400  1.00  0.00     0.224 C 
ATOM     89  H   UNL     1       3.173  -3.863  -2.950  1.00  0.00     0.164 HD
ATOM     90  O   UNL     1       5.344  -3.085  -3.513  1.00  0.00    -0.275 OA
BRANCH  88  91
ATOM     91  C   UNL     1       5.731  -3.098  -1.170  1.00  0.00     0.082 C 
ATOM     92  C   UNL     1       6.491  -1.801  -0.861  1.00  0.00     0.035 C 
ATOM     93  C   UNL     1       6.779  -4.239  -1.375  1.00  0.00     0.035 C 
ATOM     94  C   UNL     1       7.647  -1.512  -1.819  1.00  0.00     0.120 C 
ATOM     95  C   UNL     1       8.000  -3.847  -2.240  1.00  0.00     0.120 C 
ATOM     96  N   UNL     1       8.585  -2.612  -1.725  1.00  0.00    -0.342 N 
ATOM     97  C   UNL     1       9.756  -2.392  -1.002  1.00  0.00     0.225 C 
ATOM     98  O   UNL     1       9.970  -1.297  -0.473  1.00  0.00    -0.275 OA
BRANCH  97  99
ATOM     99  C   UNL     1      10.816  -3.413  -0.769  1.00  0.00     0.079 C 
ATOM    100  C   UNL     1      10.607  -4.882  -0.548  1.00  0.00     0.014 C 
ATOM    101  C   UNL     1      11.291  -4.394  -1.802  1.00  0.00     0.014 C 
ENDBRANCH  97  99
ENDBRANCH  88  91
ENDBRANCH  77  87
ENDBRANCH  75  77
ENDBRANCH  74  75
ENDBRANCH  73  74
ENDBRANCH   1  73
TORSDOF 17
