REMARK SMILES C[C@H](Oc1ccc([N+](=O)[O-])cc1F)C(=O)OCCOC(=O)c1ccc(-c2c3nc(c(-c4c(F)cc(S(=O)(=O)[O-])cc4F)c4ccc([nH]4)c(-c4c(F)cc(S(=O)(=O)[O-])cc4F)c4nc(c(-c5c(F)cc(S(=O)(=O)[O-])cc5F)c5ccc2[nH]5)C=C4)C=C3)cc1
REMARK SMILES IDX 17 1 16 2 14 3 15 4 2 5 1 6 3 7 4 8 5 9 12 10 6 11 11 12
REMARK SMILES IDX 13 13 7 14 8 15 9 16 10 17 18 18 19 19 20 20 21 21 22 22
REMARK SMILES IDX 23 23 87 24 24 25 86 26 25 27 26 28 27 29 80 30 28 31 85 32
REMARK SMILES IDX 79 33 81 34 29 35 84 36 78 37 77 38 30 40 64 41 43 42 63 43
REMARK SMILES IDX 44 44 47 45 62 46 82 47 45 48 46 49 61 51 83 52 48 53 31 54
REMARK SMILES IDX 32 55 41 56 33 57 34 58 40 59 42 60 35 61 36 62 37 63 38 64
REMARK SMILES IDX 39 65 65 66 66 67 75 68 67 69 68 70 74 71 76 72 69 73 70 74
REMARK SMILES IDX 71 75 72 76 73 77 49 78 50 79 59 80 51 81 52 82 58 83 60 84
REMARK SMILES IDX 53 85 54 86 55 87 56 88 57 89
REMARK H PARENT 81 39 47 50
REMARK Flexibility Score: inf
ROOT
ATOM      1  C   UNL     1      -3.029   0.393  -1.222  1.00  0.00     0.274 C 
ENDROOT
BRANCH   1   2
ATOM      2  O   UNL     1      -1.611   0.208  -1.386  1.00  0.00    -0.459 OA
BRANCH   2   3
ATOM      3  C   UNL     1      -0.850   1.338  -1.441  1.00  0.00     0.347 C 
ATOM      4  O   UNL     1      -1.295   2.479  -1.378  1.00  0.00    -0.248 OA
BRANCH   3   5
ATOM      5  C   UNL     1       0.629   1.036  -1.703  1.00  0.00     0.279 C 
ATOM      6  C   UNL     1       0.789   0.955  -3.221  1.00  0.00     0.066 C 
BRANCH   5   7
ATOM      7  O   UNL     1       1.032  -0.171  -1.057  1.00  0.00    -0.476 OA
BRANCH   7   8
ATOM      8  C   UNL     1       2.361  -0.484  -0.972  1.00  0.00     0.156 A 
ATOM      9  C   UNL     1       3.422   0.325  -1.388  1.00  0.00     0.057 A 
ATOM     10  C   UNL     1       2.650  -1.756  -0.458  1.00  0.00     0.171 A 
ATOM     11  C   UNL     1       4.734  -0.168  -1.379  1.00  0.00     0.089 A 
ATOM     12  C   UNL     1       3.949  -2.257  -0.421  1.00  0.00     0.128 A 
ATOM     13  F   UNL     1       1.656  -2.547  -0.025  1.00  0.00    -0.203 F 
ATOM     14  C   UNL     1       4.987  -1.466  -0.916  1.00  0.00     0.272 A 
BRANCH  14  15
ATOM     15  N   UNL     1       6.342  -2.019  -1.004  1.00  0.00     0.062 N 
ATOM     16  O   UNL     1       7.172  -1.398  -1.682  1.00  0.00    -0.258 OA
ATOM     17  O   UNL     1       6.566  -3.092  -0.427  1.00  0.00    -0.258 OA
ENDBRANCH  14  15
ENDBRANCH   7   8
ENDBRANCH   5   7
ENDBRANCH   3   5
ENDBRANCH   2   3
ENDBRANCH   1   2
BRANCH   1  18
ATOM     18  C   UNL     1      -3.472   0.253   0.237  1.00  0.00     0.275 C 
BRANCH  18  19
ATOM     19  O   UNL     1      -3.032   1.364   1.037  1.00  0.00    -0.458 OA
BRANCH  19  20
ATOM     20  C   UNL     1      -1.812   1.197   1.602  1.00  0.00     0.338 C 
ATOM     21  O   UNL     1      -1.110   0.202   1.542  1.00  0.00    -0.246 OA
BRANCH  20  22
ATOM     22  C   UNL     1      -1.352   2.452   2.220  1.00  0.00     0.060 A 
ATOM     23  C   UNL     1      -0.035   2.848   1.960  1.00  0.00     0.016 A 
ATOM     24  C   UNL     1      -2.150   3.174   3.111  1.00  0.00     0.016 A 
ATOM     25  C   UNL     1       0.503   3.946   2.624  1.00  0.00     0.010 A 
ATOM     26  C   UNL     1      -1.606   4.275   3.781  1.00  0.00     0.010 A 
ATOM     27  C   UNL     1      -0.267   4.644   3.564  1.00  0.00    -0.014 A 
BRANCH  27  28
ATOM     28  C   UNL     1       0.390   5.673   4.402  1.00  0.00     0.031 A 
ATOM     29  C   UNL     1       0.835   5.312   5.792  1.00  0.00     0.074 A 
ATOM     30  C   UNL     1       0.657   6.891   3.897  1.00  0.00     0.049 A 
ATOM     31  N   UNL     1       1.465   6.043   6.674  1.00  0.00    -0.248 NA
ATOM     32  C   UNL     1       0.536   3.944   6.246  1.00  0.00     0.031 C 
ATOM     33  C   UNL     1       0.309   7.337   2.548  1.00  0.00     0.029 A 
ATOM     34  N   UNL     1       1.299   7.967   4.454  1.00  0.00    -0.354 N 
ATOM     35  C   UNL     1       1.640   5.227   7.785  1.00  0.00     0.074 A 
ATOM     36  C   UNL     1       1.022   3.955   7.479  1.00  0.00     0.031 C 
ATOM     37  C   UNL     1       0.756   8.592   2.376  1.00  0.00     0.029 A 
ATOM     38  C   UNL     1       1.401   9.045   3.608  1.00  0.00     0.049 A 
ATOM     39  H   UNL     1       1.653   7.967   5.372  1.00  0.00     0.167 HD
ATOM     40  C   UNL     1       2.270   5.509   8.951  1.00  0.00     0.037 A 
ATOM     41  C   UNL     1       1.952  10.258   3.805  1.00  0.00     0.037 A 
ATOM     42  C   UNL     1       2.882   6.776   9.252  1.00  0.00     0.049 A 
ATOM     43  C   UNL     1       2.616  10.562   5.121  1.00  0.00     0.074 A 
ATOM     44  C   UNL     1       3.518   7.171  10.416  1.00  0.00     0.029 A 
ATOM     45  N   UNL     1       2.940   7.854   8.380  1.00  0.00    -0.354 N 
ATOM     46  N   UNL     1       2.756   9.787   6.170  1.00  0.00    -0.248 NA
ATOM     47  C   UNL     1       3.203  11.900   5.278  1.00  0.00     0.031 C 
ATOM     48  C   UNL     1       3.938   8.497  10.256  1.00  0.00     0.029 A 
ATOM     49  C   UNL     1       3.599   8.914   8.979  1.00  0.00     0.049 A 
ATOM     50  H   UNL     1       2.567   7.863   7.469  1.00  0.00     0.167 HD
ATOM     51  C   UNL     1       3.466  10.534   7.104  1.00  0.00     0.074 A 
ATOM     52  C   UNL     1       3.732  11.821   6.492  1.00  0.00     0.031 C 
ATOM     53  C   UNL     1       3.864  10.184   8.352  1.00  0.00     0.037 A 
BRANCH  40  54
ATOM     54  C   UNL     1       2.311   4.427   9.992  1.00  0.00     0.058 A 
ATOM     55  C   UNL     1       1.513   4.513  11.143  1.00  0.00     0.135 A 
ATOM     56  C   UNL     1       3.154   3.312   9.859  1.00  0.00     0.135 A 
ATOM     57  F   UNL     1       0.682   5.553  11.314  1.00  0.00    -0.206 F 
ATOM     58  C   UNL     1       1.551   3.532  12.128  1.00  0.00     0.059 A 
ATOM     59  C   UNL     1       3.193   2.308  10.823  1.00  0.00     0.059 A 
ATOM     60  F   UNL     1       3.918   3.170   8.764  1.00  0.00    -0.206 F 
ATOM     61  C   UNL     1       2.394   2.433  11.959  1.00  0.00     0.060 A 
BRANCH  61  62
ATOM     62  S   UNL     1       2.385   1.135  13.215  1.00  0.00     0.124 S 
ATOM     63  O   UNL     1       3.131   1.763  14.300  1.00  0.00    -0.237 OA
ATOM     64  O   UNL     1       0.957   0.944  13.452  1.00  0.00    -0.237 OA
ATOM     65  O   UNL     1       3.053   0.019  12.551  1.00  0.00    -0.744 OA
ENDBRANCH  61  62
ENDBRANCH  40  54
BRANCH  41  66
ATOM     66  C   UNL     1       1.919  11.261   2.711  1.00  0.00     0.058 A 
ATOM     67  C   UNL     1       0.719  11.886   2.338  1.00  0.00     0.135 A 
ATOM     68  C   UNL     1       3.076  11.578   1.985  1.00  0.00     0.135 A 
ATOM     69  F   UNL     1      -0.416  11.612   2.999  1.00  0.00    -0.206 F 
ATOM     70  C   UNL     1       0.661  12.765   1.263  1.00  0.00     0.059 A 
ATOM     71  C   UNL     1       3.048  12.472   0.918  1.00  0.00     0.059 A 
ATOM     72  F   UNL     1       4.249  11.015   2.315  1.00  0.00    -0.206 F 
ATOM     73  C   UNL     1       1.829  13.044   0.552  1.00  0.00     0.060 A 
BRANCH  73  74
ATOM     74  S   UNL     1       1.728  14.162  -0.862  1.00  0.00     0.124 S 
ATOM     75  O   UNL     1       1.030  13.332  -1.838  1.00  0.00    -0.237 OA
ATOM     76  O   UNL     1       0.965  15.280  -0.317  1.00  0.00    -0.237 OA
ATOM     77  O   UNL     1       3.126  14.449  -1.166  1.00  0.00    -0.744 OA
ENDBRANCH  73  74
ENDBRANCH  41  66
BRANCH  53  78
ATOM     78  C   UNL     1       4.658  11.190   9.136  1.00  0.00     0.058 A 
ATOM     79  C   UNL     1       6.033  10.999   9.345  1.00  0.00     0.135 A 
ATOM     80  C   UNL     1       4.050  12.304   9.735  1.00  0.00     0.135 A 
ATOM     81  F   UNL     1       6.661   9.946   8.797  1.00  0.00    -0.206 F 
ATOM     82  C   UNL     1       6.777  11.872  10.130  1.00  0.00     0.059 A 
ATOM     83  C   UNL     1       4.780  13.202  10.508  1.00  0.00     0.059 A 
ATOM     84  F   UNL     1       2.740  12.535   9.557  1.00  0.00    -0.206 F 
ATOM     85  C   UNL     1       6.141  12.969  10.712  1.00  0.00     0.060 A 
BRANCH  85  86
ATOM     86  S   UNL     1       7.123  14.110  11.710  1.00  0.00     0.124 S 
ATOM     87  O   UNL     1       7.301  13.350  12.942  1.00  0.00    -0.237 OA
ATOM     88  O   UNL     1       8.321  14.286  10.894  1.00  0.00    -0.237 OA
ATOM     89  O   UNL     1       6.268  15.288  11.814  1.00  0.00    -0.744 OA
ENDBRANCH  85  86
ENDBRANCH  53  78
ENDBRANCH  27  28
ENDBRANCH  20  22
ENDBRANCH  19  20
ENDBRANCH  18  19
ENDBRANCH   1  18
TORSDOF 17
