REMARK SMILES COc1ccc([C@H]2CC(c3ccccc3)=NN2C(=O)CCCC(=O)OCCOC(=O)c2ccc(-c3c4nc(c(-c5c(F)cc(S(=O)(=O)[O-])cc5F)c5ccc([nH]5)c(-c5c(F)cc(S(=O)(=O)[O-])cc5F)c5nc(c(-c6c(F)cc(S(=O)(=O)[O-])cc6F)c6ccc3[nH]6)C=C5)C=C4)cc2)cc1
REMARK SMILES IDX 25 1 23 2 24 3 22 4 21 5 20 6 18 7 19 8 17 9 7 10 8 11 9 12
REMARK SMILES IDX 16 13 6 14 3 15 4 16 98 17 5 18 97 19 2 20 1 21 10 22 11 23
REMARK SMILES IDX 15 24 12 25 14 26 13 27 26 28 27 29 28 30 29 31 30 32 31 33
REMARK SMILES IDX 32 34 96 35 33 36 95 37 34 38 35 39 36 40 89 41 37 42 94 43
REMARK SMILES IDX 88 44 90 45 38 46 93 47 87 48 86 49 39 51 73 52 52 53 72 54
REMARK SMILES IDX 53 55 56 56 71 57 91 58 54 59 55 60 70 62 92 63 57 64 40 65
REMARK SMILES IDX 41 66 50 67 42 68 43 69 49 70 51 71 44 72 45 73 46 74 47 75
REMARK SMILES IDX 48 76 74 77 75 78 84 79 76 80 77 81 83 82 85 83 78 84 79 85
REMARK SMILES IDX 80 86 81 87 82 88 58 89 59 90 68 91 60 92 61 93 67 94 69 95
REMARK SMILES IDX 62 96 63 97 64 98 65 99 66 100
REMARK H PARENT 90 50 56 61
REMARK Flexibility Score: inf
ROOT
ATOM      1  O   UNL     1      -1.544  -6.924  -2.568  1.00  0.00    -0.462 OA
ENDROOT
BRANCH   1   2
ATOM      2  C   UNL     1      -0.707  -5.860  -2.478  1.00  0.00     0.305 C 
ATOM      3  O   UNL     1      -0.656  -4.954  -3.299  1.00  0.00    -0.252 OA
BRANCH   2   4
ATOM      4  C   UNL     1       0.176  -5.920  -1.259  1.00  0.00     0.123 C 
BRANCH   4   5
ATOM      5  C   UNL     1       1.205  -7.046  -1.258  1.00  0.00     0.022 C 
BRANCH   5   6
ATOM      6  C   UNL     1       1.853  -7.363  -2.603  1.00  0.00     0.103 C 
BRANCH   6   7
ATOM      7  C   UNL     1       3.271  -6.854  -2.818  1.00  0.00     0.243 C 
ATOM      8  O   UNL     1       4.216  -7.482  -2.332  1.00  0.00    -0.273 OA
BRANCH   7   9
ATOM      9  N   UNL     1       3.419  -5.820  -3.726  1.00  0.00    -0.225 N 
ATOM     10  C   UNL     1       2.567  -4.641  -3.937  1.00  0.00     0.147 C 
ATOM     11  C   UNL     1       3.016  -4.095  -5.285  1.00  0.00     0.091 C 
ATOM     12  C   UNL     1       4.226  -4.952  -5.513  1.00  0.00     0.071 C 
ATOM     13  N   UNL     1       4.433  -5.901  -4.653  1.00  0.00    -0.174 NA
BRANCH  10  14
ATOM     14  C   UNL     1       2.708  -3.596  -2.840  1.00  0.00    -0.023 A 
ATOM     15  C   UNL     1       2.883  -1.663  -0.782  1.00  0.00     0.118 A 
ATOM     16  C   UNL     1       1.665  -1.939  -1.386  1.00  0.00     0.047 A 
ATOM     17  C   UNL     1       4.013  -2.364  -1.195  1.00  0.00     0.047 A 
ATOM     18  C   UNL     1       1.590  -2.852  -2.441  1.00  0.00     0.010 A 
ATOM     19  C   UNL     1       3.931  -3.324  -2.212  1.00  0.00     0.010 A 
BRANCH  15  20
ATOM     20  O   UNL     1       3.070  -0.757   0.223  1.00  0.00    -0.497 OA
ATOM     21  C   UNL     1       2.142   0.327   0.294  1.00  0.00     0.278 C 
ENDBRANCH  15  20
ENDBRANCH  10  14
BRANCH  12  22
ATOM     22  C   UNL     1       5.041  -4.779  -6.718  1.00  0.00    -0.002 A 
ATOM     23  C   UNL     1       5.240  -5.882  -7.553  1.00  0.00     0.010 A 
ATOM     24  C   UNL     1       5.599  -3.538  -7.023  1.00  0.00     0.010 A 
ATOM     25  C   UNL     1       6.005  -5.740  -8.709  1.00  0.00     0.001 A 
ATOM     26  C   UNL     1       6.379  -3.408  -8.172  1.00  0.00     0.001 A 
ATOM     27  C   UNL     1       6.579  -4.505  -9.014  1.00  0.00     0.000 A 
ENDBRANCH  12  22
ENDBRANCH   7   9
ENDBRANCH   6   7
ENDBRANCH   5   6
ENDBRANCH   4   5
ENDBRANCH   2   4
ENDBRANCH   1   2
BRANCH   1  28
ATOM     28  C   UNL     1      -2.451  -6.862  -3.684  1.00  0.00     0.274 C 
BRANCH  28  29
ATOM     29  C   UNL     1      -3.749  -6.143  -3.310  1.00  0.00     0.275 C 
BRANCH  29  30
ATOM     30  O   UNL     1      -3.525  -4.761  -2.954  1.00  0.00    -0.458 OA
BRANCH  30  31
ATOM     31  C   UNL     1      -3.567  -4.488  -1.630  1.00  0.00     0.338 C 
ATOM     32  O   UNL     1      -3.765  -5.302  -0.730  1.00  0.00    -0.246 OA
BRANCH  31  33
ATOM     33  C   UNL     1      -3.348  -3.054  -1.345  1.00  0.00     0.060 A 
ATOM     34  C   UNL     1      -2.287  -2.352  -1.909  1.00  0.00     0.016 A 
ATOM     35  C   UNL     1      -4.136  -2.432  -0.376  1.00  0.00     0.016 A 
ATOM     36  C   UNL     1      -1.954  -1.078  -1.419  1.00  0.00     0.010 A 
ATOM     37  C   UNL     1      -3.849  -1.123   0.041  1.00  0.00     0.010 A 
ATOM     38  C   UNL     1      -2.710  -0.439  -0.420  1.00  0.00    -0.014 A 
BRANCH  38  39
ATOM     39  C   UNL     1      -2.302   0.875   0.203  1.00  0.00     0.031 A 
ATOM     40  C   UNL     1      -2.339   1.049   1.713  1.00  0.00     0.074 A 
ATOM     41  C   UNL     1      -1.889   1.939  -0.519  1.00  0.00     0.049 A 
ATOM     42  N   UNL     1      -2.364   2.150   2.426  1.00  0.00    -0.248 NA
ATOM     43  C   UNL     1      -2.375  -0.179   2.522  1.00  0.00     0.031 C 
ATOM     44  C   UNL     1      -1.711   1.980  -1.969  1.00  0.00     0.029 A 
ATOM     45  N   UNL     1      -1.541   3.213  -0.115  1.00  0.00    -0.354 N 
ATOM     46  C   UNL     1      -2.539   1.750   3.749  1.00  0.00     0.074 A 
ATOM     47  C   UNL     1      -2.581   0.302   3.740  1.00  0.00     0.031 C 
ATOM     48  C   UNL     1      -1.238   3.183  -2.326  1.00  0.00     0.029 A 
ATOM     49  C   UNL     1      -1.207   4.051  -1.153  1.00  0.00     0.049 A 
ATOM     50  H   UNL     1      -1.532   3.494   0.828  1.00  0.00     0.167 HD
ATOM     51  C   UNL     1      -2.666   2.512   4.865  1.00  0.00     0.037 A 
ATOM     52  C   UNL     1      -0.975   5.380  -1.197  1.00  0.00     0.037 A 
ATOM     53  C   UNL     1      -2.499   3.944   4.907  1.00  0.00     0.049 A 
ATOM     54  C   UNL     1      -1.106   6.217   0.042  1.00  0.00     0.074 A 
ATOM     55  C   UNL     1      -2.573   4.788   6.004  1.00  0.00     0.029 A 
ATOM     56  N   UNL     1      -2.190   4.741   3.817  1.00  0.00    -0.354 N 
ATOM     57  N   UNL     1      -1.413   5.843   1.259  1.00  0.00    -0.248 NA
ATOM     58  C   UNL     1      -0.896   7.666  -0.108  1.00  0.00     0.031 C 
ATOM     59  C   UNL     1      -2.334   6.098   5.572  1.00  0.00     0.029 A 
ATOM     60  C   UNL     1      -2.073   6.065   4.213  1.00  0.00     0.049 A 
ATOM     61  H   UNL     1      -2.070   4.415   2.896  1.00  0.00     0.167 HD
ATOM     62  C   UNL     1      -1.442   7.008   2.018  1.00  0.00     0.074 A 
ATOM     63  C   UNL     1      -1.097   8.098   1.130  1.00  0.00     0.031 C 
ATOM     64  C   UNL     1      -1.741   7.156   3.332  1.00  0.00     0.037 A 
BRANCH  51  65
ATOM     65  C   UNL     1      -3.058   1.818   6.144  1.00  0.00     0.058 A 
ATOM     66  C   UNL     1      -2.174   1.007   6.871  1.00  0.00     0.135 A 
ATOM     67  C   UNL     1      -4.352   2.003   6.665  1.00  0.00     0.135 A 
ATOM     68  F   UNL     1      -0.930   0.790   6.417  1.00  0.00    -0.206 F 
ATOM     69  C   UNL     1      -2.571   0.368   8.043  1.00  0.00     0.059 A 
ATOM     70  C   UNL     1      -4.761   1.398   7.849  1.00  0.00     0.059 A 
ATOM     71  F   UNL     1      -5.236   2.779   6.018  1.00  0.00    -0.206 F 
ATOM     72  C   UNL     1      -3.869   0.563   8.520  1.00  0.00     0.060 A 
BRANCH  72  73
ATOM     73  S   UNL     1      -4.384  -0.289  10.026  1.00  0.00     0.124 S 
ATOM     74  O   UNL     1      -4.627  -1.638   9.526  1.00  0.00    -0.237 OA
ATOM     75  O   UNL     1      -3.219  -0.134  10.891  1.00  0.00    -0.237 OA
ATOM     76  O   UNL     1      -5.572   0.449  10.444  1.00  0.00    -0.744 OA
ENDBRANCH  72  73
ENDBRANCH  51  65
BRANCH  52  77
ATOM     77  C   UNL     1      -0.663   6.013  -2.507  1.00  0.00     0.058 A 
ATOM     78  C   UNL     1       0.634   6.453  -2.806  1.00  0.00     0.135 A 
ATOM     79  C   UNL     1      -1.640   6.119  -3.510  1.00  0.00     0.135 A 
ATOM     80  F   UNL     1       1.594   6.395  -1.870  1.00  0.00    -0.206 F 
ATOM     81  C   UNL     1       0.961   6.946  -4.064  1.00  0.00     0.059 A 
ATOM     82  C   UNL     1      -1.331   6.581  -4.783  1.00  0.00     0.059 A 
ATOM     83  F   UNL     1      -2.895   5.707  -3.271  1.00  0.00    -0.206 F 
ATOM     84  C   UNL     1      -0.025   6.988  -5.053  1.00  0.00     0.060 A 
BRANCH  84  85
ATOM     85  S   UNL     1       0.437   7.486  -6.726  1.00  0.00     0.124 S 
ATOM     86  O   UNL     1       0.488   8.937  -6.598  1.00  0.00    -0.237 OA
ATOM     87  O   UNL     1       1.721   6.813  -6.906  1.00  0.00    -0.237 OA
ATOM     88  O   UNL     1      -0.653   6.958  -7.542  1.00  0.00    -0.744 OA
ENDBRANCH  84  85
ENDBRANCH  52  77
BRANCH  64  89
ATOM     89  C   UNL     1      -1.696   8.547   3.903  1.00  0.00     0.058 A 
ATOM     90  C   UNL     1      -2.709   9.482   3.639  1.00  0.00     0.135 A 
ATOM     91  C   UNL     1      -0.644   8.942   4.745  1.00  0.00     0.135 A 
ATOM     92  F   UNL     1      -3.734   9.159   2.834  1.00  0.00    -0.206 F 
ATOM     93  C   UNL     1      -2.671  10.768   4.173  1.00  0.00     0.059 A 
ATOM     94  C   UNL     1      -0.595  10.216   5.305  1.00  0.00     0.059 A 
ATOM     95  F   UNL     1       0.347   8.084   5.035  1.00  0.00    -0.206 F 
ATOM     96  C   UNL     1      -1.607  11.126   5.003  1.00  0.00     0.060 A 
BRANCH  96  97
ATOM     97  S   UNL     1      -1.573  12.792   5.701  1.00  0.00     0.124 S 
ATOM     98  O   UNL     1      -1.160  13.585   4.548  1.00  0.00    -0.237 OA
ATOM     99  O   UNL     1      -2.953  12.979   6.138  1.00  0.00    -0.237 OA
ATOM    100  O   UNL     1      -0.590  12.689   6.776  1.00  0.00    -0.744 OA
ENDBRANCH  96  97
ENDBRANCH  64  89
ENDBRANCH  38  39
ENDBRANCH  31  33
ENDBRANCH  30  31
ENDBRANCH  29  30
ENDBRANCH  28  29
ENDBRANCH   1  28
TORSDOF 21
