REMARK SMILES O=C(OCCOC(=O)[C@H]1CCCN(C(=O)C2CCN(S(=O)(=O)c3ccccc3)CC2)C1)c1ccc(-c2c3nc(c(-c4c(F)cc(S(=O)(=O)[O-])cc4F)c4ccc([nH]4)c(-c4c(F)cc(S(=O)(=O)[O-])cc4F)c4nc(c(-c5c(F)cc(S(=O)(=O)[O-])cc5F)c5ccc2[nH]5)C=C4)C=C3)cc1
REMARK SMILES IDX 5 1 4 2 3 3 2 4 1 5 32 6 33 7 97 8 34 9 96 10 35 11 36 12
REMARK SMILES IDX 37 13 90 14 38 15 95 16 89 17 91 18 39 19 94 20 88 21 87 22
REMARK SMILES IDX 40 24 74 25 53 26 73 27 54 28 57 29 72 30 92 31 55 32 56 33
REMARK SMILES IDX 71 35 93 36 58 37 41 38 42 39 51 40 43 41 44 42 50 43 52 44
REMARK SMILES IDX 45 45 46 46 47 47 48 48 49 49 75 50 76 51 85 52 77 53 78 54
REMARK SMILES IDX 84 55 86 56 79 57 80 58 81 59 82 60 83 61 59 62 60 63 69 64
REMARK SMILES IDX 61 65 62 66 68 67 70 68 63 69 64 70 65 71 66 72 67 73 6 74
REMARK SMILES IDX 7 75 8 76 9 77 10 78 31 79 11 80 13 81 12 82 14 83 15 84
REMARK SMILES IDX 16 85 17 86 30 87 18 88 29 89 19 90 20 91 21 92 22 93 23 94
REMARK SMILES IDX 24 95 28 96 25 97 27 98 26 99
REMARK H PARENT 91 23 57 34
REMARK Flexibility Score: inf
ROOT
ATOM      1  C   UNL     1       4.269  -0.491  -6.196  1.00  0.00     0.274 C 
ENDROOT
BRANCH   1   2
ATOM      2  C   UNL     1       5.458   0.465  -6.055  1.00  0.00     0.275 C 
BRANCH   2   3
ATOM      3  O   UNL     1       5.967   0.522  -4.713  1.00  0.00    -0.458 OA
BRANCH   3   4
ATOM      4  C   UNL     1       5.874   1.579  -3.865  1.00  0.00     0.338 C 
ATOM      5  O   UNL     1       6.771   1.766  -3.045  1.00  0.00    -0.246 OA
BRANCH   4   6
ATOM      6  C   UNL     1       4.604   2.360  -3.713  1.00  0.00     0.060 A 
ATOM      7  C   UNL     1       3.794   2.858  -4.742  1.00  0.00     0.016 A 
ATOM      8  C   UNL     1       4.216   2.626  -2.391  1.00  0.00     0.016 A 
ATOM      9  C   UNL     1       2.595   3.546  -4.463  1.00  0.00     0.010 A 
ATOM     10  C   UNL     1       3.014   3.284  -2.114  1.00  0.00     0.010 A 
ATOM     11  C   UNL     1       2.185   3.756  -3.146  1.00  0.00    -0.014 A 
BRANCH  11  12
ATOM     12  C   UNL     1       1.015   4.611  -2.778  1.00  0.00     0.031 A 
ATOM     13  C   UNL     1       1.311   5.845  -1.965  1.00  0.00     0.074 A 
ATOM     14  C   UNL     1      -0.264   4.244  -3.010  1.00  0.00     0.049 A 
ATOM     15  N   UNL     1       0.524   6.575  -1.224  1.00  0.00    -0.248 NA
ATOM     16  C   UNL     1       2.724   6.267  -1.942  1.00  0.00     0.031 C 
ATOM     17  C   UNL     1      -0.686   3.041  -3.725  1.00  0.00     0.029 A 
ATOM     18  N   UNL     1      -1.449   4.793  -2.564  1.00  0.00    -0.354 N 
ATOM     19  C   UNL     1       1.352   7.520  -0.628  1.00  0.00     0.074 A 
ATOM     20  C   UNL     1       2.709   7.201  -1.008  1.00  0.00     0.031 C 
ATOM     21  C   UNL     1      -2.011   2.870  -3.561  1.00  0.00     0.029 A 
ATOM     22  C   UNL     1      -2.541   3.964  -2.749  1.00  0.00     0.049 A 
ATOM     23  H   UNL     1      -1.511   5.686  -2.155  1.00  0.00     0.167 HD
ATOM     24  C   UNL     1       1.014   8.598   0.119  1.00  0.00     0.037 A 
ATOM     25  C   UNL     1      -3.795   4.048  -2.250  1.00  0.00     0.037 A 
ATOM     26  C   UNL     1      -0.341   8.929   0.453  1.00  0.00     0.049 A 
ATOM     27  C   UNL     1      -4.154   5.225  -1.373  1.00  0.00     0.074 A 
ATOM     28  C   UNL     1      -0.825  10.049   1.100  1.00  0.00     0.029 A 
ATOM     29  N   UNL     1      -1.432   8.126   0.154  1.00  0.00    -0.354 N 
ATOM     30  N   UNL     1      -3.384   6.180  -0.907  1.00  0.00    -0.248 NA
ATOM     31  C   UNL     1      -5.569   5.354  -0.987  1.00  0.00     0.031 C 
ATOM     32  C   UNL     1      -2.214   9.914   1.212  1.00  0.00     0.029 A 
ATOM     33  C   UNL     1      -2.591   8.722   0.611  1.00  0.00     0.049 A 
ATOM     34  H   UNL     1      -1.387   7.261  -0.314  1.00  0.00     0.167 HD
ATOM     35  C   UNL     1      -4.218   7.019  -0.179  1.00  0.00     0.074 A 
ATOM     36  C   UNL     1      -5.552   6.463  -0.258  1.00  0.00     0.031 C 
ATOM     37  C   UNL     1      -3.911   8.163   0.479  1.00  0.00     0.037 A 
BRANCH  24  38
ATOM     38  C   UNL     1       2.138   9.490   0.567  1.00  0.00     0.058 A 
ATOM     39  C   UNL     1       2.904  10.216  -0.365  1.00  0.00     0.135 A 
ATOM     40  C   UNL     1       2.510   9.565   1.917  1.00  0.00     0.135 A 
ATOM     41  F   UNL     1       2.595  10.177  -1.671  1.00  0.00    -0.206 F 
ATOM     42  C   UNL     1       4.051  10.901   0.013  1.00  0.00     0.059 A 
ATOM     43  C   UNL     1       3.636  10.276   2.322  1.00  0.00     0.059 A 
ATOM     44  F   UNL     1       1.803   8.914   2.853  1.00  0.00    -0.206 F 
ATOM     45  C   UNL     1       4.422  10.906   1.357  1.00  0.00     0.060 A 
BRANCH  45  46
ATOM     46  S   UNL     1       5.965  11.718   1.824  1.00  0.00     0.124 S 
ATOM     47  O   UNL     1       6.947  10.706   1.445  1.00  0.00    -0.237 OA
ATOM     48  O   UNL     1       5.951  12.924   1.003  1.00  0.00    -0.237 OA
ATOM     49  O   UNL     1       5.808  11.937   3.258  1.00  0.00    -0.744 OA
ENDBRANCH  45  46
ENDBRANCH  24  38
BRANCH  25  50
ATOM     50  C   UNL     1      -4.782   2.945  -2.461  1.00  0.00     0.058 A 
ATOM     51  C   UNL     1      -5.336   2.657  -3.716  1.00  0.00     0.135 A 
ATOM     52  C   UNL     1      -5.193   2.142  -1.385  1.00  0.00     0.135 A 
ATOM     53  F   UNL     1      -5.022   3.414  -4.779  1.00  0.00    -0.206 F 
ATOM     54  C   UNL     1      -6.208   1.583  -3.906  1.00  0.00     0.059 A 
ATOM     55  C   UNL     1      -6.048   1.057  -1.548  1.00  0.00     0.059 A 
ATOM     56  F   UNL     1      -4.784   2.424  -0.142  1.00  0.00    -0.206 F 
ATOM     57  C   UNL     1      -6.545   0.778  -2.817  1.00  0.00     0.060 A 
BRANCH  57  58
ATOM     58  S   UNL     1      -7.581  -0.685  -3.038  1.00  0.00     0.124 S 
ATOM     59  O   UNL     1      -8.868  -0.215  -2.538  1.00  0.00    -0.237 OA
ATOM     60  O   UNL     1      -7.508  -0.927  -4.476  1.00  0.00    -0.237 OA
ATOM     61  O   UNL     1      -6.898  -1.674  -2.209  1.00  0.00    -0.744 OA
ENDBRANCH  57  58
ENDBRANCH  25  50
BRANCH  37  62
ATOM     62  C   UNL     1      -5.039   8.955   1.065  1.00  0.00     0.058 A 
ATOM     63  C   UNL     1      -5.563   8.674   2.333  1.00  0.00     0.135 A 
ATOM     64  C   UNL     1      -5.507  10.092   0.387  1.00  0.00     0.135 A 
ATOM     65  F   UNL     1      -5.149   7.593   3.013  1.00  0.00    -0.206 F 
ATOM     66  C   UNL     1      -6.505   9.511   2.922  1.00  0.00     0.059 A 
ATOM     67  C   UNL     1      -6.436  10.949   0.963  1.00  0.00     0.059 A 
ATOM     68  F   UNL     1      -5.027  10.399  -0.829  1.00  0.00    -0.206 F 
ATOM     69  C   UNL     1      -6.925  10.653   2.235  1.00  0.00     0.060 A 
BRANCH  69  70
ATOM     70  S   UNL     1      -8.059  11.796   3.052  1.00  0.00     0.124 S 
ATOM     71  O   UNL     1      -9.333  11.101   2.907  1.00  0.00    -0.237 OA
ATOM     72  O   UNL     1      -7.520  11.860   4.407  1.00  0.00    -0.237 OA
ATOM     73  O   UNL     1      -7.920  13.024   2.273  1.00  0.00    -0.744 OA
ENDBRANCH  69  70
ENDBRANCH  37  62
ENDBRANCH  11  12
ENDBRANCH   4   6
ENDBRANCH   3   4
ENDBRANCH   2   3
ENDBRANCH   1   2
BRANCH   1  74
ATOM     74  O   UNL     1       3.455  -0.466  -5.017  1.00  0.00    -0.462 OA
BRANCH  74  75
ATOM     75  C   UNL     1       2.900  -1.643  -4.601  1.00  0.00     0.310 C 
ATOM     76  O   UNL     1       2.904  -2.674  -5.261  1.00  0.00    -0.252 OA
BRANCH  75  77
ATOM     77  C   UNL     1       2.303  -1.534  -3.196  1.00  0.00     0.119 C 
ATOM     78  C   UNL     1       2.634  -0.168  -2.573  1.00  0.00     0.019 C 
ATOM     79  C   UNL     1       0.788  -1.835  -3.216  1.00  0.00     0.134 C 
ATOM     80  C   UNL     1       1.803   0.163  -1.353  1.00  0.00     0.022 C 
ATOM     81  N   UNL     1       0.104  -1.338  -2.002  1.00  0.00    -0.342 N 
ATOM     82  C   UNL     1       0.349   0.054  -1.760  1.00  0.00     0.119 C 
BRANCH  81  83
ATOM     83  C   UNL     1      -0.398  -2.187  -1.033  1.00  0.00     0.225 C 
ATOM     84  O   UNL     1      -0.237  -3.409  -1.153  1.00  0.00    -0.275 OA
BRANCH  83  85
ATOM     85  C   UNL     1      -1.145  -1.664   0.240  1.00  0.00     0.081 C 
ATOM     86  C   UNL     1      -2.421  -0.867   0.041  1.00  0.00     0.030 C 
ATOM     87  C   UNL     1      -0.329  -1.127   1.412  1.00  0.00     0.030 C 
ATOM     88  C   UNL     1      -2.374   0.633   0.282  1.00  0.00     0.103 C 
ATOM     89  C   UNL     1      -0.153   0.383   1.525  1.00  0.00     0.103 C 
ATOM     90  N   UNL     1      -1.351   1.200   1.235  1.00  0.00    -0.198 NA
BRANCH  90  91
ATOM     91  S   UNL     1      -1.004   2.843   0.709  1.00  0.00     0.243 S 
ATOM     92  O   UNL     1      -0.046   2.711  -0.376  1.00  0.00    -0.207 OA
ATOM     93  O   UNL     1      -2.283   3.476   0.510  1.00  0.00    -0.207 OA
BRANCH  91  94
ATOM     94  C   UNL     1      -0.153   3.753   1.974  1.00  0.00     0.082 A 
ATOM     95  C   UNL     1      -0.744   4.934   2.447  1.00  0.00     0.022 A 
ATOM     96  C   UNL     1       1.212   3.524   2.185  1.00  0.00     0.022 A 
ATOM     97  C   UNL     1       0.029   5.878   3.124  1.00  0.00     0.001 A 
ATOM     98  C   UNL     1       1.976   4.464   2.881  1.00  0.00     0.001 A 
ATOM     99  C   UNL     1       1.387   5.643   3.338  1.00  0.00     0.000 A 
ENDBRANCH  91  94
ENDBRANCH  90  91
ENDBRANCH  83  85
ENDBRANCH  81  83
ENDBRANCH  75  77
ENDBRANCH  74  75
ENDBRANCH   1  74
TORSDOF 18
