REMARK SMILES O=C(OCCOC(=O)[C@H]1C[C@@H](O)C[N@H+]1Cc1ccccc1)c1ccc(-c2c3nc(c(-c4c(F)cc(S(=O)(=O)[O-])cc4F)c4ccc([nH]4)c(-c4c(F)cc(S(=O)(=O)[O-])cc4F)c4nc(c(-c5c(F)cc(S(=O)(=O)[O-])cc5F)c5ccc2[nH]5)C=C4)C=C3)cc1
REMARK SMILES IDX 4 1 3 2 2 3 1 4 22 5 23 6 87 7 24 8 86 9 25 10 26 11 27 12
REMARK SMILES IDX 80 13 28 14 85 15 79 16 81 17 29 18 84 19 78 20 77 21 30 23
REMARK SMILES IDX 64 24 43 25 63 26 44 27 47 28 62 29 82 30 45 31 46 32 61 34
REMARK SMILES IDX 83 35 48 36 31 37 32 38 41 39 33 40 34 41 40 42 42 43 35 44
REMARK SMILES IDX 36 45 37 46 38 47 39 48 65 49 66 50 75 51 67 52 68 53 74 54
REMARK SMILES IDX 76 55 69 56 70 57 71 58 72 59 73 60 49 61 50 62 59 63 51 64
REMARK SMILES IDX 52 65 58 66 60 67 53 68 54 69 55 70 56 71 57 72 5 73 6 74
REMARK SMILES IDX 7 75 8 76 9 77 10 78 14 79 11 80 13 81 15 83 16 84 17 85
REMARK SMILES IDX 21 86 18 87 20 88 19 89 12 90
REMARK H PARENT 81 22 47 33 14 82 12 91
REMARK Flexibility Score: inf
ROOT
ATOM      1  C   UNL     1       4.262  -0.315  -1.422  1.00  0.00     0.275 C 
ENDROOT
BRANCH   1   2
ATOM      2  O   UNL     1       3.327  -1.341  -1.047  1.00  0.00    -0.458 OA
BRANCH   2   3
ATOM      3  C   UNL     1       3.091  -1.893   0.167  1.00  0.00     0.338 C 
ATOM      4  O   UNL     1       2.235  -2.768   0.272  1.00  0.00    -0.246 OA
BRANCH   3   5
ATOM      5  C   UNL     1       3.758  -1.418   1.415  1.00  0.00     0.060 A 
ATOM      6  C   UNL     1       5.083  -0.976   1.499  1.00  0.00     0.016 A 
ATOM      7  C   UNL     1       2.991  -1.460   2.592  1.00  0.00     0.016 A 
ATOM      8  C   UNL     1       5.610  -0.495   2.702  1.00  0.00     0.010 A 
ATOM      9  C   UNL     1       3.531  -1.036   3.810  1.00  0.00     0.010 A 
ATOM     10  C   UNL     1       4.844  -0.540   3.868  1.00  0.00    -0.014 A 
BRANCH  10  11
ATOM     11  C   UNL     1       5.510  -0.373   5.179  1.00  0.00     0.031 A 
ATOM     12  C   UNL     1       6.020  -1.631   5.814  1.00  0.00     0.074 A 
ATOM     13  C   UNL     1       5.696   0.823   5.768  1.00  0.00     0.049 A 
ATOM     14  N   UNL     1       6.700  -1.777   6.916  1.00  0.00    -0.248 NA
ATOM     15  C   UNL     1       5.776  -2.887   5.079  1.00  0.00     0.031 C 
ATOM     16  C   UNL     1       5.378   2.118   5.182  1.00  0.00     0.029 A 
ATOM     17  N   UNL     1       6.185   1.148   7.008  1.00  0.00    -0.354 N 
ATOM     18  C   UNL     1       7.023  -3.124   6.967  1.00  0.00     0.074 A 
ATOM     19  C   UNL     1       6.396  -3.771   5.840  1.00  0.00     0.031 C 
ATOM     20  C   UNL     1       5.552   3.088   6.096  1.00  0.00     0.029 A 
ATOM     21  C   UNL     1       6.064   2.486   7.318  1.00  0.00     0.049 A 
ATOM     22  H   UNL     1       6.584   0.488   7.620  1.00  0.00     0.167 HD
ATOM     23  C   UNL     1       7.815  -3.756   7.859  1.00  0.00     0.037 A 
ATOM     24  C   UNL     1       6.357   3.149   8.454  1.00  0.00     0.037 A 
ATOM     25  C   UNL     1       8.372  -3.104   9.009  1.00  0.00     0.049 A 
ATOM     26  C   UNL     1       7.075   2.387   9.535  1.00  0.00     0.074 A 
ATOM     27  C   UNL     1       9.154  -3.644  10.010  1.00  0.00     0.029 A 
ATOM     28  N   UNL     1       8.170  -1.766   9.324  1.00  0.00    -0.354 N 
ATOM     29  N   UNL     1       7.430   1.122   9.545  1.00  0.00    -0.248 NA
ATOM     30  C   UNL     1       7.488   3.139  10.724  1.00  0.00     0.031 C 
ATOM     31  C   UNL     1       9.371  -2.646  10.966  1.00  0.00     0.029 A 
ATOM     32  C   UNL     1       8.779  -1.469  10.529  1.00  0.00     0.049 A 
ATOM     33  H   UNL     1       7.668  -1.125   8.772  1.00  0.00     0.167 HD
ATOM     34  C   UNL     1       8.162   0.941  10.710  1.00  0.00     0.074 A 
ATOM     35  C   UNL     1       8.187   2.225  11.385  1.00  0.00     0.031 C 
ATOM     36  C   UNL     1       8.779  -0.176  11.170  1.00  0.00     0.037 A 
BRANCH  23  37
ATOM     37  C   UNL     1       8.070  -5.212   7.616  1.00  0.00     0.058 A 
ATOM     38  C   UNL     1       8.870  -5.648   6.545  1.00  0.00     0.135 A 
ATOM     39  C   UNL     1       7.465  -6.185   8.424  1.00  0.00     0.135 A 
ATOM     40  F   UNL     1       9.437  -4.757   5.715  1.00  0.00    -0.206 F 
ATOM     41  C   UNL     1       9.039  -7.000   6.269  1.00  0.00     0.059 A 
ATOM     42  C   UNL     1       7.642  -7.543   8.182  1.00  0.00     0.059 A 
ATOM     43  F   UNL     1       6.671  -5.819   9.442  1.00  0.00    -0.206 F 
ATOM     44  C   UNL     1       8.419  -7.940   7.094  1.00  0.00     0.060 A 
BRANCH  44  45
ATOM     45  S   UNL     1       8.643  -9.691   6.721  1.00  0.00     0.124 S 
ATOM     46  O   UNL     1       7.844  -9.835   5.507  1.00  0.00    -0.237 OA
ATOM     47  O   UNL     1      10.088  -9.787   6.543  1.00  0.00    -0.237 OA
ATOM     48  O   UNL     1       8.114 -10.361   7.904  1.00  0.00    -0.744 OA
ENDBRANCH  44  45
ENDBRANCH  23  37
BRANCH  24  49
ATOM     49  C   UNL     1       6.031   4.596   8.600  1.00  0.00     0.058 A 
ATOM     50  C   UNL     1       7.031   5.580   8.621  1.00  0.00     0.135 A 
ATOM     51  C   UNL     1       4.699   5.027   8.730  1.00  0.00     0.135 A 
ATOM     52  F   UNL     1       8.320   5.226   8.503  1.00  0.00    -0.206 F 
ATOM     53  C   UNL     1       6.729   6.930   8.789  1.00  0.00     0.059 A 
ATOM     54  C   UNL     1       4.371   6.373   8.882  1.00  0.00     0.059 A 
ATOM     55  F   UNL     1       3.698   4.133   8.706  1.00  0.00    -0.206 F 
ATOM     56  C   UNL     1       5.395   7.318   8.920  1.00  0.00     0.060 A 
BRANCH  56  57
ATOM     57  S   UNL     1       5.018   9.075   9.115  1.00  0.00     0.124 S 
ATOM     58  O   UNL     1       5.548   9.347  10.447  1.00  0.00    -0.237 OA
ATOM     59  O   UNL     1       5.752   9.670   8.003  1.00  0.00    -0.237 OA
ATOM     60  O   UNL     1       3.563   9.124   8.994  1.00  0.00    -0.744 OA
ENDBRANCH  56  57
ENDBRANCH  24  49
BRANCH  36  61
ATOM     61  C   UNL     1       9.554  -0.052  12.448  1.00  0.00     0.058 A 
ATOM     62  C   UNL     1       8.913   0.085  13.687  1.00  0.00     0.135 A 
ATOM     63  C   UNL     1      10.955  -0.149  12.433  1.00  0.00     0.135 A 
ATOM     64  F   UNL     1       7.576   0.188  13.750  1.00  0.00    -0.206 F 
ATOM     65  C   UNL     1       9.638   0.143  14.870  1.00  0.00     0.059 A 
ATOM     66  C   UNL     1      11.697  -0.128  13.607  1.00  0.00     0.059 A 
ATOM     67  F   UNL     1      11.613  -0.294  11.271  1.00  0.00    -0.206 F 
ATOM     68  C   UNL     1      11.029   0.029  14.820  1.00  0.00     0.060 A 
BRANCH  68  69
ATOM     69  S   UNL     1      11.951   0.053  16.369  1.00  0.00     0.124 S 
ATOM     70  O   UNL     1      11.867   1.463  16.738  1.00  0.00    -0.237 OA
ATOM     71  O   UNL     1      11.184  -0.868  17.203  1.00  0.00    -0.237 OA
ATOM     72  O   UNL     1      13.278  -0.417  15.982  1.00  0.00    -0.744 OA
ENDBRANCH  68  69
ENDBRANCH  36  61
ENDBRANCH  10  11
ENDBRANCH   3   5
ENDBRANCH   2   3
ENDBRANCH   1   2
BRANCH   1  73
ATOM     73  C   UNL     1       3.876   1.107  -1.028  1.00  0.00     0.274 C 
BRANCH  73  74
ATOM     74  O   UNL     1       3.441   1.251   0.332  1.00  0.00    -0.458 OA
BRANCH  74  75
ATOM     75  C   UNL     1       2.092   1.371   0.519  1.00  0.00     0.365 C 
ATOM     76  O   UNL     1       1.271   1.125  -0.353  1.00  0.00    -0.245 OA
BRANCH  75  77
ATOM     77  C   UNL     1       1.718   1.868   1.936  1.00  0.00     0.298 C 
ATOM     78  C   UNL     1       2.835   2.107   2.949  1.00  0.00     0.115 C 
ATOM     79  N   UNL     1       0.899   3.096   1.972  1.00  0.00    -0.317 N 
ATOM     80  C   UNL     1       2.592   3.461   3.600  1.00  0.00     0.175 C 
ATOM     81  C   UNL     1       1.163   3.808   3.219  1.00  0.00     0.295 C 
ATOM     82  H   UNL     1      -0.060   2.750   1.950  1.00  0.00     0.349 HD
BRANCH  79  83
ATOM     83  C   UNL     1       0.722   3.918   0.785  1.00  0.00     0.299 C 
BRANCH  83  84
ATOM     84  C   UNL     1       1.859   4.737   0.201  1.00  0.00     0.006 A 
ATOM     85  C   UNL     1       1.519   5.890  -0.525  1.00  0.00     0.009 A 
ATOM     86  C   UNL     1       3.211   4.377   0.211  1.00  0.00     0.009 A 
ATOM     87  C   UNL     1       2.485   6.629  -1.216  1.00  0.00     0.001 A 
ATOM     88  C   UNL     1       4.181   5.099  -0.488  1.00  0.00     0.001 A 
ATOM     89  C   UNL     1       3.815   6.224  -1.210  1.00  0.00     0.000 A 
ENDBRANCH  83  84
ENDBRANCH  79  83
BRANCH  80  90
ATOM     90  O   UNL     1       3.566   4.386   3.132  1.00  0.00    -0.387 OA
ATOM     91  H   UNL     1       3.531   4.428   2.164  1.00  0.00     0.211 HD
ENDBRANCH  80  90
ENDBRANCH  75  77
ENDBRANCH  74  75
ENDBRANCH  73  74
ENDBRANCH   1  73
TORSDOF 17
