REMARK SMILES CC1=C(C)C[C@@H](C(=O)OCCOC(=O)c2ccc(-c3c4nc(c(-c5c(F)cc(S(=O)(=O)[O-])cc5F)c5ccc([nH]5)c(-c5c(F)cc(S(=O)(=O)[O-])cc5F)c5nc(c(-c6c(F)cc(S(=O)(=O)[O-])cc6F)c6ccc3[nH]6)C=C5)C=C4)cc2)[C@@H](C(=O)N2CCN(c3cccc(C(F)(F)F)c3)CC2)C1
REMARK SMILES IDX 10 1 9 2 7 3 8 4 6 5 1 6 2 7 3 8 100 9 4 10 5 11 81 12 82 13
REMARK SMILES IDX 83 14 84 15 85 16 99 17 86 18 98 19 87 20 88 21 89 22 97 23
REMARK SMILES IDX 90 24 92 25 91 26 93 27 94 28 95 29 96 30 11 31 12 32 13 33
REMARK SMILES IDX 14 34 15 35 16 36 80 37 17 38 79 39 18 40 19 41 20 42 73 43
REMARK SMILES IDX 21 44 78 45 72 46 74 47 22 48 77 49 71 50 70 51 23 53 57 54
REMARK SMILES IDX 36 55 56 56 37 57 40 58 55 59 75 60 38 61 39 62 54 64 76 65
REMARK SMILES IDX 41 66 24 67 25 68 34 69 26 70 27 71 33 72 35 73 28 74 29 75
REMARK SMILES IDX 30 76 31 77 32 78 58 79 59 80 68 81 60 82 61 83 67 84 69 85
REMARK SMILES IDX 62 86 63 87 64 88 65 89 66 90 42 91 43 92 52 93 44 94 45 95
REMARK SMILES IDX 51 96 53 97 46 98 47 99 48 100 49 101 50 102
REMARK H PARENT 74 52 40 63
REMARK Flexibility Score: inf
ROOT
ATOM      1  C   UNL     1      -4.056  -2.580  -3.361  1.00  0.00     0.274 C 
ENDROOT
BRANCH   1   2
ATOM      2  O   UNL     1      -2.835  -1.940  -2.920  1.00  0.00    -0.462 OA
BRANCH   2   3
ATOM      3  C   UNL     1      -1.736  -2.328  -3.607  1.00  0.00     0.310 C 
ATOM      4  O   UNL     1      -1.676  -3.378  -4.247  1.00  0.00    -0.252 OA
BRANCH   3   5
ATOM      5  C   UNL     1      -0.510  -1.423  -3.497  1.00  0.00     0.116 C 
ATOM      6  C   UNL     1       1.048   0.116   0.358  1.00  0.00     0.039 C 
ATOM      7  C   UNL     1       0.666  -0.445  -0.986  1.00  0.00    -0.074 C 
ATOM      8  C   UNL     1       0.791  -1.745  -1.304  1.00  0.00    -0.073 C 
ATOM      9  C   UNL     1       0.233   0.576  -2.002  1.00  0.00     0.045 C 
ATOM     10  C   UNL     1       1.294  -2.820  -0.378  1.00  0.00     0.039 C 
ATOM     11  C   UNL     1       0.538  -2.214  -2.705  1.00  0.00     0.046 C 
ATOM     12  C   UNL     1      -0.586   0.105  -3.223  1.00  0.00     0.097 C 
BRANCH  12  13
ATOM     13  C   UNL     1      -1.991   0.712  -3.322  1.00  0.00     0.227 C 
ATOM     14  O   UNL     1      -2.830   0.288  -4.107  1.00  0.00    -0.275 OA
ATOM     15  N   UNL     1      -2.279   1.814  -2.565  1.00  0.00    -0.339 N 
ATOM     16  C   UNL     1      -3.503   1.831  -1.778  1.00  0.00     0.141 C 
ATOM     17  C   UNL     1      -1.732   3.138  -2.861  1.00  0.00     0.141 C 
ATOM     18  C   UNL     1      -3.177   2.454  -0.416  1.00  0.00     0.138 C 
ATOM     19  C   UNL     1      -1.533   3.979  -1.581  1.00  0.00     0.138 C 
ATOM     20  N   UNL     1      -2.629   3.809  -0.609  1.00  0.00    -0.368 N 
BRANCH  20  21
ATOM     21  C   UNL     1      -3.399   4.858  -0.155  1.00  0.00     0.037 A 
ATOM     22  C   UNL     1      -3.688   4.962   1.213  1.00  0.00     0.026 A 
ATOM     23  C   UNL     1      -3.974   5.789  -1.025  1.00  0.00     0.039 A 
ATOM     24  C   UNL     1      -4.531   5.955   1.706  1.00  0.00     0.003 A 
ATOM     25  C   UNL     1      -4.848   6.782  -0.550  1.00  0.00     0.058 A 
ATOM     26  C   UNL     1      -5.114   6.859   0.826  1.00  0.00     0.013 A 
BRANCH  25  27
ATOM     27  C   UNL     1      -5.515   7.746  -1.496  1.00  0.00     0.416 C 
ATOM     28  F   UNL     1      -6.872   7.746  -1.363  1.00  0.00    -0.166 F 
ATOM     29  F   UNL     1      -5.123   9.034  -1.284  1.00  0.00    -0.166 F 
ATOM     30  F   UNL     1      -5.270   7.490  -2.810  1.00  0.00    -0.166 F 
ENDBRANCH  25  27
ENDBRANCH  20  21
ENDBRANCH  12  13
ENDBRANCH   3   5
ENDBRANCH   2   3
ENDBRANCH   1   2
BRANCH   1  31
ATOM     31  C   UNL     1      -4.599  -1.981  -4.671  1.00  0.00     0.275 C 
BRANCH  31  32
ATOM     32  O   UNL     1      -3.643  -2.137  -5.738  1.00  0.00    -0.458 OA
BRANCH  32  33
ATOM     33  C   UNL     1      -3.529  -1.092  -6.584  1.00  0.00     0.338 C 
ATOM     34  O   UNL     1      -4.231  -0.084  -6.618  1.00  0.00    -0.246 OA
BRANCH  33  35
ATOM     35  C   UNL     1      -2.494  -1.351  -7.602  1.00  0.00     0.060 A 
ATOM     36  C   UNL     1      -1.202  -1.783  -7.290  1.00  0.00     0.016 A 
ATOM     37  C   UNL     1      -2.834  -1.080  -8.926  1.00  0.00     0.016 A 
ATOM     38  C   UNL     1      -0.232  -1.880  -8.289  1.00  0.00     0.010 A 
ATOM     39  C   UNL     1      -1.895  -1.260  -9.935  1.00  0.00     0.010 A 
ATOM     40  C   UNL     1      -0.581  -1.641  -9.624  1.00  0.00    -0.014 A 
BRANCH  40  41
ATOM     41  C   UNL     1       0.380  -1.838 -10.733  1.00  0.00     0.031 A 
ATOM     42  C   UNL     1       0.753  -0.677 -11.611  1.00  0.00     0.074 A 
ATOM     43  C   UNL     1       0.802  -3.087 -11.006  1.00  0.00     0.049 A 
ATOM     44  N   UNL     1       1.364  -0.675 -12.765  1.00  0.00    -0.248 NA
ATOM     45  C   UNL     1       0.364   0.661 -11.134  1.00  0.00     0.031 C 
ATOM     46  C   UNL     1       0.487  -4.275 -10.208  1.00  0.00     0.029 A 
ATOM     47  N   UNL     1       1.550  -3.576 -12.045  1.00  0.00    -0.354 N 
ATOM     48  C   UNL     1       1.403   0.654 -13.173  1.00  0.00     0.074 A 
ATOM     49  C   UNL     1       0.740   1.430 -12.148  1.00  0.00     0.031 C 
ATOM     50  C   UNL     1       1.028  -5.355 -10.789  1.00  0.00     0.029 A 
ATOM     51  C   UNL     1       1.662  -4.947 -12.035  1.00  0.00     0.049 A 
ATOM     52  H   UNL     1       1.965  -3.003 -12.730  1.00  0.00     0.167 HD
ATOM     53  C   UNL     1       1.942   1.166 -14.305  1.00  0.00     0.037 A 
ATOM     54  C   UNL     1       2.171  -5.786 -12.956  1.00  0.00     0.037 A 
ATOM     55  C   UNL     1       2.595   0.357 -15.304  1.00  0.00     0.049 A 
ATOM     56  C   UNL     1       2.735  -5.198 -14.216  1.00  0.00     0.074 A 
ATOM     57  C   UNL     1       3.203   0.757 -16.480  1.00  0.00     0.029 A 
ATOM     58  N   UNL     1       2.718  -1.027 -15.242  1.00  0.00    -0.354 N 
ATOM     59  N   UNL     1       2.779  -3.939 -14.587  1.00  0.00    -0.248 NA
ATOM     60  C   UNL     1       3.315  -6.136 -15.184  1.00  0.00     0.031 C 
ATOM     61  C   UNL     1       3.651  -0.386 -17.150  1.00  0.00     0.029 A 
ATOM     62  C   UNL     1       3.375  -1.497 -16.366  1.00  0.00     0.049 A 
ATOM     63  H   UNL     1       2.386  -1.590 -14.506  1.00  0.00     0.167 HD
ATOM     64  C   UNL     1       3.411  -3.929 -15.823  1.00  0.00     0.074 A 
ATOM     65  C   UNL     1       3.744  -5.309 -16.128  1.00  0.00     0.031 C 
ATOM     66  C   UNL     1       3.691  -2.879 -16.635  1.00  0.00     0.037 A 
BRANCH  53  67
ATOM     67  C   UNL     1       1.828   2.651 -14.536  1.00  0.00     0.058 A 
ATOM     68  C   UNL     1       2.538   3.581 -13.758  1.00  0.00     0.135 A 
ATOM     69  C   UNL     1       1.025   3.154 -15.574  1.00  0.00     0.135 A 
ATOM     70  F   UNL     1       3.311   3.163 -12.743  1.00  0.00    -0.206 F 
ATOM     71  C   UNL     1       2.435   4.952 -13.983  1.00  0.00     0.059 A 
ATOM     72  C   UNL     1       0.929   4.520 -15.835  1.00  0.00     0.059 A 
ATOM     73  F   UNL     1       0.321   2.316 -16.351  1.00  0.00    -0.206 F 
ATOM     74  C   UNL     1       1.628   5.412 -15.024  1.00  0.00     0.060 A 
BRANCH  74  75
ATOM     75  S   UNL     1       1.513   7.193 -15.304  1.00  0.00     0.124 S 
ATOM     76  O   UNL     1       0.723   7.620 -14.153  1.00  0.00    -0.237 OA
ATOM     77  O   UNL     1       2.914   7.601 -15.296  1.00  0.00    -0.237 OA
ATOM     78  O   UNL     1       0.842   7.293 -16.597  1.00  0.00    -0.744 OA
ENDBRANCH  74  75
ENDBRANCH  53  67
BRANCH  54  79
ATOM     79  C   UNL     1       2.148  -7.252 -12.711  1.00  0.00     0.058 A 
ATOM     80  C   UNL     1       3.332  -7.957 -12.451  1.00  0.00     0.135 A 
ATOM     81  C   UNL     1       0.941  -7.970 -12.676  1.00  0.00     0.135 A 
ATOM     82  F   UNL     1       4.511  -7.317 -12.474  1.00  0.00    -0.206 F 
ATOM     83  C   UNL     1       3.324  -9.320 -12.174  1.00  0.00     0.059 A 
ATOM     84  C   UNL     1       0.904  -9.328 -12.372  1.00  0.00     0.059 A 
ATOM     85  F   UNL     1      -0.224  -7.340 -12.896  1.00  0.00    -0.206 F 
ATOM     86  C   UNL     1       2.103  -9.996 -12.132  1.00  0.00     0.060 A 
BRANCH  86  87
ATOM     87  S   UNL     1       2.102 -11.755 -11.720  1.00  0.00     0.124 S 
ATOM     88  O   UNL     1       2.656 -12.340 -12.935  1.00  0.00    -0.237 OA
ATOM     89  O   UNL     1       2.963 -11.794 -10.542  1.00  0.00    -0.237 OA
ATOM     90  O   UNL     1       0.693 -12.041 -11.467  1.00  0.00    -0.744 OA
ENDBRANCH  86  87
ENDBRANCH  54  79
BRANCH  66  91
ATOM     91  C   UNL     1       4.425  -3.186 -17.909  1.00  0.00     0.058 A 
ATOM     92  C   UNL     1       3.793  -3.818 -18.990  1.00  0.00     0.135 A 
ATOM     93  C   UNL     1       5.766  -2.799 -18.062  1.00  0.00     0.135 A 
ATOM     94  F   UNL     1       2.516  -4.218 -18.888  1.00  0.00    -0.206 F 
ATOM     95  C   UNL     1       4.474  -4.078 -20.174  1.00  0.00     0.059 A 
ATOM     96  C   UNL     1       6.456  -3.021 -19.247  1.00  0.00     0.059 A 
ATOM     97  F   UNL     1       6.412  -2.183 -17.058  1.00  0.00    -0.206 F 
ATOM     98  C   UNL     1       5.805  -3.672 -20.294  1.00  0.00     0.060 A 
BRANCH  98  99
ATOM     99  S   UNL     1       6.664  -3.980 -21.849  1.00  0.00     0.124 S 
ATOM    100  O   UNL     1       6.881  -5.422 -21.784  1.00  0.00    -0.237 OA
ATOM    101  O   UNL     1       5.690  -3.529 -22.838  1.00  0.00    -0.237 OA
ATOM    102  O   UNL     1       7.866  -3.159 -21.742  1.00  0.00    -0.744 OA
ENDBRANCH  98  99
ENDBRANCH  66  91
ENDBRANCH  40  41
ENDBRANCH  33  35
ENDBRANCH  32  33
ENDBRANCH  31  32
ENDBRANCH   1  31
TORSDOF 17
