REMARK SMILES COCC[C@@]1(C(=O)OCCOC(=O)c2ccc(-c3c4nc(c(-c5c(F)cc(S(=O)(=O)[O-])cc5F)c5ccc([nH]5)c(-c5c(F)cc(S(=O)(=O)[O-])cc5F)c5nc(c(-c6c(F)cc(S(=O)(=O)[O-])cc6F)c6ccc3[nH]6)C=C5)C=C4)cc2)CCC[N@@H+](Cc2cccc3c2OC(C)(C)C3)C1
REMARK SMILES IDX 9 1 8 2 6 3 7 4 5 5 80 6 96 7 81 8 83 9 82 10 4 12 3 13 2 14
REMARK SMILES IDX 1 15 84 16 85 17 86 18 90 19 87 20 89 21 91 22 88 23 95 24
REMARK SMILES IDX 92 25 93 26 94 27 10 28 11 29 12 30 13 31 14 32 15 33 79 34
REMARK SMILES IDX 16 35 78 36 17 37 18 38 19 39 72 40 20 41 77 42 71 43 73 44
REMARK SMILES IDX 21 45 76 46 70 47 69 48 22 50 56 51 35 52 55 53 36 54 39 55
REMARK SMILES IDX 54 56 74 57 37 58 38 59 53 61 75 62 40 63 23 64 24 65 33 66
REMARK SMILES IDX 25 67 26 68 32 69 34 70 27 71 28 72 29 73 30 74 31 75 57 76
REMARK SMILES IDX 58 77 67 78 59 79 60 80 66 81 68 82 61 83 62 84 63 85 64 86
REMARK SMILES IDX 65 87 41 88 42 89 51 90 43 91 44 92 50 93 52 94 45 95 46 96
REMARK SMILES IDX 47 97 48 98 49 99
REMARK H PARENT 83 11 73 49 39 60
REMARK Flexibility Score: inf
ROOT
ATOM      1  C   UNL     1      -1.147  -2.384  -3.075  1.00  0.00     0.274 C 
ENDROOT
BRANCH   1   2
ATOM      2  O   UNL     1       0.007  -1.535  -2.898  1.00  0.00    -0.461 OA
BRANCH   2   3
ATOM      3  C   UNL     1      -0.210  -0.195  -2.969  1.00  0.00     0.318 C 
ATOM      4  O   UNL     1      -1.320   0.322  -2.893  1.00  0.00    -0.251 OA
BRANCH   3   5
ATOM      5  C   UNL     1       1.083   0.616  -3.143  1.00  0.00     0.119 C 
ATOM      6  C   UNL     1       0.771   1.782  -4.125  1.00  0.00     0.030 C 
ATOM      7  C   UNL     1       2.219  -0.244  -3.759  1.00  0.00     0.281 C 
ATOM      8  C   UNL     1       0.537   1.296  -5.551  1.00  0.00     0.063 C 
ATOM      9  N   UNL     1       1.938  -0.697  -5.143  1.00  0.00    -0.330 N 
ATOM     10  C   UNL     1       1.708   0.445  -6.032  1.00  0.00     0.262 C 
ATOM     11  H   UNL     1       1.069  -1.229  -5.116  1.00  0.00     0.348 HD
BRANCH   5  12
ATOM     12  C   UNL     1       1.448   1.291  -1.780  1.00  0.00     0.053 C 
BRANCH  12  13
ATOM     13  C   UNL     1       2.258   0.479  -0.765  1.00  0.00     0.161 C 
BRANCH  13  14
ATOM     14  O   UNL     1       3.450   1.155  -0.359  1.00  0.00    -0.385 OA
ATOM     15  C   UNL     1       4.429   1.244  -1.378  1.00  0.00     0.194 C 
ENDBRANCH  13  14
ENDBRANCH  12  13
ENDBRANCH   5  12
BRANCH   9  16
ATOM     16  C   UNL     1       2.946  -1.669  -5.662  1.00  0.00     0.303 C 
BRANCH  16  17
ATOM     17  C   UNL     1       4.384  -1.204  -5.574  1.00  0.00     0.049 A 
ATOM     18  C   UNL     1       4.844  -0.129  -6.346  1.00  0.00     0.013 A 
ATOM     19  C   UNL     1       5.221  -1.643  -4.562  1.00  0.00     0.132 A 
ATOM     20  C   UNL     1       5.956   0.619  -5.935  1.00  0.00     0.001 A 
ATOM     21  C   UNL     1       6.245  -0.845  -4.080  1.00  0.00    -0.001 A 
ATOM     22  O   UNL     1       5.132  -2.848  -3.912  1.00  0.00    -0.487 OA
ATOM     23  C   UNL     1       6.617   0.308  -4.744  1.00  0.00     0.008 A 
ATOM     24  C   UNL     1       6.700  -1.407  -2.781  1.00  0.00     0.087 C 
ATOM     25  C   UNL     1       6.282  -2.869  -3.010  1.00  0.00     0.108 C 
ATOM     26  C   UNL     1       7.481  -3.628  -3.610  1.00  0.00     0.057 C 
ATOM     27  C   UNL     1       5.805  -3.579  -1.744  1.00  0.00     0.057 C 
ENDBRANCH  16  17
ENDBRANCH   9  16
ENDBRANCH   3   5
ENDBRANCH   2   3
ENDBRANCH   1   2
BRANCH   1  28
ATOM     28  C   UNL     1      -1.177  -3.451  -1.987  1.00  0.00     0.275 C 
BRANCH  28  29
ATOM     29  O   UNL     1      -1.517  -2.790  -0.759  1.00  0.00    -0.458 OA
BRANCH  29  30
ATOM     30  C   UNL     1      -0.647  -2.929   0.261  1.00  0.00     0.338 C 
ATOM     31  O   UNL     1       0.261  -3.741   0.369  1.00  0.00    -0.246 OA
BRANCH  30  32
ATOM     32  C   UNL     1      -0.882  -1.822   1.198  1.00  0.00     0.060 A 
ATOM     33  C   UNL     1      -0.724  -0.524   0.720  1.00  0.00     0.016 A 
ATOM     34  C   UNL     1      -1.129  -2.045   2.549  1.00  0.00     0.016 A 
ATOM     35  C   UNL     1      -0.696   0.550   1.602  1.00  0.00     0.010 A 
ATOM     36  C   UNL     1      -1.214  -0.948   3.417  1.00  0.00     0.010 A 
ATOM     37  C   UNL     1      -0.951   0.361   2.965  1.00  0.00    -0.014 A 
BRANCH  37  38
ATOM     38  C   UNL     1      -0.855   1.509   3.916  1.00  0.00     0.031 A 
ATOM     39  C   UNL     1       0.065   1.415   5.108  1.00  0.00     0.074 A 
ATOM     40  C   UNL     1      -1.534   2.657   3.707  1.00  0.00     0.049 A 
ATOM     41  N   UNL     1       0.110   2.162   6.180  1.00  0.00    -0.248 NA
ATOM     42  C   UNL     1       1.055   0.325   5.096  1.00  0.00     0.031 C 
ATOM     43  C   UNL     1      -2.389   2.948   2.554  1.00  0.00     0.029 A 
ATOM     44  N   UNL     1      -1.597   3.808   4.457  1.00  0.00    -0.354 N 
ATOM     45  C   UNL     1       1.071   1.586   7.005  1.00  0.00     0.074 A 
ATOM     46  C   UNL     1       1.597   0.437   6.301  1.00  0.00     0.031 C 
ATOM     47  C   UNL     1      -2.842   4.208   2.645  1.00  0.00     0.029 A 
ATOM     48  C   UNL     1      -2.412   4.775   3.917  1.00  0.00     0.049 A 
ATOM     49  H   UNL     1      -1.105   3.928   5.301  1.00  0.00     0.167 HD
ATOM     50  C   UNL     1       1.468   1.977   8.239  1.00  0.00     0.037 A 
ATOM     51  C   UNL     1      -2.823   5.960   4.411  1.00  0.00     0.037 A 
ATOM     52  C   UNL     1       1.001   3.170   8.896  1.00  0.00     0.049 A 
ATOM     53  C   UNL     1      -2.399   6.362   5.796  1.00  0.00     0.074 A 
ATOM     54  C   UNL     1       1.323   3.644  10.156  1.00  0.00     0.029 A 
ATOM     55  N   UNL     1       0.138   4.097   8.330  1.00  0.00    -0.354 N 
ATOM     56  N   UNL     1      -1.600   5.736   6.628  1.00  0.00    -0.248 NA
ATOM     57  C   UNL     1      -2.964   7.610   6.328  1.00  0.00     0.031 C 
ATOM     58  C   UNL     1       0.638   4.848  10.360  1.00  0.00     0.029 A 
ATOM     59  C   UNL     1      -0.084   5.139   9.214  1.00  0.00     0.049 A 
ATOM     60  H   UNL     1      -0.258   4.024   7.432  1.00  0.00     0.167 HD
ATOM     61  C   UNL     1      -1.570   6.512   7.780  1.00  0.00     0.074 A 
ATOM     62  C   UNL     1      -2.408   7.667   7.530  1.00  0.00     0.031 C 
ATOM     63  C   UNL     1      -0.917   6.283   8.946  1.00  0.00     0.037 A 
BRANCH  50  64
ATOM     64  C   UNL     1       2.417   1.081   8.984  1.00  0.00     0.058 A 
ATOM     65  C   UNL     1       3.781   1.005   8.669  1.00  0.00     0.135 A 
ATOM     66  C   UNL     1       1.947   0.303  10.056  1.00  0.00     0.135 A 
ATOM     67  F   UNL     1       4.278   1.712   7.642  1.00  0.00    -0.206 F 
ATOM     68  C   UNL     1       4.644   0.173   9.377  1.00  0.00     0.059 A 
ATOM     69  C   UNL     1       2.796  -0.518  10.792  1.00  0.00     0.059 A 
ATOM     70  F   UNL     1       0.649   0.337  10.398  1.00  0.00    -0.206 F 
ATOM     71  C   UNL     1       4.141  -0.587  10.435  1.00  0.00     0.060 A 
BRANCH  71  72
ATOM     72  S   UNL     1       5.269  -1.661  11.348  1.00  0.00     0.124 S 
ATOM     73  O   UNL     1       5.438  -2.769  10.413  1.00  0.00    -0.237 OA
ATOM     74  O   UNL     1       6.438  -0.806  11.534  1.00  0.00    -0.237 OA
ATOM     75  O   UNL     1       4.528  -1.976  12.566  1.00  0.00    -0.744 OA
ENDBRANCH  71  72
ENDBRANCH  50  64
BRANCH  51  76
ATOM     76  C   UNL     1      -3.752   6.815   3.623  1.00  0.00     0.058 A 
ATOM     77  C   UNL     1      -3.338   8.049   3.104  1.00  0.00     0.135 A 
ATOM     78  C   UNL     1      -5.073   6.411   3.371  1.00  0.00     0.135 A 
ATOM     79  F   UNL     1      -2.091   8.489   3.332  1.00  0.00    -0.206 F 
ATOM     80  C   UNL     1      -4.200   8.856   2.366  1.00  0.00     0.059 A 
ATOM     81  C   UNL     1      -5.944   7.185   2.612  1.00  0.00     0.059 A 
ATOM     82  F   UNL     1      -5.519   5.235   3.841  1.00  0.00    -0.206 F 
ATOM     83  C   UNL     1      -5.501   8.413   2.123  1.00  0.00     0.060 A 
BRANCH  83  84
ATOM     84  S   UNL     1      -6.602   9.434   1.120  1.00  0.00     0.124 S 
ATOM     85  O   UNL     1      -7.029  10.440   2.087  1.00  0.00    -0.237 OA
ATOM     86  O   UNL     1      -5.714   9.903   0.061  1.00  0.00    -0.237 OA
ATOM     87  O   UNL     1      -7.631   8.492   0.691  1.00  0.00    -0.744 OA
ENDBRANCH  83  84
ENDBRANCH  51  76
BRANCH  63  88
ATOM     88  C   UNL     1      -1.067   7.311  10.030  1.00  0.00     0.058 A 
ATOM     89  C   UNL     1      -2.239   7.399  10.797  1.00  0.00     0.135 A 
ATOM     90  C   UNL     1      -0.014   8.187  10.331  1.00  0.00     0.135 A 
ATOM     91  F   UNL     1      -3.277   6.587  10.541  1.00  0.00    -0.206 F 
ATOM     92  C   UNL     1      -2.368   8.335  11.817  1.00  0.00     0.059 A 
ATOM     93  C   UNL     1      -0.114   9.118  11.360  1.00  0.00     0.059 A 
ATOM     94  F   UNL     1       1.130   8.136   9.630  1.00  0.00    -0.206 F 
ATOM     95  C   UNL     1      -1.299   9.192  12.090  1.00  0.00     0.060 A 
BRANCH  95  96
ATOM     96  S   UNL     1      -1.464  10.384  13.437  1.00  0.00     0.124 S 
ATOM     97  O   UNL     1      -2.309  11.403  12.824  1.00  0.00    -0.237 OA
ATOM     98  O   UNL     1      -2.092   9.588  14.487  1.00  0.00    -0.237 OA
ATOM     99  O   UNL     1      -0.087  10.786  13.704  1.00  0.00    -0.744 OA
ENDBRANCH  95  96
ENDBRANCH  63  88
ENDBRANCH  37  38
ENDBRANCH  30  32
ENDBRANCH  29  30
ENDBRANCH  28  29
ENDBRANCH   1  28
TORSDOF 19
