REMARK SMILES Cc1c(C(=O)OCCOC(=O)c2ccc(-c3c4nc(c(-c5c(F)cc(S(=O)(=O)[O-])cc5F)c5ccc([nH]5)c(-c5c(F)cc(S(=O)(=O)[O-])cc5F)c5nc(c(-c6c(F)cc(S(=O)(=O)[O-])cc6F)c6ccc3[nH]6)C=C5)C=C4)cc2)sc2ncnc(NCc3cn4c(n3)SCC4)c12
REMARK SMILES IDX 7 1 6 2 4 3 5 4 3 5 1 6 2 7 94 8 78 9 79 10 83 11 80 12
REMARK SMILES IDX 82 13 81 14 84 15 85 17 86 18 87 19 90 20 88 21 89 22 93 23
REMARK SMILES IDX 91 24 92 25 8 26 9 27 10 28 11 29 12 30 13 31 77 32 14 33
REMARK SMILES IDX 76 34 15 35 16 36 17 37 70 38 18 39 75 40 69 41 71 42 19 43
REMARK SMILES IDX 74 44 68 45 67 46 20 48 54 49 33 50 53 51 34 52 37 53 52 54
REMARK SMILES IDX 72 55 35 56 36 57 51 59 73 60 38 61 21 62 22 63 31 64 23 65
REMARK SMILES IDX 24 66 30 67 32 68 25 69 26 70 27 71 28 72 29 73 55 74 56 75
REMARK SMILES IDX 65 76 57 77 58 78 64 79 66 80 59 81 60 82 61 83 62 84 63 85
REMARK SMILES IDX 39 86 40 87 49 88 41 89 42 90 48 91 50 92 43 93 44 94 45 95
REMARK SMILES IDX 46 96 47 97
REMARK H PARENT 84 16 71 47 37 58
REMARK Flexibility Score: inf
ROOT
ATOM      1  C   UNL     1      -1.246   1.627  -4.908  1.00  0.00     0.275 C 
ENDROOT
BRANCH   1   2
ATOM      2  O   UNL     1      -0.699   0.383  -4.435  1.00  0.00    -0.458 OA
BRANCH   2   3
ATOM      3  C   UNL     1       0.223   0.477  -3.427  1.00  0.00     0.348 C 
ATOM      4  O   UNL     1       0.707   1.549  -3.069  1.00  0.00    -0.245 OA
BRANCH   3   5
ATOM      5  C   UNL     1       0.492  -0.817  -2.794  1.00  0.00     0.118 A 
ATOM      6  C   UNL     1       1.815   0.031  -0.808  1.00  0.00     0.047 C 
ATOM      7  C   UNL     1       1.169  -1.074  -1.593  1.00  0.00    -0.012 A 
ATOM      8  C   UNL     1       1.150  -2.510  -1.234  1.00  0.00     0.058 A 
ATOM      9  S   UNL     1      -0.042  -2.257  -3.531  1.00  0.00    -0.108 S 
ATOM     10  C   UNL     1       0.567  -3.221  -2.280  1.00  0.00     0.129 A 
ATOM     11  C   UNL     1       1.585  -3.332  -0.142  1.00  0.00     0.138 A 
ATOM     12  N   UNL     1       0.438  -4.551  -2.402  1.00  0.00    -0.225 NA
ATOM     13  N   UNL     1       1.494  -4.679  -0.276  1.00  0.00    -0.219 NA
ATOM     14  C   UNL     1       0.939  -5.208  -1.367  1.00  0.00     0.225 A 
BRANCH  11  15
ATOM     15  N   UNL     1       2.090  -3.005   1.092  1.00  0.00    -0.364 N 
ATOM     16  H   UNL     1       2.541  -3.727   1.585  1.00  0.00     0.162 HD
BRANCH  15  17
ATOM     17  C   UNL     1       2.033  -1.730   1.742  1.00  0.00     0.172 C 
BRANCH  17  18
ATOM     18  C   UNL     1       1.565  -1.613   3.155  1.00  0.00     0.079 A 
ATOM     19  C   UNL     1       0.317  -1.963   3.660  1.00  0.00     0.113 A 
ATOM     20  N   UNL     1       2.229  -0.745   4.009  1.00  0.00    -0.226 NA
ATOM     21  N   UNL     1       0.180  -1.164   4.749  1.00  0.00    -0.325 N 
ATOM     22  C   UNL     1       1.339  -0.469   4.919  1.00  0.00     0.168 A 
ATOM     23  C   UNL     1      -0.999  -0.627   5.405  1.00  0.00     0.135 C 
ATOM     24  S   UNL     1       1.137   0.936   5.895  1.00  0.00    -0.086 SA
ATOM     25  C   UNL     1      -0.683   0.852   5.641  1.00  0.00     0.100 C 
ENDBRANCH  17  18
ENDBRANCH  15  17
ENDBRANCH  11  15
ENDBRANCH   3   5
ENDBRANCH   2   3
ENDBRANCH   1   2
BRANCH   1  26
ATOM     26  C   UNL     1      -2.498   2.029  -4.135  1.00  0.00     0.275 C 
BRANCH  26  27
ATOM     27  O   UNL     1      -2.205   2.313  -2.767  1.00  0.00    -0.458 OA
BRANCH  27  28
ATOM     28  C   UNL     1      -2.327   1.257  -1.929  1.00  0.00     0.338 C 
ATOM     29  O   UNL     1      -2.435   0.084  -2.241  1.00  0.00    -0.246 OA
BRANCH  28  30
ATOM     30  C   UNL     1      -2.483   1.731  -0.551  1.00  0.00     0.060 A 
ATOM     31  C   UNL     1      -2.535   0.760   0.458  1.00  0.00     0.016 A 
ATOM     32  C   UNL     1      -2.867   3.057  -0.324  1.00  0.00     0.016 A 
ATOM     33  C   UNL     1      -3.148   1.077   1.652  1.00  0.00     0.010 A 
ATOM     34  C   UNL     1      -3.503   3.364   0.855  1.00  0.00     0.010 A 
ATOM     35  C   UNL     1      -3.698   2.351   1.796  1.00  0.00    -0.014 A 
BRANCH  35  36
ATOM     36  C   UNL     1      -4.548   2.612   2.940  1.00  0.00     0.031 A 
ATOM     37  C   UNL     1      -3.840   3.093   4.154  1.00  0.00     0.074 A 
ATOM     38  C   UNL     1      -5.887   2.596   2.789  1.00  0.00     0.049 A 
ATOM     39  N   UNL     1      -3.794   2.558   5.332  1.00  0.00    -0.248 NA
ATOM     40  C   UNL     1      -2.946   4.254   3.992  1.00  0.00     0.031 C 
ATOM     41  C   UNL     1      -6.661   2.460   1.548  1.00  0.00     0.029 A 
ATOM     42  N   UNL     1      -6.847   2.845   3.714  1.00  0.00    -0.354 N 
ATOM     43  C   UNL     1      -3.046   3.439   6.110  1.00  0.00     0.074 A 
ATOM     44  C   UNL     1      -2.392   4.340   5.198  1.00  0.00     0.031 C 
ATOM     45  C   UNL     1      -7.932   2.867   1.771  1.00  0.00     0.029 A 
ATOM     46  C   UNL     1      -8.082   3.189   3.178  1.00  0.00     0.049 A 
ATOM     47  H   UNL     1      -6.683   2.785   4.683  1.00  0.00     0.167 HD
ATOM     48  C   UNL     1      -3.154   3.516   7.465  1.00  0.00     0.037 A 
ATOM     49  C   UNL     1      -9.066   3.843   3.851  1.00  0.00     0.037 A 
ATOM     50  C   UNL     1      -3.816   2.373   8.030  1.00  0.00     0.049 A 
ATOM     51  C   UNL     1      -8.780   3.661   5.306  1.00  0.00     0.074 A 
ATOM     52  C   UNL     1      -3.538   1.021   8.100  1.00  0.00     0.029 A 
ATOM     53  N   UNL     1      -5.154   2.473   8.325  1.00  0.00    -0.354 N 
ATOM     54  N   UNL     1      -8.799   2.499   5.910  1.00  0.00    -0.248 NA
ATOM     55  C   UNL     1      -7.979   4.688   5.959  1.00  0.00     0.031 C 
ATOM     56  C   UNL     1      -4.784   0.380   7.846  1.00  0.00     0.029 A 
ATOM     57  C   UNL     1      -5.760   1.372   7.767  1.00  0.00     0.049 A 
ATOM     58  H   UNL     1      -5.593   3.191   8.835  1.00  0.00     0.167 HD
ATOM     59  C   UNL     1      -7.720   2.527   6.785  1.00  0.00     0.074 A 
ATOM     60  C   UNL     1      -7.275   3.920   6.794  1.00  0.00     0.031 C 
ATOM     61  C   UNL     1      -7.093   1.387   7.207  1.00  0.00     0.037 A 
BRANCH  48  62
ATOM     62  C   UNL     1      -2.894   4.788   8.223  1.00  0.00     0.058 A 
ATOM     63  C   UNL     1      -2.638   4.758   9.604  1.00  0.00     0.135 A 
ATOM     64  C   UNL     1      -3.099   6.071   7.662  1.00  0.00     0.135 A 
ATOM     65  F   UNL     1      -2.475   3.587  10.240  1.00  0.00    -0.206 F 
ATOM     66  C   UNL     1      -2.597   5.921  10.375  1.00  0.00     0.059 A 
ATOM     67  C   UNL     1      -2.995   7.245   8.394  1.00  0.00     0.059 A 
ATOM     68  F   UNL     1      -3.499   6.232   6.393  1.00  0.00    -0.206 F 
ATOM     69  C   UNL     1      -2.779   7.159   9.759  1.00  0.00     0.060 A 
BRANCH  69  70
ATOM     70  S   UNL     1      -2.813   8.656  10.761  1.00  0.00     0.124 S 
ATOM     71  O   UNL     1      -4.075   8.496  11.474  1.00  0.00    -0.237 OA
ATOM     72  O   UNL     1      -1.602   8.513  11.561  1.00  0.00    -0.237 OA
ATOM     73  O   UNL     1      -2.779   9.725   9.768  1.00  0.00    -0.744 OA
ENDBRANCH  69  70
ENDBRANCH  48  62
BRANCH  49  74
ATOM     74  C   UNL     1      -9.882   4.971   3.313  1.00  0.00     0.058 A 
ATOM     75  C   UNL     1     -11.015   5.453   3.993  1.00  0.00     0.135 A 
ATOM     76  C   UNL     1      -9.428   5.767   2.239  1.00  0.00     0.135 A 
ATOM     77  F   UNL     1     -11.492   4.790   5.058  1.00  0.00    -0.206 F 
ATOM     78  C   UNL     1     -11.648   6.654   3.637  1.00  0.00     0.059 A 
ATOM     79  C   UNL     1     -10.049   6.953   1.856  1.00  0.00     0.059 A 
ATOM     80  F   UNL     1      -8.304   5.466   1.573  1.00  0.00    -0.206 F 
ATOM     81  C   UNL     1     -11.149   7.402   2.571  1.00  0.00     0.060 A 
BRANCH  81  82
ATOM     82  S   UNL     1     -11.880   9.008   2.175  1.00  0.00     0.124 S 
ATOM     83  O   UNL     1     -13.231   8.634   1.771  1.00  0.00    -0.237 OA
ATOM     84  O   UNL     1     -11.766   9.716   3.445  1.00  0.00    -0.237 OA
ATOM     85  O   UNL     1     -11.028   9.515   1.102  1.00  0.00    -0.744 OA
ENDBRANCH  81  82
ENDBRANCH  49  74
BRANCH  61  86
ATOM     86  C   UNL     1      -7.698   0.044   6.871  1.00  0.00     0.058 A 
ATOM     87  C   UNL     1      -7.870  -0.440   5.561  1.00  0.00     0.135 A 
ATOM     88  C   UNL     1      -7.928  -0.865   7.916  1.00  0.00     0.135 A 
ATOM     89  F   UNL     1      -7.559   0.320   4.502  1.00  0.00    -0.206 F 
ATOM     90  C   UNL     1      -8.286  -1.749   5.303  1.00  0.00     0.059 A 
ATOM     91  C   UNL     1      -8.311  -2.184   7.683  1.00  0.00     0.059 A 
ATOM     92  F   UNL     1      -7.713  -0.492   9.189  1.00  0.00    -0.206 F 
ATOM     93  C   UNL     1      -8.500  -2.617   6.373  1.00  0.00     0.060 A 
BRANCH  93  94
ATOM     94  S   UNL     1      -8.955  -4.332   6.037  1.00  0.00     0.124 S 
ATOM     95  O   UNL     1     -10.296  -4.190   5.480  1.00  0.00    -0.237 OA
ATOM     96  O   UNL     1      -7.918  -4.753   5.098  1.00  0.00    -0.237 OA
ATOM     97  O   UNL     1      -8.889  -4.967   7.351  1.00  0.00    -0.744 OA
ENDBRANCH  93  94
ENDBRANCH  61  86
ENDBRANCH  35  36
ENDBRANCH  28  30
ENDBRANCH  27  28
ENDBRANCH  26  27
ENDBRANCH   1  26
TORSDOF 17
