REMARK SMILES C[C@H]1[C@@H](C(=O)OCCOC(=O)c2ccc(-c3c4nc(c(-c5c(F)cc(S(=O)(=O)[O-])cc5F)c5ccc([nH]5)c(-c5c(F)cc(S(=O)(=O)[O-])cc5F)c5nc(c(-c6c(F)cc(S(=O)(=O)[O-])cc6F)c6ccc3[nH]6)C=C5)C=C4)cc2)CC[N@@H+]1Cc1cc(F)c(F)c(F)c1
REMARK SMILES IDX 8 1 7 2 6 3 4 4 5 5 3 6 1 7 2 8 80 9 78 10 79 11 81 13 82 14
REMARK SMILES IDX 83 15 90 16 84 17 88 18 85 19 86 20 89 21 87 22 9 23 10 24
REMARK SMILES IDX 11 25 12 26 13 27 77 28 14 29 76 30 15 31 16 32 17 33 70 34
REMARK SMILES IDX 18 35 75 36 69 37 71 38 19 39 74 40 68 41 67 42 20 44 54 45
REMARK SMILES IDX 33 46 53 47 34 48 37 49 52 50 72 51 35 52 36 53 51 55 73 56
REMARK SMILES IDX 38 57 21 58 22 59 31 60 23 61 24 62 30 63 32 64 25 65 26 66
REMARK SMILES IDX 27 67 28 68 29 69 55 70 56 71 65 72 57 73 58 74 64 75 66 76
REMARK SMILES IDX 59 77 60 78 61 79 62 80 63 81 39 82 40 83 49 84 41 85 42 86
REMARK SMILES IDX 48 87 50 88 43 89 44 90 45 91 46 92 47 93
REMARK H PARENT 80 12 71 43 37 54
REMARK Flexibility Score: inf
ROOT
ATOM      1  C   UNL     1       1.288   2.422  -3.846  1.00  0.00     0.275 C 
ENDROOT
BRANCH   1   2
ATOM      2  C   UNL     1       1.989   2.535  -2.498  1.00  0.00     0.274 C 
BRANCH   2   3
ATOM      3  O   UNL     1       1.424   1.551  -1.610  1.00  0.00    -0.462 OA
BRANCH   3   4
ATOM      4  C   UNL     1       1.041   1.975  -0.378  1.00  0.00     0.315 C 
ATOM      5  O   UNL     1       1.205   3.109   0.053  1.00  0.00    -0.252 OA
BRANCH   4   6
ATOM      6  C   UNL     1       0.345   0.886   0.414  1.00  0.00     0.162 C 
ATOM      7  C   UNL     1       2.402  -0.645  -0.038  1.00  0.00     0.076 C 
ATOM      8  C   UNL     1       1.194  -0.316   0.842  1.00  0.00     0.195 C 
ATOM      9  N   UNL     1       0.279  -1.469   0.786  1.00  0.00    -0.328 N 
ATOM     10  C   UNL     1      -0.871   0.309  -0.302  1.00  0.00     0.083 C 
ATOM     11  C   UNL     1      -0.707  -1.196  -0.254  1.00  0.00     0.263 C 
ATOM     12  H   UNL     1       0.829  -2.291   0.537  1.00  0.00     0.348 HD
BRANCH   9  13
ATOM     13  C   UNL     1      -0.260  -1.958   2.053  1.00  0.00     0.299 C 
BRANCH  13  14
ATOM     14  C   UNL     1      -1.038  -0.994   2.922  1.00  0.00     0.012 A 
ATOM     15  C   UNL     1      -0.421  -0.388   4.030  1.00  0.00     0.052 A 
ATOM     16  C   UNL     1      -2.395  -0.724   2.684  1.00  0.00     0.052 A 
ATOM     17  C   UNL     1      -1.148   0.458   4.867  1.00  0.00     0.162 A 
ATOM     18  C   UNL     1      -3.103   0.136   3.525  1.00  0.00     0.162 A 
ATOM     19  F   UNL     1      -0.538   1.000   5.931  1.00  0.00    -0.204 F 
ATOM     20  C   UNL     1      -2.485   0.724   4.618  1.00  0.00     0.194 A 
ATOM     21  F   UNL     1      -4.395   0.379   3.270  1.00  0.00    -0.204 F 
ATOM     22  F   UNL     1      -3.176   1.531   5.435  1.00  0.00    -0.200 F 
ENDBRANCH  13  14
ENDBRANCH   9  13
ENDBRANCH   4   6
ENDBRANCH   3   4
ENDBRANCH   2   3
ENDBRANCH   1   2
BRANCH   1  23
ATOM     23  O   UNL     1      -0.106   2.721  -3.654  1.00  0.00    -0.458 OA
BRANCH  23  24
ATOM     24  C   UNL     1      -0.962   1.703  -3.898  1.00  0.00     0.338 C 
ATOM     25  O   UNL     1      -0.698   0.606  -4.358  1.00  0.00    -0.246 OA
BRANCH  24  26
ATOM     26  C   UNL     1      -2.325   2.105  -3.507  1.00  0.00     0.060 A 
ATOM     27  C   UNL     1      -2.584   2.629  -2.236  1.00  0.00     0.016 A 
ATOM     28  C   UNL     1      -3.369   1.857  -4.395  1.00  0.00     0.016 A 
ATOM     29  C   UNL     1      -3.902   2.844  -1.831  1.00  0.00     0.010 A 
ATOM     30  C   UNL     1      -4.676   2.164  -4.020  1.00  0.00     0.010 A 
ATOM     31  C   UNL     1      -4.961   2.644  -2.728  1.00  0.00    -0.014 A 
BRANCH  31  32
ATOM     32  C   UNL     1      -6.373   2.940  -2.366  1.00  0.00     0.031 A 
ATOM     33  C   UNL     1      -7.418   1.863  -2.487  1.00  0.00     0.074 A 
ATOM     34  C   UNL     1      -6.739   4.191  -2.024  1.00  0.00     0.049 A 
ATOM     35  N   UNL     1      -8.717   1.975  -2.566  1.00  0.00    -0.248 NA
ATOM     36  C   UNL     1      -6.928   0.476  -2.552  1.00  0.00     0.031 C 
ATOM     37  C   UNL     1      -5.828   5.320  -1.825  1.00  0.00     0.029 A 
ATOM     38  N   UNL     1      -7.984   4.731  -1.814  1.00  0.00    -0.354 N 
ATOM     39  C   UNL     1      -9.199   0.685  -2.755  1.00  0.00     0.074 A 
ATOM     40  C   UNL     1      -8.051  -0.198  -2.764  1.00  0.00     0.031 C 
ATOM     41  C   UNL     1      -6.542   6.415  -1.523  1.00  0.00     0.029 A 
ATOM     42  C   UNL     1      -7.960   6.089  -1.599  1.00  0.00     0.049 A 
ATOM     43  H   UNL     1      -8.812   4.198  -1.817  1.00  0.00     0.167 HD
ATOM     44  C   UNL     1     -10.481   0.282  -2.922  1.00  0.00     0.037 A 
ATOM     45  C   UNL     1      -8.961   6.988  -1.539  1.00  0.00     0.037 A 
ATOM     46  C   UNL     1     -11.616   1.167  -2.861  1.00  0.00     0.049 A 
ATOM     47  C   UNL     1     -10.375   6.528  -1.744  1.00  0.00     0.074 A 
ATOM     48  C   UNL     1     -12.958   0.862  -3.007  1.00  0.00     0.029 A 
ATOM     49  N   UNL     1     -11.541   2.531  -2.615  1.00  0.00    -0.354 N 
ATOM     50  N   UNL     1     -10.815   5.319  -1.998  1.00  0.00    -0.248 NA
ATOM     51  C   UNL     1     -11.426   7.552  -1.680  1.00  0.00     0.031 C 
ATOM     52  C   UNL     1     -13.693   2.044  -2.871  1.00  0.00     0.029 A 
ATOM     53  C   UNL     1     -12.811   3.080  -2.608  1.00  0.00     0.049 A 
ATOM     54  H   UNL     1     -10.707   3.033  -2.467  1.00  0.00     0.167 HD
ATOM     55  C   UNL     1     -12.195   5.433  -2.109  1.00  0.00     0.074 A 
ATOM     56  C   UNL     1     -12.518   6.829  -1.891  1.00  0.00     0.031 C 
ATOM     57  C   UNL     1     -13.110   4.470  -2.371  1.00  0.00     0.037 A 
BRANCH  44  58
ATOM     58  C   UNL     1     -10.729  -1.169  -3.223  1.00  0.00     0.058 A 
ATOM     59  C   UNL     1     -10.636  -2.160  -2.234  1.00  0.00     0.135 A 
ATOM     60  C   UNL     1     -11.106  -1.567  -4.516  1.00  0.00     0.135 A 
ATOM     61  F   UNL     1     -10.264  -1.837  -0.986  1.00  0.00    -0.206 F 
ATOM     62  C   UNL     1     -10.888  -3.499  -2.522  1.00  0.00     0.059 A 
ATOM     63  C   UNL     1     -11.382  -2.897  -4.822  1.00  0.00     0.059 A 
ATOM     64  F   UNL     1     -11.209  -0.659  -5.499  1.00  0.00    -0.206 F 
ATOM     65  C   UNL     1     -11.256  -3.858  -3.821  1.00  0.00     0.060 A 
BRANCH  65  66
ATOM     66  S   UNL     1     -11.581  -5.597  -4.184  1.00  0.00     0.124 S 
ATOM     67  O   UNL     1     -10.225  -6.132  -4.271  1.00  0.00    -0.237 OA
ATOM     68  O   UNL     1     -12.355  -6.024  -3.023  1.00  0.00    -0.237 OA
ATOM     69  O   UNL     1     -12.319  -5.549  -5.442  1.00  0.00    -0.744 OA
ENDBRANCH  65  66
ENDBRANCH  44  58
BRANCH  45  70
ATOM     70  C   UNL     1      -8.641   8.423  -1.327  1.00  0.00     0.058 A 
ATOM     71  C   UNL     1      -8.897   9.043  -0.097  1.00  0.00     0.135 A 
ATOM     72  C   UNL     1      -8.018   9.185  -2.330  1.00  0.00     0.135 A 
ATOM     73  F   UNL     1      -9.499   8.357   0.887  1.00  0.00    -0.206 F 
ATOM     74  C   UNL     1      -8.543  10.368   0.137  1.00  0.00     0.059 A 
ATOM     75  C   UNL     1      -7.634  10.504  -2.112  1.00  0.00     0.059 A 
ATOM     76  F   UNL     1      -7.738   8.630  -3.519  1.00  0.00    -0.206 F 
ATOM     77  C   UNL     1      -7.905  11.088  -0.875  1.00  0.00     0.060 A 
BRANCH  77  78
ATOM     78  S   UNL     1      -7.371  12.780  -0.539  1.00  0.00     0.124 S 
ATOM     79  O   UNL     1      -8.621  13.517  -0.685  1.00  0.00    -0.237 OA
ATOM     80  O   UNL     1      -6.846  12.677   0.819  1.00  0.00    -0.237 OA
ATOM     81  O   UNL     1      -6.367  13.023  -1.572  1.00  0.00    -0.744 OA
ENDBRANCH  77  78
ENDBRANCH  45  70
BRANCH  57  82
ATOM     82  C   UNL     1     -14.553   4.877  -2.394  1.00  0.00     0.058 A 
ATOM     83  C   UNL     1     -15.120   5.500  -3.515  1.00  0.00     0.135 A 
ATOM     84  C   UNL     1     -15.393   4.564  -1.314  1.00  0.00     0.135 A 
ATOM     85  F   UNL     1     -14.354   5.825  -4.568  1.00  0.00    -0.206 F 
ATOM     86  C   UNL     1     -16.477   5.801  -3.565  1.00  0.00     0.059 A 
ATOM     87  C   UNL     1     -16.755   4.842  -1.349  1.00  0.00     0.059 A 
ATOM     88  F   UNL     1     -14.894   3.963  -0.222  1.00  0.00    -0.206 F 
ATOM     89  C   UNL     1     -17.288   5.464  -2.478  1.00  0.00     0.060 A 
BRANCH  89  90
ATOM     90  S   UNL     1     -19.059   5.797  -2.579  1.00  0.00     0.124 S 
ATOM     91  O   UNL     1     -19.103   7.233  -2.322  1.00  0.00    -0.237 OA
ATOM     92  O   UNL     1     -19.381   5.387  -3.942  1.00  0.00    -0.237 OA
ATOM     93  O   UNL     1     -19.622   4.953  -1.529  1.00  0.00    -0.744 OA
ENDBRANCH  89  90
ENDBRANCH  57  82
ENDBRANCH  31  32
ENDBRANCH  24  26
ENDBRANCH  23  24
ENDBRANCH   1  23
TORSDOF 16
