REMARK SMILES O=C(N[C@@H](Cc1ccc(O)cc1)C(=O)N[C@@H](Cc1c[nH]c2ccccc12)C(=O)N[C@@H](CO)C(=O)OCCOC(=O)c1ccc(-c2c3nc(c(-c4c(F)cc(S(=O)(=O)[O-])cc4F)c4ccc([nH]4)c(-c4c(F)cc(S(=O)(=O)[O-])cc4F)c4nc(c(-c5c(F)cc(S(=O)(=O)[O-])cc5F)c5ccc2[nH]5)C=C4)C=C3)cc1)c1ccc(F)cc1
REMARK SMILES IDX 33 1 34 2 30 3 29 4 27 5 28 6 16 8 15 9 13 10 14 11 4 13
REMARK SMILES IDX 3 14 1 15 2 16 107 18 108 19 113 20 109 21 112 22 110 23
REMARK SMILES IDX 111 24 5 25 6 26 7 27 12 28 8 29 11 30 9 31 10 32 17 34
REMARK SMILES IDX 18 35 19 36 26 37 20 38 21 39 25 40 22 42 24 43 23 44 31 45
REMARK SMILES IDX 32 46 35 48 36 49 37 50 38 51 39 52 40 53 41 54 42 55 106 56
REMARK SMILES IDX 43 57 105 58 44 59 45 60 46 61 99 62 47 63 104 64 98 65
REMARK SMILES IDX 100 66 48 67 103 68 97 69 96 70 49 72 83 73 62 74 82 75
REMARK SMILES IDX 63 76 66 77 81 78 101 79 64 80 65 81 80 83 102 84 67 85
REMARK SMILES IDX 50 86 51 87 60 88 52 89 53 90 59 91 61 92 54 93 55 94 56 95
REMARK SMILES IDX 57 96 58 97 84 98 85 99 94 100 86 101 87 102 93 103 95 104
REMARK SMILES IDX 88 105 89 106 90 107 91 108 92 109 68 110 69 111 78 112
REMARK SMILES IDX 70 113 71 114 77 115 79 116 72 117 73 118 74 119 75 120
REMARK SMILES IDX 76 121
REMARK H PARENT 29 7 15 12 3 17 10 33 20 41 32 47 100 71 66 82
REMARK Flexibility Score: inf
ROOT
ATOM      1  C   UNL     1       5.371  -5.821  -7.387  1.00  0.00     0.331 C 
ATOM      2  O   UNL     1       5.624  -6.981  -7.072  1.00  0.00    -0.250 OA
ENDROOT
BRANCH   1   3
ATOM      3  C   UNL     1       5.875  -4.520  -6.506  1.00  0.00     0.218 C 
BRANCH   3   4
ATOM      4  N   UNL     1       5.894  -4.733  -4.991  1.00  0.00    -0.339 N 
ATOM      5  C   UNL     1       5.868  -4.101  -3.785  1.00  0.00     0.243 C 
ATOM      6  O   UNL     1       6.585  -4.753  -2.986  1.00  0.00    -0.273 OA
ATOM      7  H   UNL     1       5.944  -5.702  -4.824  1.00  0.00     0.164 HD
BRANCH   5   8
ATOM      8  C   UNL     1       5.199  -2.757  -3.117  1.00  0.00     0.175 C 
BRANCH   8   9
ATOM      9  N   UNL     1       6.116  -1.739  -2.612  1.00  0.00    -0.342 N 
ATOM     10  C   UNL     1       5.878  -0.902  -1.548  1.00  0.00     0.243 C 
ATOM     11  O   UNL     1       6.482   0.179  -1.583  1.00  0.00    -0.273 OA
ATOM     12  H   UNL     1       6.980  -1.644  -3.074  1.00  0.00     0.164 HD
BRANCH  10  13
ATOM     13  C   UNL     1       4.825  -1.176  -0.391  1.00  0.00     0.176 C 
BRANCH  13  14
ATOM     14  N   UNL     1       3.418  -0.825  -0.646  1.00  0.00    -0.340 N 
ATOM     15  O   UNL     1       1.410   0.102  -0.321  1.00  0.00    -0.269 OA
ATOM     16  C   UNL     1       2.612   0.156  -0.123  1.00  0.00     0.251 C 
ATOM     17  H   UNL     1       2.974  -1.398  -1.313  1.00  0.00     0.164 HD
BRANCH  16  18
ATOM     18  C   UNL     1       3.192   1.212   0.723  1.00  0.00     0.040 A 
ATOM     19  C   UNL     1       4.261   1.984   0.255  1.00  0.00     0.017 A 
ATOM     20  C   UNL     1       2.674   1.409   2.007  1.00  0.00     0.017 A 
ATOM     21  C   UNL     1       4.885   2.883   1.116  1.00  0.00     0.040 A 
ATOM     22  C   UNL     1       3.295   2.321   2.861  1.00  0.00     0.040 A 
ATOM     23  C   UNL     1       4.407   3.031   2.415  1.00  0.00     0.123 A 
ATOM     24  F   UNL     1       5.037   3.866   3.252  1.00  0.00    -0.207 F 
ENDBRANCH  16  18
ENDBRANCH  13  14
BRANCH  13  25
ATOM     25  C   UNL     1       5.006  -2.452   0.473  1.00  0.00     0.070 C 
BRANCH  25  26
ATOM     26  C   UNL     1       4.469  -3.810   0.065  1.00  0.00    -0.045 A 
ATOM     27  C   UNL     1       3.128  -4.048  -0.273  1.00  0.00     0.007 A 
ATOM     28  C   UNL     1       5.355  -4.904   0.055  1.00  0.00     0.007 A 
ATOM     29  C   UNL     1       2.725  -5.307  -0.735  1.00  0.00     0.046 A 
ATOM     30  C   UNL     1       4.956  -6.157  -0.415  1.00  0.00     0.046 A 
ATOM     31  C   UNL     1       3.655  -6.328  -0.854  1.00  0.00     0.115 A 
BRANCH  31  32
ATOM     32  O   UNL     1       3.287  -7.491  -1.459  1.00  0.00    -0.508 OA
ATOM     33  H   UNL     1       2.406  -7.606  -1.756  1.00  0.00     0.293 HD
ENDBRANCH  31  32
ENDBRANCH  25  26
ENDBRANCH  13  25
ENDBRANCH  10  13
ENDBRANCH   8   9
BRANCH   8  34
ATOM     34  C   UNL     1       3.876  -2.025  -3.383  1.00  0.00     0.072 C 
BRANCH  34  35
ATOM     35  C   UNL     1       3.397  -2.253  -4.701  1.00  0.00    -0.020 A 
ATOM     36  C   UNL     1       3.559  -1.493  -5.834  1.00  0.00     0.087 A 
ATOM     37  C   UNL     1       2.843  -3.498  -4.967  1.00  0.00     0.003 A 
ATOM     38  N   UNL     1       3.220  -2.317  -6.857  1.00  0.00    -0.361 N 
ATOM     39  C   UNL     1       2.918  -3.547  -6.318  1.00  0.00     0.046 A 
ATOM     40  C   UNL     1       2.511  -4.638  -4.200  1.00  0.00     0.010 A 
ATOM     41  H   UNL     1       3.194  -2.079  -7.812  1.00  0.00     0.166 HD
ATOM     42  C   UNL     1       2.748  -4.753  -6.908  1.00  0.00     0.026 A 
ATOM     43  C   UNL     1       2.444  -5.879  -4.802  1.00  0.00     0.001 A 
ATOM     44  C   UNL     1       2.618  -5.936  -6.155  1.00  0.00     0.002 A 
ENDBRANCH  34  35
ENDBRANCH   8  34
ENDBRANCH   5   8
ENDBRANCH   3   4
BRANCH   3  45
ATOM     45  C   UNL     1       7.283  -4.080  -6.942  1.00  0.00     0.193 C 
BRANCH  45  46
ATOM     46  O   UNL     1       8.278  -5.065  -6.684  1.00  0.00    -0.394 OA
ATOM     47  H   UNL     1       8.328  -5.232  -5.729  1.00  0.00     0.210 HD
ENDBRANCH  45  46
ENDBRANCH   3  45
ENDBRANCH   1   3
BRANCH   1  48
ATOM     48  O   UNL     1       4.545  -5.504  -8.473  1.00  0.00    -0.460 OA
BRANCH  48  49
ATOM     49  C   UNL     1       3.603  -6.466  -9.201  1.00  0.00     0.274 C 
BRANCH  49  50
ATOM     50  C   UNL     1       1.883  -6.546  -9.035  1.00  0.00     0.275 C 
BRANCH  50  51
ATOM     51  O   UNL     1       0.998  -5.376  -8.638  1.00  0.00    -0.458 OA
BRANCH  51  52
ATOM     52  C   UNL     1      -0.023  -5.531  -7.675  1.00  0.00     0.338 C 
ATOM     53  O   UNL     1      -0.456  -6.633  -7.356  1.00  0.00    -0.246 OA
BRANCH  52  54
ATOM     54  C   UNL     1      -0.477  -4.248  -6.897  1.00  0.00     0.060 A 
ATOM     55  C   UNL     1       0.153  -3.036  -7.088  1.00  0.00     0.016 A 
ATOM     56  C   UNL     1      -1.408  -4.238  -5.829  1.00  0.00     0.016 A 
ATOM     57  C   UNL     1       0.032  -1.974  -6.144  1.00  0.00     0.010 A 
ATOM     58  C   UNL     1      -1.683  -3.054  -5.017  1.00  0.00     0.010 A 
ATOM     59  C   UNL     1      -0.953  -1.861  -5.149  1.00  0.00    -0.014 A 
BRANCH  59  60
ATOM     60  C   UNL     1      -1.173  -0.503  -4.407  1.00  0.00     0.031 A 
ATOM     61  C   UNL     1      -1.667  -0.361  -2.951  1.00  0.00     0.074 A 
ATOM     62  C   UNL     1      -0.925   0.693  -5.022  1.00  0.00     0.049 A 
ATOM     63  N   UNL     1      -2.169   0.697  -2.336  1.00  0.00    -0.248 NA
ATOM     64  C   UNL     1      -1.575  -1.538  -2.081  1.00  0.00     0.031 C 
ATOM     65  C   UNL     1      -0.406   0.870  -6.380  1.00  0.00     0.029 A 
ATOM     66  N   UNL     1      -1.067   2.009  -4.593  1.00  0.00    -0.354 N 
ATOM     67  C   UNL     1      -2.514   0.296  -1.039  1.00  0.00     0.074 A 
ATOM     68  C   UNL     1      -2.136  -1.103  -0.954  1.00  0.00     0.031 C 
ATOM     69  C   UNL     1      -0.157   2.158  -6.623  1.00  0.00     0.029 A 
ATOM     70  C   UNL     1      -0.731   2.949  -5.551  1.00  0.00     0.049 A 
ATOM     71  H   UNL     1      -1.377   2.250  -3.690  1.00  0.00     0.167 HD
ATOM     72  C   UNL     1      -3.101   1.002  -0.026  1.00  0.00     0.037 A 
ATOM     73  C   UNL     1      -0.942   4.278  -5.679  1.00  0.00     0.037 A 
ATOM     74  C   UNL     1      -3.417   2.421  -0.063  1.00  0.00     0.049 A 
ATOM     75  C   UNL     1      -1.684   5.026  -4.619  1.00  0.00     0.074 A 
ATOM     76  C   UNL     1      -4.037   3.199   0.908  1.00  0.00     0.029 A 
ATOM     77  N   UNL     1      -3.124   3.283  -1.110  1.00  0.00    -0.354 N 
ATOM     78  N   UNL     1      -2.150   4.582  -3.480  1.00  0.00    -0.248 NA
ATOM     79  C   UNL     1      -1.963   6.446  -4.876  1.00  0.00     0.031 C 
ATOM     80  C   UNL     1      -4.179   4.505   0.421  1.00  0.00     0.029 A 
ATOM     81  C   UNL     1      -3.586   4.565  -0.827  1.00  0.00     0.049 A 
ATOM     82  H   UNL     1      -2.656   3.024  -1.937  1.00  0.00     0.167 HD
ATOM     83  C   UNL     1      -2.781   5.666  -2.883  1.00  0.00     0.074 A 
ATOM     84  C   UNL     1      -2.610   6.796  -3.772  1.00  0.00     0.031 C 
ATOM     85  C   UNL     1      -3.447   5.704  -1.704  1.00  0.00     0.037 A 
BRANCH  72  86
ATOM     86  C   UNL     1      -3.558   0.238   1.208  1.00  0.00     0.058 A 
ATOM     87  C   UNL     1      -2.679  -0.289   2.168  1.00  0.00     0.135 A 
ATOM     88  C   UNL     1      -4.938   0.067   1.448  1.00  0.00     0.135 A 
ATOM     89  F   UNL     1      -1.353  -0.139   2.026  1.00  0.00    -0.206 F 
ATOM     90  C   UNL     1      -3.142  -1.017   3.268  1.00  0.00     0.059 A 
ATOM     91  C   UNL     1      -5.423  -0.626   2.556  1.00  0.00     0.059 A 
ATOM     92  F   UNL     1      -5.840   0.581   0.597  1.00  0.00    -0.206 F 
ATOM     93  C   UNL     1      -4.516  -1.196   3.444  1.00  0.00     0.060 A 
BRANCH  93  94
ATOM     94  S   UNL     1      -5.100  -2.210   4.823  1.00  0.00     0.124 S 
ATOM     95  O   UNL     1      -4.733  -3.550   4.375  1.00  0.00    -0.237 OA
ATOM     96  O   UNL     1      -4.332  -1.687   5.949  1.00  0.00    -0.237 OA
ATOM     97  O   UNL     1      -6.533  -1.937   4.868  1.00  0.00    -0.744 OA
ENDBRANCH  93  94
ENDBRANCH  72  86
BRANCH  73  98
ATOM     98  C   UNL     1      -0.550   4.959  -6.955  1.00  0.00     0.058 A 
ATOM     99  C   UNL     1       0.496   5.891  -7.000  1.00  0.00     0.135 A 
ATOM    100  C   UNL     1      -1.170   4.622  -8.174  1.00  0.00     0.135 A 
ATOM    101  F   UNL     1       1.099   6.278  -5.866  1.00  0.00    -0.206 F 
ATOM    102  C   UNL     1       0.941   6.431  -8.205  1.00  0.00     0.059 A 
ATOM    103  C   UNL     1      -0.716   5.114  -9.392  1.00  0.00     0.059 A 
ATOM    104  F   UNL     1      -2.177   3.734  -8.193  1.00  0.00    -0.206 F 
ATOM    105  C   UNL     1       0.345   6.015  -9.399  1.00  0.00     0.060 A 
BRANCH 105 106
ATOM    106  S   UNL     1       1.030   6.599 -10.966  1.00  0.00     0.124 S 
ATOM    107  O   UNL     1       0.582   7.986 -10.988  1.00  0.00    -0.237 OA
ATOM    108  O   UNL     1       2.462   6.391 -10.770  1.00  0.00    -0.237 OA
ATOM    109  O   UNL     1       0.410   5.717 -11.952  1.00  0.00    -0.744 OA
ENDBRANCH 105 106
ENDBRANCH  73  98
BRANCH  85 110
ATOM    110  C   UNL     1      -4.029   7.031  -1.290  1.00  0.00     0.058 A 
ATOM    111  C   UNL     1      -5.130   7.597  -1.954  1.00  0.00     0.135 A 
ATOM    112  C   UNL     1      -3.468   7.758  -0.227  1.00  0.00     0.135 A 
ATOM    113  F   UNL     1      -5.698   6.956  -2.988  1.00  0.00    -0.206 F 
ATOM    114  C   UNL     1      -5.631   8.849  -1.603  1.00  0.00     0.059 A 
ATOM    115  C   UNL     1      -3.970   8.999   0.159  1.00  0.00     0.059 A 
ATOM    116  F   UNL     1      -2.414   7.269   0.445  1.00  0.00    -0.206 F 
ATOM    117  C   UNL     1      -5.041   9.544  -0.547  1.00  0.00     0.060 A 
BRANCH 117 118
ATOM    118  S   UNL     1      -5.698  11.168  -0.104  1.00  0.00     0.124 S 
ATOM    119  O   UNL     1      -5.225  11.990  -1.213  1.00  0.00    -0.237 OA
ATOM    120  O   UNL     1      -7.136  10.924  -0.065  1.00  0.00    -0.237 OA
ATOM    121  O   UNL     1      -5.080  11.444   1.190  1.00  0.00    -0.744 OA
ENDBRANCH 117 118
ENDBRANCH  85 110
ENDBRANCH  59  60
ENDBRANCH  52  54
ENDBRANCH  51  52
ENDBRANCH  50  51
ENDBRANCH  49  50
ENDBRANCH  48  49
ENDBRANCH   1  48
TORSDOF 27
