REMARK SMILES Cc1cccc(N2C(=O)/C(=C/c3ccc(C(=O)OCCOC(=O)c4ccc(-c5c6nc(c(-c7c(F)cc(S(=O)(=O)[O-])cc7F)c7ccc([nH]7)c(-c7c(F)cc(S(=O)(=O)[O-])cc7F)c7nc(c(-c8c(F)cc(S(=O)(=O)[O-])cc8F)c8ccc5[nH]8)C=C7)C=C6)cc4)cc3)c3ccccc3C2=O)c1
REMARK SMILES IDX 20 1 19 2 18 3 16 4 17 5 15 6 12 7 13 8 91 9 14 10 90 11
REMARK SMILES IDX 11 12 7 13 8 14 98 15 9 16 10 17 97 18 99 19 92 20 96 21
REMARK SMILES IDX 93 22 95 23 94 24 6 25 1 26 2 27 3 28 100 29 4 30 5 31 21 32
REMARK SMILES IDX 22 33 23 34 24 35 25 36 89 37 26 38 88 39 27 40 28 41 29 42
REMARK SMILES IDX 82 43 30 44 87 45 81 46 83 47 31 48 86 49 80 50 79 51 32 53
REMARK SMILES IDX 66 54 45 55 65 56 46 57 49 58 64 59 84 60 47 61 48 62 63 64
REMARK SMILES IDX 85 65 50 66 33 67 34 68 43 69 35 70 36 71 42 72 44 73 37 74
REMARK SMILES IDX 38 75 39 76 40 77 41 78 67 79 68 80 77 81 69 82 70 83 76 84
REMARK SMILES IDX 78 85 71 86 72 87 73 88 74 89 75 90 51 91 52 92 61 93 53 94
REMARK SMILES IDX 54 95 60 96 62 97 55 98 56 99 57 100 58 101 59 102
REMARK H PARENT 83 52 49 63
REMARK Flexibility Score: inf
ROOT
ATOM      1  C   UNL     1      -3.988  13.689   2.067  1.00  0.00     0.275 C 
ENDROOT
BRANCH   1   2
ATOM      2  C   UNL     1      -4.824  12.419   1.808  1.00  0.00     0.275 C 
BRANCH   2   3
ATOM      3  O   UNL     1      -4.022  11.346   1.295  1.00  0.00    -0.458 OA
BRANCH   3   4
ATOM      4  C   UNL     1      -4.750  10.300   0.816  1.00  0.00     0.338 C 
ATOM      5  O   UNL     1      -5.942  10.160   0.966  1.00  0.00    -0.246 OA
BRANCH   4   6
ATOM      6  C   UNL     1      -3.888   9.289   0.132  1.00  0.00     0.060 A 
ATOM      7  C   UNL     1      -2.349   7.112  -0.700  1.00  0.00    -0.025 A 
ATOM      8  C   UNL     1      -1.726   8.323  -0.390  1.00  0.00     0.009 A 
ATOM      9  C   UNL     1      -3.745   7.057  -0.801  1.00  0.00     0.009 A 
ATOM     10  C   UNL     1      -2.496   9.409   0.037  1.00  0.00     0.016 A 
ATOM     11  C   UNL     1      -4.512   8.136  -0.362  1.00  0.00     0.016 A 
BRANCH   7  12
ATOM     12  C   UNL     1      -1.566   5.869  -0.659  1.00  0.00     0.022 C 
ATOM     13  N   UNL     1      -1.673   2.460   0.442  1.00  0.00    -0.242 N 
ATOM     14  C   UNL     1      -0.976   3.636   0.080  1.00  0.00     0.265 C 
ATOM     15  C   UNL     1      -3.015   2.509   0.893  1.00  0.00     0.265 C 
ATOM     16  O   UNL     1       0.141   3.709  -0.431  1.00  0.00    -0.268 OA
ATOM     17  C   UNL     1      -1.742   4.908   0.281  1.00  0.00     0.049 C 
ATOM     18  C   UNL     1      -3.471   3.765   1.537  1.00  0.00     0.048 A 
ATOM     19  O   UNL     1      -3.848   1.606   0.860  1.00  0.00    -0.268 OA
ATOM     20  C   UNL     1      -2.748   4.934   1.349  1.00  0.00    -0.000 A 
ATOM     21  C   UNL     1      -4.611   3.763   2.359  1.00  0.00     0.014 A 
ATOM     22  C   UNL     1      -3.073   6.060   2.120  1.00  0.00     0.010 A 
ATOM     23  C   UNL     1      -4.993   4.921   3.034  1.00  0.00     0.001 A 
ATOM     24  C   UNL     1      -4.206   6.064   2.936  1.00  0.00     0.001 A 
BRANCH  13  25
ATOM     25  C   UNL     1      -1.021   1.162   0.252  1.00  0.00     0.053 A 
ATOM     26  C   UNL     1       2.535  -0.267  -0.020  1.00  0.00     0.044 C 
ATOM     27  C   UNL     1       1.037  -0.195   0.037  1.00  0.00    -0.049 A 
ATOM     28  C   UNL     1       0.279  -1.356  -0.086  1.00  0.00     0.003 A 
ATOM     29  C   UNL     1       0.384   1.038   0.228  1.00  0.00     0.030 A 
ATOM     30  C   UNL     1      -1.105  -1.278  -0.040  1.00  0.00     0.002 A 
ATOM     31  C   UNL     1      -1.740  -0.039   0.119  1.00  0.00     0.027 A 
ENDBRANCH  13  25
ENDBRANCH   7  12
ENDBRANCH   4   6
ENDBRANCH   3   4
ENDBRANCH   2   3
ENDBRANCH   1   2
BRANCH   1  32
ATOM     32  O   UNL     1      -3.332  14.313   0.942  1.00  0.00    -0.458 OA
BRANCH  32  33
ATOM     33  C   UNL     1      -2.656  13.490   0.089  1.00  0.00     0.338 C 
ATOM     34  O   UNL     1      -1.627  12.907   0.381  1.00  0.00    -0.246 OA
BRANCH  33  35
ATOM     35  C   UNL     1      -3.563  13.180  -1.056  1.00  0.00     0.060 A 
ATOM     36  C   UNL     1      -3.308  12.075  -1.883  1.00  0.00     0.016 A 
ATOM     37  C   UNL     1      -4.818  13.793  -1.067  1.00  0.00     0.016 A 
ATOM     38  C   UNL     1      -4.345  11.512  -2.632  1.00  0.00     0.010 A 
ATOM     39  C   UNL     1      -5.864  13.157  -1.680  1.00  0.00     0.010 A 
ATOM     40  C   UNL     1      -5.630  12.038  -2.489  1.00  0.00    -0.014 A 
BRANCH  40  41
ATOM     41  C   UNL     1      -6.769  11.717  -3.334  1.00  0.00     0.031 A 
ATOM     42  C   UNL     1      -7.617  10.518  -3.158  1.00  0.00     0.074 A 
ATOM     43  C   UNL     1      -7.087  12.736  -4.166  1.00  0.00     0.049 A 
ATOM     44  N   UNL     1      -8.342  10.004  -4.092  1.00  0.00    -0.248 NA
ATOM     45  C   UNL     1      -7.726   9.778  -1.905  1.00  0.00     0.031 C 
ATOM     46  C   UNL     1      -8.294  12.963  -4.932  1.00  0.00     0.029 A 
ATOM     47  N   UNL     1      -6.251  13.792  -4.566  1.00  0.00    -0.354 N 
ATOM     48  C   UNL     1      -9.230   9.119  -3.502  1.00  0.00     0.074 A 
ATOM     49  C   UNL     1      -8.713   8.910  -2.172  1.00  0.00     0.031 C 
ATOM     50  C   UNL     1      -8.005  13.830  -5.922  1.00  0.00     0.029 A 
ATOM     51  C   UNL     1      -6.559  14.033  -5.898  1.00  0.00     0.049 A 
ATOM     52  H   UNL     1      -5.585  14.264  -4.016  1.00  0.00     0.167 HD
ATOM     53  C   UNL     1     -10.403   8.827  -4.144  1.00  0.00     0.037 A 
ATOM     54  C   UNL     1      -5.694  13.712  -6.909  1.00  0.00     0.037 A 
ATOM     55  C   UNL     1     -10.466   9.584  -5.391  1.00  0.00     0.049 A 
ATOM     56  C   UNL     1      -6.346  12.730  -7.852  1.00  0.00     0.074 A 
ATOM     57  C   UNL     1     -11.046  10.809  -5.672  1.00  0.00     0.029 A 
ATOM     58  N   UNL     1      -9.601   9.294  -6.436  1.00  0.00    -0.354 N 
ATOM     59  N   UNL     1      -7.176  11.796  -7.471  1.00  0.00    -0.248 NA
ATOM     60  C   UNL     1      -6.187  12.794  -9.300  1.00  0.00     0.031 C 
ATOM     61  C   UNL     1     -10.471  11.296  -6.867  1.00  0.00     0.029 A 
ATOM     62  C   UNL     1      -9.552  10.360  -7.312  1.00  0.00     0.049 A 
ATOM     63  H   UNL     1      -9.098   8.454  -6.538  1.00  0.00     0.167 HD
ATOM     64  C   UNL     1      -7.730  11.214  -8.583  1.00  0.00     0.074 A 
ATOM     65  C   UNL     1      -7.053  11.848  -9.701  1.00  0.00     0.031 C 
ATOM     66  C   UNL     1      -8.749  10.306  -8.519  1.00  0.00     0.037 A 
BRANCH  53  67
ATOM     67  C   UNL     1     -11.643   8.170  -3.547  1.00  0.00     0.058 A 
ATOM     68  C   UNL     1     -12.926   8.452  -4.084  1.00  0.00     0.135 A 
ATOM     69  C   UNL     1     -11.660   7.285  -2.452  1.00  0.00     0.135 A 
ATOM     70  F   UNL     1     -13.083   9.194  -5.189  1.00  0.00    -0.206 F 
ATOM     71  C   UNL     1     -14.118   7.994  -3.524  1.00  0.00     0.059 A 
ATOM     72  C   UNL     1     -12.849   6.824  -1.857  1.00  0.00     0.059 A 
ATOM     73  F   UNL     1     -10.524   6.794  -1.938  1.00  0.00    -0.206 F 
ATOM     74  C   UNL     1     -14.076   7.202  -2.390  1.00  0.00     0.060 A 
BRANCH  74  75
ATOM     75  S   UNL     1     -15.639   6.668  -1.665  1.00  0.00     0.124 S 
ATOM     76  O   UNL     1     -16.255   7.941  -1.300  1.00  0.00    -0.237 OA
ATOM     77  O   UNL     1     -16.268   5.956  -2.773  1.00  0.00    -0.237 OA
ATOM     78  O   UNL     1     -15.226   5.834  -0.540  1.00  0.00    -0.744 OA
ENDBRANCH  74  75
ENDBRANCH  53  67
BRANCH  54  79
ATOM     79  C   UNL     1      -4.242  13.719  -6.541  1.00  0.00     0.058 A 
ATOM     80  C   UNL     1      -3.664  14.937  -6.126  1.00  0.00     0.135 A 
ATOM     81  C   UNL     1      -3.518  12.548  -6.266  1.00  0.00     0.135 A 
ATOM     82  F   UNL     1      -4.297  16.096  -6.370  1.00  0.00    -0.206 F 
ATOM     83  C   UNL     1      -2.501  14.983  -5.360  1.00  0.00     0.059 A 
ATOM     84  C   UNL     1      -2.340  12.572  -5.508  1.00  0.00     0.059 A 
ATOM     85  F   UNL     1      -3.995  11.352  -6.640  1.00  0.00    -0.206 F 
ATOM     86  C   UNL     1      -1.868  13.791  -5.020  1.00  0.00     0.060 A 
BRANCH  86  87
ATOM     87  S   UNL     1      -0.535  13.860  -3.793  1.00  0.00     0.124 S 
ATOM     88  O   UNL     1       0.530  14.515  -4.542  1.00  0.00    -0.237 OA
ATOM     89  O   UNL     1      -1.153  14.658  -2.737  1.00  0.00    -0.237 OA
ATOM     90  O   UNL     1      -0.310  12.456  -3.464  1.00  0.00    -0.744 OA
ENDBRANCH  86  87
ENDBRANCH  54  79
BRANCH  66  91
ATOM     91  C   UNL     1      -9.203   9.402  -9.637  1.00  0.00     0.058 A 
ATOM     92  C   UNL     1      -8.370   9.001 -10.693  1.00  0.00     0.135 A 
ATOM     93  C   UNL     1     -10.474   8.771  -9.591  1.00  0.00     0.135 A 
ATOM     94  F   UNL     1      -7.098   9.418 -10.778  1.00  0.00    -0.206 F 
ATOM     95  C   UNL     1      -8.793   8.116 -11.681  1.00  0.00     0.059 A 
ATOM     96  C   UNL     1     -10.891   7.836 -10.530  1.00  0.00     0.059 A 
ATOM     97  F   UNL     1     -11.357   9.025  -8.614  1.00  0.00    -0.206 F 
ATOM     98  C   UNL     1     -10.057   7.543 -11.595  1.00  0.00     0.060 A 
BRANCH  98  99
ATOM     99  S   UNL     1     -10.592   6.378 -12.856  1.00  0.00     0.124 S 
ATOM    100  O   UNL     1     -11.145   7.279 -13.861  1.00  0.00    -0.237 OA
ATOM    101  O   UNL     1      -9.347   5.710 -13.224  1.00  0.00    -0.237 OA
ATOM    102  O   UNL     1     -11.559   5.541 -12.153  1.00  0.00    -0.744 OA
ENDBRANCH  98  99
ENDBRANCH  66  91
ENDBRANCH  40  41
ENDBRANCH  33  35
ENDBRANCH  32  33
ENDBRANCH   1  32
TORSDOF 16
