REMARK SMILES COCC[C@]1(C(=O)OCCOC(=O)c2ccc(-c3c4nc(c(-c5c(F)cc(S(=O)(=O)[O-])cc5F)c5ccc([nH]5)c(-c5c(F)cc(S(=O)(=O)[O-])cc5F)c5nc(c(-c6c(F)cc(S(=O)(=O)[O-])cc6F)c6ccc3[nH]6)C=C5)C=C4)cc2)CCCN(C(=O)c2ccc(=O)[nH]c2)C1
REMARK SMILES IDX 9 1 8 2 6 3 7 4 5 5 80 6 93 7 81 8 83 9 82 10 4 11 3 12 2 13
REMARK SMILES IDX 1 14 84 15 85 16 86 17 87 18 92 19 88 20 91 21 89 22 90 24
REMARK SMILES IDX 10 25 11 26 12 27 13 28 14 29 15 30 79 31 16 32 78 33 17 34
REMARK SMILES IDX 18 35 19 36 72 37 20 38 77 39 71 40 73 41 21 42 76 43 70 44
REMARK SMILES IDX 69 45 22 47 56 48 35 49 55 50 36 51 39 52 54 53 74 54 37 55
REMARK SMILES IDX 38 56 53 58 75 59 40 60 23 61 24 62 33 63 25 64 26 65 32 66
REMARK SMILES IDX 34 67 27 68 28 69 29 70 30 71 31 72 57 73 58 74 67 75 59 76
REMARK SMILES IDX 60 77 66 78 68 79 61 80 62 81 63 82 64 83 65 84 41 85 42 86
REMARK SMILES IDX 51 87 43 88 44 89 50 90 52 91 45 92 46 93 47 94 48 95 49 96
REMARK H PARENT 91 23 73 46 39 57
REMARK Flexibility Score: inf
ROOT
ATOM      1  C   UNL     1      -0.727   2.687   1.502  1.00  0.00     0.274 C 
ENDROOT
BRANCH   1   2
ATOM      2  O   UNL     1      -0.511   1.270   1.642  1.00  0.00    -0.462 OA
BRANCH   2   3
ATOM      3  C   UNL     1       0.635   0.755   2.191  1.00  0.00     0.314 C 
ATOM      4  O   UNL     1       1.638   1.384   2.475  1.00  0.00    -0.252 OA
BRANCH   3   5
ATOM      5  C   UNL     1       0.449  -0.766   2.282  1.00  0.00     0.088 C 
ATOM      6  C   UNL     1       0.314  -1.131   0.767  1.00  0.00     0.022 C 
ATOM      7  C   UNL     1       1.681  -1.565   2.827  1.00  0.00     0.138 C 
ATOM      8  C   UNL     1       0.457  -2.587   0.341  1.00  0.00     0.023 C 
ATOM      9  N   UNL     1       1.492  -3.003   2.479  1.00  0.00    -0.337 N 
ATOM     10  C   UNL     1       1.603  -3.271   1.059  1.00  0.00     0.120 C 
BRANCH   5  11
ATOM     11  C   UNL     1      -0.658  -0.972   3.371  1.00  0.00     0.049 C 
BRANCH  11  12
ATOM     12  C   UNL     1      -2.130  -0.632   3.203  1.00  0.00     0.161 C 
BRANCH  12  13
ATOM     13  O   UNL     1      -2.850  -1.621   2.482  1.00  0.00    -0.385 OA
ATOM     14  C   UNL     1      -3.071  -1.297   1.124  1.00  0.00     0.194 C 
ENDBRANCH  12  13
ENDBRANCH  11  12
ENDBRANCH   5  11
BRANCH   9  15
ATOM     15  C   UNL     1       0.871  -3.875   3.381  1.00  0.00     0.255 C 
ATOM     16  O   UNL     1       0.886  -3.708   4.598  1.00  0.00    -0.269 OA
BRANCH  15  17
ATOM     17  C   UNL     1      -0.026  -4.931   2.794  1.00  0.00     0.056 A 
ATOM     18  C   UNL     1       0.453  -6.208   2.308  1.00  0.00     0.021 A 
ATOM     19  C   UNL     1      -1.339  -4.653   2.702  1.00  0.00     0.099 A 
ATOM     20  C   UNL     1      -0.382  -7.063   1.693  1.00  0.00     0.072 A 
ATOM     21  N   UNL     1      -2.204  -5.517   2.071  1.00  0.00    -0.328 N 
ATOM     22  C   UNL     1      -1.817  -6.710   1.513  1.00  0.00     0.247 A 
ATOM     23  H   UNL     1      -3.154  -5.265   2.016  1.00  0.00     0.169 HD
ATOM     24  O   UNL     1      -2.585  -7.444   0.902  1.00  0.00    -0.270 OA
ENDBRANCH  15  17
ENDBRANCH   9  15
ENDBRANCH   3   5
ENDBRANCH   2   3
ENDBRANCH   1   2
BRANCH   1  25
ATOM     25  C   UNL     1      -1.953   3.047   2.356  1.00  0.00     0.275 C 
BRANCH  25  26
ATOM     26  O   UNL     1      -1.722   2.673   3.724  1.00  0.00    -0.458 OA
BRANCH  26  27
ATOM     27  C   UNL     1      -0.761   3.425   4.301  1.00  0.00     0.338 C 
ATOM     28  O   UNL     1      -0.310   4.476   3.872  1.00  0.00    -0.246 OA
BRANCH  27  29
ATOM     29  C   UNL     1      -0.167   2.684   5.416  1.00  0.00     0.060 A 
ATOM     30  C   UNL     1       1.216   2.474   5.376  1.00  0.00     0.016 A 
ATOM     31  C   UNL     1      -0.914   2.390   6.556  1.00  0.00     0.016 A 
ATOM     32  C   UNL     1       1.889   2.101   6.530  1.00  0.00     0.010 A 
ATOM     33  C   UNL     1      -0.233   2.078   7.731  1.00  0.00     0.010 A 
ATOM     34  C   UNL     1       1.174   2.048   7.735  1.00  0.00    -0.014 A 
BRANCH  34  35
ATOM     35  C   UNL     1       1.877   2.437   8.982  1.00  0.00     0.031 A 
ATOM     36  C   UNL     1       2.153   1.470  10.081  1.00  0.00     0.074 A 
ATOM     37  C   UNL     1       2.181   3.748   9.110  1.00  0.00     0.049 A 
ATOM     38  N   UNL     1       2.650   1.712  11.265  1.00  0.00    -0.248 NA
ATOM     39  C   UNL     1       1.828   0.060   9.830  1.00  0.00     0.031 C 
ATOM     40  C   UNL     1       1.930   4.775   8.089  1.00  0.00     0.029 A 
ATOM     41  N   UNL     1       2.741   4.452  10.142  1.00  0.00    -0.354 N 
ATOM     42  C   UNL     1       2.699   0.486  11.911  1.00  0.00     0.074 A 
ATOM     43  C   UNL     1       2.165  -0.497  10.988  1.00  0.00     0.031 C 
ATOM     44  C   UNL     1       2.334   5.967   8.542  1.00  0.00     0.029 A 
ATOM     45  C   UNL     1       2.814   5.805   9.905  1.00  0.00     0.049 A 
ATOM     46  H   UNL     1       3.061   4.031  10.973  1.00  0.00     0.167 HD
ATOM     47  C   UNL     1       3.151   0.223  13.161  1.00  0.00     0.037 A 
ATOM     48  C   UNL     1       3.183   6.820  10.705  1.00  0.00     0.037 A 
ATOM     49  C   UNL     1       3.663   1.227  14.062  1.00  0.00     0.049 A 
ATOM     50  C   UNL     1       3.617   6.503  12.099  1.00  0.00     0.074 A 
ATOM     51  C   UNL     1       4.190   1.056  15.331  1.00  0.00     0.029 A 
ATOM     52  N   UNL     1       3.696   2.591  13.799  1.00  0.00    -0.354 N 
ATOM     53  N   UNL     1       3.696   5.332  12.683  1.00  0.00    -0.248 NA
ATOM     54  C   UNL     1       4.000   7.636  12.948  1.00  0.00     0.031 C 
ATOM     55  C   UNL     1       4.497   2.319  15.852  1.00  0.00     0.029 A 
ATOM     56  C   UNL     1       4.200   3.276  14.895  1.00  0.00     0.049 A 
ATOM     57  H   UNL     1       3.404   3.010  12.958  1.00  0.00     0.167 HD
ATOM     58  C   UNL     1       4.136   5.584  13.973  1.00  0.00     0.074 A 
ATOM     59  C   UNL     1       4.330   7.019  14.074  1.00  0.00     0.031 C 
ATOM     60  C   UNL     1       4.356   4.707  14.982  1.00  0.00     0.037 A 
BRANCH  47  61
ATOM     61  C   UNL     1       3.095  -1.201  13.638  1.00  0.00     0.058 A 
ATOM     62  C   UNL     1       3.994  -2.170  13.169  1.00  0.00     0.135 A 
ATOM     63  C   UNL     1       2.166  -1.587  14.618  1.00  0.00     0.135 A 
ATOM     64  F   UNL     1       4.895  -1.857  12.225  1.00  0.00    -0.206 F 
ATOM     65  C   UNL     1       3.966  -3.478  13.645  1.00  0.00     0.059 A 
ATOM     66  C   UNL     1       2.133  -2.885  15.122  1.00  0.00     0.059 A 
ATOM     67  F   UNL     1       1.282  -0.699  15.099  1.00  0.00    -0.206 F 
ATOM     68  C   UNL     1       3.031  -3.826  14.622  1.00  0.00     0.060 A 
BRANCH  68  69
ATOM     69  S   UNL     1       3.017  -5.522  15.242  1.00  0.00     0.124 S 
ATOM     70  O   UNL     1       2.412  -6.237  14.122  1.00  0.00    -0.237 OA
ATOM     71  O   UNL     1       4.434  -5.785  15.469  1.00  0.00    -0.237 OA
ATOM     72  O   UNL     1       2.198  -5.437  16.447  1.00  0.00    -0.744 OA
ENDBRANCH  68  69
ENDBRANCH  47  61
BRANCH  48  73
ATOM     73  C   UNL     1       3.119   8.214  10.197  1.00  0.00     0.058 A 
ATOM     74  C   UNL     1       4.286   8.918   9.876  1.00  0.00     0.135 A 
ATOM     75  C   UNL     1       1.885   8.840   9.954  1.00  0.00     0.135 A 
ATOM     76  F   UNL     1       5.487   8.359  10.090  1.00  0.00    -0.206 F 
ATOM     77  C   UNL     1       4.236  10.197   9.332  1.00  0.00     0.059 A 
ATOM     78  C   UNL     1       1.809  10.109   9.389  1.00  0.00     0.059 A 
ATOM     79  F   UNL     1       0.738   8.196  10.223  1.00  0.00    -0.206 F 
ATOM     80  C   UNL     1       2.991  10.783   9.088  1.00  0.00     0.060 A 
BRANCH  80  81
ATOM     81  S   UNL     1       2.934  12.415   8.317  1.00  0.00     0.124 S 
ATOM     82  O   UNL     1       3.278  13.280   9.439  1.00  0.00    -0.237 OA
ATOM     83  O   UNL     1       3.943  12.299   7.268  1.00  0.00    -0.237 OA
ATOM     84  O   UNL     1       1.557  12.513   7.841  1.00  0.00    -0.744 OA
ENDBRANCH  80  81
ENDBRANCH  48  73
BRANCH  60  85
ATOM     85  C   UNL     1       4.820   5.290  16.284  1.00  0.00     0.058 A 
ATOM     86  C   UNL     1       3.932   5.971  17.133  1.00  0.00     0.135 A 
ATOM     87  C   UNL     1       6.155   5.160  16.693  1.00  0.00     0.135 A 
ATOM     88  F   UNL     1       2.649   6.136  16.776  1.00  0.00    -0.206 F 
ATOM     89  C   UNL     1       4.359   6.519  18.336  1.00  0.00     0.059 A 
ATOM     90  C   UNL     1       6.599   5.681  17.903  1.00  0.00     0.059 A 
ATOM     91  F   UNL     1       7.041   4.517  15.915  1.00  0.00    -0.206 F 
ATOM     92  C   UNL     1       5.695   6.370  18.712  1.00  0.00     0.060 A 
BRANCH  92  93
ATOM     93  S   UNL     1       6.233   7.065  20.289  1.00  0.00     0.124 S 
ATOM     94  O   UNL     1       6.318   8.486  19.969  1.00  0.00    -0.237 OA
ATOM     95  O   UNL     1       5.149   6.680  21.188  1.00  0.00    -0.237 OA
ATOM     96  O   UNL     1       7.509   6.398  20.535  1.00  0.00    -0.744 OA
ENDBRANCH  92  93
ENDBRANCH  60  85
ENDBRANCH  34  35
ENDBRANCH  27  29
ENDBRANCH  26  27
ENDBRANCH  25  26
ENDBRANCH   1  25
TORSDOF 19
