REMARK SMILES Cc1cc(C)nc(N2CCCC[C@H]2C(=O)OCCOC(=O)c2ccc(-c3c4nc(c(-c5c(F)cc(S(=O)(=O)[O-])cc5F)c5ccc([nH]5)c(-c5c(F)cc(S(=O)(=O)[O-])cc5F)c5nc(c(-c6c(F)cc(S(=O)(=O)[O-])cc6F)c6ccc3[nH]6)C=C5)C=C4)cc2)n1
REMARK SMILES IDX 18 1 17 2 16 3 14 4 15 5 13 6 8 7 9 8 10 9 12 10 11 11 7 12
REMARK SMILES IDX 1 13 2 14 3 15 88 16 4 17 5 18 6 19 19 20 20 21 21 22 22 23
REMARK SMILES IDX 23 24 87 25 24 26 86 27 25 28 26 29 27 30 80 31 28 32 85 33
REMARK SMILES IDX 79 34 81 35 29 36 84 37 78 38 77 39 30 41 64 42 43 43 63 44
REMARK SMILES IDX 44 45 47 46 62 47 82 48 45 49 46 50 61 52 83 53 48 54 31 55
REMARK SMILES IDX 32 56 41 57 33 58 34 59 40 60 42 61 35 62 36 63 37 64 38 65
REMARK SMILES IDX 39 66 65 67 66 68 75 69 67 70 68 71 74 72 76 73 69 74 70 75
REMARK SMILES IDX 71 76 72 77 73 78 49 79 50 80 59 81 51 82 52 83 58 84 60 85
REMARK SMILES IDX 53 86 54 87 55 88 56 89 57 90
REMARK H PARENT 81 40 47 51
REMARK Flexibility Score: inf
ROOT
ATOM      1  C   UNL     1       5.117  -3.599   1.607  1.00  0.00     0.275 C 
ENDROOT
BRANCH   1   2
ATOM      2  C   UNL     1       4.256  -3.075   0.463  1.00  0.00     0.274 C 
BRANCH   2   3
ATOM      3  O   UNL     1       2.902  -2.854   0.906  1.00  0.00    -0.461 OA
BRANCH   3   4
ATOM      4  C   UNL     1       1.948  -3.670   0.364  1.00  0.00     0.328 C 
ATOM      5  O   UNL     1       2.195  -4.631  -0.356  1.00  0.00    -0.250 OA
BRANCH   4   6
ATOM      6  C   UNL     1       0.530  -3.206   0.754  1.00  0.00     0.195 C 
ATOM      7  N   UNL     1      -0.183  -2.663  -0.396  1.00  0.00    -0.327 N 
ATOM      8  C   UNL     1      -0.579  -3.534  -1.482  1.00  0.00     0.120 C 
ATOM      9  C   UNL     1      -1.372  -4.728  -0.939  1.00  0.00     0.022 C 
ATOM     10  C   UNL     1      -0.372  -4.302   1.339  1.00  0.00     0.037 C 
ATOM     11  C   UNL     1      -0.746  -5.365   0.304  1.00  0.00     0.005 C 
BRANCH   7  12
ATOM     12  C   UNL     1      -0.127  -1.310  -0.557  1.00  0.00     0.226 A 
ATOM     13  C   UNL     1       2.398   1.300  -0.121  1.00  0.00     0.067 C 
ATOM     14  C   UNL     1       1.064   0.642  -0.295  1.00  0.00     0.043 A 
ATOM     15  C   UNL     1      -0.097   1.383  -0.289  1.00  0.00     0.047 A 
ATOM     16  N   UNL     1       1.057  -0.698  -0.404  1.00  0.00    -0.218 NA
ATOM     17  C   UNL     1      -1.272   0.676  -0.443  1.00  0.00     0.043 A 
ATOM     18  C   UNL     1      -2.597   1.366  -0.338  1.00  0.00     0.067 C 
ATOM     19  N   UNL     1      -1.294  -0.657  -0.623  1.00  0.00    -0.218 NA
ENDBRANCH   7  12
ENDBRANCH   4   6
ENDBRANCH   3   4
ENDBRANCH   2   3
ENDBRANCH   1   2
BRANCH   1  20
ATOM     20  O   UNL     1       4.634  -4.893   2.005  1.00  0.00    -0.458 OA
BRANCH  20  21
ATOM     21  C   UNL     1       4.149  -4.978   3.261  1.00  0.00     0.338 C 
ATOM     22  O   UNL     1       4.179  -4.125   4.137  1.00  0.00    -0.246 OA
BRANCH  21  23
ATOM     23  C   UNL     1       3.456  -6.262   3.414  1.00  0.00     0.060 A 
ATOM     24  C   UNL     1       2.232  -6.424   2.770  1.00  0.00     0.016 A 
ATOM     25  C   UNL     1       3.932  -7.245   4.275  1.00  0.00     0.016 A 
ATOM     26  C   UNL     1       1.425  -7.520   3.049  1.00  0.00     0.010 A 
ATOM     27  C   UNL     1       3.160  -8.393   4.489  1.00  0.00     0.010 A 
ATOM     28  C   UNL     1       1.883  -8.523   3.909  1.00  0.00    -0.014 A 
BRANCH  28  29
ATOM     29  C   UNL     1       1.000  -9.668   4.258  1.00  0.00     0.031 A 
ATOM     30  C   UNL     1       0.561  -9.858   5.685  1.00  0.00     0.074 A 
ATOM     31  C   UNL     1       0.563 -10.517   3.307  1.00  0.00     0.049 A 
ATOM     32  N   UNL     1      -0.038 -10.879   6.239  1.00  0.00    -0.248 NA
ATOM     33  C   UNL     1       0.839  -8.749   6.614  1.00  0.00     0.031 C 
ATOM     34  C   UNL     1       0.837 -10.402   1.873  1.00  0.00     0.029 A 
ATOM     35  N   UNL     1      -0.212 -11.646   3.406  1.00  0.00    -0.354 N 
ATOM     36  C   UNL     1      -0.158 -10.564   7.587  1.00  0.00     0.074 A 
ATOM     37  C   UNL     1       0.422  -9.251   7.768  1.00  0.00     0.031 C 
ATOM     38  C   UNL     1       0.221 -11.404   1.226  1.00  0.00     0.029 A 
ATOM     39  C   UNL     1      -0.420 -12.278   2.203  1.00  0.00     0.049 A 
ATOM     40  H   UNL     1      -0.584 -11.971   4.257  1.00  0.00     0.167 HD
ATOM     41  C   UNL     1      -0.697 -11.307   8.583  1.00  0.00     0.037 A 
ATOM     42  C   UNL     1      -1.017 -13.452   1.922  1.00  0.00     0.037 A 
ATOM     43  C   UNL     1      -1.315 -12.592   8.388  1.00  0.00     0.049 A 
ATOM     44  C   UNL     1      -1.560 -14.287   3.049  1.00  0.00     0.074 A 
ATOM     45  C   UNL     1      -1.878 -13.431   9.333  1.00  0.00     0.029 A 
ATOM     46  N   UNL     1      -1.466 -13.216   7.158  1.00  0.00    -0.354 N 
ATOM     47  N   UNL     1      -1.590 -14.018   4.333  1.00  0.00    -0.248 NA
ATOM     48  C   UNL     1      -2.123 -15.597   2.694  1.00  0.00     0.031 C 
ATOM     49  C   UNL     1      -2.347 -14.576   8.677  1.00  0.00     0.029 A 
ATOM     50  C   UNL     1      -2.104 -14.434   7.321  1.00  0.00     0.049 A 
ATOM     51  H   UNL     1      -1.164 -12.847   6.297  1.00  0.00     0.167 HD
ATOM     52  C   UNL     1      -2.181 -15.121   4.937  1.00  0.00     0.074 A 
ATOM     53  C   UNL     1      -2.508 -16.054   3.878  1.00  0.00     0.031 C 
ATOM     54  C   UNL     1      -2.425 -15.345   6.252  1.00  0.00     0.037 A 
BRANCH  41  55
ATOM     55  C   UNL     1      -0.593 -10.768   9.980  1.00  0.00     0.058 A 
ATOM     56  C   UNL     1      -1.413  -9.727  10.440  1.00  0.00     0.135 A 
ATOM     57  C   UNL     1       0.342 -11.313  10.875  1.00  0.00     0.135 A 
ATOM     58  F   UNL     1      -2.308  -9.158   9.618  1.00  0.00    -0.206 F 
ATOM     59  C   UNL     1      -1.293  -9.227  11.734  1.00  0.00     0.059 A 
ATOM     60  C   UNL     1       0.466 -10.843  12.178  1.00  0.00     0.059 A 
ATOM     61  F   UNL     1       1.154 -12.308  10.482  1.00  0.00    -0.206 F 
ATOM     62  C   UNL     1      -0.345  -9.788  12.594  1.00  0.00     0.060 A 
BRANCH  62  63
ATOM     63  S   UNL     1      -0.187  -9.125  14.266  1.00  0.00     0.124 S 
ATOM     64  O   UNL     1       0.555  -7.892  14.020  1.00  0.00    -0.237 OA
ATOM     65  O   UNL     1      -1.579  -8.956  14.672  1.00  0.00    -0.237 OA
ATOM     66  O   UNL     1       0.546 -10.168  14.976  1.00  0.00    -0.744 OA
ENDBRANCH  62  63
ENDBRANCH  41  55
BRANCH  42  67
ATOM     67  C   UNL     1      -1.084 -13.936   0.518  1.00  0.00     0.058 A 
ATOM     68  C   UNL     1      -2.304 -13.988  -0.171  1.00  0.00     0.135 A 
ATOM     69  C   UNL     1       0.072 -14.348  -0.165  1.00  0.00     0.135 A 
ATOM     70  F   UNL     1      -3.437 -13.617   0.443  1.00  0.00    -0.206 F 
ATOM     71  C   UNL     1      -2.378 -14.439  -1.486  1.00  0.00     0.059 A 
ATOM     72  C   UNL     1       0.026 -14.779  -1.486  1.00  0.00     0.059 A 
ATOM     73  F   UNL     1       1.265 -14.309   0.449  1.00  0.00    -0.206 F 
ATOM     74  C   UNL     1      -1.206 -14.831  -2.135  1.00  0.00     0.060 A 
BRANCH  74  75
ATOM     75  S   UNL     1      -1.299 -15.365  -3.858  1.00  0.00     0.124 S 
ATOM     76  O   UNL     1      -1.792 -16.729  -3.715  1.00  0.00    -0.237 OA
ATOM     77  O   UNL     1      -2.236 -14.404  -4.433  1.00  0.00    -0.237 OA
ATOM     78  O   UNL     1       0.080 -15.236  -4.321  1.00  0.00    -0.744 OA
ENDBRANCH  74  75
ENDBRANCH  42  67
BRANCH  54  79
ATOM     79  C   UNL     1      -3.098 -16.637   6.614  1.00  0.00     0.058 A 
ATOM     80  C   UNL     1      -2.391 -17.848   6.642  1.00  0.00     0.135 A 
ATOM     81  C   UNL     1      -4.452 -16.654   6.985  1.00  0.00     0.135 A 
ATOM     82  F   UNL     1      -1.097 -17.882   6.287  1.00  0.00    -0.206 F 
ATOM     83  C   UNL     1      -3.008 -19.038   7.011  1.00  0.00     0.059 A 
ATOM     84  C   UNL     1      -5.084 -17.830   7.376  1.00  0.00     0.059 A 
ATOM     85  F   UNL     1      -5.168 -15.519   6.982  1.00  0.00    -0.206 F 
ATOM     86  C   UNL     1      -4.355 -19.019   7.377  1.00  0.00     0.060 A 
BRANCH  86  87
ATOM     87  S   UNL     1      -5.139 -20.562   7.892  1.00  0.00     0.124 S 
ATOM     88  O   UNL     1      -5.385 -21.210   6.608  1.00  0.00    -0.237 OA
ATOM     89  O   UNL     1      -4.109 -21.177   8.725  1.00  0.00    -0.237 OA
ATOM     90  O   UNL     1      -6.329 -20.113   8.609  1.00  0.00    -0.744 OA
ENDBRANCH  86  87
ENDBRANCH  54  79
ENDBRANCH  28  29
ENDBRANCH  21  23
ENDBRANCH  20  21
ENDBRANCH   1  20
TORSDOF 15
