REMARK SMILES Cc1cc(Nc2ccc(C(=O)OCCOC(=O)c3ccc(-c4c5nc(c(-c6c(F)cc(S(=O)(=O)[O-])cc6F)c6ccc([nH]6)c(-c6c(F)cc(S(=O)(=O)[O-])cc6F)c6nc(c(-c7c(F)cc(S(=O)(=O)[O-])cc7F)c7ccc4[nH]7)C=C6)C=C5)cc3)cc2)nc(C(C)C)n1
REMARK SMILES IDX 13 1 12 2 10 3 11 4 9 5 6 6 7 7 85 8 8 9 84 10 5 11 4 13
REMARK SMILES IDX 1 14 2 15 3 16 91 17 87 18 86 19 88 20 89 21 90 22 14 23
REMARK SMILES IDX 15 24 16 25 17 26 18 27 19 28 83 29 20 30 82 31 21 32 22 33
REMARK SMILES IDX 23 34 76 35 24 36 81 37 75 38 77 39 25 40 80 41 74 42 73 43
REMARK SMILES IDX 26 45 60 46 39 47 59 48 40 49 43 50 58 51 78 52 41 53 42 54
REMARK SMILES IDX 57 56 79 57 44 58 27 59 28 60 37 61 29 62 30 63 36 64 38 65
REMARK SMILES IDX 31 66 32 67 33 68 34 69 35 70 61 71 62 72 71 73 63 74 64 75
REMARK SMILES IDX 70 76 72 77 65 78 66 79 67 80 68 81 69 82 45 83 46 84 55 85
REMARK SMILES IDX 47 86 48 87 54 88 56 89 49 90 50 91 51 92 52 93 53 94
REMARK H PARENT 5 12 77 44 43 55
REMARK Flexibility Score: inf
ROOT
ATOM      1  C   UNL     1       9.462  -1.176   1.229  1.00  0.00     0.275 C 
ENDROOT
BRANCH   1   2
ATOM      2  O   UNL     1       8.037  -1.371   1.331  1.00  0.00    -0.458 OA
BRANCH   2   3
ATOM      3  C   UNL     1       7.358  -1.310   0.159  1.00  0.00     0.338 C 
ATOM      4  O   UNL     1       7.831  -1.071  -0.941  1.00  0.00    -0.246 OA
BRANCH   3   5
ATOM      5  C   UNL     1       5.930  -1.645   0.357  1.00  0.00     0.060 A 
ATOM      6  C   UNL     1       3.168  -2.128   0.521  1.00  0.00     0.040 A 
ATOM      7  C   UNL     1       3.908  -2.648  -0.540  1.00  0.00     0.027 A 
ATOM      8  C   UNL     1       3.829  -1.386   1.512  1.00  0.00     0.027 A 
ATOM      9  C   UNL     1       5.270  -2.377  -0.637  1.00  0.00     0.018 A 
ATOM     10  C   UNL     1       5.210  -1.163   1.449  1.00  0.00     0.018 A 
BRANCH   6  11
ATOM     11  N   UNL     1       1.761  -2.177   0.454  1.00  0.00    -0.340 N 
ATOM     12  H   UNL     1       1.319  -3.054   0.528  1.00  0.00     0.168 HD
BRANCH  11  13
ATOM     13  C   UNL     1       0.953  -1.033   0.287  1.00  0.00     0.134 A 
ATOM     14  C   UNL     1      -2.654  -0.077  -0.022  1.00  0.00     0.067 C 
ATOM     15  C   UNL     1      -1.159  -0.024   0.048  1.00  0.00     0.043 A 
ATOM     16  C   UNL     1      -0.418  -1.175   0.232  1.00  0.00     0.070 A 
ATOM     17  N   UNL     1      -0.592   1.196  -0.055  1.00  0.00    -0.238 NA
ATOM     18  C   UNL     1       0.750   1.245   0.017  1.00  0.00     0.133 A 
ATOM     19  N   UNL     1       1.533   0.175   0.200  1.00  0.00    -0.216 NA
BRANCH  18  20
ATOM     20  C   UNL     1       1.448   2.582  -0.074  1.00  0.00     0.051 C 
ATOM     21  C   UNL     1       1.086   3.317  -1.363  1.00  0.00     0.016 C 
ATOM     22  C   UNL     1       1.147   3.428   1.160  1.00  0.00     0.016 C 
ENDBRANCH  18  20
ENDBRANCH  11  13
ENDBRANCH   6  11
ENDBRANCH   3   5
ENDBRANCH   2   3
ENDBRANCH   1   2
BRANCH   1  23
ATOM     23  C   UNL     1      10.211  -2.509   1.248  1.00  0.00     0.275 C 
BRANCH  23  24
ATOM     24  O   UNL     1       9.966  -3.253   0.043  1.00  0.00    -0.458 OA
BRANCH  24  25
ATOM     25  C   UNL     1       9.116  -4.297   0.172  1.00  0.00     0.338 C 
ATOM     26  O   UNL     1       8.566  -4.686   1.188  1.00  0.00    -0.246 OA
BRANCH  25  27
ATOM     27  C   UNL     1       8.890  -4.919  -1.139  1.00  0.00     0.060 A 
ATOM     28  C   UNL     1       8.026  -4.297  -2.034  1.00  0.00     0.016 A 
ATOM     29  C   UNL     1       9.405  -6.180  -1.425  1.00  0.00     0.016 A 
ATOM     30  C   UNL     1       7.571  -4.975  -3.160  1.00  0.00     0.010 A 
ATOM     31  C   UNL     1       9.047  -6.807  -2.623  1.00  0.00     0.010 A 
ATOM     32  C   UNL     1       8.097  -6.230  -3.488  1.00  0.00    -0.014 A 
BRANCH  32  33
ATOM     33  C   UNL     1       7.669  -6.942  -4.726  1.00  0.00     0.031 A 
ATOM     34  C   UNL     1       7.134  -8.347  -4.641  1.00  0.00     0.074 A 
ATOM     35  C   UNL     1       7.801  -6.352  -5.932  1.00  0.00     0.049 A 
ATOM     36  N   UNL     1       6.963  -9.229  -5.592  1.00  0.00    -0.248 NA
ATOM     37  C   UNL     1       6.763  -8.829  -3.301  1.00  0.00     0.031 C 
ATOM     38  C   UNL     1       8.264  -4.981  -6.161  1.00  0.00     0.029 A 
ATOM     39  N   UNL     1       7.579  -6.839  -7.197  1.00  0.00    -0.354 N 
ATOM     40  C   UNL     1       6.536 -10.392  -4.959  1.00  0.00     0.074 A 
ATOM     41  C   UNL     1       6.469 -10.099  -3.543  1.00  0.00     0.031 C 
ATOM     42  C   UNL     1       8.287  -4.736  -7.478  1.00  0.00     0.029 A 
ATOM     43  C   UNL     1       7.941  -5.959  -8.191  1.00  0.00     0.049 A 
ATOM     44  H   UNL     1       7.199  -7.730  -7.376  1.00  0.00     0.167 HD
ATOM     45  C   UNL     1       6.239 -11.593  -5.513  1.00  0.00     0.037 A 
ATOM     46  C   UNL     1       8.058  -6.128  -9.522  1.00  0.00     0.037 A 
ATOM     47  C   UNL     1       6.267 -11.852  -6.930  1.00  0.00     0.049 A 
ATOM     48  C   UNL     1       7.745  -7.468 -10.118  1.00  0.00     0.074 A 
ATOM     49  C   UNL     1       5.954 -13.022  -7.599  1.00  0.00     0.029 A 
ATOM     50  N   UNL     1       6.626 -10.924  -7.898  1.00  0.00    -0.354 N 
ATOM     51  N   UNL     1       7.380  -8.571  -9.510  1.00  0.00    -0.248 NA
ATOM     52  C   UNL     1       7.868  -7.593 -11.576  1.00  0.00     0.031 C 
ATOM     53  C   UNL     1       6.163 -12.813  -8.967  1.00  0.00     0.029 A 
ATOM     54  C   UNL     1       6.559 -11.498  -9.157  1.00  0.00     0.049 A 
ATOM     55  H   UNL     1       6.891  -9.993  -7.716  1.00  0.00     0.167 HD
ATOM     56  C   UNL     1       7.217  -9.521 -10.510  1.00  0.00     0.074 A 
ATOM     57  C   UNL     1       7.514  -8.858 -11.765  1.00  0.00     0.031 C 
ATOM     58  C   UNL     1       6.854 -10.822 -10.397  1.00  0.00     0.037 A 
BRANCH  45  59
ATOM     59  C   UNL     1       5.914 -12.728  -4.577  1.00  0.00     0.058 A 
ATOM     60  C   UNL     1       4.725 -12.773  -3.832  1.00  0.00     0.135 A 
ATOM     61  C   UNL     1       6.822 -13.790  -4.418  1.00  0.00     0.135 A 
ATOM     62  F   UNL     1       3.825 -11.782  -3.934  1.00  0.00    -0.206 F 
ATOM     63  C   UNL     1       4.472 -13.799  -2.925  1.00  0.00     0.059 A 
ATOM     64  C   UNL     1       6.576 -14.841  -3.539  1.00  0.00     0.059 A 
ATOM     65  F   UNL     1       7.972 -13.805  -5.109  1.00  0.00    -0.206 F 
ATOM     66  C   UNL     1       5.409 -14.823  -2.777  1.00  0.00     0.060 A 
BRANCH  66  67
ATOM     67  S   UNL     1       5.093 -16.122  -1.564  1.00  0.00     0.124 S 
ATOM     68  O   UNL     1       5.380 -15.427  -0.313  1.00  0.00    -0.237 OA
ATOM     69  O   UNL     1       3.688 -16.440  -1.802  1.00  0.00    -0.237 OA
ATOM     70  O   UNL     1       6.040 -17.170  -1.932  1.00  0.00    -0.744 OA
ENDBRANCH  66  67
ENDBRANCH  45  59
BRANCH  46  71
ATOM     71  C   UNL     1       8.547  -4.995 -10.352  1.00  0.00     0.058 A 
ATOM     72  C   UNL     1       7.679  -4.279 -11.186  1.00  0.00     0.135 A 
ATOM     73  C   UNL     1       9.876  -4.548 -10.249  1.00  0.00     0.135 A 
ATOM     74  F   UNL     1       6.404  -4.673 -11.324  1.00  0.00    -0.206 F 
ATOM     75  C   UNL     1       8.104  -3.148 -11.877  1.00  0.00     0.059 A 
ATOM     76  C   UNL     1      10.317  -3.406 -10.909  1.00  0.00     0.059 A 
ATOM     77  F   UNL     1      10.742  -5.191  -9.451  1.00  0.00    -0.206 F 
ATOM     78  C   UNL     1       9.422  -2.711 -11.721  1.00  0.00     0.060 A 
BRANCH  78  79
ATOM     79  S   UNL     1       9.931  -1.181 -12.535  1.00  0.00     0.124 S 
ATOM     80  O   UNL     1      10.040  -1.609 -13.924  1.00  0.00    -0.237 OA
ATOM     81  O   UNL     1       8.820  -0.285 -12.227  1.00  0.00    -0.237 OA
ATOM     82  O   UNL     1      11.191  -0.853 -11.874  1.00  0.00    -0.744 OA
ENDBRANCH  78  79
ENDBRANCH  46  71
BRANCH  58  83
ATOM     83  C   UNL     1       6.718 -11.612 -11.668  1.00  0.00     0.058 A 
ATOM     84  C   UNL     1       7.838 -12.063 -12.381  1.00  0.00     0.135 A 
ATOM     85  C   UNL     1       5.447 -11.977 -12.140  1.00  0.00     0.135 A 
ATOM     86  F   UNL     1       9.075 -11.732 -11.977  1.00  0.00    -0.206 F 
ATOM     87  C   UNL     1       7.703 -12.843 -13.525  1.00  0.00     0.059 A 
ATOM     88  C   UNL     1       5.289 -12.775 -13.268  1.00  0.00     0.059 A 
ATOM     89  F   UNL     1       4.343 -11.574 -11.489  1.00  0.00    -0.206 F 
ATOM     90  C   UNL     1       6.424 -13.198 -13.958  1.00  0.00     0.060 A 
BRANCH  90  91
ATOM     91  S   UNL     1       6.262 -14.254 -15.413  1.00  0.00     0.124 S 
ATOM     92  O   UNL     1       6.574 -13.321 -16.490  1.00  0.00    -0.237 OA
ATOM     93  O   UNL     1       7.260 -15.289 -15.160  1.00  0.00    -0.237 OA
ATOM     94  O   UNL     1       4.874 -14.703 -15.354  1.00  0.00    -0.744 OA
ENDBRANCH  90  91
ENDBRANCH  58  83
ENDBRANCH  32  33
ENDBRANCH  25  27
ENDBRANCH  24  25
ENDBRANCH  23  24
ENDBRANCH   1  23
TORSDOF 17
