REMARK SMILES CCC[NH2+][C@]1(C(=O)OCCOC(=O)c2ccc(-c3c4nc(c(-c5c(F)cc(S(=O)(=O)[O-])cc5F)c5ccc([nH]5)c(-c5c(F)cc(S(=O)(=O)[O-])cc5F)c5nc(c(-c6c(F)cc(S(=O)(=O)[O-])cc6F)c6ccc3[nH]6)C=C5)C=C4)cc2)CCC[C@H](OC(C)(C)C)C1
REMARK SMILES IDX 9 1 8 2 6 3 7 4 5 5 80 6 89 7 81 8 83 9 82 10 4 11 3 14 2 15
REMARK SMILES IDX 1 16 84 17 85 18 86 19 87 20 88 21 10 22 11 23 12 24 13 25
REMARK SMILES IDX 14 26 15 27 79 28 16 29 78 30 17 31 18 32 19 33 72 34 20 35
REMARK SMILES IDX 77 36 71 37 73 38 21 39 76 40 70 41 69 42 22 44 56 45 35 46
REMARK SMILES IDX 55 47 36 48 39 49 54 50 74 51 37 52 38 53 53 55 75 56 40 57
REMARK SMILES IDX 23 58 24 59 33 60 25 61 26 62 32 63 34 64 27 65 28 66 29 67
REMARK SMILES IDX 30 68 31 69 57 70 58 71 67 72 59 73 60 74 66 75 68 76 61 77
REMARK SMILES IDX 62 78 63 79 64 80 65 81 41 82 42 83 51 84 43 85 44 86 50 87
REMARK SMILES IDX 52 88 45 89 46 90 47 91 48 92 49 93
REMARK H PARENT 4 12 4 13 73 43 39 54
REMARK Flexibility Score: inf
ROOT
ATOM      1  C   UNL     1      -0.143  -1.468   0.175  1.00  0.00     0.274 C 
ENDROOT
BRANCH   1   2
ATOM      2  O   UNL     1       0.598  -2.289  -0.754  1.00  0.00    -0.457 OA
BRANCH   2   3
ATOM      3  C   UNL     1       0.212  -2.167  -2.059  1.00  0.00     0.368 C 
ATOM      4  O   UNL     1      -0.601  -1.332  -2.448  1.00  0.00    -0.245 OA
BRANCH   3   5
ATOM      5  C   UNL     1       0.772  -3.311  -2.971  1.00  0.00     0.196 C 
ATOM      6  C   UNL     1       2.297  -3.537  -2.893  1.00  0.00     0.081 C 
ATOM      7  C   UNL     1       0.094  -4.608  -2.446  1.00  0.00     0.113 C 
ATOM      8  C   UNL     1       2.752  -4.794  -3.641  1.00  0.00     0.010 C 
ATOM      9  C   UNL     1       0.495  -5.893  -3.188  1.00  0.00     0.125 C 
ATOM     10  C   UNL     1       2.023  -6.046  -3.158  1.00  0.00     0.032 C 
BRANCH   5  11
ATOM     11  N   UNL     1       0.308  -3.058  -4.367  1.00  0.00    -0.332 N 
ATOM     12  H   UNL     1       0.505  -3.894  -4.916  1.00  0.00     0.347 HD
ATOM     13  H   UNL     1      -0.683  -2.829  -4.284  1.00  0.00     0.347 HD
BRANCH  11  14
ATOM     14  C   UNL     1       0.912  -1.920  -5.059  1.00  0.00     0.261 C 
BRANCH  14  15
ATOM     15  C   UNL     1       0.246  -1.657  -6.416  1.00  0.00     0.058 C 
ATOM     16  C   UNL     1      -1.232  -1.300  -6.320  1.00  0.00     0.010 C 
ENDBRANCH  14  15
ENDBRANCH  11  14
ENDBRANCH   5  11
BRANCH   9  17
ATOM     17  O   UNL     1       0.096  -5.883  -4.553  1.00  0.00    -0.372 OA
BRANCH  17  18
ATOM     18  C   UNL     1      -1.185  -6.389  -4.938  1.00  0.00     0.060 C 
ATOM     19  C   UNL     1      -1.175  -7.919  -4.871  1.00  0.00     0.042 C 
ATOM     20  C   UNL     1      -2.358  -5.828  -4.129  1.00  0.00     0.042 C 
ATOM     21  C   UNL     1      -1.357  -5.950  -6.400  1.00  0.00     0.042 C 
ENDBRANCH  17  18
ENDBRANCH   9  17
ENDBRANCH   3   5
ENDBRANCH   2   3
ENDBRANCH   1   2
BRANCH   1  22
ATOM     22  C   UNL     1       0.708  -0.339   0.747  1.00  0.00     0.275 C 
BRANCH  22  23
ATOM     23  O   UNL     1       1.259   0.448  -0.319  1.00  0.00    -0.458 OA
BRANCH  23  24
ATOM     24  C   UNL     1       2.610   0.455  -0.385  1.00  0.00     0.338 C 
ATOM     25  O   UNL     1       3.398  -0.024   0.411  1.00  0.00    -0.246 OA
BRANCH  24  26
ATOM     26  C   UNL     1       3.022   1.007  -1.681  1.00  0.00     0.060 A 
ATOM     27  C   UNL     1       3.030   0.132  -2.763  1.00  0.00     0.016 A 
ATOM     28  C   UNL     1       3.530   2.295  -1.812  1.00  0.00     0.016 A 
ATOM     29  C   UNL     1       3.592   0.510  -3.975  1.00  0.00     0.010 A 
ATOM     30  C   UNL     1       4.063   2.695  -3.046  1.00  0.00     0.010 A 
ATOM     31  C   UNL     1       4.127   1.793  -4.125  1.00  0.00    -0.014 A 
BRANCH  31  32
ATOM     32  C   UNL     1       4.846   2.124  -5.381  1.00  0.00     0.031 A 
ATOM     33  C   UNL     1       6.348   2.195  -5.379  1.00  0.00     0.074 A 
ATOM     34  C   UNL     1       4.168   2.259  -6.537  1.00  0.00     0.049 A 
ATOM     35  N   UNL     1       7.164   2.493  -6.357  1.00  0.00    -0.248 NA
ATOM     36  C   UNL     1       7.022   1.881  -4.109  1.00  0.00     0.031 C 
ATOM     37  C   UNL     1       2.718   2.131  -6.687  1.00  0.00     0.029 A 
ATOM     38  N   UNL     1       4.615   2.514  -7.809  1.00  0.00    -0.354 N 
ATOM     39  C   UNL     1       8.443   2.423  -5.819  1.00  0.00     0.074 A 
ATOM     40  C   UNL     1       8.296   2.064  -4.424  1.00  0.00     0.031 C 
ATOM     41  C   UNL     1       2.397   2.291  -7.982  1.00  0.00     0.029 A 
ATOM     42  C   UNL     1       3.610   2.578  -8.744  1.00  0.00     0.049 A 
ATOM     43  H   UNL     1       5.566   2.639  -8.031  1.00  0.00     0.167 HD
ATOM     44  C   UNL     1       9.633   2.639  -6.430  1.00  0.00     0.037 A 
ATOM     45  C   UNL     1       3.660   2.855 -10.062  1.00  0.00     0.037 A 
ATOM     46  C   UNL     1       9.783   2.981  -7.820  1.00  0.00     0.049 A 
ATOM     47  C   UNL     1       4.989   3.142 -10.706  1.00  0.00     0.074 A 
ATOM     48  C   UNL     1      10.944   3.258  -8.521  1.00  0.00     0.029 A 
ATOM     49  N   UNL     1       8.738   3.083  -8.725  1.00  0.00    -0.354 N 
ATOM     50  N   UNL     1       6.186   3.134 -10.169  1.00  0.00    -0.248 NA
ATOM     51  C   UNL     1       4.973   3.484 -12.135  1.00  0.00     0.031 C 
ATOM     52  C   UNL     1      10.598   3.552  -9.845  1.00  0.00     0.029 A 
ATOM     53  C   UNL     1       9.225   3.425  -9.976  1.00  0.00     0.049 A 
ATOM     54  H   UNL     1       7.788   2.933  -8.511  1.00  0.00     0.167 HD
ATOM     55  C   UNL     1       7.066   3.458 -11.196  1.00  0.00     0.074 A 
ATOM     56  C   UNL     1       6.266   3.636 -12.391  1.00  0.00     0.031 C 
ATOM     57  C   UNL     1       8.414   3.599 -11.154  1.00  0.00     0.037 A 
BRANCH  44  58
ATOM     58  C   UNL     1      10.865   2.554  -5.576  1.00  0.00     0.058 A 
ATOM     59  C   UNL     1      11.399   1.322  -5.167  1.00  0.00     0.135 A 
ATOM     60  C   UNL     1      11.520   3.724  -5.161  1.00  0.00     0.135 A 
ATOM     61  F   UNL     1      10.797   0.175  -5.518  1.00  0.00    -0.206 F 
ATOM     62  C   UNL     1      12.525   1.254  -4.353  1.00  0.00     0.059 A 
ATOM     63  C   UNL     1      12.658   3.680  -4.363  1.00  0.00     0.059 A 
ATOM     64  F   UNL     1      11.045   4.927  -5.522  1.00  0.00    -0.206 F 
ATOM     65  C   UNL     1      13.144   2.440  -3.950  1.00  0.00     0.060 A 
BRANCH  65  66
ATOM     66  S   UNL     1      14.594   2.344  -2.879  1.00  0.00     0.124 S 
ATOM     67  O   UNL     1      13.982   2.055  -1.586  1.00  0.00    -0.237 OA
ATOM     68  O   UNL     1      15.357   1.253  -3.477  1.00  0.00    -0.237 OA
ATOM     69  O   UNL     1      15.197   3.668  -3.007  1.00  0.00    -0.744 OA
ENDBRANCH  65  66
ENDBRANCH  44  58
BRANCH  45  70
ATOM     70  C   UNL     1       2.406   2.906 -10.859  1.00  0.00     0.058 A 
ATOM     71  C   UNL     1       2.118   1.928 -11.822  1.00  0.00     0.135 A 
ATOM     72  C   UNL     1       1.477   3.942 -10.678  1.00  0.00     0.135 A 
ATOM     73  F   UNL     1       2.982   0.926 -12.039  1.00  0.00    -0.206 F 
ATOM     74  C   UNL     1       0.958   1.983 -12.589  1.00  0.00     0.059 A 
ATOM     75  C   UNL     1       0.300   4.005 -11.415  1.00  0.00     0.059 A 
ATOM     76  F   UNL     1       1.705   4.897  -9.763  1.00  0.00    -0.206 F 
ATOM     77  C   UNL     1       0.055   3.027 -12.378  1.00  0.00     0.060 A 
BRANCH  77  78
ATOM     78  S   UNL     1      -1.470   3.074 -13.344  1.00  0.00     0.124 S 
ATOM     79  O   UNL     1      -0.999   3.625 -14.609  1.00  0.00    -0.237 OA
ATOM     80  O   UNL     1      -1.868   1.669 -13.368  1.00  0.00    -0.237 OA
ATOM     81  O   UNL     1      -2.336   3.946 -12.555  1.00  0.00    -0.744 OA
ENDBRANCH  77  78
ENDBRANCH  45  70
BRANCH  57  82
ATOM     82  C   UNL     1       9.104   3.944 -12.444  1.00  0.00     0.058 A 
ATOM     83  C   UNL     1       9.041   5.236 -12.988  1.00  0.00     0.135 A 
ATOM     84  C   UNL     1       9.848   2.975 -13.135  1.00  0.00     0.135 A 
ATOM     85  F   UNL     1       8.338   6.197 -12.367  1.00  0.00    -0.206 F 
ATOM     86  C   UNL     1       9.664   5.548 -14.192  1.00  0.00     0.059 A 
ATOM     87  C   UNL     1      10.497   3.271 -14.330  1.00  0.00     0.059 A 
ATOM     88  F   UNL     1       9.950   1.727 -12.651  1.00  0.00    -0.206 F 
ATOM     89  C   UNL     1      10.384   4.556 -14.860  1.00  0.00     0.060 A 
BRANCH  89  90
ATOM     90  S   UNL     1      11.194   4.966 -16.421  1.00  0.00     0.124 S 
ATOM     91  O   UNL     1      10.079   4.888 -17.358  1.00  0.00    -0.237 OA
ATOM     92  O   UNL     1      11.716   6.306 -16.166  1.00  0.00    -0.237 OA
ATOM     93  O   UNL     1      12.207   3.924 -16.558  1.00  0.00    -0.744 OA
ENDBRANCH  89  90
ENDBRANCH  57  82
ENDBRANCH  31  32
ENDBRANCH  24  26
ENDBRANCH  23  24
ENDBRANCH  22  23
ENDBRANCH   1  22
TORSDOF 19
