REMARK SMILES CCCCCCNC(=O)Oc1cccc(-c2ccc([C@@H](C)C(=O)OCCOC(=O)c3ccc(-c4c5nc(c(-c6c(F)cc(S(=O)(=O)[O-])cc6F)c6ccc([nH]6)c(-c6c(F)cc(S(=O)(=O)[O-])cc6F)c6nc(c(-c7c(F)cc(S(=O)(=O)[O-])cc7F)c7ccc4[nH]7)C=C6)C=C5)cc3)cc2C(F)(F)F)c1
REMARK SMILES IDX 20 1 21 2 19 3 16 4 17 5 97 6 18 7 96 8 15 9 11 10 12 11
REMARK SMILES IDX 102 12 13 13 14 14 10 15 8 16 7 17 9 19 6 20 5 21 4 22 3 23
REMARK SMILES IDX 2 24 1 25 98 26 99 27 100 28 101 29 22 30 23 31 24 32 25 33
REMARK SMILES IDX 26 34 27 35 28 36 29 37 30 38 31 39 95 40 32 41 94 42 33 43
REMARK SMILES IDX 34 44 35 45 88 46 36 47 93 48 87 49 89 50 37 51 92 52 86 53
REMARK SMILES IDX 85 54 38 56 72 57 51 58 71 59 52 60 55 61 70 62 90 63 53 64
REMARK SMILES IDX 54 65 69 67 91 68 56 69 39 70 40 71 49 72 41 73 42 74 48 75
REMARK SMILES IDX 50 76 43 77 44 78 45 79 46 80 47 81 73 82 74 83 83 84 75 85
REMARK SMILES IDX 76 86 82 87 84 88 77 89 78 90 79 91 80 92 81 93 57 94 58 95
REMARK SMILES IDX 67 96 59 97 60 98 66 99 68 100 61 101 62 102 63 103 64 104
REMARK SMILES IDX 65 105
REMARK H PARENT 7 18 89 55 55 66
REMARK Flexibility Score: inf
ROOT
ATOM      1  C   UNL     1      -4.740  12.380  -6.331  1.00  0.00     0.126 C 
ATOM      2  C   UNL     1      -5.971  13.270  -6.478  1.00  0.00     0.025 C 
ENDROOT
BRANCH   1   3
ATOM      3  C   UNL     1      -4.826  11.468  -5.115  1.00  0.00    -0.033 A 
ATOM      4  C   UNL     1      -4.963   9.702  -2.882  1.00  0.00    -0.006 A 
ATOM      5  C   UNL     1      -4.985  11.101  -2.722  1.00  0.00     0.009 A 
ATOM      6  C   UNL     1      -4.892   9.182  -4.192  1.00  0.00     0.064 A 
ATOM      7  C   UNL     1      -4.932  11.968  -3.816  1.00  0.00     0.005 A 
ATOM      8  C   UNL     1      -4.806  10.075  -5.285  1.00  0.00     0.018 A 
BRANCH   4   9
ATOM      9  C   UNL     1      -5.044   8.853  -1.679  1.00  0.00    -0.014 A 
ATOM     10  C   UNL     1      -4.155   7.134  -0.220  1.00  0.00     0.133 A 
ATOM     11  C   UNL     1      -5.294   7.186   0.581  1.00  0.00     0.047 A 
ATOM     12  C   UNL     1      -4.019   7.957  -1.339  1.00  0.00     0.056 A 
ATOM     13  C   UNL     1      -6.306   8.088   0.271  1.00  0.00     0.004 A 
ATOM     14  C   UNL     1      -6.183   8.911  -0.852  1.00  0.00     0.009 A 
BRANCH  10  15
ATOM     15  O   UNL     1      -3.236   6.108   0.062  1.00  0.00    -0.410 OA
BRANCH  15  16
ATOM     16  C   UNL     1      -1.885   6.408   0.129  1.00  0.00     0.412 C 
ATOM     17  N   UNL     1      -1.098   5.298   0.273  1.00  0.00    -0.321 N 
ATOM     18  H   UNL     1      -0.127   5.450   0.323  1.00  0.00     0.167 HD
ATOM     19  O   UNL     1      -1.395   7.530   0.094  1.00  0.00    -0.224 OA
BRANCH  17  20
ATOM     20  C   UNL     1      -1.544   3.920   0.361  1.00  0.00     0.119 C 
BRANCH  20  21
ATOM     21  C   UNL     1      -0.932   3.037  -0.725  1.00  0.00     0.021 C 
BRANCH  21  22
ATOM     22  C   UNL     1       0.595   2.908  -0.675  1.00  0.00     0.002 C 
BRANCH  22  23
ATOM     23  C   UNL     1       1.174   2.370   0.638  1.00  0.00    -0.000 C 
BRANCH  23  24
ATOM     24  C   UNL     1       0.684   0.982   1.056  1.00  0.00    -0.003 C 
ATOM     25  C   UNL     1       1.065  -0.113   0.071  1.00  0.00     0.004 C 
ENDBRANCH  23  24
ENDBRANCH  22  23
ENDBRANCH  21  22
ENDBRANCH  20  21
ENDBRANCH  17  20
ENDBRANCH  15  16
ENDBRANCH  10  15
ENDBRANCH   4   9
BRANCH   6  26
ATOM     26  C   UNL     1      -4.885   7.697  -4.488  1.00  0.00     0.417 C 
ATOM     27  F   UNL     1      -5.346   7.415  -5.744  1.00  0.00    -0.166 F 
ATOM     28  F   UNL     1      -3.639   7.153  -4.427  1.00  0.00    -0.166 F 
ATOM     29  F   UNL     1      -5.670   6.953  -3.659  1.00  0.00    -0.166 F 
ENDBRANCH   6  26
ENDBRANCH   1   3
BRANCH   1  30
ATOM     30  C   UNL     1      -3.471  13.217  -6.459  1.00  0.00     0.313 C 
ATOM     31  O   UNL     1      -3.067  13.622  -7.545  1.00  0.00    -0.252 OA
BRANCH  30  32
ATOM     32  O   UNL     1      -2.874  13.495  -5.272  1.00  0.00    -0.462 OA
BRANCH  32  33
ATOM     33  C   UNL     1      -1.619  14.201  -5.323  1.00  0.00     0.274 C 
BRANCH  33  34
ATOM     34  C   UNL     1      -0.446  13.248  -5.087  1.00  0.00     0.275 C 
BRANCH  34  35
ATOM     35  O   UNL     1      -0.280  12.346  -6.195  1.00  0.00    -0.458 OA
BRANCH  35  36
ATOM     36  C   UNL     1      -0.852  11.130  -6.041  1.00  0.00     0.338 C 
ATOM     37  O   UNL     1      -1.450  10.706  -5.068  1.00  0.00    -0.246 OA
BRANCH  36  38
ATOM     38  C   UNL     1      -0.750  10.389  -7.304  1.00  0.00     0.060 A 
ATOM     39  C   UNL     1      -1.898  10.249  -8.086  1.00  0.00     0.016 A 
ATOM     40  C   UNL     1       0.448   9.782  -7.680  1.00  0.00     0.016 A 
ATOM     41  C   UNL     1      -1.859   9.491  -9.252  1.00  0.00     0.010 A 
ATOM     42  C   UNL     1       0.491   9.035  -8.860  1.00  0.00     0.010 A 
ATOM     43  C   UNL     1      -0.664   8.879  -9.649  1.00  0.00    -0.014 A 
BRANCH  43  44
ATOM     44  C   UNL     1      -0.623   8.062 -10.885  1.00  0.00     0.031 A 
ATOM     45  C   UNL     1      -0.508   6.569 -10.791  1.00  0.00     0.074 A 
ATOM     46  C   UNL     1      -0.685   8.669 -12.085  1.00  0.00     0.049 A 
ATOM     47  N   UNL     1      -0.339   5.693 -11.746  1.00  0.00    -0.248 NA
ATOM     48  C   UNL     1      -0.593   5.984  -9.443  1.00  0.00     0.031 C 
ATOM     49  C   UNL     1      -0.846  10.108 -12.296  1.00  0.00     0.029 A 
ATOM     50  N   UNL     1      -0.613   8.151 -13.353  1.00  0.00    -0.354 N 
ATOM     51  C   UNL     1      -0.266   4.456 -11.117  1.00  0.00     0.074 A 
ATOM     52  C   UNL     1      -0.405   4.696  -9.696  1.00  0.00     0.031 C 
ATOM     53  C   UNL     1      -0.864  10.359 -13.615  1.00  0.00     0.029 A 
ATOM     54  C   UNL     1      -0.658   9.108 -14.340  1.00  0.00     0.049 A 
ATOM     55  H   UNL     1      -0.536   7.188 -13.540  1.00  0.00     0.167 HD
ATOM     56  C   UNL     1      -0.098   3.235 -11.679  1.00  0.00     0.037 A 
ATOM     57  C   UNL     1      -0.513   8.992 -15.674  1.00  0.00     0.037 A 
ATOM     58  C   UNL     1       0.013   3.009 -13.097  1.00  0.00     0.049 A 
ATOM     59  C   UNL     1      -0.253   7.635 -16.266  1.00  0.00     0.074 A 
ATOM     60  C   UNL     1       0.141   1.806 -13.769  1.00  0.00     0.029 A 
ATOM     61  N   UNL     1       0.016   4.008 -14.059  1.00  0.00    -0.354 N 
ATOM     62  N   UNL     1      -0.188   6.472 -15.662  1.00  0.00    -0.248 NA
ATOM     63  C   UNL     1      -0.023   7.575 -17.716  1.00  0.00     0.031 C 
ATOM     64  C   UNL     1       0.266   2.082 -15.136  1.00  0.00     0.029 A 
ATOM     65  C   UNL     1       0.178   3.453 -15.318  1.00  0.00     0.049 A 
ATOM     66  H   UNL     1      -0.083   4.970 -13.875  1.00  0.00     0.167 HD
ATOM     67  C   UNL     1       0.080   5.541 -16.658  1.00  0.00     0.074 A 
ATOM     68  C   UNL     1       0.152   6.274 -17.906  1.00  0.00     0.031 C 
ATOM     69  C   UNL     1       0.253   4.201 -16.549  1.00  0.00     0.037 A 
BRANCH  56  70
ATOM     70  C   UNL     1       0.014   2.055 -10.757  1.00  0.00     0.058 A 
ATOM     71  C   UNL     1      -1.101   1.524 -10.091  1.00  0.00     0.135 A 
ATOM     72  C   UNL     1       1.256   1.430 -10.558  1.00  0.00     0.135 A 
ATOM     73  F   UNL     1      -2.308   2.092 -10.235  1.00  0.00    -0.206 F 
ATOM     74  C   UNL     1      -0.984   0.430  -9.238  1.00  0.00     0.059 A 
ATOM     75  C   UNL     1       1.392   0.322  -9.726  1.00  0.00     0.059 A 
ATOM     76  F   UNL     1       2.354   1.899 -11.170  1.00  0.00    -0.206 F 
ATOM     77  C   UNL     1       0.269  -0.162  -9.058  1.00  0.00     0.060 A 
BRANCH  77  78
ATOM     78  S   UNL     1       0.409  -1.575  -7.944  1.00  0.00     0.124 S 
ATOM     79  O   UNL     1       0.328  -0.926  -6.638  1.00  0.00    -0.237 OA
ATOM     80  O   UNL     1      -0.744  -2.388  -8.319  1.00  0.00    -0.237 OA
ATOM     81  O   UNL     1       1.710  -2.146  -8.280  1.00  0.00    -0.744 OA
ENDBRANCH  77  78
ENDBRANCH  56  70
BRANCH  57  82
ATOM     82  C   UNL     1      -0.578  10.203 -16.533  1.00  0.00     0.058 A 
ATOM     83  C   UNL     1      -1.667  10.424 -17.386  1.00  0.00     0.135 A 
ATOM     84  C   UNL     1       0.438  11.172 -16.503  1.00  0.00     0.135 A 
ATOM     85  F   UNL     1      -2.656   9.520 -17.458  1.00  0.00    -0.206 F 
ATOM     86  C   UNL     1      -1.750  11.562 -18.183  1.00  0.00     0.059 A 
ATOM     87  C   UNL     1       0.368  12.329 -17.273  1.00  0.00     0.059 A 
ATOM     88  F   UNL     1       1.498  11.011 -15.697  1.00  0.00    -0.206 F 
ATOM     89  C   UNL     1      -0.728  12.511 -18.116  1.00  0.00     0.060 A 
BRANCH  89  90
ATOM     90  S   UNL     1      -0.872  14.014 -19.107  1.00  0.00     0.124 S 
ATOM     91  O   UNL     1      -0.544  13.519 -20.439  1.00  0.00    -0.237 OA
ATOM     92  O   UNL     1      -2.264  14.394 -18.892  1.00  0.00    -0.237 OA
ATOM     93  O   UNL     1       0.114  14.908 -18.505  1.00  0.00    -0.744 OA
ENDBRANCH  89  90
ENDBRANCH  57  82
BRANCH  69  94
ATOM     94  C   UNL     1       0.531   3.436 -17.811  1.00  0.00     0.058 A 
ATOM     95  C   UNL     1       1.797   3.461 -18.415  1.00  0.00     0.135 A 
ATOM     96  C   UNL     1      -0.457   2.621 -18.384  1.00  0.00     0.135 A 
ATOM     97  F   UNL     1       2.772   4.234 -17.910  1.00  0.00    -0.206 F 
ATOM     98  C   UNL     1       2.073   2.707 -19.550  1.00  0.00     0.059 A 
ATOM     99  C   UNL     1      -0.197   1.842 -19.508  1.00  0.00     0.059 A 
ATOM    100  F   UNL     1      -1.683   2.559 -17.840  1.00  0.00    -0.206 F 
ATOM    101  C   UNL     1       1.070   1.897 -20.087  1.00  0.00     0.060 A 
BRANCH 101 102
ATOM    102  S   UNL     1       1.456   0.879 -21.528  1.00  0.00     0.124 S 
ATOM    103  O   UNL     1       1.452   1.871 -22.598  1.00  0.00    -0.237 OA
ATOM    104  O   UNL     1       2.762   0.327 -21.182  1.00  0.00    -0.237 OA
ATOM    105  O   UNL     1       0.363  -0.088 -21.563  1.00  0.00    -0.744 OA
ENDBRANCH 101 102
ENDBRANCH  69  94
ENDBRANCH  43  44
ENDBRANCH  36  38
ENDBRANCH  35  36
ENDBRANCH  34  35
ENDBRANCH  33  34
ENDBRANCH  32  33
ENDBRANCH  30  32
ENDBRANCH   1  30
TORSDOF 24
