REMARK SMILES O=C(CSc1nc(O)cc(=O)[nH]1)Nc1cccc(C(=O)OCCOC(=O)c2ccc(-c3c4nc(c(-c5c(F)cc(S(=O)(=O)[O-])cc5F)c5ccc([nH]5)c(-c5c(F)cc(S(=O)(=O)[O-])cc5F)c5nc(c(-c6c(F)cc(S(=O)(=O)[O-])cc6F)c6ccc3[nH]6)C=C5)C=C4)cc2)c1
REMARK SMILES IDX 22 1 21 2 19 3 20 4 18 5 14 6 15 7 93 8 16 9 17 10 13 11
REMARK SMILES IDX 1 12 2 13 3 15 4 16 5 17 6 18 12 19 7 20 10 21 9 23 11 24
REMARK SMILES IDX 8 25 23 27 24 28 25 29 26 30 27 31 28 32 92 33 29 34 91 35
REMARK SMILES IDX 30 36 31 37 32 38 85 39 33 40 90 41 84 42 86 43 34 44 89 45
REMARK SMILES IDX 83 46 82 47 35 49 69 50 48 51 68 52 49 53 52 54 67 55 87 56
REMARK SMILES IDX 50 57 51 58 66 60 88 61 53 62 36 63 37 64 46 65 38 66 39 67
REMARK SMILES IDX 45 68 47 69 40 70 41 71 42 72 43 73 44 74 70 75 71 76 80 77
REMARK SMILES IDX 72 78 73 79 79 80 81 81 74 82 75 83 76 84 77 85 78 86 54 87
REMARK SMILES IDX 55 88 64 89 56 90 57 91 63 92 65 93 58 94 59 95 60 96 61 97
REMARK SMILES IDX 62 98
REMARK H PARENT 13 14 12 22 8 26 86 48 52 59
REMARK Flexibility Score: inf
ROOT
ATOM      1  C   UNL     1      -1.977  -4.621   0.903  1.00  0.00     0.275 C 
ENDROOT
BRANCH   1   2
ATOM      2  O   UNL     1      -0.871  -3.735   1.168  1.00  0.00    -0.458 OA
BRANCH   2   3
ATOM      3  C   UNL     1      -0.905  -3.057   2.343  1.00  0.00     0.338 C 
ATOM      4  O   UNL     1      -1.774  -3.123   3.196  1.00  0.00    -0.246 OA
BRANCH   3   5
ATOM      5  C   UNL     1       0.360  -2.302   2.526  1.00  0.00     0.062 A 
ATOM      6  C   UNL     1       2.280  -1.132   1.645  1.00  0.00     0.042 A 
ATOM      7  C   UNL     1       2.842  -1.099   2.927  1.00  0.00     0.026 A 
ATOM      8  C   UNL     1       1.059  -1.775   1.438  1.00  0.00     0.041 A 
ATOM      9  C   UNL     1       2.122  -1.575   4.020  1.00  0.00     0.003 A 
ATOM     10  C   UNL     1       0.861  -2.131   3.823  1.00  0.00     0.016 A 
BRANCH   6  11
ATOM     11  N   UNL     1       2.967  -0.436   0.636  1.00  0.00    -0.325 N 
ATOM     12  O   UNL     1       1.268  -0.094  -0.922  1.00  0.00    -0.274 OA
ATOM     13  C   UNL     1       2.413   0.091  -0.520  1.00  0.00     0.234 C 
ATOM     14  H   UNL     1       3.935  -0.311   0.762  1.00  0.00     0.169 HD
BRANCH  13  15
ATOM     15  C   UNL     1       3.352   1.017  -1.275  1.00  0.00     0.178 C 
BRANCH  15  16
ATOM     16  S   UNL     1       4.382   2.011  -0.153  1.00  0.00    -0.078 SA
BRANCH  16  17
ATOM     17  C   UNL     1       3.250   3.210   0.403  1.00  0.00     0.172 A 
ATOM     18  N   UNL     1       3.473   4.455   0.142  1.00  0.00    -0.189 NA
ATOM     19  N   UNL     1       2.212   2.758   1.158  1.00  0.00    -0.301 N 
ATOM     20  C   UNL     1       2.598   5.351   0.681  1.00  0.00     0.218 A 
ATOM     21  C   UNL     1       1.300   3.616   1.696  1.00  0.00     0.255 A 
ATOM     22  H   UNL     1       2.118   1.791   1.320  1.00  0.00     0.172 HD
ATOM     23  C   UNL     1       1.539   5.037   1.428  1.00  0.00     0.139 A 
ATOM     24  O   UNL     1       0.348   3.241   2.368  1.00  0.00    -0.269 OA
BRANCH  20  25
ATOM     25  O   UNL     1       2.885   6.667   0.434  1.00  0.00    -0.493 OA
ATOM     26  H   UNL     1       3.628   6.894  -0.091  1.00  0.00     0.295 HD
ENDBRANCH  20  25
ENDBRANCH  16  17
ENDBRANCH  15  16
ENDBRANCH  13  15
ENDBRANCH   6  11
ENDBRANCH   3   5
ENDBRANCH   2   3
ENDBRANCH   1   2
BRANCH   1  27
ATOM     27  C   UNL     1      -1.558  -6.082   1.068  1.00  0.00     0.275 C 
BRANCH  27  28
ATOM     28  O   UNL     1      -1.317  -6.373   2.457  1.00  0.00    -0.458 OA
BRANCH  28  29
ATOM     29  C   UNL     1      -0.035  -6.649   2.788  1.00  0.00     0.338 C 
ATOM     30  O   UNL     1       0.924  -6.752   2.043  1.00  0.00    -0.246 OA
BRANCH  29  31
ATOM     31  C   UNL     1       0.076  -6.710   4.253  1.00  0.00     0.060 A 
ATOM     32  C   UNL     1       0.232  -5.510   4.938  1.00  0.00     0.016 A 
ATOM     33  C   UNL     1       0.153  -7.921   4.935  1.00  0.00     0.016 A 
ATOM     34  C   UNL     1       0.524  -5.500   6.297  1.00  0.00     0.010 A 
ATOM     35  C   UNL     1       0.384  -7.912   6.319  1.00  0.00     0.010 A 
ATOM     36  C   UNL     1       0.602  -6.703   7.009  1.00  0.00    -0.014 A 
BRANCH  36  37
ATOM     37  C   UNL     1       0.981  -6.688   8.451  1.00  0.00     0.031 A 
ATOM     38  C   UNL     1       2.254  -7.357   8.900  1.00  0.00     0.074 A 
ATOM     39  C   UNL     1       0.216  -6.041   9.354  1.00  0.00     0.049 A 
ATOM     40  N   UNL     1       2.696  -7.568  10.114  1.00  0.00    -0.248 NA
ATOM     41  C   UNL     1       3.146  -7.862   7.844  1.00  0.00     0.031 C 
ATOM     42  C   UNL     1      -1.012  -5.303   9.052  1.00  0.00     0.029 A 
ATOM     43  N   UNL     1       0.365  -5.890  10.712  1.00  0.00    -0.354 N 
ATOM     44  C   UNL     1       3.886  -8.273   9.970  1.00  0.00     0.074 A 
ATOM     45  C   UNL     1       4.095  -8.458   8.550  1.00  0.00     0.031 C 
ATOM     46  C   UNL     1      -1.486  -4.754  10.182  1.00  0.00     0.029 A 
ATOM     47  C   UNL     1      -0.642  -5.160  11.300  1.00  0.00     0.049 A 
ATOM     48  H   UNL     1       1.121  -6.269  11.216  1.00  0.00     0.167 HD
ATOM     49  C   UNL     1       4.727  -8.722  10.933  1.00  0.00     0.037 A 
ATOM     50  C   UNL     1      -0.882  -4.879  12.597  1.00  0.00     0.037 A 
ATOM     51  C   UNL     1       4.542  -8.492  12.342  1.00  0.00     0.049 A 
ATOM     52  C   UNL     1       0.050  -5.413  13.650  1.00  0.00     0.074 A 
ATOM     53  C   UNL     1       5.341  -8.904  13.395  1.00  0.00     0.029 A 
ATOM     54  N   UNL     1       3.493  -7.772  12.897  1.00  0.00    -0.354 N 
ATOM     55  N   UNL     1       1.140  -6.128  13.500  1.00  0.00    -0.248 NA
ATOM     56  C   UNL     1      -0.289  -5.118  15.049  1.00  0.00     0.031 C 
ATOM     57  C   UNL     1       4.760  -8.459  14.588  1.00  0.00     0.029 A 
ATOM     58  C   UNL     1       3.621  -7.736  14.276  1.00  0.00     0.049 A 
ATOM     59  H   UNL     1       2.766  -7.350  12.386  1.00  0.00     0.167 HD
ATOM     60  C   UNL     1       1.623  -6.357  14.783  1.00  0.00     0.074 A 
ATOM     61  C   UNL     1       0.717  -5.690  15.696  1.00  0.00     0.031 C 
ATOM     62  C   UNL     1       2.714  -7.062  15.171  1.00  0.00     0.037 A 
BRANCH  49  63
ATOM     63  C   UNL     1       5.911  -9.541  10.496  1.00  0.00     0.058 A 
ATOM     64  C   UNL     1       7.021  -8.964   9.860  1.00  0.00     0.135 A 
ATOM     65  C   UNL     1       5.944 -10.924  10.743  1.00  0.00     0.135 A 
ATOM     66  F   UNL     1       7.035  -7.651   9.583  1.00  0.00    -0.206 F 
ATOM     67  C   UNL     1       8.110  -9.734   9.459  1.00  0.00     0.059 A 
ATOM     68  C   UNL     1       7.032 -11.708  10.374  1.00  0.00     0.059 A 
ATOM     69  F   UNL     1       4.908 -11.526  11.349  1.00  0.00    -0.206 F 
ATOM     70  C   UNL     1       8.104 -11.106   9.718  1.00  0.00     0.060 A 
BRANCH  70  71
ATOM     71  S   UNL     1       9.521 -12.093   9.189  1.00  0.00     0.124 S 
ATOM     72  O   UNL     1       9.298 -12.171   7.748  1.00  0.00    -0.237 OA
ATOM     73  O   UNL     1      10.651 -11.272   9.611  1.00  0.00    -0.237 OA
ATOM     74  O   UNL     1       9.354 -13.346   9.919  1.00  0.00    -0.744 OA
ENDBRANCH  70  71
ENDBRANCH  49  63
BRANCH  50  75
ATOM     75  C   UNL     1      -2.079  -4.080  12.975  1.00  0.00     0.058 A 
ATOM     76  C   UNL     1      -1.951  -2.780  13.487  1.00  0.00     0.135 A 
ATOM     77  C   UNL     1      -3.375  -4.597  12.823  1.00  0.00     0.135 A 
ATOM     78  F   UNL     1      -0.732  -2.246  13.663  1.00  0.00    -0.206 F 
ATOM     79  C   UNL     1      -3.063  -2.025  13.844  1.00  0.00     0.059 A 
ATOM     80  C   UNL     1      -4.503  -3.852  13.148  1.00  0.00     0.059 A 
ATOM     81  F   UNL     1      -3.553  -5.833  12.330  1.00  0.00    -0.206 F 
ATOM     82  C   UNL     1      -4.337  -2.569  13.668  1.00  0.00     0.060 A 
BRANCH  82  83
ATOM     83  S   UNL     1      -5.779  -1.565  14.084  1.00  0.00     0.124 S 
ATOM     84  O   UNL     1      -5.785  -1.650  15.540  1.00  0.00    -0.237 OA
ATOM     85  O   UNL     1      -5.425  -0.266  13.522  1.00  0.00    -0.237 OA
ATOM     86  O   UNL     1      -6.873  -2.255  13.406  1.00  0.00    -0.744 OA
ENDBRANCH  82  83
ENDBRANCH  50  75
BRANCH  62  87
ATOM     87  C   UNL     1       3.008  -7.120  16.644  1.00  0.00     0.058 A 
ATOM     88  C   UNL     1       2.252  -7.922  17.513  1.00  0.00     0.135 A 
ATOM     89  C   UNL     1       4.082  -6.396  17.184  1.00  0.00     0.135 A 
ATOM     90  F   UNL     1       1.210  -8.629  17.047  1.00  0.00    -0.206 F 
ATOM     91  C   UNL     1       2.537  -7.985  18.874  1.00  0.00     0.059 A 
ATOM     92  C   UNL     1       4.400  -6.462  18.537  1.00  0.00     0.059 A 
ATOM     93  F   UNL     1       4.841  -5.622  16.392  1.00  0.00    -0.206 F 
ATOM     94  C   UNL     1       3.613  -7.250  19.376  1.00  0.00     0.060 A 
BRANCH  94  95
ATOM     95  S   UNL     1       3.991  -7.358  21.138  1.00  0.00     0.124 S 
ATOM     96  O   UNL     1       2.947  -6.518  21.715  1.00  0.00    -0.237 OA
ATOM     97  O   UNL     1       3.869  -8.789  21.399  1.00  0.00    -0.237 OA
ATOM     98  O   UNL     1       5.347  -6.825  21.227  1.00  0.00    -0.744 OA
ENDBRANCH  94  95
ENDBRANCH  62  87
ENDBRANCH  36  37
ENDBRANCH  29  31
ENDBRANCH  28  29
ENDBRANCH  27  28
ENDBRANCH   1  27
TORSDOF 19
