REMARK SMILES O=C(OCCOC(=O)c1ccc(-c2c3nc(c(-c4c(F)cc(S(=O)(=O)[O-])cc4F)c4ccc([nH]4)c(-c4c(F)cc(S(=O)(=O)[O-])cc4F)c4nc(c(-c5c(F)cc(S(=O)(=O)[O-])cc5F)c5ccc2[nH]5)C=C4)C=C3)cc1)c1ccc(CN2C(=O)CSC2=S)cc1
REMARK SMILES IDX 5 1 4 2 3 3 2 4 1 5 75 6 76 7 88 8 77 9 87 10 78 11 79 12
REMARK SMILES IDX 80 13 81 14 85 15 82 16 83 17 84 18 86 19 6 20 7 21 8 22
REMARK SMILES IDX 9 23 10 24 74 25 11 26 73 27 12 28 13 29 14 30 67 31 15 32
REMARK SMILES IDX 72 33 66 34 68 35 16 36 71 37 65 38 64 39 17 41 51 42 30 43
REMARK SMILES IDX 50 44 31 45 34 46 49 47 69 48 32 49 33 50 48 52 70 53 35 54
REMARK SMILES IDX 18 55 19 56 28 57 20 58 21 59 27 60 29 61 22 62 23 63 24 64
REMARK SMILES IDX 25 65 26 66 52 67 53 68 62 69 54 70 55 71 61 72 63 73 56 74
REMARK SMILES IDX 57 75 58 76 59 77 60 78 36 79 37 80 46 81 38 82 39 83 45 84
REMARK SMILES IDX 47 85 40 86 41 87 42 88 43 89 44 90
REMARK H PARENT 68 40 34 51
REMARK Flexibility Score: inf
ROOT
ATOM      1  C   UNL     1       3.717  -2.230  -0.449  1.00  0.00     0.275 C 
ENDROOT
BRANCH   1   2
ATOM      2  C   UNL     1       3.975  -1.315   0.759  1.00  0.00     0.275 C 
BRANCH   2   3
ATOM      3  O   UNL     1       2.913  -0.367   0.968  1.00  0.00    -0.458 OA
BRANCH   3   4
ATOM      4  C   UNL     1       2.879   0.961   0.699  1.00  0.00     0.338 C 
ATOM      5  O   UNL     1       2.066   1.652   1.312  1.00  0.00    -0.246 OA
BRANCH   4   6
ATOM      6  C   UNL     1       3.676   1.620  -0.394  1.00  0.00     0.060 A 
ATOM      7  C   UNL     1       4.693   1.033  -1.143  1.00  0.00     0.016 A 
ATOM      8  C   UNL     1       3.307   2.931  -0.746  1.00  0.00     0.016 A 
ATOM      9  C   UNL     1       5.214   1.653  -2.279  1.00  0.00     0.006 A 
ATOM     10  C   UNL     1       3.884   3.586  -1.844  1.00  0.00     0.006 A 
ATOM     11  C   UNL     1       4.799   2.926  -2.664  1.00  0.00    -0.028 A 
BRANCH  11  12
ATOM     12  C   UNL     1       5.328   3.545  -3.944  1.00  0.00     0.162 C 
BRANCH  12  13
ATOM     13  N   UNL     1       6.768   3.770  -3.849  1.00  0.00    -0.293 N 
ATOM     14  C   UNL     1       7.632   2.759  -4.229  1.00  0.00     0.238 C 
ATOM     15  C   UNL     1       7.336   4.921  -3.354  1.00  0.00     0.143 C 
ATOM     16  O   UNL     1       7.313   1.706  -4.775  1.00  0.00    -0.273 OA
ATOM     17  C   UNL     1       9.041   3.036  -3.794  1.00  0.00     0.177 C 
ATOM     18  S   UNL     1       9.087   4.776  -3.357  1.00  0.00    -0.086 SA
ATOM     19  S   UNL     1       6.574   6.289  -2.786  1.00  0.00    -0.052 S 
ENDBRANCH  12  13
ENDBRANCH  11  12
ENDBRANCH   4   6
ENDBRANCH   3   4
ENDBRANCH   2   3
ENDBRANCH   1   2
BRANCH   1  20
ATOM     20  O   UNL     1       3.391  -1.495  -1.645  1.00  0.00    -0.458 OA
BRANCH  20  21
ATOM     21  C   UNL     1       2.060  -1.316  -1.877  1.00  0.00     0.338 C 
ATOM     22  O   UNL     1       1.155  -1.840  -1.263  1.00  0.00    -0.246 OA
BRANCH  21  23
ATOM     23  C   UNL     1       1.845  -0.262  -2.909  1.00  0.00     0.060 A 
ATOM     24  C   UNL     1       0.752   0.597  -2.742  1.00  0.00     0.016 A 
ATOM     25  C   UNL     1       2.683  -0.098  -4.016  1.00  0.00     0.016 A 
ATOM     26  C   UNL     1       0.489   1.609  -3.677  1.00  0.00     0.010 A 
ATOM     27  C   UNL     1       2.422   0.923  -4.947  1.00  0.00     0.010 A 
ATOM     28  C   UNL     1       1.317   1.782  -4.793  1.00  0.00    -0.014 A 
BRANCH  28  29
ATOM     29  C   UNL     1       1.016   2.821  -5.824  1.00  0.00     0.031 A 
ATOM     30  C   UNL     1       0.481   2.416  -7.171  1.00  0.00     0.074 A 
ATOM     31  C   UNL     1       1.242   4.130  -5.590  1.00  0.00     0.049 A 
ATOM     32  N   UNL     1       0.221   3.166  -8.211  1.00  0.00    -0.248 NA
ATOM     33  C   UNL     1       0.185   0.989  -7.367  1.00  0.00     0.031 C 
ATOM     34  C   UNL     1       1.689   4.692  -4.321  1.00  0.00     0.029 A 
ATOM     35  N   UNL     1       1.159   5.225  -6.419  1.00  0.00    -0.354 N 
ATOM     36  C   UNL     1      -0.285   2.311  -9.180  1.00  0.00     0.074 A 
ATOM     37  C   UNL     1      -0.254   0.976  -8.619  1.00  0.00     0.031 C 
ATOM     38  C   UNL     1       1.937   6.004  -4.474  1.00  0.00     0.029 A 
ATOM     39  C   UNL     1       1.638   6.385  -5.852  1.00  0.00     0.049 A 
ATOM     40  H   UNL     1       0.792   5.183  -7.331  1.00  0.00     0.167 HD
ATOM     41  C   UNL     1      -0.758   2.612 -10.412  1.00  0.00     0.037 A 
ATOM     42  C   UNL     1       1.831   7.612  -6.378  1.00  0.00     0.037 A 
ATOM     43  C   UNL     1      -0.816   3.937 -10.973  1.00  0.00     0.049 A 
ATOM     44  C   UNL     1       1.405   7.899  -7.794  1.00  0.00     0.074 A 
ATOM     45  C   UNL     1      -1.371   4.330 -12.180  1.00  0.00     0.029 A 
ATOM     46  N   UNL     1      -0.287   5.075 -10.390  1.00  0.00    -0.354 N 
ATOM     47  N   UNL     1       0.840   7.094  -8.660  1.00  0.00    -0.248 NA
ATOM     48  C   UNL     1       1.622   9.265  -8.298  1.00  0.00     0.031 C 
ATOM     49  C   UNL     1      -1.121   5.695 -12.355  1.00  0.00     0.029 A 
ATOM     50  C   UNL     1      -0.453   6.161 -11.236  1.00  0.00     0.049 A 
ATOM     51  H   UNL     1       0.144   5.109  -9.506  1.00  0.00     0.167 HD
ATOM     52  C   UNL     1       0.601   7.864  -9.794  1.00  0.00     0.074 A 
ATOM     53  C   UNL     1       1.081   9.198  -9.508  1.00  0.00     0.031 C 
ATOM     54  C   UNL     1       0.023   7.493 -10.962  1.00  0.00     0.037 A 
BRANCH  41  55
ATOM     55  C   UNL     1      -1.264   1.484 -11.262  1.00  0.00     0.058 A 
ATOM     56  C   UNL     1      -2.515   0.894 -11.027  1.00  0.00     0.135 A 
ATOM     57  C   UNL     1      -0.532   1.059 -12.381  1.00  0.00     0.135 A 
ATOM     58  F   UNL     1      -3.246   1.259  -9.962  1.00  0.00    -0.206 F 
ATOM     59  C   UNL     1      -3.022  -0.085 -11.873  1.00  0.00     0.059 A 
ATOM     60  C   UNL     1      -1.029   0.096 -13.252  1.00  0.00     0.059 A 
ATOM     61  F   UNL     1       0.671   1.594 -12.645  1.00  0.00    -0.206 F 
ATOM     62  C   UNL     1      -2.274  -0.473 -12.987  1.00  0.00     0.060 A 
BRANCH  62  63
ATOM     63  S   UNL     1      -2.966  -1.714 -14.099  1.00  0.00     0.124 S 
ATOM     64  O   UNL     1      -2.835  -2.927 -13.298  1.00  0.00    -0.237 OA
ATOM     65  O   UNL     1      -4.329  -1.230 -14.297  1.00  0.00    -0.237 OA
ATOM     66  O   UNL     1      -2.101  -1.641 -15.272  1.00  0.00    -0.744 OA
ENDBRANCH  62  63
ENDBRANCH  41  55
BRANCH  42  67
ATOM     67  C   UNL     1       2.493   8.677  -5.578  1.00  0.00     0.058 A 
ATOM     68  C   UNL     1       1.780   9.788  -5.107  1.00  0.00     0.135 A 
ATOM     69  C   UNL     1       3.874   8.631  -5.334  1.00  0.00     0.135 A 
ATOM     70  F   UNL     1       0.460   9.880  -5.329  1.00  0.00    -0.206 F 
ATOM     71  C   UNL     1       2.418  10.836  -4.453  1.00  0.00     0.059 A 
ATOM     72  C   UNL     1       4.532   9.657  -4.664  1.00  0.00     0.059 A 
ATOM     73  F   UNL     1       4.596   7.584  -5.765  1.00  0.00    -0.206 F 
ATOM     74  C   UNL     1       3.797  10.766  -4.245  1.00  0.00     0.060 A 
BRANCH  74  75
ATOM     75  S   UNL     1       4.618  12.144  -3.413  1.00  0.00     0.124 S 
ATOM     76  O   UNL     1       4.642  13.149  -4.470  1.00  0.00    -0.237 OA
ATOM     77  O   UNL     1       3.715  12.413  -2.299  1.00  0.00    -0.237 OA
ATOM     78  O   UNL     1       5.915  11.589  -3.041  1.00  0.00    -0.744 OA
ENDBRANCH  74  75
ENDBRANCH  42  67
BRANCH  54  79
ATOM     79  C   UNL     1      -0.146   8.538 -12.030  1.00  0.00     0.058 A 
ATOM     80  C   UNL     1       0.944   9.005 -12.779  1.00  0.00     0.135 A 
ATOM     81  C   UNL     1      -1.422   9.027 -12.357  1.00  0.00     0.135 A 
ATOM     82  F   UNL     1       2.186   8.580 -12.501  1.00  0.00    -0.206 F 
ATOM     83  C   UNL     1       0.777   9.923 -13.812  1.00  0.00     0.059 A 
ATOM     84  C   UNL     1      -1.616   9.926 -13.402  1.00  0.00     0.059 A 
ATOM     85  F   UNL     1      -2.501   8.610 -11.675  1.00  0.00    -0.206 F 
ATOM     86  C   UNL     1      -0.508  10.373 -14.121  1.00  0.00     0.060 A 
BRANCH  86  87
ATOM     87  S   UNL     1      -0.717  11.516 -15.504  1.00  0.00     0.124 S 
ATOM     88  O   UNL     1      -0.204  12.760 -14.940  1.00  0.00    -0.237 OA
ATOM     89  O   UNL     1       0.106  10.904 -16.543  1.00  0.00    -0.237 OA
ATOM     90  O   UNL     1      -2.155  11.487 -15.755  1.00  0.00    -0.744 OA
ENDBRANCH  86  87
ENDBRANCH  54  79
ENDBRANCH  28  29
ENDBRANCH  21  23
ENDBRANCH  20  21
ENDBRANCH   1  20
TORSDOF 16
