REMARK SMILES O=C(OCCOC(=O)[C@@H]1CCCN(c2ccc3cc(S(=O)(=O)N4CCCCC4)ccc3n2)C1)c1ccc(-c2c3nc(c(-c4c(F)cc(S(=O)(=O)[O-])cc4F)c4ccc([nH]4)c(-c4c(F)cc(S(=O)(=O)[O-])cc4F)c4nc(c(-c5c(F)cc(S(=O)(=O)[O-])cc5F)c5ccc2[nH]5)C=C4)C=C3)cc1
REMARK SMILES IDX 4 1 3 2 2 3 1 4 34 5 35 6 99 7 36 8 98 9 37 10 38 11 39 12
REMARK SMILES IDX 92 13 40 14 97 15 91 16 93 17 41 18 96 19 90 20 89 21 42 23
REMARK SMILES IDX 76 24 55 25 75 26 56 27 59 28 74 29 94 30 57 31 58 32 73 34
REMARK SMILES IDX 95 35 60 36 43 37 44 38 53 39 45 40 46 41 52 42 54 43 47 44
REMARK SMILES IDX 48 45 49 46 50 47 51 48 77 49 78 50 87 51 79 52 80 53 86 54
REMARK SMILES IDX 88 55 81 56 82 57 83 58 84 59 85 60 61 61 62 62 71 63 63 64
REMARK SMILES IDX 64 65 70 66 72 67 65 68 66 69 67 70 68 71 69 72 5 73 6 74
REMARK SMILES IDX 7 75 8 76 9 77 10 78 33 79 11 80 13 81 12 82 14 83 15 84
REMARK SMILES IDX 32 85 16 86 31 87 17 88 30 89 18 90 29 91 19 92 20 93 21 94
REMARK SMILES IDX 22 95 23 96 24 97 28 98 25 99 27 100 26 101
REMARK H PARENT 93 22 59 33
REMARK Flexibility Score: inf
ROOT
ATOM      1  C   UNL     1       5.275   2.284   0.186  1.00  0.00     0.275 C 
ENDROOT
BRANCH   1   2
ATOM      2  O   UNL     1       4.908   1.448  -0.932  1.00  0.00    -0.458 OA
BRANCH   2   3
ATOM      3  C   UNL     1       3.790   0.727  -0.802  1.00  0.00     0.338 C 
ATOM      4  O   UNL     1       2.673   1.148  -1.048  1.00  0.00    -0.246 OA
BRANCH   3   5
ATOM      5  C   UNL     1       4.063  -0.562  -0.143  1.00  0.00     0.060 A 
ATOM      6  C   UNL     1       5.588  -1.257   0.152  1.00  0.00     0.016 A 
ATOM      7  C   UNL     1       2.714  -1.212   0.723  1.00  0.00     0.016 A 
ATOM      8  C   UNL     1       5.835  -2.521   1.310  1.00  0.00     0.010 A 
ATOM      9  C   UNL     1       2.924  -2.631   2.054  1.00  0.00     0.010 A 
ATOM     10  C   UNL     1       4.580  -3.274   2.284  1.00  0.00    -0.014 A 
BRANCH  10  11
ATOM     11  C   UNL     1       5.206  -4.254   3.239  1.00  0.00     0.031 A 
ATOM     12  C   UNL     1       5.946  -5.448   2.636  1.00  0.00     0.074 A 
ATOM     13  C   UNL     1       5.567  -3.838   4.478  1.00  0.00     0.049 A 
ATOM     14  N   UNL     1       6.928  -6.170   3.121  1.00  0.00    -0.248 NA
ATOM     15  C   UNL     1       5.578  -5.826   1.262  1.00  0.00     0.031 C 
ATOM     16  C   UNL     1       5.109  -2.618   5.144  1.00  0.00     0.029 A 
ATOM     17  N   UNL     1       6.489  -4.352   5.370  1.00  0.00    -0.354 N 
ATOM     18  C   UNL     1       7.321  -7.033   2.095  1.00  0.00     0.074 A 
ATOM     19  C   UNL     1       6.488  -6.737   0.956  1.00  0.00     0.031 C 
ATOM     20  C   UNL     1       5.784  -2.444   6.290  1.00  0.00     0.029 A 
ATOM     21  C   UNL     1       6.658  -3.587   6.508  1.00  0.00     0.049 A 
ATOM     22  H   UNL     1       6.981  -5.190   5.210  1.00  0.00     0.167 HD
ATOM     23  C   UNL     1       8.265  -8.005   2.092  1.00  0.00     0.037 A 
ATOM     24  C   UNL     1       7.390  -3.788   7.626  1.00  0.00     0.037 A 
ATOM     25  C   UNL     1       9.038  -8.362   3.250  1.00  0.00     0.049 A 
ATOM     26  C   UNL     1       8.301  -4.983   7.680  1.00  0.00     0.074 A 
ATOM     27  C   UNL     1       9.925  -9.412   3.412  1.00  0.00     0.029 A 
ATOM     28  N   UNL     1       9.002  -7.678   4.455  1.00  0.00    -0.354 N 
ATOM     29  N   UNL     1       8.578  -5.843   6.728  1.00  0.00    -0.248 NA
ATOM     30  C   UNL     1       8.999  -5.239   8.946  1.00  0.00     0.031 C 
ATOM     31  C   UNL     1      10.387  -9.391   4.732  1.00  0.00     0.029 A 
ATOM     32  C   UNL     1       9.835  -8.292   5.372  1.00  0.00     0.049 A 
ATOM     33  H   UNL     1       8.462  -6.873   4.632  1.00  0.00     0.167 HD
ATOM     34  C   UNL     1       9.487  -6.738   7.278  1.00  0.00     0.074 A 
ATOM     35  C   UNL     1       9.741  -6.292   8.634  1.00  0.00     0.031 C 
ATOM     36  C   UNL     1      10.056  -7.834   6.718  1.00  0.00     0.037 A 
BRANCH  23  37
ATOM     37  C   UNL     1       8.450  -8.811   0.827  1.00  0.00     0.058 A 
ATOM     38  C   UNL     1       9.096  -8.286  -0.304  1.00  0.00     0.135 A 
ATOM     39  C   UNL     1       7.988 -10.136   0.753  1.00  0.00     0.135 A 
ATOM     40  F   UNL     1       9.533  -7.017  -0.305  1.00  0.00    -0.206 F 
ATOM     41  C   UNL     1       9.268  -9.041  -1.464  1.00  0.00     0.059 A 
ATOM     42  C   UNL     1       8.168 -10.916  -0.388  1.00  0.00     0.059 A 
ATOM     43  F   UNL     1       7.352 -10.688   1.798  1.00  0.00    -0.206 F 
ATOM     44  C   UNL     1       8.802 -10.357  -1.496  1.00  0.00     0.060 A 
BRANCH  44  45
ATOM     45  S   UNL     1       9.041 -11.328  -3.002  1.00  0.00     0.124 S 
ATOM     46  O   UNL     1       8.127 -10.664  -3.927  1.00  0.00    -0.237 OA
ATOM     47  O   UNL     1      10.463 -11.137  -3.271  1.00  0.00    -0.237 OA
ATOM     48  O   UNL     1       8.656 -12.678  -2.603  1.00  0.00    -0.744 OA
ENDBRANCH  44  45
ENDBRANCH  23  37
BRANCH  24  49
ATOM     49  C   UNL     1       7.189  -2.909   8.823  1.00  0.00     0.058 A 
ATOM     50  C   UNL     1       8.216  -2.149   9.404  1.00  0.00     0.135 A 
ATOM     51  C   UNL     1       5.923  -2.844   9.436  1.00  0.00     0.135 A 
ATOM     52  F   UNL     1       9.453  -2.182   8.884  1.00  0.00    -0.206 F 
ATOM     53  C   UNL     1       8.000  -1.371  10.543  1.00  0.00     0.059 A 
ATOM     54  C   UNL     1       5.673  -2.046  10.547  1.00  0.00     0.059 A 
ATOM     55  F   UNL     1       4.897  -3.552   8.936  1.00  0.00    -0.206 F 
ATOM     56  C   UNL     1       6.722  -1.323  11.105  1.00  0.00     0.060 A 
BRANCH  56  57
ATOM     57  S   UNL     1       6.433  -0.291  12.560  1.00  0.00     0.124 S 
ATOM     58  O   UNL     1       7.124  -1.046  13.598  1.00  0.00    -0.237 OA
ATOM     59  O   UNL     1       7.051   0.971  12.167  1.00  0.00    -0.237 OA
ATOM     60  O   UNL     1       4.977  -0.260  12.665  1.00  0.00    -0.744 OA
ENDBRANCH  56  57
ENDBRANCH  24  49
BRANCH  36  61
ATOM     61  C   UNL     1      11.013  -8.611   7.572  1.00  0.00     0.058 A 
ATOM     62  C   UNL     1      10.568  -9.376   8.661  1.00  0.00     0.135 A 
ATOM     63  C   UNL     1      12.387  -8.600   7.288  1.00  0.00     0.135 A 
ATOM     64  F   UNL     1       9.263  -9.416   8.972  1.00  0.00    -0.206 F 
ATOM     65  C   UNL     1      11.461 -10.067   9.470  1.00  0.00     0.059 A 
ATOM     66  C   UNL     1      13.294  -9.311   8.063  1.00  0.00     0.059 A 
ATOM     67  F   UNL     1      12.858  -7.895   6.246  1.00  0.00    -0.206 F 
ATOM     68  C   UNL     1      12.823 -10.024   9.165  1.00  0.00     0.060 A 
BRANCH  68  69
ATOM     69  S   UNL     1      13.972 -10.918  10.228  1.00  0.00     0.124 S 
ATOM     70  O   UNL     1      13.990 -10.069  11.415  1.00  0.00    -0.237 OA
ATOM     71  O   UNL     1      13.312 -12.211  10.382  1.00  0.00    -0.237 OA
ATOM     72  O   UNL     1      15.207 -10.939   9.450  1.00  0.00    -0.744 OA
ENDBRANCH  68  69
ENDBRANCH  36  61
ENDBRANCH  10  11
ENDBRANCH   3   5
ENDBRANCH   2   3
ENDBRANCH   1   2
BRANCH   1  73
ATOM     73  C   UNL     1       4.244   2.614   1.307  1.00  0.00     0.274 C 
BRANCH  73  74
ATOM     74  O   UNL     1       3.877   1.437   2.054  1.00  0.00    -0.462 OA
BRANCH  74  75
ATOM     75  C   UNL     1       2.588   1.094   2.346  1.00  0.00     0.310 C 
ATOM     76  O   UNL     1       1.632   1.851   2.308  1.00  0.00    -0.252 OA
BRANCH  75  77
ATOM     77  C   UNL     1       2.531  -0.422   2.687  1.00  0.00     0.118 C 
ATOM     78  C   UNL     1       4.158  -1.188   1.935  1.00  0.00     0.019 C 
ATOM     79  C   UNL     1       0.892  -1.199   2.213  1.00  0.00     0.133 C 
ATOM     80  C   UNL     1       3.807  -2.688   0.357  1.00  0.00     0.022 C 
ATOM     81  N   UNL     1       0.688  -2.233   0.801  1.00  0.00    -0.356 N 
ATOM     82  C   UNL     1       1.950  -3.236   0.144  1.00  0.00     0.118 C 
BRANCH  81  83
ATOM     83  C   UNL     1      -0.059  -1.731  -0.332  1.00  0.00     0.129 A 
ATOM     84  C   UNL     1      -0.105  -0.357  -0.581  1.00  0.00     0.047 A 
ATOM     85  N   UNL     1      -0.438  -2.587  -1.317  1.00  0.00    -0.231 NA
ATOM     86  C   UNL     1      -0.160   0.105  -1.894  1.00  0.00     0.014 A 
ATOM     87  C   UNL     1      -0.682  -2.112  -2.567  1.00  0.00     0.073 A 
ATOM     88  C   UNL     1      -0.431  -0.777  -2.922  1.00  0.00     0.002 A 
ATOM     89  C   UNL     1      -1.202  -2.922  -3.570  1.00  0.00     0.030 A 
ATOM     90  C   UNL     1      -0.521  -0.320  -4.247  1.00  0.00     0.032 A 
ATOM     91  C   UNL     1      -1.433  -2.445  -4.874  1.00  0.00     0.024 A 
ATOM     92  C   UNL     1      -1.051  -1.151  -5.228  1.00  0.00     0.083 A 
BRANCH  92  93
ATOM     93  S   UNL     1      -1.352  -0.406  -6.830  1.00  0.00     0.243 S 
ATOM     94  O   UNL     1      -1.997   0.866  -6.569  1.00  0.00    -0.207 OA
ATOM     95  O   UNL     1      -0.113  -0.483  -7.573  1.00  0.00    -0.207 OA
BRANCH  93  96
ATOM     96  N   UNL     1      -2.509  -1.393  -7.619  1.00  0.00    -0.198 NA
ATOM     97  C   UNL     1      -1.962  -2.643  -8.200  1.00  0.00     0.102 C 
ATOM     98  C   UNL     1      -3.858  -1.362  -7.003  1.00  0.00     0.102 C 
ATOM     99  C   UNL     1      -3.013  -3.633  -8.673  1.00  0.00     0.017 C 
ATOM    100  C   UNL     1      -4.827  -2.366  -7.598  1.00  0.00     0.017 C 
ATOM    101  C   UNL     1      -4.188  -3.736  -7.718  1.00  0.00     0.003 C 
ENDBRANCH  93  96
ENDBRANCH  92  93
ENDBRANCH  81  83
ENDBRANCH  75  77
ENDBRANCH  74  75
ENDBRANCH  73  74
ENDBRANCH   1  73
TORSDOF 17
