REMARK SMILES C[C@H]1C[N@H+]2CCC[C@@H]2CN1c1cc(Cl)ccc1C(=O)OCCOC(=O)c1ccc(-c2c3nc(c(-c4c(F)cc(S(=O)(=O)[O-])cc4F)c4ccc([nH]4)c(-c4c(F)cc(S(=O)(=O)[O-])cc4F)c4nc(c(-c5c(F)cc(S(=O)(=O)[O-])cc5F)c5ccc2[nH]5)C=C4)C=C3)cc1
REMARK SMILES IDX 22 1 21 2 20 3 18 4 19 5 17 6 11 7 12 8 13 9 16 10 14 11
REMARK SMILES IDX 15 12 10 13 1 14 2 15 3 16 4 17 9 18 5 19 8 20 6 22 7 23
REMARK SMILES IDX 23 24 24 25 25 26 26 27 27 28 91 29 28 30 90 31 29 32 30 33
REMARK SMILES IDX 31 34 84 35 32 36 89 37 83 38 85 39 33 40 88 41 82 42 81 43
REMARK SMILES IDX 34 45 68 46 47 47 67 48 48 49 51 50 66 51 86 52 49 53 50 54
REMARK SMILES IDX 65 56 87 57 52 58 35 59 36 60 45 61 37 62 38 63 44 64 46 65
REMARK SMILES IDX 39 66 40 67 41 68 42 69 43 70 69 71 70 72 79 73 71 74 72 75
REMARK SMILES IDX 78 76 80 77 73 78 74 79 75 80 76 81 77 82 53 83 54 84 63 85
REMARK SMILES IDX 55 86 56 87 62 88 64 89 57 90 58 91 59 92 60 93 61 94
REMARK H PARENT 4 21 85 44 51 55
REMARK Flexibility Score: inf
ROOT
ATOM      1  C   UNL     1      -4.339  -0.644  -1.412  1.00  0.00     0.275 C 
ENDROOT
BRANCH   1   2
ATOM      2  C   UNL     1      -4.053  -1.188  -0.015  1.00  0.00     0.275 C 
BRANCH   2   3
ATOM      3  O   UNL     1      -2.683  -1.633   0.078  1.00  0.00    -0.458 OA
BRANCH   3   4
ATOM      4  C   UNL     1      -2.473  -2.845   0.647  1.00  0.00     0.340 C 
ATOM      5  O   UNL     1      -3.341  -3.622   1.015  1.00  0.00    -0.246 OA
BRANCH   4   6
ATOM      6  C   UNL     1      -1.026  -3.189   0.728  1.00  0.00     0.083 A 
ATOM      7  C   UNL     1      -0.024  -2.300   1.187  1.00  0.00     0.053 A 
ATOM      8  C   UNL     1       1.301  -2.781   1.190  1.00  0.00     0.047 A 
ATOM      9  C   UNL     1       1.622  -4.066   0.744  1.00  0.00     0.043 A 
ATOM     10  C   UNL     1      -0.696  -4.501   0.328  1.00  0.00     0.019 A 
ATOM     11  Cl  UNL     1       3.263  -4.586   0.750  1.00  0.00    -0.084 Cl
ATOM     12  C   UNL     1       0.628  -4.931   0.311  1.00  0.00     0.021 A 
BRANCH   7  13
ATOM     13  N   UNL     1      -0.301  -1.010   1.633  1.00  0.00    -0.356 N 
ATOM     14  C   UNL     1       1.277   0.167   0.048  1.00  0.00     0.037 C 
ATOM     15  C   UNL     1       0.633   0.146   1.448  1.00  0.00     0.134 C 
ATOM     16  C   UNL     1      -0.094   1.529   1.666  1.00  0.00     0.287 C 
ATOM     17  N   UNL     1      -1.002   1.557   2.824  1.00  0.00    -0.329 N 
ATOM     18  C   UNL     1      -1.210  -0.897   2.799  1.00  0.00     0.182 C 
ATOM     19  C   UNL     1      -1.839   2.753   2.916  1.00  0.00     0.262 C 
ATOM     20  C   UNL     1      -1.946   0.435   2.680  1.00  0.00     0.203 C 
ATOM     21  H   UNL     1      -0.404   1.520   3.649  1.00  0.00     0.348 HD
ATOM     22  C   UNL     1      -3.152   2.262   3.542  1.00  0.00     0.068 C 
ATOM     23  C   UNL     1      -2.975   0.758   3.738  1.00  0.00     0.073 C 
ENDBRANCH   7  13
ENDBRANCH   4   6
ENDBRANCH   3   4
ENDBRANCH   2   3
ENDBRANCH   1   2
BRANCH   1  24
ATOM     24  O   UNL     1      -4.458  -1.748  -2.322  1.00  0.00    -0.458 OA
BRANCH  24  25
ATOM     25  C   UNL     1      -3.333  -2.042  -3.012  1.00  0.00     0.338 C 
ATOM     26  O   UNL     1      -2.316  -1.382  -3.108  1.00  0.00    -0.246 OA
BRANCH  25  27
ATOM     27  C   UNL     1      -3.466  -3.417  -3.504  1.00  0.00     0.060 A 
ATOM     28  C   UNL     1      -2.921  -4.434  -2.720  1.00  0.00     0.016 A 
ATOM     29  C   UNL     1      -4.056  -3.698  -4.731  1.00  0.00     0.016 A 
ATOM     30  C   UNL     1      -2.915  -5.745  -3.181  1.00  0.00     0.010 A 
ATOM     31  C   UNL     1      -4.084  -5.022  -5.177  1.00  0.00     0.010 A 
ATOM     32  C   UNL     1      -3.491  -6.052  -4.419  1.00  0.00    -0.014 A 
BRANCH  32  33
ATOM     33  C   UNL     1      -3.400  -7.428  -4.970  1.00  0.00     0.031 A 
ATOM     34  C   UNL     1      -2.612  -7.658  -6.230  1.00  0.00     0.074 A 
ATOM     35  C   UNL     1      -4.012  -8.460  -4.357  1.00  0.00     0.049 A 
ATOM     36  N   UNL     1      -2.589  -8.703  -7.013  1.00  0.00    -0.248 NA
ATOM     37  C   UNL     1      -1.746  -6.553  -6.677  1.00  0.00     0.031 C 
ATOM     38  C   UNL     1      -4.754  -8.381  -3.098  1.00  0.00     0.029 A 
ATOM     39  N   UNL     1      -4.116  -9.779  -4.721  1.00  0.00    -0.354 N 
ATOM     40  C   UNL     1      -1.764  -8.359  -8.078  1.00  0.00     0.074 A 
ATOM     41  C   UNL     1      -1.294  -7.013  -7.835  1.00  0.00     0.031 C 
ATOM     42  C   UNL     1      -5.233  -9.598  -2.793  1.00  0.00     0.029 A 
ATOM     43  C   UNL     1      -4.898 -10.524  -3.869  1.00  0.00     0.049 A 
ATOM     44  H   UNL     1      -3.673 -10.157  -5.515  1.00  0.00     0.167 HD
ATOM     45  C   UNL     1      -1.440  -9.101  -9.163  1.00  0.00     0.037 A 
ATOM     46  C   UNL     1      -5.339 -11.793  -3.972  1.00  0.00     0.037 A 
ATOM     47  C   UNL     1      -1.864 -10.463  -9.358  1.00  0.00     0.049 A 
ATOM     48  C   UNL     1      -4.964 -12.601  -5.185  1.00  0.00     0.074 A 
ATOM     49  C   UNL     1      -1.583 -11.310 -10.415  1.00  0.00     0.029 A 
ATOM     50  N   UNL     1      -2.639 -11.184  -8.461  1.00  0.00    -0.354 N 
ATOM     51  N   UNL     1      -4.239 -12.243  -6.219  1.00  0.00    -0.248 NA
ATOM     52  C   UNL     1      -5.478 -13.975  -5.257  1.00  0.00     0.031 C 
ATOM     53  C   UNL     1      -2.209 -12.537 -10.169  1.00  0.00     0.029 A 
ATOM     54  C   UNL     1      -2.847 -12.465  -8.941  1.00  0.00     0.049 A 
ATOM     55  H   UNL     1      -2.989 -10.836  -7.610  1.00  0.00     0.167 HD
ATOM     56  C   UNL     1      -4.199 -13.352  -7.056  1.00  0.00     0.074 A 
ATOM     57  C   UNL     1      -4.960 -14.397  -6.402  1.00  0.00     0.031 C 
ATOM     58  C   UNL     1      -3.592 -13.493  -8.260  1.00  0.00     0.037 A 
BRANCH  45  59
ATOM     59  C   UNL     1      -0.619  -8.451 -10.240  1.00  0.00     0.058 A 
ATOM     60  C   UNL     1       0.755  -8.214 -10.092  1.00  0.00     0.135 A 
ATOM     61  C   UNL     1      -1.216  -8.103 -11.464  1.00  0.00     0.135 A 
ATOM     62  F   UNL     1       1.370  -8.508  -8.935  1.00  0.00    -0.206 F 
ATOM     63  C   UNL     1       1.508  -7.643 -11.113  1.00  0.00     0.059 A 
ATOM     64  C   UNL     1      -0.478  -7.551 -12.507  1.00  0.00     0.059 A 
ATOM     65  F   UNL     1      -2.529  -8.303 -11.656  1.00  0.00    -0.206 F 
ATOM     66  C   UNL     1       0.882  -7.316 -12.318  1.00  0.00     0.060 A 
BRANCH  66  67
ATOM     67  S   UNL     1       1.874  -6.598 -13.645  1.00  0.00     0.124 S 
ATOM     68  O   UNL     1       2.055  -5.231 -13.166  1.00  0.00    -0.237 OA
ATOM     69  O   UNL     1       3.069  -7.436 -13.633  1.00  0.00    -0.237 OA
ATOM     70  O   UNL     1       1.023  -6.743 -14.822  1.00  0.00    -0.744 OA
ENDBRANCH  66  67
ENDBRANCH  45  59
BRANCH  46  71
ATOM     71  C   UNL     1      -6.227 -12.360  -2.922  1.00  0.00     0.058 A 
ATOM     72  C   UNL     1      -5.778 -13.367  -2.056  1.00  0.00     0.135 A 
ATOM     73  C   UNL     1      -7.543 -11.898  -2.759  1.00  0.00     0.135 A 
ATOM     74  F   UNL     1      -4.532 -13.850  -2.179  1.00  0.00    -0.206 F 
ATOM     75  C   UNL     1      -6.603 -13.906  -1.073  1.00  0.00     0.059 A 
ATOM     76  C   UNL     1      -8.378 -12.401  -1.768  1.00  0.00     0.059 A 
ATOM     77  F   UNL     1      -8.018 -10.927  -3.554  1.00  0.00    -0.206 F 
ATOM     78  C   UNL     1      -7.903 -13.414  -0.936  1.00  0.00     0.060 A 
BRANCH  78  79
ATOM     79  S   UNL     1      -8.956 -14.080   0.372  1.00  0.00     0.124 S 
ATOM     80  O   UNL     1      -9.383 -15.346  -0.212  1.00  0.00    -0.237 OA
ATOM     81  O   UNL     1      -8.031 -14.176   1.497  1.00  0.00    -0.237 OA
ATOM     82  O   UNL     1      -9.995 -13.065   0.511  1.00  0.00    -0.744 OA
ENDBRANCH  78  79
ENDBRANCH  46  71
BRANCH  58  83
ATOM     83  C   UNL     1      -3.686 -14.834  -8.927  1.00  0.00     0.058 A 
ATOM     84  C   UNL     1      -4.854 -15.247  -9.583  1.00  0.00     0.135 A 
ATOM     85  C   UNL     1      -2.571 -15.686  -8.962  1.00  0.00     0.135 A 
ATOM     86  F   UNL     1      -5.948 -14.469  -9.572  1.00  0.00    -0.206 F 
ATOM     87  C   UNL     1      -4.919 -16.470 -10.243  1.00  0.00     0.059 A 
ATOM     88  C   UNL     1      -2.607 -16.903  -9.633  1.00  0.00     0.059 A 
ATOM     89  F   UNL     1      -1.428 -15.328  -8.356  1.00  0.00    -0.206 F 
ATOM     90  C   UNL     1      -3.789 -17.291 -10.263  1.00  0.00     0.060 A 
BRANCH  90  91
ATOM     91  S   UNL     1      -3.868 -18.856 -11.158  1.00  0.00     0.124 S 
ATOM     92  O   UNL     1      -4.624 -19.688 -10.228  1.00  0.00    -0.237 OA
ATOM     93  O   UNL     1      -4.566 -18.483 -12.385  1.00  0.00    -0.237 OA
ATOM     94  O   UNL     1      -2.465 -19.220 -11.330  1.00  0.00    -0.744 OA
ENDBRANCH  90  91
ENDBRANCH  58  83
ENDBRANCH  32  33
ENDBRANCH  25  27
ENDBRANCH  24  25
ENDBRANCH   1  24
TORSDOF 15
