REMARK SMILES Cc1ccc(S(=O)(=O)n2cc(C(=O)C(=O)N[C@@H](Cc3cnc[nH]3)C(=O)OCCOC(=O)c3ccc(-c4c5nc(c(-c6c(F)cc(S(=O)(=O)[O-])cc6F)c6ccc([nH]6)c(-c6c(F)cc(S(=O)(=O)[O-])cc6F)c6nc(c(-c7c(F)cc(S(=O)(=O)[O-])cc7F)c7ccc4[nH]7)C=C6)C=C5)cc3)c3ccccc32)cc1
REMARK SMILES IDX 27 1 26 2 24 3 25 4 17 5 16 6 14 7 15 8 12 10 13 11 11 12
REMARK SMILES IDX 9 13 10 14 103 15 98 16 102 17 99 18 101 19 100 20 6 21 7 22
REMARK SMILES IDX 8 23 5 24 1 25 2 26 3 27 105 28 4 29 104 30 18 31 19 32
REMARK SMILES IDX 20 33 23 34 21 35 22 36 28 38 29 39 30 40 31 41 32 42 33 43
REMARK SMILES IDX 97 44 34 45 96 46 35 47 36 48 37 49 90 50 38 51 95 52 89 53
REMARK SMILES IDX 91 54 39 55 94 56 88 57 87 58 40 60 74 61 53 62 73 63 54 64
REMARK SMILES IDX 57 65 72 66 92 67 55 68 56 69 71 71 93 72 58 73 41 74 42 75
REMARK SMILES IDX 51 76 43 77 44 78 50 79 52 80 45 81 46 82 47 83 48 84 49 85
REMARK SMILES IDX 75 86 76 87 85 88 77 89 78 90 84 91 86 92 79 93 80 94 81 95
REMARK SMILES IDX 82 96 83 97 59 98 60 99 69 100 61 101 62 102 68 103 70 104
REMARK SMILES IDX 63 105 64 106 65 107 66 108 67 109
REMARK H PARENT 16 9 23 37 91 59 57 70
REMARK Flexibility Score: inf
ROOT
ATOM      1  C   UNL     1      -6.014   8.725   6.706  1.00  0.00     0.274 C 
ENDROOT
BRANCH   1   2
ATOM      2  O   UNL     1      -7.194   8.259   6.037  1.00  0.00    -0.461 OA
BRANCH   2   3
ATOM      3  C   UNL     1      -7.092   7.989   4.604  1.00  0.00     0.329 C 
ATOM      4  O   UNL     1      -6.259   8.840   4.202  1.00  0.00    -0.250 OA
BRANCH   3   5
ATOM      5  C   UNL     1      -8.146   6.335   3.602  1.00  0.00     0.198 C 
BRANCH   5   6
ATOM      6  N   UNL     1      -7.737   4.686   3.539  1.00  0.00    -0.335 N 
ATOM      7  C   UNL     1      -7.172   3.809   2.630  1.00  0.00     0.293 C 
ATOM      8  O   UNL     1      -7.184   2.616   2.936  1.00  0.00    -0.265 OA
ATOM      9  H   UNL     1      -7.965   4.230   4.381  1.00  0.00     0.164 HD
BRANCH   7  10
ATOM     10  C   UNL     1      -6.571   4.228   1.261  1.00  0.00     0.252 C 
ATOM     11  O   UNL     1      -7.078   5.188   0.686  1.00  0.00    -0.283 OA
BRANCH  10  12
ATOM     12  C   UNL     1      -5.522   3.403   0.590  1.00  0.00     0.054 A 
ATOM     13  N   UNL     1      -4.237   1.659  -0.013  1.00  0.00    -0.240 N 
ATOM     14  C   UNL     1      -5.111   2.122   0.939  1.00  0.00     0.117 A 
ATOM     15  C   UNL     1      -4.027   2.600  -0.995  1.00  0.00     0.065 A 
ATOM     16  C   UNL     1      -4.756   3.735  -0.597  1.00  0.00     0.012 A 
ATOM     17  C   UNL     1      -3.258   2.574  -2.177  1.00  0.00     0.028 A 
ATOM     18  C   UNL     1      -4.632   4.901  -1.385  1.00  0.00     0.011 A 
ATOM     19  C   UNL     1      -3.160   3.744  -2.929  1.00  0.00     0.002 A 
ATOM     20  C   UNL     1      -3.823   4.898  -2.530  1.00  0.00     0.001 A 
BRANCH  13  21
ATOM     21  S   UNL     1      -3.608   0.072  -0.037  1.00  0.00     0.268 S 
ATOM     22  O   UNL     1      -3.953  -0.458  -1.345  1.00  0.00    -0.201 OA
ATOM     23  O   UNL     1      -4.066  -0.569   1.182  1.00  0.00    -0.201 OA
BRANCH  21  24
ATOM     24  C   UNL     1      -1.833   0.123   0.048  1.00  0.00     0.088 A 
ATOM     25  C   UNL     1       2.473  -0.027   0.006  1.00  0.00     0.044 C 
ATOM     26  C   UNL     1       0.974   0.028   0.033  1.00  0.00    -0.051 A 
ATOM     27  C   UNL     1       0.230  -1.156  -0.024  1.00  0.00     0.005 A 
ATOM     28  C   UNL     1       0.298   1.253   0.123  1.00  0.00     0.005 A 
ATOM     29  C   UNL     1      -1.167  -1.110  -0.024  1.00  0.00     0.022 A 
ATOM     30  C   UNL     1      -1.101   1.304   0.145  1.00  0.00     0.022 A 
ENDBRANCH  21  24
ENDBRANCH  13  21
ENDBRANCH  10  12
ENDBRANCH   7  10
ENDBRANCH   5   6
BRANCH   5  31
ATOM     31  C   UNL     1      -9.878   5.961   3.380  1.00  0.00     0.092 C 
BRANCH  31  32
ATOM     32  C   UNL     1     -10.621   5.349   4.547  1.00  0.00     0.037 A 
ATOM     33  C   UNL     1     -10.640   4.085   5.096  1.00  0.00     0.134 A 
ATOM     34  N   UNL     1     -11.486   6.062   5.353  1.00  0.00    -0.348 N 
ATOM     35  N   UNL     1     -11.265   4.092   6.320  1.00  0.00    -0.245 NA
ATOM     36  C   UNL     1     -11.712   5.316   6.473  1.00  0.00     0.196 A 
ATOM     37  H   UNL     1     -11.870   6.947   5.156  1.00  0.00     0.167 HD
ENDBRANCH  31  32
ENDBRANCH   5  31
ENDBRANCH   3   5
ENDBRANCH   2   3
ENDBRANCH   1   2
BRANCH   1  38
ATOM     38  C   UNL     1      -5.109   7.530   7.026  1.00  0.00     0.275 C 
BRANCH  38  39
ATOM     39  O   UNL     1      -4.440   6.886   5.908  1.00  0.00    -0.458 OA
BRANCH  39  40
ATOM     40  C   UNL     1      -4.954   5.830   5.223  1.00  0.00     0.338 C 
ATOM     41  O   UNL     1      -4.375   4.778   5.004  1.00  0.00    -0.246 OA
BRANCH  40  42
ATOM     42  C   UNL     1      -6.235   6.128   4.578  1.00  0.00     0.060 A 
ATOM     43  C   UNL     1      -6.218   6.990   2.994  1.00  0.00     0.016 A 
ATOM     44  C   UNL     1      -7.685   6.211   5.630  1.00  0.00     0.016 A 
ATOM     45  C   UNL     1      -7.566   8.141   2.560  1.00  0.00     0.010 A 
ATOM     46  C   UNL     1      -8.989   7.385   5.211  1.00  0.00     0.010 A 
ATOM     47  C   UNL     1      -8.905   8.379   3.711  1.00  0.00    -0.014 A 
BRANCH  47  48
ATOM     48  C   UNL     1      -9.687   9.608   3.930  1.00  0.00     0.031 A 
ATOM     49  C   UNL     1     -11.126   9.414   4.158  1.00  0.00     0.074 A 
ATOM     50  C   UNL     1      -9.043  10.662   4.476  1.00  0.00     0.049 A 
ATOM     51  N   UNL     1     -11.714   9.539   5.304  1.00  0.00    -0.248 NA
ATOM     52  C   UNL     1     -11.967   8.839   3.102  1.00  0.00     0.031 C 
ATOM     53  C   UNL     1      -9.573  11.727   5.319  1.00  0.00     0.029 A 
ATOM     54  N   UNL     1      -7.770  11.107   4.161  1.00  0.00    -0.354 N 
ATOM     55  C   UNL     1     -13.046   9.251   5.100  1.00  0.00     0.074 A 
ATOM     56  C   UNL     1     -13.110   8.648   3.768  1.00  0.00     0.031 C 
ATOM     57  C   UNL     1      -8.784  12.812   5.208  1.00  0.00     0.029 A 
ATOM     58  C   UNL     1      -7.763  12.511   4.216  1.00  0.00     0.049 A 
ATOM     59  H   UNL     1      -7.000  10.536   3.936  1.00  0.00     0.167 HD
ATOM     60  C   UNL     1     -14.010  10.143   5.447  1.00  0.00     0.037 A 
ATOM     61  C   UNL     1      -7.620  13.159   3.018  1.00  0.00     0.037 A 
ATOM     62  C   UNL     1     -13.571  11.513   5.325  1.00  0.00     0.049 A 
ATOM     63  C   UNL     1      -8.967  13.609   2.461  1.00  0.00     0.074 A 
ATOM     64  C   UNL     1     -13.007  12.451   6.165  1.00  0.00     0.029 A 
ATOM     65  N   UNL     1     -13.466  12.024   4.047  1.00  0.00    -0.354 N 
ATOM     66  N   UNL     1     -10.117  13.328   3.021  1.00  0.00    -0.248 NA
ATOM     67  C   UNL     1      -9.142  14.403   1.247  1.00  0.00     0.031 C 
ATOM     68  C   UNL     1     -12.459  13.486   5.342  1.00  0.00     0.029 A 
ATOM     69  C   UNL     1     -12.736  13.193   4.015  1.00  0.00     0.049 A 
ATOM     70  H   UNL     1     -13.866  11.604   3.252  1.00  0.00     0.167 HD
ATOM     71  C   UNL     1     -11.142  13.886   2.318  1.00  0.00     0.074 A 
ATOM     72  C   UNL     1     -10.483  14.499   1.175  1.00  0.00     0.031 C 
ATOM     73  C   UNL     1     -12.445  13.822   2.729  1.00  0.00     0.037 A 
BRANCH  60  74
ATOM     74  C   UNL     1     -15.237   9.625   6.135  1.00  0.00     0.058 A 
ATOM     75  C   UNL     1     -16.174  10.515   6.686  1.00  0.00     0.135 A 
ATOM     76  C   UNL     1     -15.479   8.248   6.369  1.00  0.00     0.135 A 
ATOM     77  F   UNL     1     -16.057  11.838   6.498  1.00  0.00    -0.206 F 
ATOM     78  C   UNL     1     -17.240  10.081   7.472  1.00  0.00     0.059 A 
ATOM     79  C   UNL     1     -16.547   7.791   7.143  1.00  0.00     0.059 A 
ATOM     80  F   UNL     1     -14.657   7.306   5.874  1.00  0.00    -0.206 F 
ATOM     81  C   UNL     1     -17.408   8.720   7.714  1.00  0.00     0.060 A 
BRANCH  81  82
ATOM     82  S   UNL     1     -18.743   8.202   8.812  1.00  0.00     0.124 S 
ATOM     83  O   UNL     1     -18.325   8.784  10.083  1.00  0.00    -0.237 OA
ATOM     84  O   UNL     1     -19.910   8.813   8.186  1.00  0.00    -0.237 OA
ATOM     85  O   UNL     1     -18.692   6.744   8.747  1.00  0.00    -0.744 OA
ENDBRANCH  81  82
ENDBRANCH  60  74
BRANCH  61  86
ATOM     86  C   UNL     1      -6.453  12.562   2.279  1.00  0.00     0.058 A 
ATOM     87  C   UNL     1      -5.204  12.610   2.949  1.00  0.00     0.135 A 
ATOM     88  C   UNL     1      -6.605  11.571   1.302  1.00  0.00     0.135 A 
ATOM     89  F   UNL     1      -4.984  13.553   3.882  1.00  0.00    -0.206 F 
ATOM     90  C   UNL     1      -4.246  11.607   2.810  1.00  0.00     0.059 A 
ATOM     91  C   UNL     1      -5.622  10.589   1.101  1.00  0.00     0.059 A 
ATOM     92  F   UNL     1      -7.766  11.448   0.639  1.00  0.00    -0.206 F 
ATOM     93  C   UNL     1      -4.483  10.574   1.911  1.00  0.00     0.060 A 
BRANCH  93  94
ATOM     94  S   UNL     1      -3.328   9.176   1.891  1.00  0.00     0.124 S 
ATOM     95  O   UNL     1      -2.089   9.818   1.465  1.00  0.00    -0.237 OA
ATOM     96  O   UNL     1      -3.346   8.713   3.274  1.00  0.00    -0.237 OA
ATOM     97  O   UNL     1      -3.919   8.261   0.917  1.00  0.00    -0.744 OA
ENDBRANCH  93  94
ENDBRANCH  61  86
BRANCH  73  98
ATOM     98  C   UNL     1     -13.562  14.405   1.913  1.00  0.00     0.058 A 
ATOM     99  C   UNL     1     -13.481  15.691   1.360  1.00  0.00     0.135 A 
ATOM    100  C   UNL     1     -14.775  13.711   1.707  1.00  0.00     0.135 A 
ATOM    101  F   UNL     1     -12.416  16.474   1.596  1.00  0.00    -0.206 F 
ATOM    102  C   UNL     1     -14.483  16.207   0.545  1.00  0.00     0.059 A 
ATOM    103  C   UNL     1     -15.825  14.242   0.969  1.00  0.00     0.059 A 
ATOM    104  F   UNL     1     -14.963  12.469   2.177  1.00  0.00    -0.206 F 
ATOM    105  C   UNL     1     -15.649  15.471   0.350  1.00  0.00     0.060 A 
BRANCH 105 106
ATOM    106  S   UNL     1     -16.930  16.134  -0.724  1.00  0.00     0.124 S 
ATOM    107  O   UNL     1     -16.967  17.540  -0.332  1.00  0.00    -0.237 OA
ATOM    108  O   UNL     1     -16.368  15.858  -2.042  1.00  0.00    -0.237 OA
ATOM    109  O   UNL     1     -18.110  15.355  -0.365  1.00  0.00    -0.744 OA
ENDBRANCH 105 106
ENDBRANCH  73  98
ENDBRANCH  47  48
ENDBRANCH  40  42
ENDBRANCH  39  40
ENDBRANCH  38  39
ENDBRANCH   1  38
TORSDOF 21
