REMARK SMILES O=C(COc1ccc(Br)cc1)NC(=S)Nc1ccc(Cl)cc1C(=O)OCCOC(=O)c1ccc(-c2c3nc(c(-c4c(F)cc(S(=O)(=O)[O-])cc4F)c4ccc([nH]4)c(-c4c(F)cc(S(=O)(=O)[O-])cc4F)c4nc(c(-c5c(F)cc(S(=O)(=O)[O-])cc5F)c5ccc2[nH]5)C=C4)C=C3)cc1
REMARK SMILES IDX 25 1 23 2 24 3 22 4 16 5 17 6 18 7 21 8 19 9 20 10 15 11
REMARK SMILES IDX 13 13 14 14 12 15 1 16 2 17 3 19 4 20 5 21 6 22 11 23 7 24
REMARK SMILES IDX 10 25 8 26 9 27 26 28 27 29 28 30 29 31 30 32 31 33 32 34
REMARK SMILES IDX 96 35 33 36 95 37 34 38 35 39 36 40 89 41 37 42 94 43 88 44
REMARK SMILES IDX 90 45 38 46 93 47 87 48 86 49 39 51 73 52 52 53 72 54 53 55
REMARK SMILES IDX 56 56 71 57 91 58 54 59 55 60 70 62 92 63 57 64 40 65 41 66
REMARK SMILES IDX 50 67 42 68 43 69 49 70 51 71 44 72 45 73 46 74 47 75 48 76
REMARK SMILES IDX 74 77 75 78 84 79 76 80 77 81 83 82 85 83 78 84 79 85 80 86
REMARK SMILES IDX 81 87 82 88 58 89 59 90 68 91 60 92 61 93 67 94 69 95 62 96
REMARK SMILES IDX 63 97 64 98 65 99 66 100
REMARK H PARENT 15 12 12 18 90 50 56 61
REMARK Flexibility Score: inf
ROOT
ATOM      1  O   UNL     1      -0.814   3.293  -1.490  1.00  0.00    -0.458 OA
ENDROOT
BRANCH   1   2
ATOM      2  C   UNL     1      -1.785   2.579  -0.862  1.00  0.00     0.340 C 
ATOM      3  O   UNL     1      -2.984   2.715  -1.045  1.00  0.00    -0.246 OA
BRANCH   2   4
ATOM      4  C   UNL     1      -1.250   1.577   0.106  1.00  0.00     0.085 A 
ATOM      5  C   UNL     1       0.038   1.593   0.671  1.00  0.00     0.055 A 
ATOM      6  C   UNL     1       0.366   0.644   1.659  1.00  0.00     0.028 A 
ATOM      7  C   UNL     1      -0.506  -0.400   1.965  1.00  0.00     0.023 A 
ATOM      8  C   UNL     1      -2.126   0.525   0.437  1.00  0.00     0.038 A 
ATOM      9  C   UNL     1      -1.734  -0.475   1.323  1.00  0.00     0.042 A 
ATOM     10  Cl  UNL     1      -2.772  -1.812   1.622  1.00  0.00    -0.084 Cl
BRANCH   5  11
ATOM     11  N   UNL     1       1.011   2.528   0.264  1.00  0.00    -0.332 N 
ATOM     12  H   UNL     1       0.661   3.396  -0.041  1.00  0.00     0.169 HD
BRANCH  11  13
ATOM     13  C   UNL     1       2.360   2.402   0.231  1.00  0.00     0.177 C 
ATOM     14  S   UNL     1       3.312   3.774   0.323  1.00  0.00    -0.040 S 
BRANCH  13  15
ATOM     15  N   UNL     1       2.982   1.198   0.022  1.00  0.00    -0.300 N 
ATOM     16  O   UNL     1       1.368  -0.243  -0.883  1.00  0.00    -0.271 OA
ATOM     17  C   UNL     1       2.509  -0.016  -0.495  1.00  0.00     0.264 C 
ATOM     18  H   UNL     1       3.932   1.183   0.282  1.00  0.00     0.172 HD
BRANCH  17  19
ATOM     19  C   UNL     1       3.605  -1.071  -0.631  1.00  0.00     0.329 C 
BRANCH  19  20
ATOM     20  O   UNL     1       4.470  -0.811  -1.740  1.00  0.00    -0.484 OA
BRANCH  20  21
ATOM     21  C   UNL     1       3.827  -1.111  -2.916  1.00  0.00     0.120 A 
ATOM     22  C   UNL     1       3.083  -0.125  -3.564  1.00  0.00     0.047 A 
ATOM     23  C   UNL     1       3.941  -2.388  -3.462  1.00  0.00     0.047 A 
ATOM     24  C   UNL     1       2.387  -0.440  -4.730  1.00  0.00     0.019 A 
ATOM     25  C   UNL     1       3.252  -2.699  -4.637  1.00  0.00     0.019 A 
ATOM     26  C   UNL     1       2.466  -1.727  -5.258  1.00  0.00     0.018 A 
ATOM     27  Br  UNL     1       1.494  -2.151  -6.822  1.00  0.00    -0.051 Br
ENDBRANCH  20  21
ENDBRANCH  19  20
ENDBRANCH  17  19
ENDBRANCH  13  15
ENDBRANCH  11  13
ENDBRANCH   5  11
ENDBRANCH   2   4
ENDBRANCH   1   2
BRANCH   1  28
ATOM     28  C   UNL     1      -1.279   4.289  -2.428  1.00  0.00     0.275 C 
BRANCH  28  29
ATOM     29  C   UNL     1      -1.226   3.787  -3.869  1.00  0.00     0.275 C 
BRANCH  29  30
ATOM     30  O   UNL     1      -2.142   2.693  -4.044  1.00  0.00    -0.458 OA
BRANCH  30  31
ATOM     31  C   UNL     1      -1.590   1.531  -4.455  1.00  0.00     0.338 C 
ATOM     32  O   UNL     1      -0.423   1.336  -4.761  1.00  0.00    -0.246 OA
BRANCH  31  33
ATOM     33  C   UNL     1      -2.614   0.479  -4.484  1.00  0.00     0.060 A 
ATOM     34  C   UNL     1      -3.052  -0.071  -3.280  1.00  0.00     0.016 A 
ATOM     35  C   UNL     1      -3.052  -0.045  -5.700  1.00  0.00     0.016 A 
ATOM     36  C   UNL     1      -3.904  -1.174  -3.286  1.00  0.00     0.010 A 
ATOM     37  C   UNL     1      -3.950  -1.119  -5.703  1.00  0.00     0.010 A 
ATOM     38  C   UNL     1      -4.366  -1.712  -4.497  1.00  0.00    -0.014 A 
BRANCH  38  39
ATOM     39  C   UNL     1      -5.231  -2.926  -4.496  1.00  0.00     0.031 A 
ATOM     40  C   UNL     1      -4.736  -4.205  -5.122  1.00  0.00     0.074 A 
ATOM     41  C   UNL     1      -6.444  -2.901  -3.908  1.00  0.00     0.049 A 
ATOM     42  N   UNL     1      -5.382  -5.322  -5.346  1.00  0.00    -0.248 NA
ATOM     43  C   UNL     1      -3.331  -4.229  -5.560  1.00  0.00     0.031 C 
ATOM     44  C   UNL     1      -7.029  -1.746  -3.223  1.00  0.00     0.029 A 
ATOM     45  N   UNL     1      -7.400  -3.879  -3.780  1.00  0.00    -0.354 N 
ATOM     46  C   UNL     1      -4.480  -6.163  -5.989  1.00  0.00     0.074 A 
ATOM     47  C   UNL     1      -3.241  -5.426  -6.124  1.00  0.00     0.031 C 
ATOM     48  C   UNL     1      -8.223  -2.094  -2.715  1.00  0.00     0.029 A 
ATOM     49  C   UNL     1      -8.523  -3.470  -3.099  1.00  0.00     0.049 A 
ATOM     50  H   UNL     1      -7.292  -4.788  -4.141  1.00  0.00     0.167 HD
ATOM     51  C   UNL     1      -4.667  -7.432  -6.425  1.00  0.00     0.037 A 
ATOM     52  C   UNL     1      -9.678  -4.114  -2.840  1.00  0.00     0.037 A 
ATOM     53  C   UNL     1      -5.885  -8.181  -6.244  1.00  0.00     0.049 A 
ATOM     54  C   UNL     1      -9.870  -5.515  -3.353  1.00  0.00     0.074 A 
ATOM     55  C   UNL     1      -6.175  -9.469  -6.661  1.00  0.00     0.029 A 
ATOM     56  N   UNL     1      -7.006  -7.718  -5.571  1.00  0.00    -0.354 N 
ATOM     57  N   UNL     1      -9.033  -6.268  -4.025  1.00  0.00    -0.248 NA
ATOM     58  C   UNL     1     -11.172  -6.146  -3.093  1.00  0.00     0.031 C 
ATOM     59  C   UNL     1      -7.480  -9.778  -6.259  1.00  0.00     0.029 A 
ATOM     60  C   UNL     1      -7.990  -8.694  -5.563  1.00  0.00     0.049 A 
ATOM     61  H   UNL     1      -7.091  -6.828  -5.160  1.00  0.00     0.167 HD
ATOM     62  C   UNL     1      -9.704  -7.463  -4.261  1.00  0.00     0.074 A 
ATOM     63  C   UNL     1     -11.008  -7.341  -3.642  1.00  0.00     0.031 C 
ATOM     64  C   UNL     1      -9.280  -8.559  -4.936  1.00  0.00     0.037 A 
BRANCH  51  65
ATOM     65  C   UNL     1      -3.536  -8.090  -7.166  1.00  0.00     0.058 A 
ATOM     66  C   UNL     1      -2.392  -8.563  -6.505  1.00  0.00     0.135 A 
ATOM     67  C   UNL     1      -3.619  -8.287  -8.554  1.00  0.00     0.135 A 
ATOM     68  F   UNL     1      -2.255  -8.386  -5.182  1.00  0.00    -0.206 F 
ATOM     69  C   UNL     1      -1.360  -9.189  -7.198  1.00  0.00     0.059 A 
ATOM     70  C   UNL     1      -2.609  -8.930  -9.264  1.00  0.00     0.059 A 
ATOM     71  F   UNL     1      -4.692  -7.855  -9.235  1.00  0.00    -0.206 F 
ATOM     72  C   UNL     1      -1.477  -9.367  -8.578  1.00  0.00     0.060 A 
BRANCH  72  73
ATOM     73  S   UNL     1      -0.135 -10.191  -9.463  1.00  0.00     0.124 S 
ATOM     74  O   UNL     1       0.873  -9.136  -9.511  1.00  0.00    -0.237 OA
ATOM     75  O   UNL     1       0.171 -11.320  -8.591  1.00  0.00    -0.237 OA
ATOM     76  O   UNL     1      -0.739 -10.541 -10.745  1.00  0.00    -0.744 OA
ENDBRANCH  72  73
ENDBRANCH  51  65
BRANCH  52  77
ATOM     77  C   UNL     1     -10.762  -3.428  -2.088  1.00  0.00     0.058 A 
ATOM     78  C   UNL     1     -11.110  -3.829  -0.790  1.00  0.00     0.135 A 
ATOM     79  C   UNL     1     -11.472  -2.357  -2.652  1.00  0.00     0.135 A 
ATOM     80  F   UNL     1     -10.470  -4.858  -0.212  1.00  0.00    -0.206 F 
ATOM     81  C   UNL     1     -12.130  -3.202  -0.081  1.00  0.00     0.059 A 
ATOM     82  C   UNL     1     -12.478  -1.696  -1.954  1.00  0.00     0.059 A 
ATOM     83  F   UNL     1     -11.173  -1.928  -3.889  1.00  0.00    -0.206 F 
ATOM     84  C   UNL     1     -12.808  -2.134  -0.673  1.00  0.00     0.060 A 
BRANCH  84  85
ATOM     85  S   UNL     1     -14.100  -1.290   0.266  1.00  0.00     0.124 S 
ATOM     86  O   UNL     1     -15.221  -2.209   0.113  1.00  0.00    -0.237 OA
ATOM     87  O   UNL     1     -13.516  -1.212   1.601  1.00  0.00    -0.237 OA
ATOM     88  O   UNL     1     -14.231  -0.011  -0.426  1.00  0.00    -0.744 OA
ENDBRANCH  84  85
ENDBRANCH  52  77
BRANCH  64  89
ATOM     89  C   UNL     1     -10.226  -9.723  -5.018  1.00  0.00     0.058 A 
ATOM     90  C   UNL     1     -11.329  -9.711  -5.885  1.00  0.00     0.135 A 
ATOM     91  C   UNL     1     -10.007 -10.875  -4.247  1.00  0.00     0.135 A 
ATOM     92  F   UNL     1     -11.586  -8.630  -6.638  1.00  0.00    -0.206 F 
ATOM     93  C   UNL     1     -12.196 -10.796  -5.971  1.00  0.00     0.059 A 
ATOM     94  C   UNL     1     -10.849 -11.979  -4.332  1.00  0.00     0.059 A 
ATOM     95  F   UNL     1      -8.961 -10.938  -3.408  1.00  0.00    -0.206 F 
ATOM     96  C   UNL     1     -11.948 -11.926  -5.188  1.00  0.00     0.060 A 
BRANCH  96  97
ATOM     97  S   UNL     1     -13.063 -13.339  -5.325  1.00  0.00     0.124 S 
ATOM     98  O   UNL     1     -14.209 -12.887  -4.543  1.00  0.00    -0.237 OA
ATOM     99  O   UNL     1     -13.277 -13.435  -6.766  1.00  0.00    -0.237 OA
ATOM    100  O   UNL     1     -12.295 -14.434  -4.739  1.00  0.00    -0.744 OA
ENDBRANCH  96  97
ENDBRANCH  64  89
ENDBRANCH  38  39
ENDBRANCH  31  33
ENDBRANCH  30  31
ENDBRANCH  29  30
ENDBRANCH  28  29
ENDBRANCH   1  28
TORSDOF 20
