REMARK SMILES COc1cc(OC)cc(-n2nnc(C(=O)OCCOC(=O)c3ccc(-c4c5nc(c(-c6c(F)cc(S(=O)(=O)[O-])cc6F)c6ccc([nH]6)c(-c6c(F)cc(S(=O)(=O)[O-])cc6F)c6nc(c(-c7c(F)cc(S(=O)(=O)[O-])cc7F)c7ccc4[nH]7)C=C6)C=C5)cc3)c2C)c1
REMARK SMILES IDX 18 1 17 2 16 3 14 4 15 5 13 6 10 7 11 8 88 9 12 10 89 11
REMARK SMILES IDX 9 12 3 13 4 14 90 15 5 16 8 17 2 18 1 19 6 20 7 21 19 22
REMARK SMILES IDX 20 23 21 24 22 25 23 26 87 27 24 28 86 29 25 30 26 31 27 32
REMARK SMILES IDX 80 33 28 34 85 35 79 36 81 37 29 38 84 39 78 40 77 41 30 43
REMARK SMILES IDX 64 44 43 45 63 46 44 47 47 48 62 49 82 50 45 51 46 52 61 54
REMARK SMILES IDX 83 55 48 56 31 57 32 58 41 59 33 60 34 61 40 62 42 63 35 64
REMARK SMILES IDX 36 65 37 66 38 67 39 68 65 69 66 70 75 71 67 72 68 73 74 74
REMARK SMILES IDX 76 75 69 76 70 77 71 78 72 79 73 80 49 81 50 82 59 83 51 84
REMARK SMILES IDX 52 85 58 86 60 87 53 88 54 89 55 90 56 91 57 92
REMARK H PARENT 81 42 47 53
REMARK Flexibility Score: inf
ROOT
ATOM      1  C   UNL     1       9.061   3.705   3.526  1.00  0.00     0.275 C 
ENDROOT
BRANCH   1   2
ATOM      2  C   UNL     1       8.687   2.901   2.292  1.00  0.00     0.275 C 
BRANCH   2   3
ATOM      3  O   UNL     1       7.438   2.225   2.495  1.00  0.00    -0.457 OA
BRANCH   3   4
ATOM      4  C   UNL     1       7.459   1.004   3.115  1.00  0.00     0.360 C 
ATOM      5  O   UNL     1       8.475   0.330   3.268  1.00  0.00    -0.244 OA
BRANCH   4   6
ATOM      6  C   UNL     1       6.136   0.623   3.595  1.00  0.00     0.193 A 
ATOM      7  N   UNL     1       4.002   0.508   4.003  1.00  0.00    -0.217 N 
ATOM      8  N   UNL     1       4.599  -0.443   4.747  1.00  0.00    -0.061 NA
ATOM      9  C   UNL     1       4.939   1.274   3.347  1.00  0.00     0.076 A 
ATOM     10  N   UNL     1       5.896  -0.428   4.450  1.00  0.00    -0.122 NA
ATOM     11  C   UNL     1       4.641   2.546   2.640  1.00  0.00     0.069 C 
BRANCH   7  12
ATOM     12  C   UNL     1       2.612   0.546   3.805  1.00  0.00     0.074 A 
ATOM     13  C   UNL     1       0.800   0.759   2.226  1.00  0.00     0.124 A 
ATOM     14  C   UNL     1      -0.051   1.037   3.296  1.00  0.00     0.093 A 
ATOM     15  C   UNL     1       2.143   0.532   2.483  1.00  0.00     0.075 A 
ATOM     16  C   UNL     1       0.416   1.036   4.620  1.00  0.00     0.124 A 
ATOM     17  C   UNL     1       1.753   0.739   4.888  1.00  0.00     0.075 A 
BRANCH  13  18
ATOM     18  O   UNL     1       0.248   0.816   0.976  1.00  0.00    -0.497 OA
ATOM     19  C   UNL     1       0.886   0.018  -0.018  1.00  0.00     0.278 C 
ENDBRANCH  13  18
BRANCH  16  20
ATOM     20  O   UNL     1      -0.527   1.367   5.556  1.00  0.00    -0.497 OA
ATOM     21  C   UNL     1      -0.035   1.809   6.817  1.00  0.00     0.278 C 
ENDBRANCH  16  20
ENDBRANCH   7  12
ENDBRANCH   4   6
ENDBRANCH   3   4
ENDBRANCH   2   3
ENDBRANCH   1   2
BRANCH   1  22
ATOM     22  O   UNL     1       9.538   2.828   4.540  1.00  0.00    -0.458 OA
BRANCH  22  23
ATOM     23  C   UNL     1       8.647   2.485   5.498  1.00  0.00     0.338 C 
ATOM     24  O   UNL     1       7.435   2.611   5.447  1.00  0.00    -0.246 OA
BRANCH  23  25
ATOM     25  C   UNL     1       9.400   2.178   6.718  1.00  0.00     0.060 A 
ATOM     26  C   UNL     1       8.666   1.924   7.879  1.00  0.00     0.016 A 
ATOM     27  C   UNL     1      10.774   2.463   6.755  1.00  0.00     0.016 A 
ATOM     28  C   UNL     1       9.271   2.165   9.094  1.00  0.00     0.010 A 
ATOM     29  C   UNL     1      11.363   2.734   7.961  1.00  0.00     0.010 A 
ATOM     30  C   UNL     1      10.581   2.657   9.108  1.00  0.00    -0.014 A 
BRANCH  30  31
ATOM     31  C   UNL     1      11.202   2.943  10.382  1.00  0.00     0.031 A 
ATOM     32  C   UNL     1      11.538   1.701  11.112  1.00  0.00     0.074 A 
ATOM     33  C   UNL     1      11.558   4.188  10.751  1.00  0.00     0.049 A 
ATOM     34  N   UNL     1      10.970   1.240  12.175  1.00  0.00    -0.248 NA
ATOM     35  C   UNL     1      12.448   0.743  10.457  1.00  0.00     0.031 C 
ATOM     36  C   UNL     1      11.508   5.420   9.959  1.00  0.00     0.029 A 
ATOM     37  N   UNL     1      12.143   4.600  11.906  1.00  0.00    -0.354 N 
ATOM     38  C   UNL     1      11.653   0.066  12.469  1.00  0.00     0.074 A 
ATOM     39  C   UNL     1      12.350  -0.309  11.269  1.00  0.00     0.031 C 
ATOM     40  C   UNL     1      12.248   6.375  10.570  1.00  0.00     0.029 A 
ATOM     41  C   UNL     1      12.716   5.867  11.848  1.00  0.00     0.049 A 
ATOM     42  H   UNL     1      12.160   4.046  12.720  1.00  0.00     0.167 HD
ATOM     43  C   UNL     1      11.850  -0.312  13.760  1.00  0.00     0.037 A 
ATOM     44  C   UNL     1      13.570   6.402  12.761  1.00  0.00     0.037 A 
ATOM     45  C   UNL     1      10.921   0.357  14.639  1.00  0.00     0.049 A 
ATOM     46  C   UNL     1      13.390   5.628  14.022  1.00  0.00     0.074 A 
ATOM     47  C   UNL     1       9.543   0.436  14.713  1.00  0.00     0.029 A 
ATOM     48  N   UNL     1      11.398   1.413  15.380  1.00  0.00    -0.354 N 
ATOM     49  N   UNL     1      12.291   5.644  14.728  1.00  0.00    -0.248 NA
ATOM     50  C   UNL     1      14.238   4.462  14.223  1.00  0.00     0.031 C 
ATOM     51  C   UNL     1       9.268   1.785  15.084  1.00  0.00     0.029 A 
ATOM     52  C   UNL     1      10.486   2.434  15.292  1.00  0.00     0.049 A 
ATOM     53  H   UNL     1      12.243   1.433  15.883  1.00  0.00     0.167 HD
ATOM     54  C   UNL     1      12.095   4.325  15.114  1.00  0.00     0.074 A 
ATOM     55  C   UNL     1      13.365   3.656  14.834  1.00  0.00     0.031 C 
ATOM     56  C   UNL     1      10.840   3.836  15.346  1.00  0.00     0.037 A 
BRANCH  43  57
ATOM     57  C   UNL     1      13.139  -0.927  14.255  1.00  0.00     0.058 A 
ATOM     58  C   UNL     1      13.203  -1.388  15.584  1.00  0.00     0.135 A 
ATOM     59  C   UNL     1      14.383  -0.819  13.589  1.00  0.00     0.135 A 
ATOM     60  F   UNL     1      12.084  -1.524  16.314  1.00  0.00    -0.206 F 
ATOM     61  C   UNL     1      14.414  -1.638  16.229  1.00  0.00     0.059 A 
ATOM     62  C   UNL     1      15.596  -1.117  14.195  1.00  0.00     0.059 A 
ATOM     63  F   UNL     1      14.507  -0.324  12.353  1.00  0.00    -0.206 F 
ATOM     64  C   UNL     1      15.606  -1.484  15.528  1.00  0.00     0.060 A 
BRANCH  64  65
ATOM     65  S   UNL     1      17.174  -1.707  16.380  1.00  0.00     0.124 S 
ATOM     66  O   UNL     1      17.177  -0.561  17.282  1.00  0.00    -0.237 OA
ATOM     67  O   UNL     1      16.992  -3.014  17.003  1.00  0.00    -0.237 OA
ATOM     68  O   UNL     1      18.153  -1.664  15.298  1.00  0.00    -0.744 OA
ENDBRANCH  64  65
ENDBRANCH  43  57
BRANCH  44  69
ATOM     69  C   UNL     1      14.777   7.242  12.508  1.00  0.00     0.058 A 
ATOM     70  C   UNL     1      15.466   7.872  13.562  1.00  0.00     0.135 A 
ATOM     71  C   UNL     1      15.448   7.212  11.269  1.00  0.00     0.135 A 
ATOM     72  F   UNL     1      14.918   7.932  14.786  1.00  0.00    -0.206 F 
ATOM     73  C   UNL     1      16.759   8.392  13.410  1.00  0.00     0.059 A 
ATOM     74  C   UNL     1      16.730   7.731  11.090  1.00  0.00     0.059 A 
ATOM     75  F   UNL     1      14.914   6.590  10.207  1.00  0.00    -0.206 F 
ATOM     76  C   UNL     1      17.392   8.297  12.171  1.00  0.00     0.060 A 
BRANCH  76  77
ATOM     77  S   UNL     1      19.122   8.806  12.005  1.00  0.00     0.124 S 
ATOM     78  O   UNL     1      19.025  10.256  12.133  1.00  0.00    -0.237 OA
ATOM     79  O   UNL     1      19.759   8.108  13.116  1.00  0.00    -0.237 OA
ATOM     80  O   UNL     1      19.491   8.322  10.677  1.00  0.00    -0.744 OA
ENDBRANCH  76  77
ENDBRANCH  44  69
BRANCH  56  81
ATOM     81  C   UNL     1       9.702   4.818  15.469  1.00  0.00     0.058 A 
ATOM     82  C   UNL     1       9.249   5.659  14.435  1.00  0.00     0.135 A 
ATOM     83  C   UNL     1       8.946   4.795  16.650  1.00  0.00     0.135 A 
ATOM     84  F   UNL     1       9.850   5.665  13.237  1.00  0.00    -0.206 F 
ATOM     85  C   UNL     1       8.123   6.473  14.589  1.00  0.00     0.059 A 
ATOM     86  C   UNL     1       7.803   5.572  16.813  1.00  0.00     0.059 A 
ATOM     87  F   UNL     1       9.288   3.967  17.651  1.00  0.00    -0.206 F 
ATOM     88  C   UNL     1       7.406   6.422  15.785  1.00  0.00     0.060 A 
BRANCH  88  89
ATOM     89  S   UNL     1       5.918   7.429  15.968  1.00  0.00     0.124 S 
ATOM     90  O   UNL     1       6.468   8.778  16.050  1.00  0.00    -0.237 OA
ATOM     91  O   UNL     1       5.173   7.121  14.750  1.00  0.00    -0.237 OA
ATOM     92  O   UNL     1       5.314   6.926  17.200  1.00  0.00    -0.744 OA
ENDBRANCH  88  89
ENDBRANCH  56  81
ENDBRANCH  30  31
ENDBRANCH  23  25
ENDBRANCH  22  23
ENDBRANCH   1  22
TORSDOF 17
