REMARK SMILES COc1cc2ccccc2cc1C(=O)Nc1cc(C(=O)OCCOC(=O)c2ccc(-c3c4nc(c(-c5c(F)cc(S(=O)(=O)[O-])cc5F)c5ccc([nH]5)c(-c5c(F)cc(S(=O)(=O)[O-])cc5F)c5nc(c(-c6c(F)cc(S(=O)(=O)[O-])cc6F)c6ccc3[nH]6)C=C5)C=C4)cc2)ccc1C
REMARK SMILES IDX 22 1 21 2 19 3 20 4 18 5 16 6 17 7 95 8 94 9 96 10 93 11
REMARK SMILES IDX 15 12 13 13 14 14 12 16 3 17 4 18 5 19 11 20 6 21 10 22 7 23
REMARK SMILES IDX 9 24 8 25 2 26 1 27 23 28 24 29 25 30 26 31 27 32 28 33
REMARK SMILES IDX 92 34 29 35 91 36 30 37 31 38 32 39 85 40 33 41 90 42 84 43
REMARK SMILES IDX 86 44 34 45 89 46 83 47 82 48 35 50 69 51 48 52 68 53 49 54
REMARK SMILES IDX 52 55 67 56 87 57 50 58 51 59 66 61 88 62 53 63 36 64 37 65
REMARK SMILES IDX 46 66 38 67 39 68 45 69 47 70 40 71 41 72 42 73 43 74 44 75
REMARK SMILES IDX 70 76 71 77 80 78 72 79 73 80 79 81 81 82 74 83 75 84 76 85
REMARK SMILES IDX 77 86 78 87 54 88 55 89 64 90 56 91 57 92 63 93 65 94 58 95
REMARK SMILES IDX 59 96 60 97 61 98 62 99
REMARK H PARENT 15 15 86 49 52 60
REMARK Flexibility Score: inf
ROOT
ATOM      1  C   UNL     1       0.331  -1.842  -5.350  1.00  0.00     0.275 C 
ENDROOT
BRANCH   1   2
ATOM      2  O   UNL     1       0.584  -1.649  -3.959  1.00  0.00    -0.458 OA
BRANCH   2   3
ATOM      3  C   UNL     1       1.370  -2.581  -3.376  1.00  0.00     0.338 C 
ATOM      4  O   UNL     1       1.911  -3.527  -3.907  1.00  0.00    -0.246 OA
BRANCH   3   5
ATOM      5  C   UNL     1       1.609  -2.151  -1.993  1.00  0.00     0.062 A 
ATOM      6  C   UNL     1       2.894  -0.760  -0.499  1.00  0.00     0.045 A 
ATOM      7  C   UNL     1       2.642  -1.241  -1.784  1.00  0.00     0.042 A 
ATOM      8  C   UNL     1       2.203  -1.305   0.605  1.00  0.00    -0.027 A 
ATOM      9  C   UNL     1       1.136  -2.191   0.363  1.00  0.00     0.006 A 
ATOM     10  C   UNL     1       2.416  -0.872   2.030  1.00  0.00     0.046 C 
ATOM     11  C   UNL     1       0.831  -2.605  -0.932  1.00  0.00     0.016 A 
BRANCH   6  12
ATOM     12  N   UNL     1       3.773   0.324  -0.322  1.00  0.00    -0.322 N 
ATOM     13  C   UNL     1       3.941   1.477  -1.077  1.00  0.00     0.259 C 
ATOM     14  O   UNL     1       4.916   2.188  -0.819  1.00  0.00    -0.269 OA
ATOM     15  H   UNL     1       4.364   0.253   0.463  1.00  0.00     0.170 HD
BRANCH  13  16
ATOM     16  C   UNL     1       2.972   1.941  -2.123  1.00  0.00     0.082 A 
ATOM     17  C   UNL     1       1.623   1.605  -2.168  1.00  0.00     0.132 A 
ATOM     18  C   UNL     1       0.928   1.781  -3.364  1.00  0.00     0.056 A 
ATOM     19  C   UNL     1       1.404   2.612  -4.382  1.00  0.00    -0.015 A 
ATOM     20  C   UNL     1       3.463   2.801  -3.131  1.00  0.00     0.026 A 
ATOM     21  C   UNL     1       0.600   2.945  -5.485  1.00  0.00     0.009 A 
ATOM     22  C   UNL     1       2.657   3.216  -4.218  1.00  0.00    -0.017 A 
ATOM     23  C   UNL     1       0.950   3.995  -6.330  1.00  0.00     0.001 A 
ATOM     24  C   UNL     1       3.029   4.230  -5.124  1.00  0.00     0.009 A 
ATOM     25  C   UNL     1       2.161   4.647  -6.141  1.00  0.00     0.001 A 
BRANCH  17  26
ATOM     26  O   UNL     1       0.870   1.060  -1.163  1.00  0.00    -0.496 OA
ATOM     27  C   UNL     1       0.886   1.788   0.064  1.00  0.00     0.278 C 
ENDBRANCH  17  26
ENDBRANCH  13  16
ENDBRANCH   6  12
ENDBRANCH   3   5
ENDBRANCH   2   3
ENDBRANCH   1   2
BRANCH   1  28
ATOM     28  C   UNL     1      -0.439  -3.131  -5.708  1.00  0.00     0.275 C 
BRANCH  28  29
ATOM     29  O   UNL     1      -1.597  -3.570  -4.944  1.00  0.00    -0.458 OA
BRANCH  29  30
ATOM     30  C   UNL     1      -1.775  -3.264  -3.626  1.00  0.00     0.338 C 
ATOM     31  O   UNL     1      -1.433  -4.005  -2.721  1.00  0.00    -0.246 OA
BRANCH  30  32
ATOM     32  C   UNL     1      -2.299  -1.878  -3.449  1.00  0.00     0.060 A 
ATOM     33  C   UNL     1      -2.343  -1.202  -2.214  1.00  0.00     0.016 A 
ATOM     34  C   UNL     1      -2.502  -1.169  -4.615  1.00  0.00     0.016 A 
ATOM     35  C   UNL     1      -2.539   0.198  -2.180  1.00  0.00     0.010 A 
ATOM     36  C   UNL     1      -2.340   0.183  -4.579  1.00  0.00     0.010 A 
ATOM     37  C   UNL     1      -2.519   0.900  -3.386  1.00  0.00    -0.014 A 
BRANCH  37  38
ATOM     38  C   UNL     1      -2.865   2.303  -3.695  1.00  0.00     0.031 A 
ATOM     39  C   UNL     1      -2.002   3.474  -3.419  1.00  0.00     0.074 A 
ATOM     40  C   UNL     1      -3.877   2.365  -4.598  1.00  0.00     0.049 A 
ATOM     41  N   UNL     1      -1.708   4.362  -4.317  1.00  0.00    -0.248 NA
ATOM     42  C   UNL     1      -1.328   3.703  -2.140  1.00  0.00     0.031 C 
ATOM     43  C   UNL     1      -4.379   3.432  -5.436  1.00  0.00     0.029 A 
ATOM     44  N   UNL     1      -4.808   1.334  -4.814  1.00  0.00    -0.354 N 
ATOM     45  C   UNL     1      -0.867   5.308  -3.745  1.00  0.00     0.074 A 
ATOM     46  C   UNL     1      -0.602   4.802  -2.400  1.00  0.00     0.031 C 
ATOM     47  C   UNL     1      -5.677   3.170  -5.703  1.00  0.00     0.029 A 
ATOM     48  C   UNL     1      -6.041   1.947  -4.988  1.00  0.00     0.049 A 
ATOM     49  H   UNL     1      -4.621   0.367  -4.839  1.00  0.00     0.167 HD
ATOM     50  C   UNL     1      -1.092   6.634  -3.982  1.00  0.00     0.037 A 
ATOM     51  C   UNL     1      -6.874   1.828  -3.911  1.00  0.00     0.037 A 
ATOM     52  C   UNL     1      -2.494   6.846  -4.262  1.00  0.00     0.049 A 
ATOM     53  C   UNL     1      -6.929   3.152  -3.183  1.00  0.00     0.074 A 
ATOM     54  C   UNL     1      -3.270   6.886  -5.405  1.00  0.00     0.029 A 
ATOM     55  N   UNL     1      -3.360   6.692  -3.194  1.00  0.00    -0.354 N 
ATOM     56  N   UNL     1      -5.965   4.039  -3.169  1.00  0.00    -0.248 NA
ATOM     57  C   UNL     1      -8.152   3.643  -2.564  1.00  0.00     0.031 C 
ATOM     58  C   UNL     1      -4.621   6.668  -5.007  1.00  0.00     0.029 A 
ATOM     59  C   UNL     1      -4.652   6.511  -3.628  1.00  0.00     0.049 A 
ATOM     60  H   UNL     1      -3.087   6.710  -2.248  1.00  0.00     0.167 HD
ATOM     61  C   UNL     1      -6.444   5.222  -2.672  1.00  0.00     0.074 A 
ATOM     62  C   UNL     1      -7.811   4.912  -2.288  1.00  0.00     0.031 C 
ATOM     63  C   UNL     1      -5.728   6.387  -2.656  1.00  0.00     0.037 A 
BRANCH  50  64
ATOM     64  C   UNL     1       0.053   7.537  -4.386  1.00  0.00     0.058 A 
ATOM     65  C   UNL     1      -0.135   8.568  -5.333  1.00  0.00     0.135 A 
ATOM     66  C   UNL     1       1.376   7.402  -3.910  1.00  0.00     0.135 A 
ATOM     67  F   UNL     1      -1.343   8.824  -5.853  1.00  0.00    -0.206 F 
ATOM     68  C   UNL     1       0.909   9.362  -5.816  1.00  0.00     0.059 A 
ATOM     69  C   UNL     1       2.441   8.188  -4.381  1.00  0.00     0.059 A 
ATOM     70  F   UNL     1       1.678   6.492  -2.970  1.00  0.00    -0.206 F 
ATOM     71  C   UNL     1       2.200   9.156  -5.350  1.00  0.00     0.060 A 
BRANCH  71  72
ATOM     72  S   UNL     1       3.536  10.138  -6.070  1.00  0.00     0.124 S 
ATOM     73  O   UNL     1       3.405   9.834  -7.492  1.00  0.00    -0.237 OA
ATOM     74  O   UNL     1       3.169  11.495  -5.677  1.00  0.00    -0.237 OA
ATOM     75  O   UNL     1       4.736   9.604  -5.432  1.00  0.00    -0.744 OA
ENDBRANCH  71  72
ENDBRANCH  50  64
BRANCH  51  76
ATOM     76  C   UNL     1      -6.849   0.425  -3.337  1.00  0.00     0.058 A 
ATOM     77  C   UNL     1      -7.147  -0.638  -4.229  1.00  0.00     0.135 A 
ATOM     78  C   UNL     1      -6.232   0.057  -2.131  1.00  0.00     0.135 A 
ATOM     79  F   UNL     1      -7.723  -0.372  -5.414  1.00  0.00    -0.206 F 
ATOM     80  C   UNL     1      -6.761  -1.958  -3.998  1.00  0.00     0.059 A 
ATOM     81  C   UNL     1      -5.863  -1.276  -1.862  1.00  0.00     0.059 A 
ATOM     82  F   UNL     1      -5.893   0.991  -1.230  1.00  0.00    -0.206 F 
ATOM     83  C   UNL     1      -6.098  -2.268  -2.818  1.00  0.00     0.060 A 
BRANCH  83  84
ATOM     84  S   UNL     1      -5.432  -3.945  -2.636  1.00  0.00     0.124 S 
ATOM     85  O   UNL     1      -6.643  -4.725  -2.402  1.00  0.00    -0.237 OA
ATOM     86  O   UNL     1      -4.789  -4.151  -3.931  1.00  0.00    -0.237 OA
ATOM     87  O   UNL     1      -4.531  -3.820  -1.495  1.00  0.00    -0.744 OA
ENDBRANCH  83  84
ENDBRANCH  51  76
BRANCH  63  88
ATOM     88  C   UNL     1      -6.024   7.575  -1.765  1.00  0.00     0.058 A 
ATOM     89  C   UNL     1      -6.804   7.491  -0.601  1.00  0.00     0.135 A 
ATOM     90  C   UNL     1      -5.377   8.824  -1.967  1.00  0.00     0.135 A 
ATOM     91  F   UNL     1      -7.336   6.332  -0.189  1.00  0.00    -0.206 F 
ATOM     92  C   UNL     1      -7.028   8.583   0.229  1.00  0.00     0.059 A 
ATOM     93  C   UNL     1      -5.513   9.900  -1.098  1.00  0.00     0.059 A 
ATOM     94  F   UNL     1      -4.557   9.043  -3.005  1.00  0.00    -0.206 F 
ATOM     95  C   UNL     1      -6.381   9.785  -0.028  1.00  0.00     0.060 A 
BRANCH  95  96
ATOM     96  S   UNL     1      -6.660  11.180   1.067  1.00  0.00     0.124 S 
ATOM     97  O   UNL     1      -7.908  11.714   0.531  1.00  0.00    -0.237 OA
ATOM     98  O   UNL     1      -6.754  10.540   2.375  1.00  0.00    -0.237 OA
ATOM     99  O   UNL     1      -5.476  12.008   0.865  1.00  0.00    -0.744 OA
ENDBRANCH  95  96
ENDBRANCH  63  88
ENDBRANCH  37  38
ENDBRANCH  30  32
ENDBRANCH  29  30
ENDBRANCH  28  29
ENDBRANCH   1  28
TORSDOF 17
