REMARK SMILES CCC[C@H](CNC(=O)N1CCN2C(=O)NC[C@H]2C1)C(=O)OCCOC(=O)c1ccc(-c2c3nc(c(-c4c(F)cc(S(=O)(=O)[O-])cc4F)c4ccc([nH]4)c(-c4c(F)cc(S(=O)(=O)[O-])cc4F)c4nc(c(-c5c(F)cc(S(=O)(=O)[O-])cc5F)c5ccc2[nH]5)C=C4)C=C3)cc1
REMARK SMILES IDX 22 1 21 2 19 3 20 4 4 5 3 6 2 7 1 8 5 9 6 10 7 11 8 13 9 14
REMARK SMILES IDX 10 15 18 16 11 17 17 18 12 19 16 20 13 21 15 22 14 23 23 25
REMARK SMILES IDX 24 26 25 27 26 28 27 29 28 30 92 31 29 32 91 33 30 34 31 35
REMARK SMILES IDX 32 36 85 37 33 38 90 39 84 40 86 41 34 42 89 43 83 44 82 45
REMARK SMILES IDX 35 47 69 48 48 49 68 50 49 51 52 52 67 53 87 54 50 55 51 56
REMARK SMILES IDX 66 58 88 59 53 60 36 61 37 62 46 63 38 64 39 65 45 66 47 67
REMARK SMILES IDX 40 68 41 69 42 70 43 71 44 72 70 73 71 74 80 75 72 76 73 77
REMARK SMILES IDX 79 78 81 79 74 80 75 81 76 82 77 83 78 84 54 85 55 86 64 87
REMARK SMILES IDX 56 88 57 89 63 90 65 91 58 92 59 93 60 94 61 95 62 96
REMARK H PARENT 6 12 15 24 86 46 52 57
REMARK Flexibility Score: inf
ROOT
ATOM      1  C   UNL     1       0.791   1.441  -6.359  1.00  0.00     0.274 C 
ENDROOT
BRANCH   1   2
ATOM      2  O   UNL     1       0.464   1.683  -4.972  1.00  0.00    -0.462 OA
BRANCH   2   3
ATOM      3  C   UNL     1       0.127   0.593  -4.235  1.00  0.00     0.310 C 
ATOM      4  O   UNL     1      -0.022  -0.529  -4.708  1.00  0.00    -0.252 OA
BRANCH   3   5
ATOM      5  C   UNL     1      -0.103   0.875  -2.748  1.00  0.00     0.118 C 
BRANCH   5   6
ATOM      6  C   UNL     1      -1.623   0.847  -2.488  1.00  0.00     0.017 C 
BRANCH   6   7
ATOM      7  C   UNL     1      -2.009   0.206  -1.148  1.00  0.00    -0.002 C 
ATOM      8  C   UNL     1      -1.598   1.008   0.074  1.00  0.00     0.004 C 
ENDBRANCH   6   7
ENDBRANCH   5   6
BRANCH   5   9
ATOM      9  C   UNL     1       0.582   2.148  -2.215  1.00  0.00     0.133 C 
BRANCH   9  10
ATOM     10  N   UNL     1       1.698   1.869  -1.312  1.00  0.00    -0.337 N 
ATOM     11  C   UNL     1       2.978   2.317  -1.335  1.00  0.00     0.317 C 
ATOM     12  H   UNL     1       1.486   1.260  -0.568  1.00  0.00     0.165 HD
ATOM     13  O   UNL     1       3.829   1.619  -0.781  1.00  0.00    -0.249 OA
BRANCH  11  14
ATOM     14  N   UNL     1       3.297   3.480  -1.976  1.00  0.00    -0.321 N 
ATOM     15  C   UNL     1       2.434   4.653  -2.167  1.00  0.00     0.143 C 
ATOM     16  C   UNL     1       4.651   3.632  -2.538  1.00  0.00     0.148 C 
ATOM     17  C   UNL     1       2.310   5.045  -3.653  1.00  0.00     0.143 C 
ATOM     18  C   UNL     1       4.517   3.901  -4.036  1.00  0.00     0.125 C 
ATOM     19  N   UNL     1       3.595   4.988  -4.326  1.00  0.00    -0.317 N 
ATOM     20  C   UNL     1       5.755   4.296  -4.821  1.00  0.00     0.144 C 
ATOM     21  C   UNL     1       3.925   5.577  -5.532  1.00  0.00     0.317 C 
ATOM     22  N   UNL     1       5.198   5.128  -5.868  1.00  0.00    -0.336 N 
ATOM     23  O   UNL     1       3.244   6.333  -6.201  1.00  0.00    -0.249 OA
ATOM     24  H   UNL     1       5.661   5.347  -6.709  1.00  0.00     0.165 HD
ENDBRANCH  11  14
ENDBRANCH   9  10
ENDBRANCH   5   9
ENDBRANCH   3   5
ENDBRANCH   2   3
ENDBRANCH   1   2
BRANCH   1  25
ATOM     25  C   UNL     1       2.301   1.289  -6.603  1.00  0.00     0.275 C 
BRANCH  25  26
ATOM     26  O   UNL     1       2.853   0.068  -6.066  1.00  0.00    -0.458 OA
BRANCH  26  27
ATOM     27  C   UNL     1       3.192   0.149  -4.760  1.00  0.00     0.338 C 
ATOM     28  O   UNL     1       3.067   1.128  -4.047  1.00  0.00    -0.246 OA
BRANCH  27  29
ATOM     29  C   UNL     1       3.619  -1.131  -4.195  1.00  0.00     0.060 A 
ATOM     30  C   UNL     1       2.828  -1.651  -3.170  1.00  0.00     0.016 A 
ATOM     31  C   UNL     1       4.834  -1.726  -4.529  1.00  0.00     0.016 A 
ATOM     32  C   UNL     1       3.240  -2.770  -2.469  1.00  0.00     0.010 A 
ATOM     33  C   UNL     1       5.237  -2.877  -3.843  1.00  0.00     0.010 A 
ATOM     34  C   UNL     1       4.438  -3.406  -2.814  1.00  0.00    -0.014 A 
BRANCH  34  35
ATOM     35  C   UNL     1       4.774  -4.670  -2.123  1.00  0.00     0.031 A 
ATOM     36  C   UNL     1       5.875  -4.730  -1.111  1.00  0.00     0.074 A 
ATOM     37  C   UNL     1       4.014  -5.750  -2.385  1.00  0.00     0.049 A 
ATOM     38  N   UNL     1       6.287  -5.753  -0.409  1.00  0.00    -0.248 NA
ATOM     39  C   UNL     1       6.614  -3.485  -0.855  1.00  0.00     0.031 C 
ATOM     40  C   UNL     1       2.900  -5.780  -3.340  1.00  0.00     0.029 A 
ATOM     41  N   UNL     1       4.040  -7.015  -1.865  1.00  0.00    -0.354 N 
ATOM     42  C   UNL     1       7.350  -5.288   0.355  1.00  0.00     0.074 A 
ATOM     43  C   UNL     1       7.524  -3.889   0.022  1.00  0.00     0.031 C 
ATOM     44  C   UNL     1       2.332  -6.993  -3.313  1.00  0.00     0.029 A 
ATOM     45  C   UNL     1       3.070  -7.839  -2.382  1.00  0.00     0.049 A 
ATOM     46  H   UNL     1       4.690  -7.306  -1.185  1.00  0.00     0.167 HD
ATOM     47  C   UNL     1       8.105  -5.973   1.248  1.00  0.00     0.037 A 
ATOM     48  C   UNL     1       2.813  -9.138  -2.145  1.00  0.00     0.037 A 
ATOM     49  C   UNL     1       7.899  -7.362   1.579  1.00  0.00     0.049 A 
ATOM     50  C   UNL     1       3.660  -9.869  -1.147  1.00  0.00     0.074 A 
ATOM     51  C   UNL     1       8.598  -8.147   2.480  1.00  0.00     0.029 A 
ATOM     52  N   UNL     1       6.918  -8.173   1.023  1.00  0.00    -0.354 N 
ATOM     53  N   UNL     1       4.669  -9.418  -0.439  1.00  0.00    -0.248 NA
ATOM     54  C   UNL     1       3.338 -11.281  -0.914  1.00  0.00     0.031 C 
ATOM     55  C   UNL     1       8.063  -9.441   2.442  1.00  0.00     0.029 A 
ATOM     56  C   UNL     1       7.003  -9.453   1.550  1.00  0.00     0.049 A 
ATOM     57  H   UNL     1       6.259  -7.882   0.353  1.00  0.00     0.167 HD
ATOM     58  C   UNL     1       5.100 -10.490   0.331  1.00  0.00     0.074 A 
ATOM     59  C   UNL     1       4.225 -11.604   0.018  1.00  0.00     0.031 C 
ATOM     60  C   UNL     1       6.129 -10.550   1.213  1.00  0.00     0.037 A 
BRANCH  47  61
ATOM     61  C   UNL     1       9.247  -5.241   1.897  1.00  0.00     0.058 A 
ATOM     62  C   UNL     1       9.042  -4.263   2.883  1.00  0.00     0.135 A 
ATOM     63  C   UNL     1      10.573  -5.541   1.542  1.00  0.00     0.135 A 
ATOM     64  F   UNL     1       7.796  -3.926   3.252  1.00  0.00    -0.206 F 
ATOM     65  C   UNL     1      10.108  -3.586   3.471  1.00  0.00     0.059 A 
ATOM     66  C   UNL     1      11.654  -4.894   2.133  1.00  0.00     0.059 A 
ATOM     67  F   UNL     1      10.828  -6.468   0.605  1.00  0.00    -0.206 F 
ATOM     68  C   UNL     1      11.411  -3.906   3.085  1.00  0.00     0.060 A 
BRANCH  68  69
ATOM     69  S   UNL     1      12.786  -3.017   3.847  1.00  0.00     0.124 S 
ATOM     70  O   UNL     1      12.715  -1.729   3.164  1.00  0.00    -0.237 OA
ATOM     71  O   UNL     1      12.413  -3.008   5.258  1.00  0.00    -0.237 OA
ATOM     72  O   UNL     1      13.947  -3.839   3.516  1.00  0.00    -0.744 OA
ENDBRANCH  68  69
ENDBRANCH  47  61
BRANCH  48  73
ATOM     73  C   UNL     1       1.710  -9.811  -2.878  1.00  0.00     0.058 A 
ATOM     74  C   UNL     1       0.522 -10.174  -2.230  1.00  0.00     0.135 A 
ATOM     75  C   UNL     1       1.805 -10.052  -4.258  1.00  0.00     0.135 A 
ATOM     76  F   UNL     1       0.387  -9.965  -0.912  1.00  0.00    -0.206 F 
ATOM     77  C   UNL     1      -0.534 -10.757  -2.922  1.00  0.00     0.059 A 
ATOM     78  C   UNL     1       0.754 -10.610  -4.977  1.00  0.00     0.059 A 
ATOM     79  F   UNL     1       2.916  -9.705  -4.928  1.00  0.00    -0.206 F 
ATOM     80  C   UNL     1      -0.411 -10.965  -4.298  1.00  0.00     0.060 A 
BRANCH  80  81
ATOM     81  S   UNL     1      -1.813 -11.654  -5.204  1.00  0.00     0.124 S 
ATOM     82  O   UNL     1      -1.732 -13.064  -4.841  1.00  0.00    -0.237 OA
ATOM     83  O   UNL     1      -2.939 -10.913  -4.642  1.00  0.00    -0.237 OA
ATOM     84  O   UNL     1      -1.499 -11.339  -6.594  1.00  0.00    -0.744 OA
ENDBRANCH  80  81
ENDBRANCH  48  73
BRANCH  60  85
ATOM     85  C   UNL     1       6.343 -11.866   1.905  1.00  0.00     0.058 A 
ATOM     86  C   UNL     1       6.880 -12.973   1.229  1.00  0.00     0.135 A 
ATOM     87  C   UNL     1       6.002 -12.022   3.258  1.00  0.00     0.135 A 
ATOM     88  F   UNL     1       7.215 -12.876  -0.067  1.00  0.00    -0.206 F 
ATOM     89  C   UNL     1       7.033 -14.203   1.859  1.00  0.00     0.059 A 
ATOM     90  C   UNL     1       6.170 -13.236   3.915  1.00  0.00     0.059 A 
ATOM     91  F   UNL     1       5.494 -10.991   3.951  1.00  0.00    -0.206 F 
ATOM     92  C   UNL     1       6.667 -14.327   3.201  1.00  0.00     0.060 A 
BRANCH  92  93
ATOM     93  S   UNL     1       6.858 -15.929   4.010  1.00  0.00     0.124 S 
ATOM     94  O   UNL     1       5.699 -16.653   3.501  1.00  0.00    -0.237 OA
ATOM     95  O   UNL     1       8.155 -16.381   3.514  1.00  0.00    -0.237 OA
ATOM     96  O   UNL     1       6.819 -15.597   5.431  1.00  0.00    -0.744 OA
ENDBRANCH  92  93
ENDBRANCH  60  85
ENDBRANCH  34  35
ENDBRANCH  27  29
ENDBRANCH  26  27
ENDBRANCH  25  26
ENDBRANCH   1  25
TORSDOF 19
