REMARK SMILES NC(=O)c1ccc(NC(=O)Cc2ccccc2C(=O)OCCOC(=O)c2ccc(-c3c4nc(c(-c5c(F)cc(S(=O)(=O)[O-])cc5F)c5ccc([nH]5)c(-c5c(F)cc(S(=O)(=O)[O-])cc5F)c5nc(c(-c6c(F)cc(S(=O)(=O)[O-])cc6F)c6ccc3[nH]6)C=C5)C=C4)cc2)cc1
REMARK SMILES IDX 21 1 20 2 18 3 19 4 17 5 12 6 13 7 14 8 16 9 15 10 11 11
REMARK SMILES IDX 9 12 8 13 10 15 7 16 4 17 5 18 93 19 6 20 92 21 2 22 1 23
REMARK SMILES IDX 3 26 22 27 23 28 24 29 25 30 26 31 27 32 91 33 28 34 90 35
REMARK SMILES IDX 29 36 30 37 31 38 84 39 32 40 89 41 83 42 85 43 33 44 88 45
REMARK SMILES IDX 82 46 81 47 34 49 68 50 47 51 67 52 48 53 51 54 66 55 86 56
REMARK SMILES IDX 49 57 50 58 65 60 87 61 52 62 35 63 36 64 45 65 37 66 38 67
REMARK SMILES IDX 44 68 46 69 39 70 40 71 41 72 42 73 43 74 69 75 70 76 79 77
REMARK SMILES IDX 71 78 72 79 78 80 80 81 73 82 74 83 75 84 76 85 77 86 53 87
REMARK SMILES IDX 54 88 63 89 55 90 56 91 62 92 64 93 57 94 58 95 59 96 60 97
REMARK SMILES IDX 61 98
REMARK H PARENT 8 14 1 24 1 25 85 48 51 59
REMARK Flexibility Score: inf
ROOT
ATOM      1  C   UNL     1       3.668   4.282  -3.201  1.00  0.00     0.275 C 
ENDROOT
BRANCH   1   2
ATOM      2  O   UNL     1       2.251   5.163  -3.243  1.00  0.00    -0.458 OA
BRANCH   2   3
ATOM      3  C   UNL     1       0.842   5.193  -3.274  1.00  0.00     0.338 C 
ATOM      4  O   UNL     1      -0.045   4.367  -3.055  1.00  0.00    -0.246 OA
BRANCH   3   5
ATOM      5  C   UNL     1       0.214   6.148  -4.150  1.00  0.00     0.063 A 
ATOM      6  C   UNL     1       0.720   6.133  -5.431  1.00  0.00    -0.024 A 
ATOM      7  C   UNL     1       0.038   6.857  -6.416  1.00  0.00     0.005 A 
ATOM      8  C   UNL     1      -1.270   7.306  -6.176  1.00  0.00     0.000 A 
ATOM      9  C   UNL     1      -1.139   6.488  -3.936  1.00  0.00     0.016 A 
ATOM     10  C   UNL     1      -1.893   7.033  -4.963  1.00  0.00     0.001 A 
BRANCH   6  11
ATOM     11  C   UNL     1       1.876   5.198  -5.691  1.00  0.00     0.136 C 
BRANCH  11  12
ATOM     12  C   UNL     1       1.733   3.640  -5.288  1.00  0.00     0.228 C 
ATOM     13  N   UNL     1       1.672   2.841  -4.103  1.00  0.00    -0.326 N 
ATOM     14  H   UNL     1       1.813   1.949  -4.495  1.00  0.00     0.169 HD
ATOM     15  O   UNL     1       1.942   2.945  -6.317  1.00  0.00    -0.274 OA
BRANCH  13  16
ATOM     16  C   UNL     1       1.528   2.450  -2.597  1.00  0.00     0.041 A 
ATOM     17  C   UNL     1       0.633   1.145  -0.184  1.00  0.00     0.039 A 
ATOM     18  C   UNL     1       0.511   2.505  -0.354  1.00  0.00     0.016 A 
ATOM     19  C   UNL     1       1.486   0.486  -1.033  1.00  0.00     0.016 A 
ATOM     20  C   UNL     1       1.109   3.140  -1.455  1.00  0.00     0.027 A 
ATOM     21  C   UNL     1       1.911   1.154  -2.196  1.00  0.00     0.027 A 
BRANCH  17  22
ATOM     22  C   UNL     1      -0.149   0.490   0.876  1.00  0.00     0.248 C 
ATOM     23  N   UNL     1       0.391  -0.608   1.473  1.00  0.00    -0.366 N 
ATOM     24  H   UNL     1      -0.103  -1.073   2.187  1.00  0.00     0.159 HD
ATOM     25  H   UNL     1       1.275  -0.937   1.191  1.00  0.00     0.159 HD
ATOM     26  O   UNL     1      -1.242   0.926   1.200  1.00  0.00    -0.270 OA
ENDBRANCH  17  22
ENDBRANCH  13  16
ENDBRANCH  11  12
ENDBRANCH   6  11
ENDBRANCH   3   5
ENDBRANCH   2   3
ENDBRANCH   1   2
BRANCH   1  27
ATOM     27  C   UNL     1       4.230   2.653  -3.612  1.00  0.00     0.275 C 
BRANCH  27  28
ATOM     28  O   UNL     1       3.587   1.753  -4.692  1.00  0.00    -0.458 OA
BRANCH  28  29
ATOM     29  C   UNL     1       3.579   0.357  -4.822  1.00  0.00     0.338 C 
ATOM     30  O   UNL     1       4.593  -0.319  -4.723  1.00  0.00    -0.246 OA
BRANCH  29  31
ATOM     31  C   UNL     1       2.125  -0.327  -4.809  1.00  0.00     0.060 A 
ATOM     32  C   UNL     1       0.943   0.252  -5.303  1.00  0.00     0.016 A 
ATOM     33  C   UNL     1       1.911  -1.488  -4.031  1.00  0.00     0.016 A 
ATOM     34  C   UNL     1      -0.363  -0.177  -4.927  1.00  0.00     0.010 A 
ATOM     35  C   UNL     1       0.597  -1.996  -3.741  1.00  0.00     0.010 A 
ATOM     36  C   UNL     1      -0.572  -1.355  -4.192  1.00  0.00    -0.014 A 
BRANCH  36  37
ATOM     37  C   UNL     1      -1.896  -2.091  -4.308  1.00  0.00     0.031 A 
ATOM     38  C   UNL     1      -2.911  -2.362  -3.205  1.00  0.00     0.074 A 
ATOM     39  C   UNL     1      -2.175  -2.604  -5.529  1.00  0.00     0.049 A 
ATOM     40  N   UNL     1      -3.973  -3.146  -3.244  1.00  0.00    -0.248 NA
ATOM     41  C   UNL     1      -2.743  -1.676  -1.919  1.00  0.00     0.031 C 
ATOM     42  C   UNL     1      -1.345  -2.413  -6.720  1.00  0.00     0.029 A 
ATOM     43  N   UNL     1      -3.208  -3.397  -5.976  1.00  0.00    -0.354 N 
ATOM     44  C   UNL     1      -4.590  -3.068  -1.995  1.00  0.00     0.074 A 
ATOM     45  C   UNL     1      -3.777  -2.145  -1.218  1.00  0.00     0.031 C 
ATOM     46  C   UNL     1      -1.888  -3.065  -7.751  1.00  0.00     0.029 A 
ATOM     47  C   UNL     1      -3.062  -3.792  -7.285  1.00  0.00     0.049 A 
ATOM     48  H   UNL     1      -3.974  -3.656  -5.414  1.00  0.00     0.167 HD
ATOM     49  C   UNL     1      -5.712  -3.698  -1.538  1.00  0.00     0.037 A 
ATOM     50  C   UNL     1      -3.734  -4.677  -8.045  1.00  0.00     0.037 A 
ATOM     51  C   UNL     1      -6.552  -4.605  -2.306  1.00  0.00     0.049 A 
ATOM     52  C   UNL     1      -4.908  -5.423  -7.497  1.00  0.00     0.074 A 
ATOM     53  C   UNL     1      -7.717  -5.250  -1.902  1.00  0.00     0.029 A 
ATOM     54  N   UNL     1      -6.333  -5.004  -3.615  1.00  0.00    -0.354 N 
ATOM     55  N   UNL     1      -5.445  -5.350  -6.307  1.00  0.00    -0.248 NA
ATOM     56  C   UNL     1      -5.565  -6.380  -8.400  1.00  0.00     0.031 C 
ATOM     57  C   UNL     1      -8.167  -6.073  -2.942  1.00  0.00     0.029 A 
ATOM     58  C   UNL     1      -7.316  -5.905  -4.018  1.00  0.00     0.049 A 
ATOM     59  H   UNL     1      -5.589  -4.694  -4.180  1.00  0.00     0.167 HD
ATOM     60  C   UNL     1      -6.516  -6.236  -6.323  1.00  0.00     0.074 A 
ATOM     61  C   UNL     1      -6.558  -6.827  -7.643  1.00  0.00     0.031 C 
ATOM     62  C   UNL     1      -7.382  -6.521  -5.321  1.00  0.00     0.037 A 
BRANCH  49  63
ATOM     63  C   UNL     1      -6.130  -3.481  -0.097  1.00  0.00     0.058 A 
ATOM     64  C   UNL     1      -6.770  -2.306   0.328  1.00  0.00     0.135 A 
ATOM     65  C   UNL     1      -6.013  -4.526   0.840  1.00  0.00     0.135 A 
ATOM     66  F   UNL     1      -6.940  -1.285  -0.526  1.00  0.00    -0.206 F 
ATOM     67  C   UNL     1      -7.246  -2.161   1.633  1.00  0.00     0.059 A 
ATOM     68  C   UNL     1      -6.502  -4.412   2.141  1.00  0.00     0.059 A 
ATOM     69  F   UNL     1      -5.446  -5.690   0.485  1.00  0.00    -0.206 F 
ATOM     70  C   UNL     1      -7.101  -3.218   2.535  1.00  0.00     0.060 A 
BRANCH  70  71
ATOM     71  S   UNL     1      -7.715  -3.017   4.225  1.00  0.00     0.124 S 
ATOM     72  O   UNL     1      -6.700  -2.143   4.803  1.00  0.00    -0.237 OA
ATOM     73  O   UNL     1      -9.027  -2.416   4.019  1.00  0.00    -0.237 OA
ATOM     74  O   UNL     1      -7.731  -4.384   4.746  1.00  0.00    -0.744 OA
ENDBRANCH  70  71
ENDBRANCH  49  63
BRANCH  50  75
ATOM     75  C   UNL     1      -3.257  -4.932  -9.428  1.00  0.00     0.058 A 
ATOM     76  C   UNL     1      -3.968  -4.452 -10.534  1.00  0.00     0.135 A 
ATOM     77  C   UNL     1      -2.048  -5.609  -9.659  1.00  0.00     0.135 A 
ATOM     78  F   UNL     1      -5.132  -3.808 -10.355  1.00  0.00    -0.206 F 
ATOM     79  C   UNL     1      -3.498  -4.634 -11.828  1.00  0.00     0.059 A 
ATOM     80  C   UNL     1      -1.543  -5.776 -10.941  1.00  0.00     0.059 A 
ATOM     81  F   UNL     1      -1.324  -6.067  -8.625  1.00  0.00    -0.206 F 
ATOM     82  C   UNL     1      -2.280  -5.290 -12.020  1.00  0.00     0.060 A 
BRANCH  82  83
ATOM     83  S   UNL     1      -1.641  -5.455 -13.699  1.00  0.00     0.124 S 
ATOM     84  O   UNL     1      -2.473  -6.530 -14.225  1.00  0.00    -0.237 OA
ATOM     85  O   UNL     1      -1.885  -4.127 -14.255  1.00  0.00    -0.237 OA
ATOM     86  O   UNL     1      -0.234  -5.787 -13.490  1.00  0.00    -0.744 OA
ENDBRANCH  82  83
ENDBRANCH  50  75
BRANCH  62  87
ATOM     87  C   UNL     1      -8.482  -7.509  -5.619  1.00  0.00     0.058 A 
ATOM     88  C   UNL     1      -8.225  -8.883  -5.755  1.00  0.00     0.135 A 
ATOM     89  C   UNL     1      -9.809  -7.079  -5.779  1.00  0.00     0.135 A 
ATOM     90  F   UNL     1      -6.973  -9.351  -5.631  1.00  0.00    -0.206 F 
ATOM     91  C   UNL     1      -9.238  -9.791  -6.061  1.00  0.00     0.059 A 
ATOM     92  C   UNL     1     -10.842  -7.971  -6.064  1.00  0.00     0.059 A 
ATOM     93  F   UNL     1     -10.116  -5.777  -5.664  1.00  0.00    -0.206 F 
ATOM     94  C   UNL     1     -10.545  -9.325  -6.216  1.00  0.00     0.060 A 
BRANCH  94  95
ATOM     95  S   UNL     1     -11.853 -10.513  -6.595  1.00  0.00     0.124 S 
ATOM     96  O   UNL     1     -11.598 -10.795  -8.004  1.00  0.00    -0.237 OA
ATOM     97  O   UNL     1     -11.566 -11.604  -5.669  1.00  0.00    -0.237 OA
ATOM     98  O   UNL     1     -13.079  -9.770  -6.316  1.00  0.00    -0.744 OA
ENDBRANCH  94  95
ENDBRANCH  62  87
ENDBRANCH  36  37
ENDBRANCH  29  31
ENDBRANCH  28  29
ENDBRANCH  27  28
ENDBRANCH   1  27
TORSDOF 18
