REMARK SMILES CCOc1cnc(C(=O)c2[nH]c3cc(Cl)ccc3c2CC(=O)OCCOC(=O)c2ccc(-c3c4nc(c(-c5c(F)cc(S(=O)(=O)[O-])cc5F)c5ccc([nH]5)c(-c5c(F)cc(S(=O)(=O)[O-])cc5F)c5nc(c(-c6c(F)cc(S(=O)(=O)[O-])cc6F)c6ccc3[nH]6)C=C5)C=C4)cc2)cc1CC
REMARK SMILES IDX 24 1 23 2 21 3 22 4 20 5 19 6 10 7 11 8 12 9 18 11 13 12
REMARK SMILES IDX 17 13 14 14 16 15 15 16 8 17 9 18 7 19 4 20 5 21 96 22 6 23
REMARK SMILES IDX 95 24 3 25 2 26 1 27 97 28 98 29 25 30 26 31 27 32 28 33
REMARK SMILES IDX 29 34 30 35 94 36 31 37 93 38 32 39 33 40 34 41 87 42 35 43
REMARK SMILES IDX 92 44 86 45 88 46 36 47 91 48 85 49 84 50 37 52 71 53 50 54
REMARK SMILES IDX 70 55 51 56 54 57 69 58 89 59 52 60 53 61 68 63 90 64 55 65
REMARK SMILES IDX 38 66 39 67 48 68 40 69 41 70 47 71 49 72 42 73 43 74 44 75
REMARK SMILES IDX 45 76 46 77 72 78 73 79 82 80 74 81 75 82 81 83 83 84 76 85
REMARK SMILES IDX 77 86 78 87 79 88 80 89 56 90 57 91 66 92 58 93 59 94 65 95
REMARK SMILES IDX 67 96 60 97 61 98 62 99 63 100 64 101
REMARK H PARENT 11 10 88 51 54 62
REMARK Flexibility Score: inf
ROOT
ATOM      1  C   UNL     1      10.592  -5.020   1.957  1.00  0.00     0.274 C 
ENDROOT
BRANCH   1   2
ATOM      2  O   UNL     1       9.978  -3.724   1.782  1.00  0.00    -0.462 OA
BRANCH   2   3
ATOM      3  C   UNL     1       9.767  -3.322   0.503  1.00  0.00     0.310 C 
ATOM      4  O   UNL     1      10.240  -3.890  -0.480  1.00  0.00    -0.252 OA
BRANCH   3   5
ATOM      5  C   UNL     1       8.774  -2.189   0.349  1.00  0.00     0.161 C 
BRANCH   5   6
ATOM      6  C   UNL     1       8.601  -1.235   1.490  1.00  0.00     0.000 A 
ATOM      7  C   UNL     1       7.652  -1.274   2.511  1.00  0.00     0.093 A 
ATOM      8  N   UNL     1       7.894  -0.197   3.331  1.00  0.00    -0.351 N 
ATOM      9  C   UNL     1       8.781   0.666   2.743  1.00  0.00     0.048 A 
ATOM     10  H   UNL     1       7.487  -0.065   4.217  1.00  0.00     0.167 HD
ATOM     11  C   UNL     1       9.305   0.012   1.631  1.00  0.00     0.004 A 
ATOM     12  C   UNL     1       9.149   1.964   3.113  1.00  0.00     0.047 A 
ATOM     13  C   UNL     1      10.296   0.672   0.873  1.00  0.00     0.012 A 
ATOM     14  C   UNL     1      10.101   2.607   2.321  1.00  0.00     0.043 A 
ATOM     15  C   UNL     1      10.682   1.972   1.227  1.00  0.00     0.021 A 
ATOM     16  Cl  UNL     1      10.558   4.223   2.707  1.00  0.00    -0.084 Cl
BRANCH   7  17
ATOM     17  C   UNL     1       6.537  -2.164   2.817  1.00  0.00     0.227 C 
ATOM     18  O   UNL     1       6.521  -2.808   3.865  1.00  0.00    -0.285 OA
BRANCH  17  19
ATOM     19  C   UNL     1       5.255  -2.002   2.025  1.00  0.00     0.113 A 
ATOM     20  C   UNL     1       2.650  -1.416   1.361  1.00  0.00     0.140 A 
ATOM     21  C   UNL     1       3.055  -2.678   1.781  1.00  0.00     0.158 A 
ATOM     22  C   UNL     1       3.609  -0.410   1.254  1.00  0.00    -0.002 A 
ATOM     23  N   UNL     1       4.329  -2.992   2.129  1.00  0.00    -0.249 NA
ATOM     24  C   UNL     1       4.946  -0.738   1.520  1.00  0.00     0.040 A 
BRANCH  20  25
ATOM     25  O   UNL     1       1.325  -1.115   1.256  1.00  0.00    -0.492 OA
BRANCH  25  26
ATOM     26  C   UNL     1       0.759  -1.474  -0.010  1.00  0.00     0.226 C 
ATOM     27  C   UNL     1       0.283  -0.215  -0.714  1.00  0.00     0.049 C 
ENDBRANCH  25  26
ENDBRANCH  20  25
BRANCH  22  28
ATOM     28  C   UNL     1       3.242   1.035   1.015  1.00  0.00     0.036 C 
ATOM     29  C   UNL     1       3.571   1.903   2.226  1.00  0.00     0.009 C 
ENDBRANCH  22  28
ENDBRANCH  17  19
ENDBRANCH   7  17
ENDBRANCH   5   6
ENDBRANCH   3   5
ENDBRANCH   2   3
ENDBRANCH   1   2
BRANCH   1  30
ATOM     30  C   UNL     1       9.567  -6.075   2.404  1.00  0.00     0.275 C 
BRANCH  30  31
ATOM     31  O   UNL     1       8.647  -6.447   1.354  1.00  0.00    -0.458 OA
BRANCH  31  32
ATOM     32  C   UNL     1       7.597  -5.607   1.246  1.00  0.00     0.338 C 
ATOM     33  O   UNL     1       7.415  -4.588   1.890  1.00  0.00    -0.246 OA
BRANCH  32  34
ATOM     34  C   UNL     1       6.679  -5.945   0.165  1.00  0.00     0.060 A 
ATOM     35  C   UNL     1       6.682  -5.119  -0.961  1.00  0.00     0.016 A 
ATOM     36  C   UNL     1       5.658  -6.871   0.377  1.00  0.00     0.016 A 
ATOM     37  C   UNL     1       5.627  -5.181  -1.861  1.00  0.00     0.010 A 
ATOM     38  C   UNL     1       4.629  -6.973  -0.561  1.00  0.00     0.010 A 
ATOM     39  C   UNL     1       4.599  -6.117  -1.674  1.00  0.00    -0.014 A 
BRANCH  39  40
ATOM     40  C   UNL     1       3.533  -6.232  -2.695  1.00  0.00     0.031 A 
ATOM     41  C   UNL     1       2.124  -5.811  -2.404  1.00  0.00     0.074 A 
ATOM     42  C   UNL     1       3.866  -6.718  -3.905  1.00  0.00     0.049 A 
ATOM     43  N   UNL     1       1.070  -5.888  -3.175  1.00  0.00    -0.248 NA
ATOM     44  C   UNL     1       1.860  -5.223  -1.081  1.00  0.00     0.031 C 
ATOM     45  C   UNL     1       5.213  -7.139  -4.298  1.00  0.00     0.029 A 
ATOM     46  N   UNL     1       3.106  -6.939  -5.021  1.00  0.00    -0.354 N 
ATOM     47  C   UNL     1       0.018  -5.363  -2.437  1.00  0.00     0.074 A 
ATOM     48  C   UNL     1       0.554  -4.992  -1.144  1.00  0.00     0.031 C 
ATOM     49  C   UNL     1       5.186  -7.560  -5.571  1.00  0.00     0.029 A 
ATOM     50  C   UNL     1       3.814  -7.491  -6.060  1.00  0.00     0.049 A 
ATOM     51  H   UNL     1       2.147  -6.725  -5.074  1.00  0.00     0.167 HD
ATOM     52  C   UNL     1      -1.274  -5.199  -2.811  1.00  0.00     0.037 A 
ATOM     53  C   UNL     1       3.401  -7.929  -7.263  1.00  0.00     0.037 A 
ATOM     54  C   UNL     1      -1.803  -5.586  -4.091  1.00  0.00     0.049 A 
ATOM     55  C   UNL     1       1.950  -7.818  -7.618  1.00  0.00     0.074 A 
ATOM     56  C   UNL     1      -3.099  -5.463  -4.562  1.00  0.00     0.029 A 
ATOM     57  N   UNL     1      -1.064  -6.183  -5.102  1.00  0.00    -0.354 N 
ATOM     58  N   UNL     1       0.970  -7.307  -6.912  1.00  0.00    -0.248 NA
ATOM     59  C   UNL     1       1.544  -8.351  -8.924  1.00  0.00     0.031 C 
ATOM     60  C   UNL     1      -3.149  -6.012  -5.850  1.00  0.00     0.029 A 
ATOM     61  C   UNL     1      -1.880  -6.455  -6.188  1.00  0.00     0.049 A 
ATOM     62  H   UNL     1      -0.102  -6.383  -5.055  1.00  0.00     0.167 HD
ATOM     63  C   UNL     1      -0.171  -7.452  -7.690  1.00  0.00     0.074 A 
ATOM     64  C   UNL     1       0.244  -8.088  -8.925  1.00  0.00     0.031 C 
ATOM     65  C   UNL     1      -1.446  -7.092  -7.405  1.00  0.00     0.037 A 
BRANCH  52  66
ATOM     66  C   UNL     1      -2.204  -4.568  -1.820  1.00  0.00     0.058 A 
ATOM     67  C   UNL     1      -2.280  -3.174  -1.693  1.00  0.00     0.135 A 
ATOM     68  C   UNL     1      -3.039  -5.351  -1.010  1.00  0.00     0.135 A 
ATOM     69  F   UNL     1      -1.494  -2.388  -2.444  1.00  0.00    -0.206 F 
ATOM     70  C   UNL     1      -3.133  -2.572  -0.773  1.00  0.00     0.059 A 
ATOM     71  C   UNL     1      -3.909  -4.771  -0.090  1.00  0.00     0.059 A 
ATOM     72  F   UNL     1      -3.004  -6.689  -1.099  1.00  0.00    -0.206 F 
ATOM     73  C   UNL     1      -3.935  -3.381   0.033  1.00  0.00     0.060 A 
BRANCH  73  74
ATOM     74  S   UNL     1      -5.023  -2.603   1.247  1.00  0.00     0.124 S 
ATOM     75  O   UNL     1      -4.109  -2.412   2.368  1.00  0.00    -0.237 OA
ATOM     76  O   UNL     1      -5.449  -1.386   0.563  1.00  0.00    -0.237 OA
ATOM     77  O   UNL     1      -6.068  -3.603   1.446  1.00  0.00    -0.744 OA
ENDBRANCH  73  74
ENDBRANCH  52  66
BRANCH  53  78
ATOM     78  C   UNL     1       4.388  -8.537  -8.187  1.00  0.00     0.058 A 
ATOM     79  C   UNL     1       4.853  -7.838  -9.307  1.00  0.00     0.135 A 
ATOM     80  C   UNL     1       4.942  -9.799  -7.917  1.00  0.00     0.135 A 
ATOM     81  F   UNL     1       4.349  -6.630  -9.601  1.00  0.00    -0.206 F 
ATOM     82  C   UNL     1       5.843  -8.365 -10.129  1.00  0.00     0.059 A 
ATOM     83  C   UNL     1       5.947 -10.337  -8.711  1.00  0.00     0.059 A 
ATOM     84  F   UNL     1       4.540 -10.495  -6.842  1.00  0.00    -0.206 F 
ATOM     85  C   UNL     1       6.389  -9.613  -9.818  1.00  0.00     0.060 A 
BRANCH  85  86
ATOM     86  S   UNL     1       7.739 -10.253 -10.833  1.00  0.00     0.124 S 
ATOM     87  O   UNL     1       7.014 -10.783 -11.981  1.00  0.00    -0.237 OA
ATOM     88  O   UNL     1       8.538  -9.056 -11.079  1.00  0.00    -0.237 OA
ATOM     89  O   UNL     1       8.365 -11.245  -9.964  1.00  0.00    -0.744 OA
ENDBRANCH  85  86
ENDBRANCH  53  78
BRANCH  65  90
ATOM     90  C   UNL     1      -2.479  -7.372  -8.454  1.00  0.00     0.058 A 
ATOM     91  C   UNL     1      -3.008  -8.659  -8.628  1.00  0.00     0.135 A 
ATOM     92  C   UNL     1      -2.970  -6.338  -9.265  1.00  0.00     0.135 A 
ATOM     93  F   UNL     1      -2.560  -9.680  -7.880  1.00  0.00    -0.206 F 
ATOM     94  C   UNL     1      -3.983  -8.916  -9.584  1.00  0.00     0.059 A 
ATOM     95  C   UNL     1      -3.957  -6.569 -10.217  1.00  0.00     0.059 A 
ATOM     96  F   UNL     1      -2.497  -5.089  -9.130  1.00  0.00    -0.206 F 
ATOM     97  C   UNL     1      -4.450  -7.865 -10.375  1.00  0.00     0.060 A 
BRANCH  97  98
ATOM     98  S   UNL     1      -5.742  -8.198 -11.592  1.00  0.00     0.124 S 
ATOM     99  O   UNL     1      -4.970  -8.774 -12.687  1.00  0.00    -0.237 OA
ATOM    100  O   UNL     1      -6.619  -9.122 -10.879  1.00  0.00    -0.237 OA
ATOM    101  O   UNL     1      -6.310  -6.878 -11.848  1.00  0.00    -0.744 OA
ENDBRANCH  97  98
ENDBRANCH  65  90
ENDBRANCH  39  40
ENDBRANCH  32  34
ENDBRANCH  31  32
ENDBRANCH  30  31
ENDBRANCH   1  30
TORSDOF 20
