REMARK SMILES CC(C)[C@@H](NC(=O)[C@@](C)([NH3+])C(F)(F)F)C(=O)OCCOC(=O)c1ccc(-c2c3nc(c(-c4c(F)cc(S(=O)(=O)[O-])cc4F)c4ccc([nH]4)c(-c4c(F)cc(S(=O)(=O)[O-])cc4F)c4nc(c(-c5c(F)cc(S(=O)(=O)[O-])cc5F)c5ccc2[nH]5)C=C4)C=C3)cc1
REMARK SMILES IDX 18 1 17 2 15 3 16 4 4 5 2 6 1 7 3 8 5 9 6 10 7 12 8 13 9 14
REMARK SMILES IDX 10 15 11 19 12 20 13 21 14 22 19 23 20 24 21 25 22 26 23 27
REMARK SMILES IDX 24 28 88 29 25 30 87 31 26 32 27 33 28 34 81 35 29 36 86 37
REMARK SMILES IDX 80 38 82 39 30 40 85 41 79 42 78 43 31 45 65 46 44 47 64 48
REMARK SMILES IDX 45 49 48 50 63 51 83 52 46 53 47 54 62 56 84 57 49 58 32 59
REMARK SMILES IDX 33 60 42 61 34 62 35 63 41 64 43 65 36 66 37 67 38 68 39 69
REMARK SMILES IDX 40 70 66 71 67 72 76 73 68 74 69 75 75 76 77 77 70 78 71 79
REMARK SMILES IDX 72 80 73 81 74 82 50 83 51 84 60 85 52 86 53 87 59 88 61 89
REMARK SMILES IDX 54 90 55 91 56 92 57 93 58 94
REMARK H PARENT 5 11 10 16 10 17 10 18 82 44 48 55
REMARK Flexibility Score: inf
ROOT
ATOM      1  C   UNL     1      -1.329  -1.561   5.109  1.00  0.00     0.274 C 
ENDROOT
BRANCH   1   2
ATOM      2  O   UNL     1      -0.757  -1.339   3.802  1.00  0.00    -0.461 OA
BRANCH   2   3
ATOM      3  C   UNL     1      -1.577  -0.767   2.882  1.00  0.00     0.329 C 
ATOM      4  O   UNL     1      -2.696  -0.334   3.142  1.00  0.00    -0.250 OA
BRANCH   3   5
ATOM      5  C   UNL     1      -1.059  -0.847   1.435  1.00  0.00     0.195 C 
BRANCH   5   6
ATOM      6  C   UNL     1       0.470  -1.005   1.199  1.00  0.00     0.017 C 
ATOM      7  C   UNL     1       0.825  -0.728  -0.276  1.00  0.00     0.010 C 
ATOM      8  C   UNL     1       1.305  -0.026   2.041  1.00  0.00     0.010 C 
ENDBRANCH   5   6
BRANCH   5   9
ATOM      9  N   UNL     1      -1.887  -1.661   0.500  1.00  0.00    -0.337 N 
ATOM     10  C   UNL     1      -2.467  -2.902   0.489  1.00  0.00     0.291 C 
ATOM     11  H   UNL     1      -2.065  -1.175  -0.337  1.00  0.00     0.164 HD
ATOM     12  O   UNL     1      -2.601  -3.400  -0.632  1.00  0.00    -0.267 OA
BRANCH  10  13
ATOM     13  C   UNL     1      -2.986  -3.609   1.760  1.00  0.00     0.267 C 
ATOM     14  C   UNL     1      -1.819  -4.058   2.650  1.00  0.00     0.100 C 
BRANCH  13  15
ATOM     15  N   UNL     1      -3.923  -2.694   2.480  1.00  0.00    -0.337 N 
ATOM     16  H   UNL     1      -3.423  -1.852   2.767  1.00  0.00     0.345 HD
ATOM     17  H   UNL     1      -4.295  -3.166   3.304  1.00  0.00     0.345 HD
ATOM     18  H   UNL     1      -4.692  -2.438   1.860  1.00  0.00     0.345 HD
ENDBRANCH  13  15
BRANCH  13  19
ATOM     19  C   UNL     1      -3.751  -4.896   1.321  1.00  0.00     0.453 C 
ATOM     20  F   UNL     1      -4.827  -4.651   0.543  1.00  0.00    -0.164 F 
ATOM     21  F   UNL     1      -2.958  -5.787   0.681  1.00  0.00    -0.164 F 
ATOM     22  F   UNL     1      -4.215  -5.545   2.431  1.00  0.00    -0.164 F 
ENDBRANCH  13  19
ENDBRANCH  10  13
ENDBRANCH   5   9
ENDBRANCH   3   5
ENDBRANCH   2   3
ENDBRANCH   1   2
BRANCH   1  23
ATOM     23  C   UNL     1      -0.990  -0.465   6.119  1.00  0.00     0.275 C 
BRANCH  23  24
ATOM     24  O   UNL     1      -1.546   0.797   5.727  1.00  0.00    -0.458 OA
BRANCH  24  25
ATOM     25  C   UNL     1      -0.699   1.596   5.036  1.00  0.00     0.338 C 
ATOM     26  O   UNL     1       0.477   1.393   4.796  1.00  0.00    -0.246 OA
BRANCH  25  27
ATOM     27  C   UNL     1      -1.461   2.697   4.438  1.00  0.00     0.060 A 
ATOM     28  C   UNL     1      -1.555   2.743   3.044  1.00  0.00     0.016 A 
ATOM     29  C   UNL     1      -2.024   3.696   5.229  1.00  0.00     0.016 A 
ATOM     30  C   UNL     1      -2.228   3.785   2.423  1.00  0.00     0.010 A 
ATOM     31  C   UNL     1      -2.680   4.756   4.606  1.00  0.00     0.010 A 
ATOM     32  C   UNL     1      -2.776   4.805   3.204  1.00  0.00    -0.014 A 
BRANCH  32  33
ATOM     33  C   UNL     1      -3.374   5.982   2.548  1.00  0.00     0.031 A 
ATOM     34  C   UNL     1      -2.559   7.232   2.430  1.00  0.00     0.074 A 
ATOM     35  C   UNL     1      -4.631   5.915   2.078  1.00  0.00     0.049 A 
ATOM     36  N   UNL     1      -2.929   8.427   2.059  1.00  0.00    -0.248 NA
ATOM     37  C   UNL     1      -1.133   7.120   2.782  1.00  0.00     0.031 C 
ATOM     38  C   UNL     1      -5.470   4.716   2.081  1.00  0.00     0.029 A 
ATOM     39  N   UNL     1      -5.427   6.883   1.526  1.00  0.00    -0.354 N 
ATOM     40  C   UNL     1      -1.792   9.219   2.158  1.00  0.00     0.074 A 
ATOM     41  C   UNL     1      -0.718   8.368   2.623  1.00  0.00     0.031 C 
ATOM     42  C   UNL     1      -6.678   5.028   1.582  1.00  0.00     0.029 A 
ATOM     43  C   UNL     1      -6.708   6.455   1.276  1.00  0.00     0.049 A 
ATOM     44  H   UNL     1      -5.112   7.794   1.328  1.00  0.00     0.167 HD
ATOM     45  C   UNL     1      -1.669  10.539   1.891  1.00  0.00     0.037 A 
ATOM     46  C   UNL     1      -7.793   7.156   0.894  1.00  0.00     0.037 A 
ATOM     47  C   UNL     1      -2.758  11.360   1.433  1.00  0.00     0.049 A 
ATOM     48  C   UNL     1      -7.651   8.638   0.677  1.00  0.00     0.074 A 
ATOM     49  C   UNL     1      -2.758  12.711   1.136  1.00  0.00     0.029 A 
ATOM     50  N   UNL     1      -4.050  10.900   1.210  1.00  0.00    -0.354 N 
ATOM     51  N   UNL     1      -6.581   9.390   0.799  1.00  0.00    -0.248 NA
ATOM     52  C   UNL     1      -8.861   9.371   0.284  1.00  0.00     0.031 C 
ATOM     53  C   UNL     1      -4.059  13.075   0.770  1.00  0.00     0.029 A 
ATOM     54  C   UNL     1      -4.861  11.943   0.799  1.00  0.00     0.049 A 
ATOM     55  H   UNL     1      -4.345   9.969   1.328  1.00  0.00     0.167 HD
ATOM     56  C   UNL     1      -6.986  10.682   0.489  1.00  0.00     0.074 A 
ATOM     57  C   UNL     1      -8.396  10.607   0.158  1.00  0.00     0.031 C 
ATOM     58  C   UNL     1      -6.263  11.830   0.481  1.00  0.00     0.037 A 
BRANCH  45  59
ATOM     59  C   UNL     1      -0.330  11.173   2.135  1.00  0.00     0.058 A 
ATOM     60  C   UNL     1       0.767  10.941   1.290  1.00  0.00     0.135 A 
ATOM     61  C   UNL     1      -0.140  12.028   3.233  1.00  0.00     0.135 A 
ATOM     62  F   UNL     1       0.647  10.112   0.240  1.00  0.00    -0.206 F 
ATOM     63  C   UNL     1       2.010  11.515   1.538  1.00  0.00     0.059 A 
ATOM     64  C   UNL     1       1.089  12.630   3.488  1.00  0.00     0.059 A 
ATOM     65  F   UNL     1      -1.153  12.276   4.079  1.00  0.00    -0.206 F 
ATOM     66  C   UNL     1       2.162  12.355   2.642  1.00  0.00     0.060 A 
BRANCH  66  67
ATOM     67  S   UNL     1       3.783  13.085   2.958  1.00  0.00     0.124 S 
ATOM     68  O   UNL     1       4.523  11.938   3.476  1.00  0.00    -0.237 OA
ATOM     69  O   UNL     1       4.181  13.549   1.633  1.00  0.00    -0.237 OA
ATOM     70  O   UNL     1       3.499  14.138   3.927  1.00  0.00    -0.744 OA
ENDBRANCH  66  67
ENDBRANCH  45  59
BRANCH  46  71
ATOM     71  C   UNL     1      -9.103   6.472   0.744  1.00  0.00     0.058 A 
ATOM     72  C   UNL     1      -9.679   6.280  -0.520  1.00  0.00     0.135 A 
ATOM     73  C   UNL     1      -9.796   5.977   1.860  1.00  0.00     0.135 A 
ATOM     74  F   UNL     1      -9.060   6.744  -1.616  1.00  0.00    -0.206 F 
ATOM     75  C   UNL     1     -10.899   5.628  -0.672  1.00  0.00     0.059 A 
ATOM     76  C   UNL     1     -11.005   5.301   1.732  1.00  0.00     0.059 A 
ATOM     77  F   UNL     1      -9.282   6.126   3.091  1.00  0.00    -0.206 F 
ATOM     78  C   UNL     1     -11.553   5.138   0.460  1.00  0.00     0.060 A 
BRANCH  78  79
ATOM     79  S   UNL     1     -13.109   4.245   0.248  1.00  0.00     0.124 S 
ATOM     80  O   UNL     1     -14.037   5.336  -0.026  1.00  0.00    -0.237 OA
ATOM     81  O   UNL     1     -12.808   3.365  -0.876  1.00  0.00    -0.237 OA
ATOM     82  O   UNL     1     -13.286   3.572   1.532  1.00  0.00    -0.744 OA
ENDBRANCH  78  79
ENDBRANCH  46  71
BRANCH  58  83
ATOM     83  C   UNL     1      -6.984  13.086   0.085  1.00  0.00     0.058 A 
ATOM     84  C   UNL     1      -7.867  13.731   0.964  1.00  0.00     0.135 A 
ATOM     85  C   UNL     1      -6.751  13.674  -1.168  1.00  0.00     0.135 A 
ATOM     86  F   UNL     1      -8.127  13.201   2.170  1.00  0.00    -0.206 F 
ATOM     87  C   UNL     1      -8.510  14.910   0.607  1.00  0.00     0.059 A 
ATOM     88  C   UNL     1      -7.365  14.865  -1.537  1.00  0.00     0.059 A 
ATOM     89  F   UNL     1      -5.907  13.098  -2.039  1.00  0.00    -0.206 F 
ATOM     90  C   UNL     1      -8.252  15.470  -0.647  1.00  0.00     0.060 A 
BRANCH  90  91
ATOM     91  S   UNL     1      -9.064  17.020  -1.087  1.00  0.00     0.124 S 
ATOM     92  O   UNL     1     -10.414  16.564  -1.403  1.00  0.00    -0.237 OA
ATOM     93  O   UNL     1      -8.929  17.805   0.136  1.00  0.00    -0.237 OA
ATOM     94  O   UNL     1      -8.281  17.502  -2.222  1.00  0.00    -0.744 OA
ENDBRANCH  90  91
ENDBRANCH  58  83
ENDBRANCH  32  33
ENDBRANCH  25  27
ENDBRANCH  24  25
ENDBRANCH  23  24
ENDBRANCH   1  23
TORSDOF 19
