REMARK SMILES CCOC(=O)c1c(NC(=O)/C=C/C(=O)OCCOC(=O)c2ccc(-c3c4nc(c(-c5c(F)cc(S(=O)(=O)[O-])cc5F)c5ccc([nH]5)c(-c5c(F)cc(S(=O)(=O)[O-])cc5F)c5nc(c(-c6c(F)cc(S(=O)(=O)[O-])cc6F)c6ccc3[nH]6)C=C5)C=C4)cc2)sc(C)c1-c1ccc(C)c(C)c1
REMARK SMILES IDX 16 1 15 2 13 3 14 4 12 5 11 6 9 7 8 8 10 10 7 11 6 12 90 13
REMARK SMILES IDX 87 14 88 15 89 16 4 17 5 18 3 19 2 20 1 21 91 22 92 23 98 24
REMARK SMILES IDX 93 25 96 26 94 27 97 28 95 29 17 30 18 31 19 32 20 33 21 34
REMARK SMILES IDX 22 35 86 36 23 37 85 38 24 39 25 40 26 41 79 42 27 43 84 44
REMARK SMILES IDX 78 45 80 46 28 47 83 48 77 49 76 50 29 52 63 53 42 54 62 55
REMARK SMILES IDX 43 56 46 57 61 58 81 59 44 60 45 61 60 63 82 64 47 65 30 66
REMARK SMILES IDX 31 67 40 68 32 69 33 70 39 71 41 72 34 73 35 74 36 75 37 76
REMARK SMILES IDX 38 77 64 78 65 79 74 80 66 81 67 82 73 83 75 84 68 85 69 86
REMARK SMILES IDX 70 87 71 88 72 89 48 90 49 91 58 92 50 93 51 94 57 95 59 96
REMARK SMILES IDX 52 97 53 98 54 99 55 100 56 101
REMARK H PARENT 8 9 80 51 46 62
REMARK Flexibility Score: inf
ROOT
ATOM      1  C   UNL     1       6.391   4.874   8.447  1.00  0.00     0.275 C 
ENDROOT
BRANCH   1   2
ATOM      2  O   UNL     1       6.181   4.468   7.077  1.00  0.00    -0.459 OA
BRANCH   2   3
ATOM      3  C   UNL     1       6.635   3.228   6.774  1.00  0.00     0.331 C 
ATOM      4  O   UNL     1       7.085   2.416   7.570  1.00  0.00    -0.247 OA
BRANCH   3   5
ATOM      5  C   UNL     1       6.586   2.911   5.333  1.00  0.00     0.099 C 
ATOM      6  C   UNL     1       5.699   3.424   4.468  1.00  0.00     0.079 C 
BRANCH   6   7
ATOM      7  C   UNL     1       5.545   2.799   3.129  1.00  0.00     0.249 C 
ATOM      8  N   UNL     1       4.698   1.738   2.908  1.00  0.00    -0.313 N 
ATOM      9  H   UNL     1       4.540   1.549   1.955  1.00  0.00     0.171 HD
ATOM     10  O   UNL     1       6.128   3.323   2.178  1.00  0.00    -0.270 OA
BRANCH   8  11
ATOM     11  C   UNL     1       4.019   0.879   3.768  1.00  0.00     0.111 A 
ATOM     12  C   UNL     1       3.035  -0.058   3.467  1.00  0.00     0.102 A 
ATOM     13  C   UNL     1       2.611  -0.779   4.659  1.00  0.00     0.012 A 
ATOM     14  S   UNL     1       4.421   0.819   5.402  1.00  0.00    -0.122 S 
ATOM     15  C   UNL     1       3.431  -0.498   5.734  1.00  0.00     0.012 A 
ATOM     16  C   UNL     1       3.566  -1.116   7.080  1.00  0.00     0.057 C 
BRANCH  12  17
ATOM     17  C   UNL     1       2.539  -0.300   2.120  1.00  0.00     0.341 C 
ATOM     18  O   UNL     1       3.288  -0.357   1.147  1.00  0.00    -0.246 OA
BRANCH  17  19
ATOM     19  O   UNL     1       1.189  -0.439   2.074  1.00  0.00    -0.462 OA
BRANCH  19  20
ATOM     20  C   UNL     1       0.609  -0.940   0.861  1.00  0.00     0.230 C 
ATOM     21  C   UNL     1       0.661   0.062  -0.278  1.00  0.00     0.049 C 
ENDBRANCH  19  20
ENDBRANCH  17  19
ENDBRANCH  12  17
BRANCH  13  22
ATOM     22  C   UNL     1       1.548  -1.766   4.782  1.00  0.00    -0.016 A 
ATOM     23  C   UNL     1       1.827  -3.132   4.764  1.00  0.00     0.009 A 
ATOM     24  C   UNL     1       0.233  -1.331   4.983  1.00  0.00     0.012 A 
ATOM     25  C   UNL     1       0.800  -4.051   4.982  1.00  0.00     0.004 A 
ATOM     26  C   UNL     1      -0.807  -2.247   5.199  1.00  0.00    -0.048 A 
ATOM     27  C   UNL     1      -0.516  -3.624   5.223  1.00  0.00    -0.048 A 
ATOM     28  C   UNL     1      -2.203  -1.733   5.405  1.00  0.00     0.044 C 
ATOM     29  C   UNL     1      -1.584  -4.662   5.449  1.00  0.00     0.044 C 
ENDBRANCH  13  22
ENDBRANCH   8  11
ENDBRANCH   6   7
ENDBRANCH   3   5
ENDBRANCH   2   3
ENDBRANCH   1   2
BRANCH   1  30
ATOM     30  C   UNL     1       5.136   5.497   9.059  1.00  0.00     0.275 C 
BRANCH  30  31
ATOM     31  O   UNL     1       4.127   4.500   9.316  1.00  0.00    -0.458 OA
BRANCH  31  32
ATOM     32  C   UNL     1       3.068   4.518   8.472  1.00  0.00     0.338 C 
ATOM     33  O   UNL     1       2.886   5.293   7.546  1.00  0.00    -0.246 OA
BRANCH  32  34
ATOM     34  C   UNL     1       2.194   3.352   8.719  1.00  0.00     0.060 A 
ATOM     35  C   UNL     1       1.943   2.522   7.629  1.00  0.00     0.016 A 
ATOM     36  C   UNL     1       1.579   3.090   9.950  1.00  0.00     0.016 A 
ATOM     37  C   UNL     1       1.117   1.409   7.772  1.00  0.00     0.010 A 
ATOM     38  C   UNL     1       0.726   1.976  10.085  1.00  0.00     0.010 A 
ATOM     39  C   UNL     1       0.500   1.118   8.997  1.00  0.00    -0.014 A 
BRANCH  39  40
ATOM     40  C   UNL     1      -0.422  -0.051   9.050  1.00  0.00     0.031 A 
ATOM     41  C   UNL     1      -1.856   0.118   8.633  1.00  0.00     0.074 A 
ATOM     42  C   UNL     1       0.050  -1.292   9.286  1.00  0.00     0.049 A 
ATOM     43  N   UNL     1      -2.809  -0.775   8.570  1.00  0.00    -0.248 NA
ATOM     44  C   UNL     1      -2.264   1.468   8.215  1.00  0.00     0.031 C 
ATOM     45  C   UNL     1       1.434  -1.609   9.621  1.00  0.00     0.029 A 
ATOM     46  N   UNL     1      -0.566  -2.522   9.232  1.00  0.00    -0.354 N 
ATOM     47  C   UNL     1      -3.915  -0.113   8.055  1.00  0.00     0.074 A 
ATOM     48  C   UNL     1      -3.535   1.276   7.891  1.00  0.00     0.031 C 
ATOM     49  C   UNL     1       1.580  -2.943   9.681  1.00  0.00     0.029 A 
ATOM     50  C   UNL     1       0.282  -3.581   9.468  1.00  0.00     0.049 A 
ATOM     51  H   UNL     1      -1.525  -2.634   9.041  1.00  0.00     0.167 HD
ATOM     52  C   UNL     1      -5.116  -0.626   7.694  1.00  0.00     0.037 A 
ATOM     53  C   UNL     1       0.042  -4.908   9.540  1.00  0.00     0.037 A 
ATOM     54  C   UNL     1      -5.491  -2.012   7.807  1.00  0.00     0.049 A 
ATOM     55  C   UNL     1      -1.367  -5.415   9.345  1.00  0.00     0.074 A 
ATOM     56  C   UNL     1      -6.705  -2.599   7.491  1.00  0.00     0.029 A 
ATOM     57  N   UNL     1      -4.663  -3.030   8.254  1.00  0.00    -0.354 N 
ATOM     58  N   UNL     1      -2.436  -4.759   8.960  1.00  0.00    -0.248 NA
ATOM     59  C   UNL     1      -1.612  -6.839   9.625  1.00  0.00     0.031 C 
ATOM     60  C   UNL     1      -6.619  -3.967   7.770  1.00  0.00     0.029 A 
ATOM     61  C   UNL     1      -5.338  -4.240   8.221  1.00  0.00     0.049 A 
ATOM     62  H   UNL     1      -3.732  -2.911   8.551  1.00  0.00     0.167 HD
ATOM     63  C   UNL     1      -3.469  -5.692   8.934  1.00  0.00     0.074 A 
ATOM     64  C   UNL     1      -2.898  -6.962   9.325  1.00  0.00     0.031 C 
ATOM     65  C   UNL     1      -4.774  -5.508   8.615  1.00  0.00     0.037 A 
BRANCH  52  66
ATOM     66  C   UNL     1      -6.122   0.331   7.128  1.00  0.00     0.058 A 
ATOM     67  C   UNL     1      -6.016   0.813   5.814  1.00  0.00     0.135 A 
ATOM     68  C   UNL     1      -7.217   0.746   7.899  1.00  0.00     0.135 A 
ATOM     69  F   UNL     1      -4.977   0.453   5.043  1.00  0.00    -0.206 F 
ATOM     70  C   UNL     1      -6.949   1.702   5.294  1.00  0.00     0.059 A 
ATOM     71  C   UNL     1      -8.174   1.618   7.392  1.00  0.00     0.059 A 
ATOM     72  F   UNL     1      -7.361   0.306   9.159  1.00  0.00    -0.206 F 
ATOM     73  C   UNL     1      -8.022   2.103   6.093  1.00  0.00     0.060 A 
BRANCH  73  74
ATOM     74  S   UNL     1      -9.210   3.278   5.413  1.00  0.00     0.124 S 
ATOM     75  O   UNL     1      -8.413   4.500   5.363  1.00  0.00    -0.237 OA
ATOM     76  O   UNL     1      -9.536   2.679   4.123  1.00  0.00    -0.237 OA
ATOM     77  O   UNL     1     -10.291   3.276   6.395  1.00  0.00    -0.744 OA
ENDBRANCH  73  74
ENDBRANCH  52  66
BRANCH  53  78
ATOM     78  C   UNL     1       1.130  -5.866   9.901  1.00  0.00     0.058 A 
ATOM     79  C   UNL     1       1.519  -6.903   9.037  1.00  0.00     0.135 A 
ATOM     80  C   UNL     1       1.750  -5.808  11.160  1.00  0.00     0.135 A 
ATOM     81  F   UNL     1       0.944  -7.023   7.830  1.00  0.00    -0.206 F 
ATOM     82  C   UNL     1       2.459  -7.859   9.418  1.00  0.00     0.059 A 
ATOM     83  C   UNL     1       2.718  -6.728  11.548  1.00  0.00     0.059 A 
ATOM     84  F   UNL     1       1.416  -4.844  12.032  1.00  0.00    -0.206 F 
ATOM     85  C   UNL     1       3.051  -7.763  10.678  1.00  0.00     0.060 A 
BRANCH  85  86
ATOM     86  S   UNL     1       4.275  -8.998  11.169  1.00  0.00     0.124 S 
ATOM     87  O   UNL     1       3.430 -10.155  11.441  1.00  0.00    -0.237 OA
ATOM     88  O   UNL     1       5.117  -9.086   9.981  1.00  0.00    -0.237 OA
ATOM     89  O   UNL     1       4.911  -8.393  12.336  1.00  0.00    -0.744 OA
ENDBRANCH  85  86
ENDBRANCH  53  78
BRANCH  65  90
ATOM     90  C   UNL     1      -5.683  -6.709   8.650  1.00  0.00     0.058 A 
ATOM     91  C   UNL     1      -6.096  -7.285   9.861  1.00  0.00     0.135 A 
ATOM     92  C   UNL     1      -6.195  -7.255   7.461  1.00  0.00     0.135 A 
ATOM     93  F   UNL     1      -5.628  -6.812  11.027  1.00  0.00    -0.206 F 
ATOM     94  C   UNL     1      -6.974  -8.364   9.893  1.00  0.00     0.059 A 
ATOM     95  C   UNL     1      -7.097  -8.316   7.470  1.00  0.00     0.059 A 
ATOM     96  F   UNL     1      -5.837  -6.742   6.273  1.00  0.00    -0.206 F 
ATOM     97  C   UNL     1      -7.475  -8.869   8.692  1.00  0.00     0.060 A 
BRANCH  97  98
ATOM     98  S   UNL     1      -8.655 -10.236   8.752  1.00  0.00     0.124 S 
ATOM     99  O   UNL     1      -7.793 -11.354   9.118  1.00  0.00    -0.237 OA
ATOM    100  O   UNL     1      -9.592  -9.794   9.780  1.00  0.00    -0.237 OA
ATOM    101  O   UNL     1      -9.195 -10.278   7.396  1.00  0.00    -0.744 OA
ENDBRANCH  97  98
ENDBRANCH  65  90
ENDBRANCH  39  40
ENDBRANCH  32  34
ENDBRANCH  31  32
ENDBRANCH  30  31
ENDBRANCH   1  30
TORSDOF 20
