REMARK SMILES CCCN(CCC)c1ccc(C(=O)OCCOC(=O)c2ccc(-c3c4nc(c(-c5c(F)cc(S(=O)(=O)[O-])cc5F)c5ccc([nH]5)c(-c5c(F)cc(S(=O)(=O)[O-])cc5F)c5nc(c(-c6c(F)cc(S(=O)(=O)[O-])cc6F)c6ccc3[nH]6)C=C5)C=C4)cc2)cc1[N+](=O)[O-]
REMARK SMILES IDX 15 1 14 2 12 3 13 4 11 5 8 6 9 7 87 8 10 9 86 10 4 11 3 12
REMARK SMILES IDX 2 13 1 14 5 15 6 16 7 17 88 18 89 19 90 20 16 21 17 22 18 23
REMARK SMILES IDX 19 24 20 25 21 26 85 27 22 28 84 29 23 30 24 31 25 32 78 33
REMARK SMILES IDX 26 34 83 35 77 36 79 37 27 38 82 39 76 40 75 41 28 43 62 44
REMARK SMILES IDX 41 45 61 46 42 47 45 48 60 49 80 50 43 51 44 52 59 54 81 55
REMARK SMILES IDX 46 56 29 57 30 58 39 59 31 60 32 61 38 62 40 63 33 64 34 65
REMARK SMILES IDX 35 66 36 67 37 68 63 69 64 70 73 71 65 72 66 73 72 74 74 75
REMARK SMILES IDX 67 76 68 77 69 78 70 79 71 80 47 81 48 82 57 83 49 84 50 85
REMARK SMILES IDX 56 86 58 87 51 88 52 89 53 90 54 91 55 92
REMARK H PARENT 79 42 45 53
REMARK Flexibility Score: inf
ROOT
ATOM      1  C   UNL     1       2.467   4.302  -4.980  1.00  0.00     0.275 C 
ENDROOT
BRANCH   1   2
ATOM      2  O   UNL     1       1.941   3.637  -3.817  1.00  0.00    -0.458 OA
BRANCH   2   3
ATOM      3  C   UNL     1       2.693   3.766  -2.696  1.00  0.00     0.338 C 
ATOM      4  O   UNL     1       3.775   4.314  -2.620  1.00  0.00    -0.246 OA
BRANCH   3   5
ATOM      5  C   UNL     1       2.007   3.195  -1.505  1.00  0.00     0.067 A 
ATOM      6  C   UNL     1       0.852   2.169   0.884  1.00  0.00     0.116 A 
ATOM      7  C   UNL     1       2.066   2.872   0.902  1.00  0.00     0.034 A 
ATOM      8  C   UNL     1       0.218   2.031  -0.367  1.00  0.00     0.293 A 
ATOM      9  C   UNL     1       2.639   3.369  -0.267  1.00  0.00     0.018 A 
ATOM     10  C   UNL     1       0.781   2.532  -1.558  1.00  0.00     0.103 A 
BRANCH   6  11
ATOM     11  N   UNL     1       0.413   1.560   2.051  1.00  0.00    -0.366 N 
BRANCH  11  12
ATOM     12  C   UNL     1       1.210   0.442   2.581  1.00  0.00     0.116 C 
BRANCH  12  13
ATOM     13  C   UNL     1       1.031  -0.831   1.740  1.00  0.00     0.018 C 
ATOM     14  C   UNL     1       2.009  -0.956   0.577  1.00  0.00     0.006 C 
ENDBRANCH  12  13
ENDBRANCH  11  12
BRANCH  11  15
ATOM     15  C   UNL     1      -0.461   2.312   2.971  1.00  0.00     0.116 C 
BRANCH  15  16
ATOM     16  C   UNL     1       0.259   3.440   3.724  1.00  0.00     0.018 C 
ATOM     17  C   UNL     1       0.047   4.807   3.082  1.00  0.00     0.006 C 
ENDBRANCH  15  16
ENDBRANCH  11  15
ENDBRANCH   6  11
BRANCH   8  18
ATOM     18  N   UNL     1      -0.984   1.221  -0.497  1.00  0.00     0.065 N 
ATOM     19  O   UNL     1      -0.935   0.282  -1.309  1.00  0.00    -0.258 OA
ATOM     20  O   UNL     1      -1.986   1.542   0.156  1.00  0.00    -0.258 OA
ENDBRANCH   8  18
ENDBRANCH   3   5
ENDBRANCH   2   3
ENDBRANCH   1   2
BRANCH   1  21
ATOM     21  C   UNL     1       1.739   5.623  -5.245  1.00  0.00     0.275 C 
BRANCH  21  22
ATOM     22  O   UNL     1       1.946   6.582  -4.188  1.00  0.00    -0.458 OA
BRANCH  22  23
ATOM     23  C   UNL     1       0.978   6.597  -3.242  1.00  0.00     0.338 C 
ATOM     24  O   UNL     1      -0.025   5.901  -3.206  1.00  0.00    -0.246 OA
BRANCH  23  25
ATOM     25  C   UNL     1       1.339   7.500  -2.138  1.00  0.00     0.060 A 
ATOM     26  C   UNL     1       1.774   6.917  -0.950  1.00  0.00     0.016 A 
ATOM     27  C   UNL     1       1.090   8.871  -2.195  1.00  0.00     0.016 A 
ATOM     28  C   UNL     1       1.907   7.681   0.204  1.00  0.00     0.010 A 
ATOM     29  C   UNL     1       1.272   9.650  -1.041  1.00  0.00     0.010 A 
ATOM     30  C   UNL     1       1.653   9.058   0.179  1.00  0.00    -0.014 A 
BRANCH  30  31
ATOM     31  C   UNL     1       1.727   9.839   1.448  1.00  0.00     0.031 A 
ATOM     32  C   UNL     1       0.493  10.499   2.009  1.00  0.00     0.074 A 
ATOM     33  C   UNL     1       2.888   9.909   2.132  1.00  0.00     0.049 A 
ATOM     34  N   UNL     1       0.376  11.284   3.051  1.00  0.00    -0.248 NA
ATOM     35  C   UNL     1      -0.773  10.251   1.303  1.00  0.00     0.031 C 
ATOM     36  C   UNL     1       4.147   9.281   1.727  1.00  0.00     0.029 A 
ATOM     37  N   UNL     1       3.196  10.529   3.319  1.00  0.00    -0.354 N 
ATOM     38  C   UNL     1      -0.963  11.658   3.100  1.00  0.00     0.074 A 
ATOM     39  C   UNL     1      -1.616  11.024   1.975  1.00  0.00     0.031 C 
ATOM     40  C   UNL     1       5.079   9.518   2.662  1.00  0.00     0.029 A 
ATOM     41  C   UNL     1       4.510  10.377   3.696  1.00  0.00     0.049 A 
ATOM     42  H   UNL     1       2.538  11.034   3.849  1.00  0.00     0.167 HD
ATOM     43  C   UNL     1      -1.591  12.452   4.002  1.00  0.00     0.037 A 
ATOM     44  C   UNL     1       5.194  10.898   4.734  1.00  0.00     0.037 A 
ATOM     45  C   UNL     1      -0.946  13.044   5.148  1.00  0.00     0.049 A 
ATOM     46  C   UNL     1       4.485  11.804   5.701  1.00  0.00     0.074 A 
ATOM     47  C   UNL     1      -1.504  13.845   6.131  1.00  0.00     0.029 A 
ATOM     48  N   UNL     1       0.395  12.895   5.471  1.00  0.00    -0.354 N 
ATOM     49  N   UNL     1       3.225  12.169   5.716  1.00  0.00    -0.248 NA
ATOM     50  C   UNL     1       5.292  12.381   6.786  1.00  0.00     0.031 C 
ATOM     51  C   UNL     1      -0.492  14.216   7.023  1.00  0.00     0.029 A 
ATOM     52  C   UNL     1       0.686  13.605   6.626  1.00  0.00     0.049 A 
ATOM     53  H   UNL     1       1.044  12.364   4.956  1.00  0.00     0.167 HD
ATOM     54  C   UNL     1       3.086  13.008   6.816  1.00  0.00     0.074 A 
ATOM     55  C   UNL     1       4.384  13.077   7.455  1.00  0.00     0.031 C 
ATOM     56  C   UNL     1       1.983  13.666   7.253  1.00  0.00     0.037 A 
BRANCH  43  57
ATOM     57  C   UNL     1      -3.048  12.759   3.773  1.00  0.00     0.058 A 
ATOM     58  C   UNL     1      -4.052  11.796   3.956  1.00  0.00     0.135 A 
ATOM     59  C   UNL     1      -3.446  14.054   3.399  1.00  0.00     0.135 A 
ATOM     60  F   UNL     1      -3.729  10.539   4.300  1.00  0.00    -0.206 F 
ATOM     61  C   UNL     1      -5.396  12.097   3.749  1.00  0.00     0.059 A 
ATOM     62  C   UNL     1      -4.786  14.384   3.214  1.00  0.00     0.059 A 
ATOM     63  F   UNL     1      -2.529  15.016   3.212  1.00  0.00    -0.206 F 
ATOM     64  C   UNL     1      -5.752  13.394   3.376  1.00  0.00     0.060 A 
BRANCH  64  65
ATOM     65  S   UNL     1      -7.499  13.769   3.111  1.00  0.00     0.124 S 
ATOM     66  O   UNL     1      -7.754  13.086   1.846  1.00  0.00    -0.237 OA
ATOM     67  O   UNL     1      -8.128  13.178   4.287  1.00  0.00    -0.237 OA
ATOM     68  O   UNL     1      -7.529  15.227   3.053  1.00  0.00    -0.744 OA
ENDBRANCH  64  65
ENDBRANCH  43  57
BRANCH  44  69
ATOM     69  C   UNL     1       6.645  10.602   4.889  1.00  0.00     0.058 A 
ATOM     70  C   UNL     1       7.119   9.822   5.954  1.00  0.00     0.135 A 
ATOM     71  C   UNL     1       7.586  11.086   3.966  1.00  0.00     0.135 A 
ATOM     72  F   UNL     1       6.261   9.347   6.871  1.00  0.00    -0.206 F 
ATOM     73  C   UNL     1       8.473   9.539   6.105  1.00  0.00     0.059 A 
ATOM     74  C   UNL     1       8.941  10.790   4.077  1.00  0.00     0.059 A 
ATOM     75  F   UNL     1       7.185  11.829   2.923  1.00  0.00    -0.206 F 
ATOM     76  C   UNL     1       9.376  10.024   5.156  1.00  0.00     0.060 A 
BRANCH  76  77
ATOM     77  S   UNL     1      11.123   9.601   5.326  1.00  0.00     0.124 S 
ATOM     78  O   UNL     1      11.525  10.455   6.437  1.00  0.00    -0.237 OA
ATOM     79  O   UNL     1      11.067   8.170   5.607  1.00  0.00    -0.237 OA
ATOM     80  O   UNL     1      11.681   9.954   4.023  1.00  0.00    -0.744 OA
ENDBRANCH  76  77
ENDBRANCH  44  69
BRANCH  56  81
ATOM     81  C   UNL     1       2.127  14.498   8.499  1.00  0.00     0.058 A 
ATOM     82  C   UNL     1       2.829  15.714   8.497  1.00  0.00     0.135 A 
ATOM     83  C   UNL     1       1.526  14.090   9.701  1.00  0.00     0.135 A 
ATOM     84  F   UNL     1       3.429  16.146   7.377  1.00  0.00    -0.206 F 
ATOM     85  C   UNL     1       2.957  16.481   9.651  1.00  0.00     0.059 A 
ATOM     86  C   UNL     1       1.617  14.855  10.860  1.00  0.00     0.059 A 
ATOM     87  F   UNL     1       0.835  12.941   9.755  1.00  0.00    -0.206 F 
ATOM     88  C   UNL     1       2.347  16.043  10.828  1.00  0.00     0.060 A 
BRANCH  88  89
ATOM     89  S   UNL     1       2.503  17.057  12.314  1.00  0.00     0.124 S 
ATOM     90  O   UNL     1       3.888  16.803  12.698  1.00  0.00    -0.237 OA
ATOM     91  O   UNL     1       2.220  18.397  11.809  1.00  0.00    -0.237 OA
ATOM     92  O   UNL     1       1.491  16.504  13.210  1.00  0.00    -0.744 OA
ENDBRANCH  88  89
ENDBRANCH  56  81
ENDBRANCH  30  31
ENDBRANCH  23  25
ENDBRANCH  22  23
ENDBRANCH  21  22
ENDBRANCH   1  21
TORSDOF 20
