REMARK SMILES Cc1ccccc1C(=O)Nc1cc(NC(=O)c2ccccc2C)cc(C(=O)OCCOC(=O)c2ccc(-c3c4nc(c(-c5c(F)cc(S(=O)(=O)[O-])cc5F)c5ccc([nH]5)c(-c5c(F)cc(S(=O)(=O)[O-])cc5F)c5nc(c(-c6c(F)cc(S(=O)(=O)[O-])cc6F)c6ccc3[nH]6)C=C5)C=C4)cc2)c1
REMARK SMILES IDX 30 1 29 2 28 3 26 4 27 5 25 6 11 7 12 8 100 9 13 10 24 11
REMARK SMILES IDX 10 12 8 13 9 14 7 16 1 17 2 18 3 19 4 20 6 21 5 22 14 23
REMARK SMILES IDX 15 24 16 26 17 27 18 28 22 29 19 30 21 31 23 32 20 33 31 34
REMARK SMILES IDX 32 35 33 36 34 37 35 38 99 39 36 40 98 41 37 42 38 43 39 44
REMARK SMILES IDX 92 45 40 46 97 47 91 48 93 49 41 50 96 51 90 52 89 53 42 55
REMARK SMILES IDX 76 56 55 57 75 58 56 59 59 60 74 61 94 62 57 63 58 64 73 66
REMARK SMILES IDX 95 67 60 68 43 69 44 70 53 71 45 72 46 73 52 74 54 75 47 76
REMARK SMILES IDX 48 77 49 78 50 79 51 80 77 81 78 82 87 83 79 84 80 85 86 86
REMARK SMILES IDX 88 87 81 88 82 89 83 90 84 91 85 92 61 93 62 94 71 95 63 96
REMARK SMILES IDX 64 97 70 98 72 99 65 100 66 101 67 102 68 103 69 104
REMARK H PARENT 10 15 14 25 93 54 59 65
REMARK Flexibility Score: inf
ROOT
ATOM      1  C   UNL     1       9.990  -0.730   0.493  1.00  0.00     0.275 C 
ENDROOT
BRANCH   1   2
ATOM      2  C   UNL     1       8.762  -1.620   0.222  1.00  0.00     0.275 C 
BRANCH   2   3
ATOM      3  O   UNL     1       7.626  -0.917  -0.321  1.00  0.00    -0.458 OA
BRANCH   3   4
ATOM      4  C   UNL     1       6.457  -1.543  -0.020  1.00  0.00     0.338 C 
ATOM      5  O   UNL     1       6.375  -2.617   0.536  1.00  0.00    -0.246 OA
BRANCH   4   6
ATOM      6  C   UNL     1       5.239  -0.939  -0.603  1.00  0.00     0.064 A 
ATOM      7  C   UNL     1       3.390   0.627  -0.664  1.00  0.00     0.044 A 
ATOM      8  C   UNL     1       2.698  -0.245  -1.506  1.00  0.00     0.052 A 
ATOM      9  C   UNL     1       4.726   0.337  -0.332  1.00  0.00     0.042 A 
ATOM     10  C   UNL     1       3.267  -1.461  -1.880  1.00  0.00     0.044 A 
ATOM     11  C   UNL     1       4.480  -1.849  -1.335  1.00  0.00     0.042 A 
BRANCH   7  12
ATOM     12  N   UNL     1       2.777   1.766  -0.098  1.00  0.00    -0.322 N 
ATOM     13  C   UNL     1       1.440   2.027   0.174  1.00  0.00     0.255 C 
ATOM     14  O   UNL     1       1.082   3.180   0.424  1.00  0.00    -0.269 OA
ATOM     15  H   UNL     1       3.397   2.492   0.142  1.00  0.00     0.170 HD
BRANCH  13  16
ATOM     16  C   UNL     1       0.393   0.955   0.209  1.00  0.00     0.043 A 
ATOM     17  C   UNL     1       1.708  -0.682   1.701  1.00  0.00     0.045 C 
ATOM     18  C   UNL     1       0.541  -0.300   0.833  1.00  0.00    -0.038 A 
ATOM     19  C   UNL     1      -0.476  -1.263   0.673  1.00  0.00     0.004 A 
ATOM     20  C   UNL     1      -1.669  -0.951   0.023  1.00  0.00     0.000 A 
ATOM     21  C   UNL     1      -0.844   1.276  -0.386  1.00  0.00     0.014 A 
ATOM     22  C   UNL     1      -1.871   0.333  -0.469  1.00  0.00     0.001 A 
ENDBRANCH  13  16
ENDBRANCH   7  12
BRANCH  10  23
ATOM     23  N   UNL     1       2.718  -2.326  -2.828  1.00  0.00    -0.322 N 
ATOM     24  C   UNL     1       2.054  -2.032  -3.993  1.00  0.00     0.255 C 
ATOM     25  H   UNL     1       2.823  -3.286  -2.633  1.00  0.00     0.170 HD
ATOM     26  O   UNL     1       1.587  -2.946  -4.674  1.00  0.00    -0.269 OA
BRANCH  24  27
ATOM     27  C   UNL     1       1.920  -0.637  -4.485  1.00  0.00     0.043 A 
ATOM     28  C   UNL     1       0.610  -0.258  -4.817  1.00  0.00     0.014 A 
ATOM     29  C   UNL     1       2.984   0.278  -4.651  1.00  0.00    -0.038 A 
ATOM     30  C   UNL     1       0.334   1.036  -5.250  1.00  0.00     0.001 A 
ATOM     31  C   UNL     1       2.675   1.591  -5.047  1.00  0.00     0.004 A 
ATOM     32  C   UNL     1       4.437  -0.033  -4.413  1.00  0.00     0.045 C 
ATOM     33  C   UNL     1       1.364   1.966  -5.344  1.00  0.00     0.000 A 
ENDBRANCH  24  27
ENDBRANCH  10  23
ENDBRANCH   4   6
ENDBRANCH   3   4
ENDBRANCH   2   3
ENDBRANCH   1   2
BRANCH   1  34
ATOM     34  O   UNL     1       9.855   0.450   1.319  1.00  0.00    -0.458 OA
BRANCH  34  35
ATOM     35  C   UNL     1       8.631   1.033   1.383  1.00  0.00     0.338 C 
ATOM     36  O   UNL     1       8.171   1.739   0.491  1.00  0.00    -0.246 OA
BRANCH  35  37
ATOM     37  C   UNL     1       7.853   0.406   2.486  1.00  0.00     0.060 A 
ATOM     38  C   UNL     1       6.468   0.603   2.548  1.00  0.00     0.016 A 
ATOM     39  C   UNL     1       8.450  -0.624   3.216  1.00  0.00     0.016 A 
ATOM     40  C   UNL     1       5.656  -0.308   3.212  1.00  0.00     0.010 A 
ATOM     41  C   UNL     1       7.654  -1.599   3.756  1.00  0.00     0.010 A 
ATOM     42  C   UNL     1       6.263  -1.423   3.780  1.00  0.00    -0.014 A 
BRANCH  42  43
ATOM     43  C   UNL     1       5.600  -2.276   4.748  1.00  0.00     0.031 A 
ATOM     44  C   UNL     1       4.746  -3.405   4.355  1.00  0.00     0.074 A 
ATOM     45  C   UNL     1       5.993  -1.954   6.000  1.00  0.00     0.049 A 
ATOM     46  N   UNL     1       3.899  -3.976   5.135  1.00  0.00    -0.248 NA
ATOM     47  C   UNL     1       4.730  -3.976   3.014  1.00  0.00     0.031 C 
ATOM     48  C   UNL     1       5.837  -2.626   7.270  1.00  0.00     0.029 A 
ATOM     49  N   UNL     1       6.527  -0.700   6.345  1.00  0.00    -0.354 N 
ATOM     50  C   UNL     1       3.494  -5.156   4.532  1.00  0.00     0.074 A 
ATOM     51  C   UNL     1       3.923  -5.032   3.166  1.00  0.00     0.031 C 
ATOM     52  C   UNL     1       5.932  -1.696   8.245  1.00  0.00     0.029 A 
ATOM     53  C   UNL     1       6.018  -0.386   7.598  1.00  0.00     0.049 A 
ATOM     54  H   UNL     1       7.141  -0.152   5.804  1.00  0.00     0.167 HD
ATOM     55  C   UNL     1       3.017  -6.156   5.333  1.00  0.00     0.037 A 
ATOM     56  C   UNL     1       5.073   0.602   7.647  1.00  0.00     0.037 A 
ATOM     57  C   UNL     1       2.911  -5.643   6.700  1.00  0.00     0.049 A 
ATOM     58  C   UNL     1       3.747   0.007   8.058  1.00  0.00     0.074 A 
ATOM     59  C   UNL     1       3.801  -5.688   7.762  1.00  0.00     0.029 A 
ATOM     60  N   UNL     1       2.011  -4.620   6.978  1.00  0.00    -0.354 N 
ATOM     61  N   UNL     1       3.336  -1.191   7.726  1.00  0.00    -0.248 NA
ATOM     62  C   UNL     1       2.870   0.667   9.016  1.00  0.00     0.031 C 
ATOM     63  C   UNL     1       3.514  -4.583   8.607  1.00  0.00     0.029 A 
ATOM     64  C   UNL     1       2.443  -3.886   8.068  1.00  0.00     0.049 A 
ATOM     65  H   UNL     1       1.185  -4.443   6.472  1.00  0.00     0.167 HD
ATOM     66  C   UNL     1       2.248  -1.513   8.497  1.00  0.00     0.074 A 
ATOM     67  C   UNL     1       1.975  -0.304   9.258  1.00  0.00     0.031 C 
ATOM     68  C   UNL     1       1.670  -2.752   8.544  1.00  0.00     0.037 A 
BRANCH  55  69
ATOM     69  C   UNL     1       2.973  -7.643   4.996  1.00  0.00     0.058 A 
ATOM     70  C   UNL     1       2.976  -8.602   6.039  1.00  0.00     0.135 A 
ATOM     71  C   UNL     1       2.998  -8.206   3.703  1.00  0.00     0.135 A 
ATOM     72  F   UNL     1       2.878  -8.238   7.325  1.00  0.00    -0.206 F 
ATOM     73  C   UNL     1       3.087  -9.980   5.823  1.00  0.00     0.059 A 
ATOM     74  C   UNL     1       3.134  -9.582   3.461  1.00  0.00     0.059 A 
ATOM     75  F   UNL     1       2.849  -7.456   2.606  1.00  0.00    -0.206 F 
ATOM     76  C   UNL     1       3.192 -10.463   4.529  1.00  0.00     0.060 A 
BRANCH  76  77
ATOM     77  S   UNL     1       3.364 -12.240   4.274  1.00  0.00     0.124 S 
ATOM     78  O   UNL     1       4.633 -12.523   4.938  1.00  0.00    -0.237 OA
ATOM     79  O   UNL     1       2.172 -12.763   4.933  1.00  0.00    -0.237 OA
ATOM     80  O   UNL     1       3.381 -12.376   2.820  1.00  0.00    -0.744 OA
ENDBRANCH  76  77
ENDBRANCH  55  69
BRANCH  56  81
ATOM     81  C   UNL     1       5.304   1.750   6.694  1.00  0.00     0.058 A 
ATOM     82  C   UNL     1       6.583   2.362   6.680  1.00  0.00     0.135 A 
ATOM     83  C   UNL     1       4.442   2.113   5.649  1.00  0.00     0.135 A 
ATOM     84  F   UNL     1       7.468   2.089   7.655  1.00  0.00    -0.206 F 
ATOM     85  C   UNL     1       7.024   3.182   5.641  1.00  0.00     0.059 A 
ATOM     86  C   UNL     1       4.854   2.961   4.603  1.00  0.00     0.059 A 
ATOM     87  F   UNL     1       3.209   1.593   5.577  1.00  0.00    -0.206 F 
ATOM     88  C   UNL     1       6.160   3.459   4.589  1.00  0.00     0.060 A 
BRANCH  88  89
ATOM     89  S   UNL     1       6.832   4.299   3.125  1.00  0.00     0.124 S 
ATOM     90  O   UNL     1       6.786   5.699   3.529  1.00  0.00    -0.237 OA
ATOM     91  O   UNL     1       8.168   3.713   3.032  1.00  0.00    -0.237 OA
ATOM     92  O   UNL     1       5.901   3.909   2.069  1.00  0.00    -0.744 OA
ENDBRANCH  88  89
ENDBRANCH  56  81
BRANCH  68  93
ATOM     93  C   UNL     1       0.325  -3.042   9.153  1.00  0.00     0.058 A 
ATOM     94  C   UNL     1      -0.727  -2.113   9.156  1.00  0.00     0.135 A 
ATOM     95  C   UNL     1      -0.003  -4.351   9.583  1.00  0.00     0.135 A 
ATOM     96  F   UNL     1      -0.568  -0.875   8.665  1.00  0.00    -0.206 F 
ATOM     97  C   UNL     1      -1.998  -2.437   9.619  1.00  0.00     0.059 A 
ATOM     98  C   UNL     1      -1.282  -4.713   9.979  1.00  0.00     0.059 A 
ATOM     99  F   UNL     1       0.908  -5.336   9.612  1.00  0.00    -0.206 F 
ATOM    100  C   UNL     1      -2.267  -3.740  10.025  1.00  0.00     0.060 A 
BRANCH 100 101
ATOM    101  S   UNL     1      -3.922  -4.177  10.570  1.00  0.00     0.124 S 
ATOM    102  O   UNL     1      -3.840  -3.878  11.996  1.00  0.00    -0.237 OA
ATOM    103  O   UNL     1      -4.767  -3.282   9.784  1.00  0.00    -0.237 OA
ATOM    104  O   UNL     1      -4.026  -5.590  10.222  1.00  0.00    -0.744 OA
ENDBRANCH 100 101
ENDBRANCH  68  93
ENDBRANCH  42  43
ENDBRANCH  35  37
ENDBRANCH  34  35
ENDBRANCH   1  34
TORSDOF 18
