REMARK SMILES CC[C@H]1SC[C@@H](C(=O)OCCOC(=O)c2ccc(-c3c4nc(c(-c5c(F)cc(S(=O)(=O)[O-])cc5F)c5ccc([nH]5)c(-c5c(F)cc(S(=O)(=O)[O-])cc5F)c5nc(c(-c6c(F)cc(S(=O)(=O)[O-])cc6F)c6ccc3[nH]6)C=C5)C=C4)cc2)N1C(=O)N[C@@H]1CCCCC1(C)C
REMARK SMILES IDX 11 1 10 2 9 3 7 4 8 5 6 6 3 7 4 8 81 9 5 10 2 11 1 12 82 13
REMARK SMILES IDX 83 14 84 15 85 17 86 18 90 19 87 20 89 21 91 22 92 23 88 24
REMARK SMILES IDX 12 25 13 26 14 27 15 28 16 29 80 30 17 31 79 32 18 33 19 34
REMARK SMILES IDX 20 35 73 36 21 37 78 38 72 39 74 40 22 41 77 42 71 43 70 44
REMARK SMILES IDX 23 46 57 47 36 48 56 49 37 50 40 51 55 52 75 53 38 54 39 55
REMARK SMILES IDX 54 57 76 58 41 59 24 60 25 61 34 62 26 63 27 64 33 65 35 66
REMARK SMILES IDX 28 67 29 68 30 69 31 70 32 71 58 72 59 73 68 74 60 75 61 76
REMARK SMILES IDX 67 77 69 78 62 79 63 80 64 81 65 82 66 83 42 84 43 85 52 86
REMARK SMILES IDX 44 87 45 88 51 89 53 90 46 91 47 92 48 93 49 94 50 95
REMARK H PARENT 84 16 74 45 40 56
REMARK Flexibility Score: inf
ROOT
ATOM      1  C   UNL     1       3.113  -1.882   3.554  1.00  0.00     0.275 C 
ENDROOT
BRANCH   1   2
ATOM      2  C   UNL     1       2.031  -0.895   3.974  1.00  0.00     0.274 C 
BRANCH   2   3
ATOM      3  O   UNL     1       1.891   0.131   2.974  1.00  0.00    -0.461 OA
BRANCH   3   4
ATOM      4  C   UNL     1       2.226   1.395   3.336  1.00  0.00     0.329 C 
ATOM      5  O   UNL     1       2.651   1.709   4.443  1.00  0.00    -0.250 OA
BRANCH   4   6
ATOM      6  C   UNL     1       1.942   2.432   2.240  1.00  0.00     0.208 C 
ATOM      7  C   UNL     1       0.084   1.722   0.816  1.00  0.00     0.145 C 
ATOM      8  S   UNL     1      -0.687   2.698   2.172  1.00  0.00    -0.134 SA
ATOM      9  N   UNL     1       1.518   1.961   0.908  1.00  0.00    -0.298 N 
ATOM     10  C   UNL     1       0.883   3.404   2.734  1.00  0.00     0.109 C 
BRANCH   7  11
ATOM     11  C   UNL     1      -0.380   0.264   0.968  1.00  0.00     0.033 C 
ATOM     12  C   UNL     1       0.340  -0.742   0.084  1.00  0.00     0.007 C 
ENDBRANCH   7  11
BRANCH   9  13
ATOM     13  C   UNL     1       2.493   1.845  -0.035  1.00  0.00     0.319 C 
ATOM     14  O   UNL     1       3.682   1.802   0.288  1.00  0.00    -0.249 OA
ATOM     15  N   UNL     1       2.276   1.880  -1.360  1.00  0.00    -0.335 N 
ATOM     16  H   UNL     1       3.074   1.612  -1.870  1.00  0.00     0.165 HD
BRANCH  15  17
ATOM     17  C   UNL     1       1.157   2.213  -2.237  1.00  0.00     0.089 C 
ATOM     18  C   UNL     1       1.362   1.536  -3.615  1.00  0.00     0.025 C 
ATOM     19  C   UNL     1       0.865   3.755  -2.356  1.00  0.00    -0.015 C 
ATOM     20  C   UNL     1       2.286   2.295  -4.562  1.00  0.00     0.002 C 
ATOM     21  C   UNL     1       1.774   4.442  -3.405  1.00  0.00     0.008 C 
ATOM     22  C   UNL     1      -0.621   3.923  -2.750  1.00  0.00     0.013 C 
ATOM     23  C   UNL     1       1.068   4.550  -1.047  1.00  0.00     0.013 C 
ATOM     24  C   UNL     1       1.824   3.730  -4.747  1.00  0.00     0.001 C 
ENDBRANCH  15  17
ENDBRANCH   9  13
ENDBRANCH   4   6
ENDBRANCH   3   4
ENDBRANCH   2   3
ENDBRANCH   1   2
BRANCH   1  25
ATOM     25  O   UNL     1       4.373  -1.200   3.491  1.00  0.00    -0.458 OA
BRANCH  25  26
ATOM     26  C   UNL     1       4.813  -0.913   2.243  1.00  0.00     0.338 C 
ATOM     27  O   UNL     1       4.333  -1.274   1.184  1.00  0.00    -0.246 OA
BRANCH  26  28
ATOM     28  C   UNL     1       6.000  -0.059   2.374  1.00  0.00     0.060 A 
ATOM     29  C   UNL     1       5.849   1.328   2.379  1.00  0.00     0.016 A 
ATOM     30  C   UNL     1       7.266  -0.636   2.447  1.00  0.00     0.016 A 
ATOM     31  C   UNL     1       6.969   2.153   2.402  1.00  0.00     0.010 A 
ATOM     32  C   UNL     1       8.387   0.193   2.522  1.00  0.00     0.010 A 
ATOM     33  C   UNL     1       8.248   1.592   2.479  1.00  0.00    -0.014 A 
BRANCH  33  34
ATOM     34  C   UNL     1       9.452   2.458   2.471  1.00  0.00     0.031 A 
ATOM     35  C   UNL     1      10.385   2.414   1.294  1.00  0.00     0.074 A 
ATOM     36  C   UNL     1       9.711   3.264   3.518  1.00  0.00     0.049 A 
ATOM     37  N   UNL     1      11.581   2.925   1.168  1.00  0.00    -0.248 NA
ATOM     38  C   UNL     1       9.909   1.691   0.102  1.00  0.00     0.031 C 
ATOM     39  C   UNL     1       8.852   3.433   4.692  1.00  0.00     0.029 A 
ATOM     40  N   UNL     1      10.784   4.082   3.772  1.00  0.00    -0.354 N 
ATOM     41  C   UNL     1      12.017   2.559  -0.100  1.00  0.00     0.074 A 
ATOM     42  C   UNL     1      10.960   1.774  -0.702  1.00  0.00     0.031 C 
ATOM     43  C   UNL     1       9.434   4.293   5.543  1.00  0.00     0.029 A 
ATOM     44  C   UNL     1      10.733   4.687   5.005  1.00  0.00     0.049 A 
ATOM     45  H   UNL     1      11.519   4.222   3.132  1.00  0.00     0.167 HD
ATOM     46  C   UNL     1      13.192   2.856  -0.703  1.00  0.00     0.037 A 
ATOM     47  C   UNL     1      11.650   5.434   5.649  1.00  0.00     0.037 A 
ATOM     48  C   UNL     1      14.223   3.661  -0.101  1.00  0.00     0.049 A 
ATOM     49  C   UNL     1      12.970   5.705   4.978  1.00  0.00     0.074 A 
ATOM     50  C   UNL     1      15.458   4.011  -0.621  1.00  0.00     0.029 A 
ATOM     51  N   UNL     1      14.134   4.254   1.150  1.00  0.00    -0.354 N 
ATOM     52  N   UNL     1      13.391   5.315   3.798  1.00  0.00    -0.248 NA
ATOM     53  C   UNL     1      13.945   6.508   5.729  1.00  0.00     0.031 C 
ATOM     54  C   UNL     1      16.125   4.793   0.327  1.00  0.00     0.029 A 
ATOM     55  C   UNL     1      15.292   4.963   1.421  1.00  0.00     0.049 A 
ATOM     56  H   UNL     1      13.361   4.181   1.755  1.00  0.00     0.167 HD
ATOM     57  C   UNL     1      14.669   5.843   3.657  1.00  0.00     0.074 A 
ATOM     58  C   UNL     1      14.948   6.591   4.866  1.00  0.00     0.031 C 
ATOM     59  C   UNL     1      15.538   5.716   2.624  1.00  0.00     0.037 A 
BRANCH  46  60
ATOM     60  C   UNL     1      13.438   2.295  -2.075  1.00  0.00     0.058 A 
ATOM     61  C   UNL     1      12.798   2.815  -3.211  1.00  0.00     0.135 A 
ATOM     62  C   UNL     1      14.369   1.260  -2.264  1.00  0.00     0.135 A 
ATOM     63  F   UNL     1      11.885   3.791  -3.084  1.00  0.00    -0.206 F 
ATOM     64  C   UNL     1      13.064   2.321  -4.484  1.00  0.00     0.059 A 
ATOM     65  C   UNL     1      14.667   0.766  -3.531  1.00  0.00     0.059 A 
ATOM     66  F   UNL     1      15.006   0.724  -1.211  1.00  0.00    -0.206 F 
ATOM     67  C   UNL     1      14.003   1.299  -4.635  1.00  0.00     0.060 A 
BRANCH  67  68
ATOM     68  S   UNL     1      14.358   0.690  -6.297  1.00  0.00     0.124 S 
ATOM     69  O   UNL     1      13.153  -0.081  -6.590  1.00  0.00    -0.237 OA
ATOM     70  O   UNL     1      14.519   1.926  -7.056  1.00  0.00    -0.237 OA
ATOM     71  O   UNL     1      15.576  -0.095  -6.119  1.00  0.00    -0.744 OA
ENDBRANCH  67  68
ENDBRANCH  46  60
BRANCH  47  72
ATOM     72  C   UNL     1      11.378   5.940   7.021  1.00  0.00     0.058 A 
ATOM     73  C   UNL     1      11.208   7.310   7.268  1.00  0.00     0.135 A 
ATOM     74  C   UNL     1      11.303   5.065   8.116  1.00  0.00     0.135 A 
ATOM     75  F   UNL     1      11.280   8.187   6.255  1.00  0.00    -0.206 F 
ATOM     76  C   UNL     1      11.003   7.799   8.554  1.00  0.00     0.059 A 
ATOM     77  C   UNL     1      11.071   5.526   9.408  1.00  0.00     0.059 A 
ATOM     78  F   UNL     1      11.445   3.743   7.933  1.00  0.00    -0.206 F 
ATOM     79  C   UNL     1      10.940   6.898   9.619  1.00  0.00     0.060 A 
BRANCH  79  80
ATOM     80  S   UNL     1      10.657   7.536  11.285  1.00  0.00     0.124 S 
ATOM     81  O   UNL     1      11.975   8.059  11.625  1.00  0.00    -0.237 OA
ATOM     82  O   UNL     1       9.612   8.531  11.063  1.00  0.00    -0.237 OA
ATOM     83  O   UNL     1      10.235   6.352  12.028  1.00  0.00    -0.744 OA
ENDBRANCH  79  80
ENDBRANCH  47  72
BRANCH  59  84
ATOM     84  C   UNL     1      16.850   6.439   2.737  1.00  0.00     0.058 A 
ATOM     85  C   UNL     1      17.877   5.974   3.572  1.00  0.00     0.135 A 
ATOM     86  C   UNL     1      17.096   7.586   1.965  1.00  0.00     0.135 A 
ATOM     87  F   UNL     1      17.687   4.886   4.335  1.00  0.00    -0.206 F 
ATOM     88  C   UNL     1      19.099   6.634   3.654  1.00  0.00     0.059 A 
ATOM     89  C   UNL     1      18.318   8.248   2.013  1.00  0.00     0.059 A 
ATOM     90  F   UNL     1      16.148   8.065   1.144  1.00  0.00    -0.206 F 
ATOM     91  C   UNL     1      19.310   7.770   2.870  1.00  0.00     0.060 A 
BRANCH  91  92
ATOM     92  S   UNL     1      20.910   8.600   2.959  1.00  0.00     0.124 S 
ATOM     93  O   UNL     1      20.805   9.308   4.230  1.00  0.00    -0.237 OA
ATOM     94  O   UNL     1      21.847   7.481   2.932  1.00  0.00    -0.237 OA
ATOM     95  O   UNL     1      20.921   9.445   1.768  1.00  0.00    -0.744 OA
ENDBRANCH  91  92
ENDBRANCH  59  84
ENDBRANCH  33  34
ENDBRANCH  26  28
ENDBRANCH  25  26
ENDBRANCH   1  25
TORSDOF 17
