REMARK SMILES O=C(Cc1cccn1-c1ccc2c(c1)OCCO2)OCCOC(=O)c1ccc(-c2c3nc(c(-c4c(F)cc(S(=O)(=O)[O-])cc4F)c4ccc([nH]4)c(-c4c(F)cc(S(=O)(=O)[O-])cc4F)c4nc(c(-c5c(F)cc(S(=O)(=O)[O-])cc5F)c5ccc2[nH]5)C=C4)C=C3)cc1
REMARK SMILES IDX 21 1 20 2 19 3 2 4 1 5 3 6 4 7 5 8 8 9 6 10 7 11 9 12 10 13
REMARK SMILES IDX 14 14 11 15 13 16 12 17 15 18 18 19 16 20 17 21 22 22 23 23
REMARK SMILES IDX 24 24 25 25 26 26 90 27 27 28 89 29 28 30 29 31 30 32 83 33
REMARK SMILES IDX 31 34 88 35 82 36 84 37 32 38 87 39 81 40 80 41 33 43 67 44
REMARK SMILES IDX 46 45 66 46 47 47 50 48 65 49 85 50 48 51 49 52 64 54 86 55
REMARK SMILES IDX 51 56 34 57 35 58 44 59 36 60 37 61 43 62 45 63 38 64 39 65
REMARK SMILES IDX 40 66 41 67 42 68 68 69 69 70 78 71 70 72 71 73 77 74 79 75
REMARK SMILES IDX 72 76 73 77 74 78 75 79 76 80 52 81 53 82 62 83 54 84 55 85
REMARK SMILES IDX 61 86 63 87 56 88 57 89 58 90 59 91 60 92
REMARK H PARENT 84 42 50 53
REMARK Flexibility Score: inf
ROOT
ATOM      1  C   UNL     1       4.849   0.553  -2.036  1.00  0.00     0.275 C 
ENDROOT
BRANCH   1   2
ATOM      2  C   UNL     1       4.476  -0.621  -1.165  1.00  0.00     0.274 C 
BRANCH   2   3
ATOM      3  O   UNL     1       3.039  -0.745  -1.028  1.00  0.00    -0.462 OA
BRANCH   3   4
ATOM      4  C   UNL     1       2.264  -0.350   0.012  1.00  0.00     0.311 C 
ATOM      5  O   UNL     1       1.041  -0.494  -0.045  1.00  0.00    -0.252 OA
BRANCH   4   6
ATOM      6  C   UNL     1       2.884   0.305   1.221  1.00  0.00     0.177 C 
BRANCH   6   7
ATOM      7  C   UNL     1       3.778  -0.516   2.106  1.00  0.00     0.034 A 
ATOM      8  C   UNL     1       4.747  -0.008   2.962  1.00  0.00     0.024 A 
ATOM      9  N   UNL     1       3.772  -1.896   2.263  1.00  0.00    -0.320 N 
ATOM     10  C   UNL     1       5.345  -1.090   3.637  1.00  0.00     0.020 A 
ATOM     11  C   UNL     1       4.738  -2.237   3.181  1.00  0.00     0.091 A 
BRANCH   9  12
ATOM     12  C   UNL     1       3.007  -2.831   1.539  1.00  0.00     0.049 A 
ATOM     13  C   UNL     1       1.690  -3.084   1.928  1.00  0.00     0.031 A 
ATOM     14  C   UNL     1       3.494  -3.263   0.303  1.00  0.00     0.077 A 
ATOM     15  C   UNL     1       0.833  -3.733   1.035  1.00  0.00     0.052 A 
ATOM     16  C   UNL     1       2.590  -3.768  -0.627  1.00  0.00     0.163 A 
ATOM     17  C   UNL     1       1.268  -4.036  -0.257  1.00  0.00     0.161 A 
ATOM     18  O   UNL     1       3.025  -3.851  -1.931  1.00  0.00    -0.486 OA
ATOM     19  O   UNL     1       0.327  -4.522  -1.130  1.00  0.00    -0.486 OA
ATOM     20  C   UNL     1       1.898  -3.701  -2.811  1.00  0.00     0.271 C 
ATOM     21  C   UNL     1       0.863  -4.750  -2.442  1.00  0.00     0.271 C 
ENDBRANCH   9  12
ENDBRANCH   6   7
ENDBRANCH   4   6
ENDBRANCH   3   4
ENDBRANCH   2   3
ENDBRANCH   1   2
BRANCH   1  22
ATOM     22  O   UNL     1       4.476   1.720  -1.331  1.00  0.00    -0.458 OA
BRANCH  22  23
ATOM     23  C   UNL     1       3.206   2.114  -1.568  1.00  0.00     0.338 C 
ATOM     24  O   UNL     1       2.354   1.554  -2.225  1.00  0.00    -0.246 OA
BRANCH  23  25
ATOM     25  C   UNL     1       3.058   3.456  -1.020  1.00  0.00     0.060 A 
ATOM     26  C   UNL     1       1.780   3.992  -1.166  1.00  0.00     0.016 A 
ATOM     27  C   UNL     1       4.232   4.219  -1.016  1.00  0.00     0.016 A 
ATOM     28  C   UNL     1       1.702   5.281  -1.616  1.00  0.00     0.010 A 
ATOM     29  C   UNL     1       4.165   5.457  -1.580  1.00  0.00     0.010 A 
ATOM     30  C   UNL     1       2.899   5.958  -1.887  1.00  0.00    -0.014 A 
BRANCH  30  31
ATOM     31  C   UNL     1       2.797   7.361  -2.236  1.00  0.00     0.031 A 
ATOM     32  C   UNL     1       2.711   8.144  -0.896  1.00  0.00     0.074 A 
ATOM     33  C   UNL     1       2.738   7.602  -3.587  1.00  0.00     0.049 A 
ATOM     34  N   UNL     1       2.067   9.227  -0.612  1.00  0.00    -0.248 NA
ATOM     35  C   UNL     1       3.317   7.577   0.359  1.00  0.00     0.031 C 
ATOM     36  C   UNL     1       2.896   6.589  -4.671  1.00  0.00     0.029 A 
ATOM     37  N   UNL     1       2.533   8.732  -4.339  1.00  0.00    -0.354 N 
ATOM     38  C   UNL     1       2.440   9.611   0.697  1.00  0.00     0.074 A 
ATOM     39  C   UNL     1       3.042   8.475   1.304  1.00  0.00     0.031 C 
ATOM     40  C   UNL     1       2.668   7.132  -5.893  1.00  0.00     0.029 A 
ATOM     41  C   UNL     1       2.373   8.543  -5.746  1.00  0.00     0.049 A 
ATOM     42  H   UNL     1       2.497   9.627  -3.930  1.00  0.00     0.167 HD
ATOM     43  C   UNL     1       2.413  10.911   1.108  1.00  0.00     0.037 A 
ATOM     44  C   UNL     1       1.980   9.472  -6.683  1.00  0.00     0.037 A 
ATOM     45  C   UNL     1       1.901  11.710   0.044  1.00  0.00     0.049 A 
ATOM     46  C   UNL     1       1.974  10.728  -5.920  1.00  0.00     0.074 A 
ATOM     47  C   UNL     1       0.650  11.760  -0.516  1.00  0.00     0.029 A 
ATOM     48  N   UNL     1       2.831  12.188  -0.853  1.00  0.00    -0.354 N 
ATOM     49  N   UNL     1       3.039  11.343  -5.502  1.00  0.00    -0.248 NA
ATOM     50  C   UNL     1       0.684  11.252  -5.457  1.00  0.00     0.031 C 
ATOM     51  C   UNL     1       0.940  11.748  -1.894  1.00  0.00     0.029 A 
ATOM     52  C   UNL     1       2.293  12.045  -2.106  1.00  0.00     0.049 A 
ATOM     53  H   UNL     1       3.716  12.562  -0.635  1.00  0.00     0.167 HD
ATOM     54  C   UNL     1       2.551  12.088  -4.460  1.00  0.00     0.074 A 
ATOM     55  C   UNL     1       1.128  12.246  -4.694  1.00  0.00     0.031 C 
ATOM     56  C   UNL     1       3.172  12.045  -3.251  1.00  0.00     0.037 A 
BRANCH  43  57
ATOM     57  C   UNL     1       3.068  11.632   2.250  1.00  0.00     0.058 A 
ATOM     58  C   UNL     1       2.630  12.957   2.499  1.00  0.00     0.135 A 
ATOM     59  C   UNL     1       4.290  11.264   2.831  1.00  0.00     0.135 A 
ATOM     60  F   UNL     1       1.432  13.380   2.060  1.00  0.00    -0.206 F 
ATOM     61  C   UNL     1       3.434  13.905   3.111  1.00  0.00     0.059 A 
ATOM     62  C   UNL     1       5.092  12.191   3.503  1.00  0.00     0.059 A 
ATOM     63  F   UNL     1       4.782  10.025   2.699  1.00  0.00    -0.206 F 
ATOM     64  C   UNL     1       4.684  13.521   3.578  1.00  0.00     0.060 A 
BRANCH  64  65
ATOM     65  S   UNL     1       5.763  14.800   4.247  1.00  0.00     0.124 S 
ATOM     66  O   UNL     1       6.140  15.529   3.042  1.00  0.00    -0.237 OA
ATOM     67  O   UNL     1       4.868  15.507   5.160  1.00  0.00    -0.237 OA
ATOM     68  O   UNL     1       6.827  14.037   4.891  1.00  0.00    -0.744 OA
ENDBRANCH  64  65
ENDBRANCH  43  57
BRANCH  44  69
ATOM     69  C   UNL     1       1.463   9.579  -8.112  1.00  0.00     0.058 A 
ATOM     70  C   UNL     1       1.353   8.548  -9.053  1.00  0.00     0.135 A 
ATOM     71  C   UNL     1       0.871  10.808  -8.543  1.00  0.00     0.135 A 
ATOM     72  F   UNL     1       1.989   7.383  -8.866  1.00  0.00    -0.206 F 
ATOM     73  C   UNL     1       0.568   8.676 -10.225  1.00  0.00     0.059 A 
ATOM     74  C   UNL     1       0.040  10.941  -9.651  1.00  0.00     0.059 A 
ATOM     75  F   UNL     1       1.045  11.953  -7.867  1.00  0.00    -0.206 F 
ATOM     76  C   UNL     1      -0.144   9.853 -10.475  1.00  0.00     0.060 A 
BRANCH  76  77
ATOM     77  S   UNL     1      -1.409   9.940 -11.768  1.00  0.00     0.124 S 
ATOM     78  O   UNL     1      -0.612  10.178 -12.965  1.00  0.00    -0.237 OA
ATOM     79  O   UNL     1      -2.043   8.629 -11.673  1.00  0.00    -0.237 OA
ATOM     80  O   UNL     1      -2.250  11.057 -11.341  1.00  0.00    -0.744 OA
ENDBRANCH  76  77
ENDBRANCH  44  69
BRANCH  56  81
ATOM     81  C   UNL     1       4.651  11.669  -3.276  1.00  0.00     0.058 A 
ATOM     82  C   UNL     1       5.553  12.446  -4.024  1.00  0.00     0.135 A 
ATOM     83  C   UNL     1       5.210  10.538  -2.651  1.00  0.00     0.135 A 
ATOM     84  F   UNL     1       5.121  13.559  -4.638  1.00  0.00    -0.206 F 
ATOM     85  C   UNL     1       6.909  12.121  -4.149  1.00  0.00     0.059 A 
ATOM     86  C   UNL     1       6.562  10.184  -2.762  1.00  0.00     0.059 A 
ATOM     87  F   UNL     1       4.456   9.739  -1.897  1.00  0.00    -0.206 F 
ATOM     88  C   UNL     1       7.410  10.988  -3.512  1.00  0.00     0.060 A 
BRANCH  88  89
ATOM     89  S   UNL     1       9.176  10.616  -3.644  1.00  0.00     0.124 S 
ATOM     90  O   UNL     1       9.362  10.472  -5.084  1.00  0.00    -0.237 OA
ATOM     91  O   UNL     1       9.782  11.801  -3.046  1.00  0.00    -0.237 OA
ATOM     92  O   UNL     1       9.330   9.383  -2.874  1.00  0.00    -0.744 OA
ENDBRANCH  88  89
ENDBRANCH  56  81
ENDBRANCH  30  31
ENDBRANCH  23  25
ENDBRANCH  22  23
ENDBRANCH   1  22
TORSDOF 16
