REMARK SMILES CCc1ccc2c(c1)C=C(C(=O)OCCOC(=O)c1ccc(-c3c4nc(c(-c5c(F)cc(S(=O)(=O)[O-])cc5F)c5ccc([nH]5)c(-c5c(F)cc(S(=O)(=O)[O-])cc5F)c5nc(c(-c6c(F)cc(S(=O)(=O)[O-])cc6F)c6ccc3[nH]6)C=C5)C=C4)cc1)[C@H](C(F)(F)F)O2
REMARK SMILES IDX 15 1 14 2 13 3 11 4 12 5 10 6 3 7 4 8 8 9 5 10 7 11 6 12
REMARK SMILES IDX 9 13 90 14 85 15 2 16 1 17 86 18 87 19 88 20 89 21 16 22
REMARK SMILES IDX 17 23 18 24 19 25 20 26 84 27 21 28 83 29 22 30 23 31 24 32
REMARK SMILES IDX 77 33 25 34 82 35 76 36 78 37 26 38 81 39 75 40 74 41 27 43
REMARK SMILES IDX 61 44 40 45 60 46 41 47 44 48 59 49 79 50 42 51 43 52 58 54
REMARK SMILES IDX 80 55 45 56 28 57 29 58 38 59 30 60 31 61 37 62 39 63 32 64
REMARK SMILES IDX 33 65 34 66 35 67 36 68 62 69 63 70 72 71 64 72 65 73 71 74
REMARK SMILES IDX 73 75 66 76 67 77 68 78 69 79 70 80 46 81 47 82 56 83 48 84
REMARK SMILES IDX 49 85 55 86 57 87 50 88 51 89 52 90 53 91 54 92
REMARK H PARENT 78 42 44 53
REMARK Flexibility Score: inf
ROOT
ATOM      1  C   UNL     1       3.402   1.957  -8.851  1.00  0.00     0.275 C 
ENDROOT
BRANCH   1   2
ATOM      2  C   UNL     1       4.344   1.956  -7.642  1.00  0.00     0.275 C 
BRANCH   2   3
ATOM      3  O   UNL     1       3.648   2.268  -6.417  1.00  0.00    -0.459 OA
BRANCH   3   4
ATOM      4  C   UNL     1       3.913   3.489  -5.878  1.00  0.00     0.338 C 
ATOM      5  O   UNL     1       4.677   4.307  -6.349  1.00  0.00    -0.246 OA
BRANCH   4   6
ATOM      6  C   UNL     1       3.134   3.727  -4.637  1.00  0.00     0.087 C 
ATOM      7  C   UNL     1       0.842   2.226  -0.635  1.00  0.00    -0.047 A 
ATOM      8  C   UNL     1       0.644   3.572  -0.282  1.00  0.00     0.007 A 
ATOM      9  C   UNL     1       1.522   1.937  -1.831  1.00  0.00     0.015 A 
ATOM     10  C   UNL     1       1.177   4.598  -1.058  1.00  0.00     0.047 A 
ATOM     11  C   UNL     1       2.047   2.967  -2.625  1.00  0.00     0.018 A 
ATOM     12  C   UNL     1       1.889   4.290  -2.212  1.00  0.00     0.128 A 
ATOM     13  C   UNL     1       2.809   2.691  -3.842  1.00  0.00     0.027 C 
ATOM     14  O   UNL     1       2.488   5.333  -2.858  1.00  0.00    -0.475 OA
ATOM     15  C   UNL     1       2.707   5.145  -4.284  1.00  0.00     0.316 C 
BRANCH   7  16
ATOM     16  C   UNL     1       0.311   1.169   0.307  1.00  0.00     0.032 C 
ATOM     17  C   UNL     1       0.814  -0.252   0.091  1.00  0.00     0.009 C 
ENDBRANCH   7  16
BRANCH  15  18
ATOM     18  C   UNL     1       3.572   6.326  -4.766  1.00  0.00     0.430 C 
ATOM     19  F   UNL     1       3.513   6.488  -6.107  1.00  0.00    -0.167 F 
ATOM     20  F   UNL     1       3.108   7.490  -4.238  1.00  0.00    -0.167 F 
ATOM     21  F   UNL     1       4.864   6.208  -4.392  1.00  0.00    -0.167 F 
ENDBRANCH  15  18
ENDBRANCH   4   6
ENDBRANCH   3   4
ENDBRANCH   2   3
ENDBRANCH   1   2
BRANCH   1  22
ATOM     22  O   UNL     1       2.822   3.255  -9.074  1.00  0.00    -0.458 OA
BRANCH  22  23
ATOM     23  C   UNL     1       1.604   3.438  -8.507  1.00  0.00     0.338 C 
ATOM     24  O   UNL     1       0.952   2.604  -7.897  1.00  0.00    -0.246 OA
BRANCH  23  25
ATOM     25  C   UNL     1       1.241   4.868  -8.542  1.00  0.00     0.060 A 
ATOM     26  C   UNL     1       0.798   5.429  -7.341  1.00  0.00     0.016 A 
ATOM     27  C   UNL     1       1.308   5.650  -9.696  1.00  0.00     0.016 A 
ATOM     28  C   UNL     1       0.501   6.787  -7.259  1.00  0.00     0.010 A 
ATOM     29  C   UNL     1       0.951   7.005  -9.629  1.00  0.00     0.010 A 
ATOM     30  C   UNL     1       0.563   7.584  -8.407  1.00  0.00    -0.014 A 
BRANCH  30  31
ATOM     31  C   UNL     1       0.104   8.992  -8.334  1.00  0.00     0.031 A 
ATOM     32  C   UNL     1      -1.345   9.299  -8.583  1.00  0.00     0.074 A 
ATOM     33  C   UNL     1       0.955   9.981  -8.003  1.00  0.00     0.049 A 
ATOM     34  N   UNL     1      -1.958  10.453  -8.602  1.00  0.00    -0.248 NA
ATOM     35  C   UNL     1      -2.224   8.144  -8.830  1.00  0.00     0.031 C 
ATOM     36  C   UNL     1       2.364   9.801  -7.655  1.00  0.00     0.029 A 
ATOM     37  N   UNL     1       0.755  11.337  -7.907  1.00  0.00    -0.354 N 
ATOM     38  C   UNL     1      -3.292  10.169  -8.862  1.00  0.00     0.074 A 
ATOM     39  C   UNL     1      -3.397   8.732  -9.008  1.00  0.00     0.031 C 
ATOM     40  C   UNL     1       2.908  11.006  -7.407  1.00  0.00     0.029 A 
ATOM     41  C   UNL     1       1.898  12.044  -7.612  1.00  0.00     0.049 A 
ATOM     42  H   UNL     1      -0.123  11.762  -8.038  1.00  0.00     0.167 HD
ATOM     43  C   UNL     1      -4.334  11.028  -8.971  1.00  0.00     0.037 A 
ATOM     44  C   UNL     1       2.108  13.375  -7.546  1.00  0.00     0.037 A 
ATOM     45  C   UNL     1      -4.218  12.458  -8.851  1.00  0.00     0.049 A 
ATOM     46  C   UNL     1       0.953  14.318  -7.784  1.00  0.00     0.074 A 
ATOM     47  C   UNL     1      -5.213  13.413  -8.964  1.00  0.00     0.029 A 
ATOM     48  N   UNL     1      -3.035  13.142  -8.610  1.00  0.00    -0.354 N 
ATOM     49  N   UNL     1      -0.306  14.040  -8.028  1.00  0.00    -0.248 NA
ATOM     50  C   UNL     1       1.247  15.759  -7.739  1.00  0.00     0.031 C 
ATOM     51  C   UNL     1      -4.623  14.676  -8.852  1.00  0.00     0.029 A 
ATOM     52  C   UNL     1      -3.271  14.508  -8.600  1.00  0.00     0.049 A 
ATOM     53  H   UNL     1      -2.157  12.720  -8.466  1.00  0.00     0.167 HD
ATOM     54  C   UNL     1      -0.958  15.266  -8.128  1.00  0.00     0.074 A 
ATOM     55  C   UNL     1       0.044  16.289  -7.914  1.00  0.00     0.031 C 
ATOM     56  C   UNL     1      -2.269  15.521  -8.371  1.00  0.00     0.037 A 
BRANCH  43  57
ATOM     57  C   UNL     1      -5.683  10.444  -9.286  1.00  0.00     0.058 A 
ATOM     58  C   UNL     1      -6.408   9.698  -8.344  1.00  0.00     0.135 A 
ATOM     59  C   UNL     1      -6.268  10.655 -10.546  1.00  0.00     0.135 A 
ATOM     60  F   UNL     1      -5.887   9.447  -7.132  1.00  0.00    -0.206 F 
ATOM     61  C   UNL     1      -7.655   9.160  -8.649  1.00  0.00     0.059 A 
ATOM     62  C   UNL     1      -7.525  10.151 -10.861  1.00  0.00     0.059 A 
ATOM     63  F   UNL     1      -5.615  11.357 -11.485  1.00  0.00    -0.206 F 
ATOM     64  C   UNL     1      -8.205   9.392  -9.911  1.00  0.00     0.060 A 
BRANCH  64  65
ATOM     65  S   UNL     1      -9.821   8.685 -10.290  1.00  0.00     0.124 S 
ATOM     66  O   UNL     1      -9.502   7.263 -10.387  1.00  0.00    -0.237 OA
ATOM     67  O   UNL     1     -10.614   9.078  -9.130  1.00  0.00    -0.237 OA
ATOM     68  O   UNL     1     -10.190   9.330 -11.546  1.00  0.00    -0.744 OA
ENDBRANCH  64  65
ENDBRANCH  43  57
BRANCH  44  69
ATOM     69  C   UNL     1       3.474  13.906  -7.277  1.00  0.00     0.058 A 
ATOM     70  C   UNL     1       3.766  14.611  -6.099  1.00  0.00     0.135 A 
ATOM     71  C   UNL     1       4.511  13.745  -8.210  1.00  0.00     0.135 A 
ATOM     72  F   UNL     1       2.807  14.812  -5.183  1.00  0.00    -0.206 F 
ATOM     73  C   UNL     1       5.027  15.152  -5.864  1.00  0.00     0.059 A 
ATOM     74  C   UNL     1       5.788  14.249  -7.985  1.00  0.00     0.059 A 
ATOM     75  F   UNL     1       4.288  13.079  -9.355  1.00  0.00    -0.206 F 
ATOM     76  C   UNL     1       6.034  14.963  -6.814  1.00  0.00     0.060 A 
BRANCH  76  77
ATOM     77  S   UNL     1       7.675  15.643  -6.485  1.00  0.00     0.124 S 
ATOM     78  O   UNL     1       7.437  17.074  -6.636  1.00  0.00    -0.237 OA
ATOM     79  O   UNL     1       7.932  15.179  -5.126  1.00  0.00    -0.237 OA
ATOM     80  O   UNL     1       8.506  15.030  -7.518  1.00  0.00    -0.744 OA
ENDBRANCH  76  77
ENDBRANCH  44  69
BRANCH  56  81
ATOM     81  C   UNL     1      -2.720  16.959  -8.368  1.00  0.00     0.058 A 
ATOM     82  C   UNL     1      -2.378  17.850  -9.397  1.00  0.00     0.135 A 
ATOM     83  C   UNL     1      -3.567  17.431  -7.351  1.00  0.00     0.135 A 
ATOM     84  F   UNL     1      -1.568  17.456 -10.392  1.00  0.00    -0.206 F 
ATOM     85  C   UNL     1      -2.843  19.163  -9.407  1.00  0.00     0.059 A 
ATOM     86  C   UNL     1      -4.069  18.729  -7.357  1.00  0.00     0.059 A 
ATOM     87  F   UNL     1      -3.937  16.620  -6.347  1.00  0.00    -0.206 F 
ATOM     88  C   UNL     1      -3.693  19.592  -8.385  1.00  0.00     0.060 A 
BRANCH  88  89
ATOM     89  S   UNL     1      -4.324  21.283  -8.435  1.00  0.00     0.124 S 
ATOM     90  O   UNL     1      -3.131  22.053  -8.097  1.00  0.00    -0.237 OA
ATOM     91  O   UNL     1      -4.786  21.403  -9.814  1.00  0.00    -0.237 OA
ATOM     92  O   UNL     1      -5.378  21.284  -7.425  1.00  0.00    -0.744 OA
ENDBRANCH  88  89
ENDBRANCH  56  81
ENDBRANCH  30  31
ENDBRANCH  23  25
ENDBRANCH  22  23
ENDBRANCH   1  22
TORSDOF 16
