REMARK SMILES CN(C)c1cc(C(F)(F)F)cc(-c2cccc(/C=C/C(=O)OCCOC(=O)c3ccc(-c4c5nc(c(-c6c(F)cc(S(=O)(=O)[O-])cc6F)c6ccc([nH]6)c(-c6c(F)cc(S(=O)(=O)[O-])cc6F)c6nc(c(-c7c(F)cc(S(=O)(=O)[O-])cc7F)c7ccc4[nH]7)C=C6)C=C5)cc3)c2)n1
REMARK SMILES IDX 23 1 22 2 20 3 21 4 19 5 18 6 17 7 13 8 14 9 94 10 15 11
REMARK SMILES IDX 16 12 12 13 4 14 5 15 95 16 6 17 11 18 2 19 1 20 3 21 7 22
REMARK SMILES IDX 8 23 9 24 10 25 24 26 25 27 26 28 27 29 28 30 29 31 93 32
REMARK SMILES IDX 30 33 92 34 31 35 32 36 33 37 86 38 34 39 91 40 85 41 87 42
REMARK SMILES IDX 35 43 90 44 84 45 83 46 36 48 70 49 49 50 69 51 50 52 53 53
REMARK SMILES IDX 68 54 88 55 51 56 52 57 67 59 89 60 54 61 37 62 38 63 47 64
REMARK SMILES IDX 39 65 40 66 46 67 48 68 41 69 42 70 43 71 44 72 45 73 71 74
REMARK SMILES IDX 72 75 81 76 73 77 74 78 80 79 82 80 75 81 76 82 77 83 78 84
REMARK SMILES IDX 79 85 55 86 56 87 65 88 57 89 58 90 64 91 66 92 59 93 60 94
REMARK SMILES IDX 61 95 62 96 63 97
REMARK H PARENT 87 47 53 58
REMARK Flexibility Score: inf
ROOT
ATOM      1  C   UNL     1      -1.335 -11.473   6.093  1.00  0.00     0.275 C 
ENDROOT
BRANCH   1   2
ATOM      2  O   UNL     1      -1.267 -10.534   5.005  1.00  0.00    -0.459 OA
BRANCH   2   3
ATOM      3  C   UNL     1      -1.840 -10.930   3.844  1.00  0.00     0.330 C 
ATOM      4  O   UNL     1      -2.311 -12.034   3.613  1.00  0.00    -0.247 OA
BRANCH   3   5
ATOM      5  C   UNL     1      -1.900  -9.847   2.840  1.00  0.00     0.094 C 
ATOM      6  C   UNL     1      -1.476  -8.590   3.039  1.00  0.00     0.015 C 
BRANCH   6   7
ATOM      7  C   UNL     1      -1.635  -7.520   2.045  1.00  0.00    -0.025 A 
ATOM      8  C   UNL     1      -0.720  -5.515   0.969  1.00  0.00     0.001 A 
ATOM      9  C   UNL     1      -1.930  -5.362   0.276  1.00  0.00     0.010 A 
ATOM     10  C   UNL     1      -0.595  -6.598   1.860  1.00  0.00     0.018 A 
ATOM     11  C   UNL     1      -2.974  -6.271   0.451  1.00  0.00     0.001 A 
ATOM     12  C   UNL     1      -2.828  -7.342   1.332  1.00  0.00     0.008 A 
BRANCH   8  13
ATOM     13  C   UNL     1       0.386  -4.572   0.766  1.00  0.00     0.073 A 
ATOM     14  C   UNL     1       1.075  -2.337   0.854  1.00  0.00     0.129 A 
ATOM     15  C   UNL     1       2.351  -2.707   0.436  1.00  0.00     0.060 A 
ATOM     16  N   UNL     1       0.112  -3.270   1.017  1.00  0.00    -0.231 NA
ATOM     17  C   UNL     1       2.650  -4.050   0.182  1.00  0.00     0.061 A 
ATOM     18  C   UNL     1       1.639  -4.997   0.346  1.00  0.00     0.042 A 
BRANCH  14  19
ATOM     19  N   UNL     1       0.786  -1.005   1.146  1.00  0.00    -0.363 N 
ATOM     20  C   UNL     1       1.083  -0.021   0.118  1.00  0.00     0.144 C 
ATOM     21  C   UNL     1      -0.407  -0.787   1.954  1.00  0.00     0.144 C 
ENDBRANCH  14  19
BRANCH  17  22
ATOM     22  C   UNL     1       4.025  -4.481  -0.237  1.00  0.00     0.416 C 
ATOM     23  F   UNL     1       4.579  -5.370   0.634  1.00  0.00    -0.166 F 
ATOM     24  F   UNL     1       4.034  -5.094  -1.452  1.00  0.00    -0.166 F 
ATOM     25  F   UNL     1       4.915  -3.454  -0.333  1.00  0.00    -0.166 F 
ENDBRANCH  17  22
ENDBRANCH   8  13
ENDBRANCH   6   7
ENDBRANCH   3   5
ENDBRANCH   2   3
ENDBRANCH   1   2
BRANCH   1  26
ATOM     26  C   UNL     1      -2.429 -11.089   7.093  1.00  0.00     0.275 C 
BRANCH  26  27
ATOM     27  O   UNL     1      -3.747 -11.214   6.527  1.00  0.00    -0.458 OA
BRANCH  27  28
ATOM     28  C   UNL     1      -4.223 -10.093   5.932  1.00  0.00     0.338 C 
ATOM     29  O   UNL     1      -3.668  -9.010   5.860  1.00  0.00    -0.246 OA
BRANCH  28  30
ATOM     30  C   UNL     1      -5.500 -10.388   5.256  1.00  0.00     0.060 A 
ATOM     31  C   UNL     1      -5.633 -10.015   3.916  1.00  0.00     0.016 A 
ATOM     32  C   UNL     1      -6.574 -10.962   5.942  1.00  0.00     0.016 A 
ATOM     33  C   UNL     1      -6.845 -10.209   3.255  1.00  0.00     0.010 A 
ATOM     34  C   UNL     1      -7.790 -11.154   5.278  1.00  0.00     0.010 A 
ATOM     35  C   UNL     1      -7.937 -10.768   3.934  1.00  0.00    -0.014 A 
BRANCH  35  36
ATOM     36  C   UNL     1      -9.243 -10.904   3.244  1.00  0.00     0.031 A 
ATOM     37  C   UNL     1     -10.352  -9.934   3.536  1.00  0.00     0.074 A 
ATOM     38  C   UNL     1      -9.422 -11.880   2.334  1.00  0.00     0.049 A 
ATOM     39  N   UNL     1     -11.563  -9.887   3.042  1.00  0.00    -0.248 NA
ATOM     40  C   UNL     1     -10.058  -8.876   4.514  1.00  0.00     0.031 C 
ATOM     41  C   UNL     1      -8.409 -12.857   1.938  1.00  0.00     0.029 A 
ATOM     42  N   UNL     1     -10.517 -12.203   1.574  1.00  0.00    -0.354 N 
ATOM     43  C   UNL     1     -12.179  -8.799   3.649  1.00  0.00     0.074 A 
ATOM     44  C   UNL     1     -11.216  -8.233   4.572  1.00  0.00     0.031 C 
ATOM     45  C   UNL     1      -8.924 -13.661   0.993  1.00  0.00     0.029 A 
ATOM     46  C   UNL     1     -10.312 -13.280   0.745  1.00  0.00     0.049 A 
ATOM     47  H   UNL     1     -11.368 -11.710   1.617  1.00  0.00     0.167 HD
ATOM     48  C   UNL     1     -13.428  -8.313   3.451  1.00  0.00     0.037 A 
ATOM     49  C   UNL     1     -11.153 -13.895  -0.110  1.00  0.00     0.037 A 
ATOM     50  C   UNL     1     -14.385  -8.884   2.538  1.00  0.00     0.049 A 
ATOM     51  C   UNL     1     -12.561 -13.386  -0.255  1.00  0.00     0.074 A 
ATOM     52  C   UNL     1     -15.673  -8.459   2.259  1.00  0.00     0.029 A 
ATOM     53  N   UNL     1     -14.162 -10.012   1.761  1.00  0.00    -0.354 N 
ATOM     54  N   UNL     1     -13.127 -12.351   0.319  1.00  0.00    -0.248 NA
ATOM     55  C   UNL     1     -13.447 -14.134  -1.158  1.00  0.00     0.031 C 
ATOM     56  C   UNL     1     -16.242  -9.354   1.346  1.00  0.00     0.029 A 
ATOM     57  C   UNL     1     -15.296 -10.313   1.022  1.00  0.00     0.049 A 
ATOM     58  H   UNL     1     -13.322 -10.525   1.739  1.00  0.00     0.167 HD
ATOM     59  C   UNL     1     -14.427 -12.308  -0.173  1.00  0.00     0.074 A 
ATOM     60  C   UNL     1     -14.562 -13.418  -1.094  1.00  0.00     0.031 C 
ATOM     61  C   UNL     1     -15.417 -11.424   0.110  1.00  0.00     0.037 A 
BRANCH  48  62
ATOM     62  C   UNL     1     -13.835  -7.119   4.270  1.00  0.00     0.058 A 
ATOM     63  C   UNL     1     -13.302  -5.842   4.030  1.00  0.00     0.135 A 
ATOM     64  C   UNL     1     -14.756  -7.256   5.321  1.00  0.00     0.135 A 
ATOM     65  F   UNL     1     -12.408  -5.657   3.045  1.00  0.00    -0.206 F 
ATOM     66  C   UNL     1     -13.630  -4.753   4.833  1.00  0.00     0.059 A 
ATOM     67  C   UNL     1     -15.118  -6.176   6.121  1.00  0.00     0.059 A 
ATOM     68  F   UNL     1     -15.299  -8.453   5.592  1.00  0.00    -0.206 F 
ATOM     69  C   UNL     1     -14.530  -4.934   5.885  1.00  0.00     0.060 A 
BRANCH  69  70
ATOM     70  S   UNL     1     -14.910  -3.528   6.952  1.00  0.00     0.124 S 
ATOM     71  O   UNL     1     -13.708  -3.460   7.778  1.00  0.00    -0.237 OA
ATOM     72  O   UNL     1     -15.082  -2.441   5.994  1.00  0.00    -0.237 OA
ATOM     73  O   UNL     1     -16.125  -3.947   7.645  1.00  0.00    -0.744 OA
ENDBRANCH  69  70
ENDBRANCH  48  62
BRANCH  49  74
ATOM     74  C   UNL     1     -10.674 -15.054  -0.907  1.00  0.00     0.058 A 
ATOM     75  C   UNL     1     -10.451 -14.934  -2.286  1.00  0.00     0.135 A 
ATOM     76  C   UNL     1     -10.401 -16.292  -0.304  1.00  0.00     0.135 A 
ATOM     77  F   UNL     1     -10.710 -13.773  -2.908  1.00  0.00    -0.206 F 
ATOM     78  C   UNL     1      -9.973 -15.999  -3.042  1.00  0.00     0.059 A 
ATOM     79  C   UNL     1      -9.901 -17.366  -1.035  1.00  0.00     0.059 A 
ATOM     80  F   UNL     1     -10.591 -16.455   1.014  1.00  0.00    -0.206 F 
ATOM     81  C   UNL     1      -9.694 -17.210  -2.405  1.00  0.00     0.060 A 
BRANCH  81  82
ATOM     82  S   UNL     1      -9.006 -18.563  -3.382  1.00  0.00     0.124 S 
ATOM     83  O   UNL     1     -10.172 -19.003  -4.139  1.00  0.00    -0.237 OA
ATOM     84  O   UNL     1      -7.964 -17.888  -4.150  1.00  0.00    -0.237 OA
ATOM     85  O   UNL     1      -8.521 -19.496  -2.369  1.00  0.00    -0.744 OA
ENDBRANCH  81  82
ENDBRANCH  49  74
BRANCH  61  86
ATOM     86  C   UNL     1     -16.728 -11.606  -0.605  1.00  0.00     0.058 A 
ATOM     87  C   UNL     1     -17.622 -12.631  -0.257  1.00  0.00     0.135 A 
ATOM     88  C   UNL     1     -17.113 -10.717  -1.621  1.00  0.00     0.135 A 
ATOM     89  F   UNL     1     -17.298 -13.513   0.701  1.00  0.00    -0.206 F 
ATOM     90  C   UNL     1     -18.844 -12.780  -0.906  1.00  0.00     0.059 A 
ATOM     91  C   UNL     1     -18.340 -10.833  -2.268  1.00  0.00     0.059 A 
ATOM     92  F   UNL     1     -16.299  -9.714  -1.986  1.00  0.00    -0.206 F 
ATOM     93  C   UNL     1     -19.194 -11.876  -1.910  1.00  0.00     0.060 A 
BRANCH  93  94
ATOM     94  S   UNL     1     -20.797 -12.057  -2.722  1.00  0.00     0.124 S 
ATOM     95  O   UNL     1     -20.550 -13.188  -3.611  1.00  0.00    -0.237 OA
ATOM     96  O   UNL     1     -21.692 -12.318  -1.599  1.00  0.00    -0.237 OA
ATOM     97  O   UNL     1     -20.991 -10.770  -3.383  1.00  0.00    -0.744 OA
ENDBRANCH  93  94
ENDBRANCH  61  86
ENDBRANCH  35  36
ENDBRANCH  28  30
ENDBRANCH  27  28
ENDBRANCH  26  27
ENDBRANCH   1  26
TORSDOF 18
