REMARK SMILES O=C(/C=C/c1ccc(Br)cc1-n1ccnc1)OCCOC(=O)c1ccc(-c2c3nc(c(-c4c(F)cc(S(=O)(=O)[O-])cc4F)c4ccc([nH]4)c(-c4c(F)cc(S(=O)(=O)[O-])cc4F)c4nc(c(-c5c(F)cc(S(=O)(=O)[O-])cc5F)c5ccc2[nH]5)C=C4)C=C3)cc1
REMARK SMILES IDX 19 1 18 2 17 3 2 4 1 5 3 6 4 7 5 8 6 9 11 10 7 11 10 12 8 13
REMARK SMILES IDX 9 14 12 15 13 16 16 17 14 18 15 19 20 20 21 21 22 22 23 23
REMARK SMILES IDX 24 24 88 25 25 26 87 27 26 28 27 29 28 30 81 31 29 32 86 33
REMARK SMILES IDX 80 34 82 35 30 36 85 37 79 38 78 39 31 41 65 42 44 43 64 44
REMARK SMILES IDX 45 45 48 46 63 47 83 48 46 49 47 50 62 52 84 53 49 54 32 55
REMARK SMILES IDX 33 56 42 57 34 58 35 59 41 60 43 61 36 62 37 63 38 64 39 65
REMARK SMILES IDX 40 66 66 67 67 68 76 69 68 70 69 71 75 72 77 73 70 74 71 75
REMARK SMILES IDX 72 76 73 77 74 78 50 79 51 80 60 81 52 82 53 83 59 84 61 85
REMARK SMILES IDX 54 86 55 87 56 88 57 89 58 90
REMARK H PARENT 82 40 48 51
REMARK Flexibility Score: inf
ROOT
ATOM      1  C   UNL     1       4.061  -0.529  -2.069  1.00  0.00     0.275 C 
ENDROOT
BRANCH   1   2
ATOM      2  C   UNL     1       4.103  -1.437  -0.847  1.00  0.00     0.275 C 
BRANCH   2   3
ATOM      3  O   UNL     1       2.973  -1.327   0.034  1.00  0.00    -0.459 OA
BRANCH   3   4
ATOM      4  C   UNL     1       2.710  -0.359   0.935  1.00  0.00     0.330 C 
ATOM      5  O   UNL     1       1.657  -0.379   1.571  1.00  0.00    -0.247 OA
BRANCH   4   6
ATOM      6  C   UNL     1       3.605   0.799   1.149  1.00  0.00     0.094 C 
ATOM      7  C   UNL     1       4.947   0.915   1.132  1.00  0.00     0.018 C 
BRANCH   7   8
ATOM      8  C   UNL     1       5.636   2.209   1.353  1.00  0.00    -0.001 A 
ATOM      9  C   UNL     1       5.192   3.026   2.410  1.00  0.00     0.011 A 
ATOM     10  C   UNL     1       6.687   2.702   0.537  1.00  0.00     0.055 A 
ATOM     11  C   UNL     1       5.765   4.277   2.652  1.00  0.00     0.016 A 
ATOM     12  C   UNL     1       7.262   3.960   0.778  1.00  0.00     0.043 A 
ATOM     13  C   UNL     1       6.802   4.732   1.843  1.00  0.00     0.020 A 
ATOM     14  Br  UNL     1       7.595   6.407   2.206  1.00  0.00    -0.051 Br
BRANCH  10  15
ATOM     15  N   UNL     1       7.162   1.991  -0.589  1.00  0.00    -0.306 N 
ATOM     16  C   UNL     1       6.884   2.236  -1.911  1.00  0.00     0.113 A 
ATOM     17  C   UNL     1       8.200   1.092  -0.593  1.00  0.00     0.204 A 
ATOM     18  C   UNL     1       7.648   1.355  -2.634  1.00  0.00     0.131 A 
ATOM     19  N   UNL     1       8.457   0.633  -1.800  1.00  0.00    -0.245 NA
ENDBRANCH  10  15
ENDBRANCH   7   8
ENDBRANCH   4   6
ENDBRANCH   3   4
ENDBRANCH   2   3
ENDBRANCH   1   2
BRANCH   1  20
ATOM     20  O   UNL     1       3.778   0.829  -1.745  1.00  0.00    -0.458 OA
BRANCH  20  21
ATOM     21  C   UNL     1       2.500   1.281  -1.919  1.00  0.00     0.338 C 
ATOM     22  O   UNL     1       1.524   0.624  -2.170  1.00  0.00    -0.246 OA
BRANCH  21  23
ATOM     23  C   UNL     1       2.594   2.764  -1.941  1.00  0.00     0.060 A 
ATOM     24  C   UNL     1       1.732   3.501  -2.744  1.00  0.00     0.016 A 
ATOM     25  C   UNL     1       3.726   3.369  -1.401  1.00  0.00     0.016 A 
ATOM     26  C   UNL     1       2.176   4.727  -3.228  1.00  0.00     0.010 A 
ATOM     27  C   UNL     1       4.198   4.548  -1.917  1.00  0.00     0.010 A 
ATOM     28  C   UNL     1       3.470   5.161  -2.916  1.00  0.00    -0.014 A 
BRANCH  28  29
ATOM     29  C   UNL     1       4.040   6.347  -3.522  1.00  0.00     0.031 A 
ATOM     30  C   UNL     1       3.671   7.576  -2.786  1.00  0.00     0.074 A 
ATOM     31  C   UNL     1       4.936   6.338  -4.531  1.00  0.00     0.049 A 
ATOM     32  N   UNL     1       2.738   8.406  -3.104  1.00  0.00    -0.248 NA
ATOM     33  C   UNL     1       4.227   7.788  -1.438  1.00  0.00     0.031 C 
ATOM     34  C   UNL     1       5.655   5.215  -5.139  1.00  0.00     0.029 A 
ATOM     35  N   UNL     1       5.431   7.409  -5.212  1.00  0.00    -0.354 N 
ATOM     36  C   UNL     1       2.759   9.383  -2.119  1.00  0.00     0.074 A 
ATOM     37  C   UNL     1       3.504   8.829  -1.022  1.00  0.00     0.031 C 
ATOM     38  C   UNL     1       6.626   5.689  -5.960  1.00  0.00     0.029 A 
ATOM     39  C   UNL     1       6.508   7.136  -6.052  1.00  0.00     0.049 A 
ATOM     40  H   UNL     1       5.054   8.313  -5.117  1.00  0.00     0.167 HD
ATOM     41  C   UNL     1       2.388  10.662  -2.397  1.00  0.00     0.037 A 
ATOM     42  C   UNL     1       7.243   8.054  -6.740  1.00  0.00     0.037 A 
ATOM     43  C   UNL     1       1.688  10.730  -3.657  1.00  0.00     0.049 A 
ATOM     44  C   UNL     1       6.398   9.277  -6.854  1.00  0.00     0.074 A 
ATOM     45  C   UNL     1       0.525  10.166  -4.146  1.00  0.00     0.029 A 
ATOM     46  N   UNL     1       2.407  11.123  -4.761  1.00  0.00    -0.354 N 
ATOM     47  N   UNL     1       5.283   9.321  -7.535  1.00  0.00    -0.248 NA
ATOM     48  C   UNL     1       6.528  10.279  -5.806  1.00  0.00     0.031 C 
ATOM     49  C   UNL     1       0.826   9.810  -5.493  1.00  0.00     0.029 A 
ATOM     50  C   UNL     1       2.120  10.248  -5.779  1.00  0.00     0.049 A 
ATOM     51  H   UNL     1       3.018  11.893  -4.812  1.00  0.00     0.167 HD
ATOM     52  C   UNL     1       4.410  10.057  -6.745  1.00  0.00     0.074 A 
ATOM     53  C   UNL     1       5.252  10.667  -5.716  1.00  0.00     0.031 C 
ATOM     54  C   UNL     1       3.058   9.877  -6.820  1.00  0.00     0.037 A 
BRANCH  41  55
ATOM     55  C   UNL     1       2.978  11.880  -1.732  1.00  0.00     0.058 A 
ATOM     56  C   UNL     1       2.402  13.140  -1.986  1.00  0.00     0.135 A 
ATOM     57  C   UNL     1       4.230  11.903  -1.077  1.00  0.00     0.135 A 
ATOM     58  F   UNL     1       1.215  13.237  -2.606  1.00  0.00    -0.206 F 
ATOM     59  C   UNL     1       3.056  14.334  -1.683  1.00  0.00     0.059 A 
ATOM     60  C   UNL     1       4.873  13.080  -0.716  1.00  0.00     0.059 A 
ATOM     61  F   UNL     1       4.944  10.796  -0.843  1.00  0.00    -0.206 F 
ATOM     62  C   UNL     1       4.299  14.290  -1.060  1.00  0.00     0.060 A 
BRANCH  62  63
ATOM     63  S   UNL     1       5.191  15.824  -0.760  1.00  0.00     0.124 S 
ATOM     64  O   UNL     1       5.506  16.247  -2.119  1.00  0.00    -0.237 OA
ATOM     65  O   UNL     1       4.191  16.619  -0.055  1.00  0.00    -0.237 OA
ATOM     66  O   UNL     1       6.329  15.397   0.049  1.00  0.00    -0.744 OA
ENDBRANCH  62  63
ENDBRANCH  41  55
BRANCH  42  67
ATOM     67  C   UNL     1       8.724   8.097  -6.930  1.00  0.00     0.058 A 
ATOM     68  C   UNL     1       9.336   8.990  -7.833  1.00  0.00     0.135 A 
ATOM     69  C   UNL     1       9.588   7.473  -6.008  1.00  0.00     0.135 A 
ATOM     70  F   UNL     1       8.592   9.654  -8.731  1.00  0.00    -0.206 F 
ATOM     71  C   UNL     1      10.710   9.278  -7.794  1.00  0.00     0.059 A 
ATOM     72  C   UNL     1      10.957   7.741  -5.952  1.00  0.00     0.059 A 
ATOM     73  F   UNL     1       9.107   6.648  -5.066  1.00  0.00    -0.206 F 
ATOM     74  C   UNL     1      11.511   8.662  -6.834  1.00  0.00     0.060 A 
BRANCH  74  75
ATOM     75  S   UNL     1      13.248   9.149  -6.662  1.00  0.00     0.124 S 
ATOM     76  O   UNL     1      13.837   8.607  -7.881  1.00  0.00    -0.237 OA
ATOM     77  O   UNL     1      13.158  10.603  -6.589  1.00  0.00    -0.237 OA
ATOM     78  O   UNL     1      13.662   8.492  -5.425  1.00  0.00    -0.744 OA
ENDBRANCH  74  75
ENDBRANCH  42  67
BRANCH  54  79
ATOM     79  C   UNL     1       2.501   9.059  -7.960  1.00  0.00     0.058 A 
ATOM     80  C   UNL     1       2.716   7.679  -8.138  1.00  0.00     0.135 A 
ATOM     81  C   UNL     1       1.557   9.670  -8.799  1.00  0.00     0.135 A 
ATOM     82  F   UNL     1       3.530   6.998  -7.321  1.00  0.00    -0.206 F 
ATOM     83  C   UNL     1       2.038   6.949  -9.119  1.00  0.00     0.059 A 
ATOM     84  C   UNL     1       0.849   8.957  -9.762  1.00  0.00     0.059 A 
ATOM     85  F   UNL     1       1.265  10.972  -8.643  1.00  0.00    -0.206 F 
ATOM     86  C   UNL     1       1.100   7.596  -9.922  1.00  0.00     0.060 A 
BRANCH  86  87
ATOM     87  S   UNL     1       0.153   6.639 -11.127  1.00  0.00     0.124 S 
ATOM     88  O   UNL     1       1.165   6.318 -12.128  1.00  0.00    -0.237 OA
ATOM     89  O   UNL     1      -0.329   5.514 -10.330  1.00  0.00    -0.237 OA
ATOM     90  O   UNL     1      -0.884   7.570 -11.566  1.00  0.00    -0.744 OA
ENDBRANCH  86  87
ENDBRANCH  54  79
ENDBRANCH  28  29
ENDBRANCH  21  23
ENDBRANCH  20  21
ENDBRANCH   1  20
TORSDOF 16
