REMARK SMILES CC[C@@H](C(=O)OCCOC(=O)c1ccc(-c2c3nc(c(-c4c(F)cc(S(=O)(=O)[O-])cc4F)c4ccc([nH]4)c(-c4c(F)cc(S(=O)(=O)[O-])cc4F)c4nc(c(-c5c(F)cc(S(=O)(=O)[O-])cc5F)c5ccc2[nH]5)C=C4)C=C3)cc1)[N@@H+](C)[C@@H](C)Cc1cccs1
REMARK SMILES IDX 7 1 6 2 4 3 5 4 3 5 2 6 1 7 78 8 79 9 80 11 81 12 82 13
REMARK SMILES IDX 83 14 84 15 87 16 85 17 86 18 8 19 9 20 10 21 11 22 12 23
REMARK SMILES IDX 13 24 77 25 14 26 76 27 15 28 16 29 17 30 70 31 18 32 75 33
REMARK SMILES IDX 69 34 71 35 19 36 74 37 68 38 67 39 20 41 54 42 33 43 53 44
REMARK SMILES IDX 34 45 37 46 52 47 72 48 35 49 36 50 51 52 73 53 38 54 21 55
REMARK SMILES IDX 22 56 31 57 23 58 24 59 30 60 32 61 25 62 26 63 27 64 28 65
REMARK SMILES IDX 29 66 55 67 56 68 65 69 57 70 58 71 64 72 66 73 59 74 60 75
REMARK SMILES IDX 61 76 62 77 63 78 39 79 40 80 49 81 41 82 42 83 48 84 50 85
REMARK SMILES IDX 43 86 44 87 45 88 46 89 47 90
REMARK H PARENT 78 10 71 40 37 51
REMARK Flexibility Score: inf
ROOT
ATOM      1  C   UNL     1       0.323   1.002   3.778  1.00  0.00     0.274 C 
ENDROOT
BRANCH   1   2
ATOM      2  O   UNL     1       0.492   0.308   2.518  1.00  0.00    -0.458 OA
BRANCH   2   3
ATOM      3  C   UNL     1       1.304  -0.789   2.515  1.00  0.00     0.365 C 
ATOM      4  O   UNL     1       1.887  -1.206   3.512  1.00  0.00    -0.245 OA
BRANCH   3   5
ATOM      5  C   UNL     1       1.413  -1.466   1.120  1.00  0.00     0.294 C 
BRANCH   5   6
ATOM      6  C   UNL     1       1.073  -0.593  -0.100  1.00  0.00     0.074 C 
ATOM      7  C   UNL     1       1.909   0.675  -0.208  1.00  0.00     0.011 C 
ENDBRANCH   5   6
BRANCH   5   8
ATOM      8  N   UNL     1       0.761  -2.809   1.038  1.00  0.00    -0.323 N 
ATOM      9  C   UNL     1       1.326  -3.747   2.019  1.00  0.00     0.333 C 
ATOM     10  H   UNL     1       1.010  -3.060   0.081  1.00  0.00     0.348 HD
BRANCH   8  11
ATOM     11  C   UNL     1      -0.716  -2.933   0.963  1.00  0.00     0.186 C 
ATOM     12  C   UNL     1      -1.495  -1.860   1.714  1.00  0.00     0.075 C 
BRANCH  11  13
ATOM     13  C   UNL     1      -1.329  -2.975  -0.454  1.00  0.00     0.111 C 
BRANCH  13  14
ATOM     14  C   UNL     1      -0.782  -3.996  -1.397  1.00  0.00     0.010 A 
ATOM     15  C   UNL     1      -0.079  -3.760  -2.561  1.00  0.00     0.015 A 
ATOM     16  S   UNL     1      -1.119  -5.660  -1.188  1.00  0.00    -0.149 S 
ATOM     17  C   UNL     1       0.136  -4.947  -3.312  1.00  0.00     0.012 A 
ATOM     18  C   UNL     1      -0.386  -6.055  -2.682  1.00  0.00     0.065 A 
ENDBRANCH  13  14
ENDBRANCH  11  13
ENDBRANCH   8  11
ENDBRANCH   5   8
ENDBRANCH   3   5
ENDBRANCH   2   3
ENDBRANCH   1   2
BRANCH   1  19
ATOM     19  C   UNL     1      -1.140   0.945   4.229  1.00  0.00     0.275 C 
BRANCH  19  20
ATOM     20  O   UNL     1      -1.444  -0.389   4.670  1.00  0.00    -0.458 OA
BRANCH  20  21
ATOM     21  C   UNL     1      -2.763  -0.692   4.770  1.00  0.00     0.338 C 
ATOM     22  O   UNL     1      -3.680   0.119   4.745  1.00  0.00    -0.246 OA
BRANCH  21  23
ATOM     23  C   UNL     1      -2.953  -2.174   4.743  1.00  0.00     0.060 A 
ATOM     24  C   UNL     1      -1.863  -3.043   4.631  1.00  0.00     0.016 A 
ATOM     25  C   UNL     1      -4.245  -2.703   4.651  1.00  0.00     0.016 A 
ATOM     26  C   UNL     1      -2.062  -4.383   4.293  1.00  0.00     0.010 A 
ATOM     27  C   UNL     1      -4.435  -4.082   4.456  1.00  0.00     0.010 A 
ATOM     28  C   UNL     1      -3.345  -4.947   4.261  1.00  0.00    -0.014 A 
BRANCH  28  29
ATOM     29  C   UNL     1      -3.545  -6.423   4.088  1.00  0.00     0.031 A 
ATOM     30  C   UNL     1      -4.560  -6.968   3.109  1.00  0.00     0.074 A 
ATOM     31  C   UNL     1      -2.856  -7.301   4.851  1.00  0.00     0.049 A 
ATOM     32  N   UNL     1      -5.126  -8.149   3.075  1.00  0.00    -0.248 NA
ATOM     33  C   UNL     1      -5.007  -6.063   2.039  1.00  0.00     0.031 C 
ATOM     34  C   UNL     1      -1.796  -6.962   5.804  1.00  0.00     0.029 A 
ATOM     35  N   UNL     1      -2.957  -8.670   4.960  1.00  0.00    -0.354 N 
ATOM     36  C   UNL     1      -6.049  -8.107   2.034  1.00  0.00     0.074 A 
ATOM     37  C   UNL     1      -5.949  -6.787   1.445  1.00  0.00     0.031 C 
ATOM     38  C   UNL     1      -1.322  -8.081   6.366  1.00  0.00     0.029 A 
ATOM     39  C   UNL     1      -2.139  -9.203   5.931  1.00  0.00     0.049 A 
ATOM     40  H   UNL     1      -3.555  -9.214   4.398  1.00  0.00     0.167 HD
ATOM     41  C   UNL     1      -6.907  -9.076   1.623  1.00  0.00     0.037 A 
ATOM     42  C   UNL     1      -2.097 -10.426   6.493  1.00  0.00     0.037 A 
ATOM     43  C   UNL     1      -6.946 -10.412   2.171  1.00  0.00     0.049 A 
ATOM     44  C   UNL     1      -3.086 -11.467   6.065  1.00  0.00     0.074 A 
ATOM     45  C   UNL     1      -7.774 -11.465   1.815  1.00  0.00     0.029 A 
ATOM     46  N   UNL     1      -6.112 -10.887   3.171  1.00  0.00    -0.354 N 
ATOM     47  N   UNL     1      -4.032 -11.380   5.163  1.00  0.00    -0.248 NA
ATOM     48  C   UNL     1      -3.021 -12.763   6.753  1.00  0.00     0.031 C 
ATOM     49  C   UNL     1      -7.463 -12.565   2.623  1.00  0.00     0.029 A 
ATOM     50  C   UNL     1      -6.410 -12.213   3.451  1.00  0.00     0.049 A 
ATOM     51  H   UNL     1      -5.409 -10.361   3.618  1.00  0.00     0.167 HD
ATOM     52  C   UNL     1      -4.671 -12.613   5.168  1.00  0.00     0.074 A 
ATOM     53  C   UNL     1      -3.992 -13.434   6.150  1.00  0.00     0.031 C 
ATOM     54  C   UNL     1      -5.729 -13.024   4.427  1.00  0.00     0.037 A 
BRANCH  41  55
ATOM     55  C   UNL     1      -7.916  -8.730   0.558  1.00  0.00     0.058 A 
ATOM     56  C   UNL     1      -7.566  -8.574  -0.791  1.00  0.00     0.135 A 
ATOM     57  C   UNL     1      -9.279  -8.627   0.892  1.00  0.00     0.135 A 
ATOM     58  F   UNL     1      -6.281  -8.654  -1.169  1.00  0.00    -0.206 F 
ATOM     59  C   UNL     1      -8.525  -8.307  -1.767  1.00  0.00     0.059 A 
ATOM     60  C   UNL     1     -10.257  -8.388  -0.069  1.00  0.00     0.059 A 
ATOM     61  F   UNL     1      -9.675  -8.775   2.167  1.00  0.00    -0.206 F 
ATOM     62  C   UNL     1      -9.869  -8.216  -1.396  1.00  0.00     0.060 A 
BRANCH  62  63
ATOM     63  S   UNL     1     -11.102  -7.879  -2.672  1.00  0.00     0.124 S 
ATOM     64  O   UNL     1     -10.862  -6.465  -2.943  1.00  0.00    -0.237 OA
ATOM     65  O   UNL     1     -10.716  -8.801  -3.735  1.00  0.00    -0.237 OA
ATOM     66  O   UNL     1     -12.368  -8.184  -2.012  1.00  0.00    -0.744 OA
ENDBRANCH  62  63
ENDBRANCH  41  55
BRANCH  42  67
ATOM     67  C   UNL     1      -1.131 -10.693   7.592  1.00  0.00     0.058 A 
ATOM     68  C   UNL     1      -0.035 -11.545   7.400  1.00  0.00     0.135 A 
ATOM     69  C   UNL     1      -1.260 -10.063   8.842  1.00  0.00     0.135 A 
ATOM     70  F   UNL     1       0.122 -12.180   6.229  1.00  0.00    -0.206 F 
ATOM     71  C   UNL     1       0.901 -11.762   8.405  1.00  0.00     0.059 A 
ATOM     72  C   UNL     1      -0.319 -10.238   9.850  1.00  0.00     0.059 A 
ATOM     73  F   UNL     1      -2.285  -9.226   9.072  1.00  0.00    -0.206 F 
ATOM     74  C   UNL     1       0.755 -11.096   9.624  1.00  0.00     0.060 A 
BRANCH  74  75
ATOM     75  S   UNL     1       2.017 -11.321  10.895  1.00  0.00     0.124 S 
ATOM     76  O   UNL     1       1.679 -12.642  11.412  1.00  0.00    -0.237 OA
ATOM     77  O   UNL     1       3.252 -11.232  10.124  1.00  0.00    -0.237 OA
ATOM     78  O   UNL     1       1.776 -10.205  11.806  1.00  0.00    -0.744 OA
ENDBRANCH  74  75
ENDBRANCH  42  67
BRANCH  54  79
ATOM     79  C   UNL     1      -6.189 -14.441   4.622  1.00  0.00     0.058 A 
ATOM     80  C   UNL     1      -6.900 -14.835   5.766  1.00  0.00     0.135 A 
ATOM     81  C   UNL     1      -5.928 -15.412   3.643  1.00  0.00     0.135 A 
ATOM     82  F   UNL     1      -7.163 -13.947   6.738  1.00  0.00    -0.206 F 
ATOM     83  C   UNL     1      -7.315 -16.151   5.945  1.00  0.00     0.059 A 
ATOM     84  C   UNL     1      -6.355 -16.728   3.789  1.00  0.00     0.059 A 
ATOM     85  F   UNL     1      -5.256 -15.085   2.528  1.00  0.00    -0.206 F 
ATOM     86  C   UNL     1      -7.036 -17.091   4.951  1.00  0.00     0.060 A 
BRANCH  86  87
ATOM     87  S   UNL     1      -7.595 -18.792   5.184  1.00  0.00     0.124 S 
ATOM     88  O   UNL     1      -6.640 -19.282   6.172  1.00  0.00    -0.237 OA
ATOM     89  O   UNL     1      -8.963 -18.610   5.660  1.00  0.00    -0.237 OA
ATOM     90  O   UNL     1      -7.475 -19.375   3.851  1.00  0.00    -0.744 OA
ENDBRANCH  86  87
ENDBRANCH  54  79
ENDBRANCH  28  29
ENDBRANCH  21  23
ENDBRANCH  20  21
ENDBRANCH  19  20
ENDBRANCH   1  19
TORSDOF 19
