REMARK SMILES CCOc1cc(/C=C/C(=O)OCCOC(=O)c2ccc(-c3c4nc(c(-c5c(F)cc(S(=O)(=O)[O-])cc5F)c5ccc([nH]5)c(-c5c(F)cc(S(=O)(=O)[O-])cc5F)c5nc(c(-c6c(F)cc(S(=O)(=O)[O-])cc6F)c6ccc3[nH]6)C=C5)C=C4)cc2)c(Br)cc1OCC#N
REMARK SMILES IDX 12 1 11 2 9 3 10 4 8 5 7 6 6 7 4 8 5 9 86 10 85 11 83 12
REMARK SMILES IDX 84 13 3 14 2 15 1 16 87 17 88 18 89 19 90 20 13 21 14 22
REMARK SMILES IDX 15 23 16 24 17 25 18 26 82 27 19 28 81 29 20 30 21 31 22 32
REMARK SMILES IDX 75 33 23 34 80 35 74 36 76 37 24 38 79 39 73 40 72 41 25 43
REMARK SMILES IDX 59 44 38 45 58 46 39 47 42 48 57 49 77 50 40 51 41 52 56 54
REMARK SMILES IDX 78 55 43 56 26 57 27 58 36 59 28 60 29 61 35 62 37 63 30 64
REMARK SMILES IDX 31 65 32 66 33 67 34 68 60 69 61 70 70 71 62 72 63 73 69 74
REMARK SMILES IDX 71 75 64 76 65 77 66 78 67 79 68 80 44 81 45 82 54 83 46 84
REMARK SMILES IDX 47 85 53 86 55 87 48 88 49 89 50 90 51 91 52 92
REMARK H PARENT 76 42 42 53
REMARK Flexibility Score: inf
ROOT
ATOM      1  C   UNL     1       8.002   2.865  -1.622  1.00  0.00     0.275 C 
ENDROOT
BRANCH   1   2
ATOM      2  O   UNL     1       7.288   2.162  -0.588  1.00  0.00    -0.459 OA
BRANCH   2   3
ATOM      3  C   UNL     1       6.119   2.722  -0.198  1.00  0.00     0.330 C 
ATOM      4  O   UNL     1       5.675   3.797  -0.575  1.00  0.00    -0.247 OA
BRANCH   3   5
ATOM      5  C   UNL     1       5.346   1.860   0.720  1.00  0.00     0.094 C 
ATOM      6  C   UNL     1       5.681   0.621   1.115  1.00  0.00     0.017 C 
BRANCH   6   7
ATOM      7  C   UNL     1       4.769  -0.218   1.920  1.00  0.00    -0.007 A 
ATOM      8  C   UNL     1       2.499  -1.121   2.207  1.00  0.00     0.161 A 
ATOM      9  C   UNL     1       3.433  -0.347   1.502  1.00  0.00     0.059 A 
ATOM     10  C   UNL     1       2.877  -1.744   3.401  1.00  0.00     0.163 A 
ATOM     11  C   UNL     1       4.223  -1.670   3.794  1.00  0.00     0.066 A 
ATOM     12  C   UNL     1       5.161  -0.925   3.062  1.00  0.00     0.029 A 
ATOM     13  Br  UNL     1       6.944  -0.878   3.720  1.00  0.00    -0.050 Br
BRANCH   8  14
ATOM     14  O   UNL     1       1.194  -1.136   1.809  1.00  0.00    -0.490 OA
BRANCH  14  15
ATOM     15  C   UNL     1       0.919  -1.581   0.480  1.00  0.00     0.226 C 
ATOM     16  C   UNL     1       0.726  -0.415  -0.469  1.00  0.00     0.049 C 
ENDBRANCH  14  15
ENDBRANCH   8  14
BRANCH  10  17
ATOM     17  O   UNL     1       2.094  -2.434   4.293  1.00  0.00    -0.475 OA
BRANCH  17  18
ATOM     18  C   UNL     1       0.658  -2.444   4.165  1.00  0.00     0.349 C 
BRANCH  18  19
ATOM     19  C   UNL     1       0.049  -1.052   4.204  1.00  0.00     0.104 C 
ATOM     20  N   UNL     1      -0.457   0.103   4.236  1.00  0.00    -0.195 NA
ENDBRANCH  18  19
ENDBRANCH  17  18
ENDBRANCH  10  17
ENDBRANCH   6   7
ENDBRANCH   3   5
ENDBRANCH   2   3
ENDBRANCH   1   2
BRANCH   1  21
ATOM     21  C   UNL     1       7.847   2.170  -2.978  1.00  0.00     0.275 C 
BRANCH  21  22
ATOM     22  O   UNL     1       6.508   2.281  -3.497  1.00  0.00    -0.458 OA
BRANCH  22  23
ATOM     23  C   UNL     1       5.671   1.278  -3.143  1.00  0.00     0.338 C 
ATOM     24  O   UNL     1       5.935   0.307  -2.454  1.00  0.00    -0.246 OA
BRANCH  23  25
ATOM     25  C   UNL     1       4.308   1.563  -3.625  1.00  0.00     0.060 A 
ATOM     26  C   UNL     1       3.276   1.573  -2.685  1.00  0.00     0.016 A 
ATOM     27  C   UNL     1       4.028   1.730  -4.984  1.00  0.00     0.016 A 
ATOM     28  C   UNL     1       1.956   1.725  -3.104  1.00  0.00     0.010 A 
ATOM     29  C   UNL     1       2.698   1.885  -5.400  1.00  0.00     0.010 A 
ATOM     30  C   UNL     1       1.650   1.862  -4.465  1.00  0.00    -0.014 A 
BRANCH  30  31
ATOM     31  C   UNL     1       0.229   1.951  -4.891  1.00  0.00     0.031 A 
ATOM     32  C   UNL     1      -0.428   0.794  -5.594  1.00  0.00     0.074 A 
ATOM     33  C   UNL     1      -0.485   3.057  -4.608  1.00  0.00     0.049 A 
ATOM     34  N   UNL     1      -1.643   0.701  -6.074  1.00  0.00    -0.248 NA
ATOM     35  C   UNL     1       0.386  -0.416  -5.782  1.00  0.00     0.031 C 
ATOM     36  C   UNL     1       0.028   4.232  -3.902  1.00  0.00     0.029 A 
ATOM     37  N   UNL     1      -1.792   3.375  -4.881  1.00  0.00    -0.354 N 
ATOM     38  C   UNL     1      -1.739  -0.570  -6.628  1.00  0.00     0.074 A 
ATOM     39  C   UNL     1      -0.450  -1.205  -6.446  1.00  0.00     0.031 C 
ATOM     40  C   UNL     1      -0.953   5.143  -3.798  1.00  0.00     0.029 A 
ATOM     41  C   UNL     1      -2.149   4.636  -4.465  1.00  0.00     0.049 A 
ATOM     42  H   UNL     1      -2.414   2.759  -5.331  1.00  0.00     0.167 HD
ATOM     43  C   UNL     1      -2.804  -1.157  -7.226  1.00  0.00     0.037 A 
ATOM     44  C   UNL     1      -3.299   5.318  -4.626  1.00  0.00     0.037 A 
ATOM     45  C   UNL     1      -4.087  -0.524  -7.403  1.00  0.00     0.049 A 
ATOM     46  C   UNL     1      -4.453   4.665  -5.337  1.00  0.00     0.074 A 
ATOM     47  C   UNL     1      -5.226  -1.039  -8.000  1.00  0.00     0.029 A 
ATOM     48  N   UNL     1      -4.403   0.760  -6.985  1.00  0.00    -0.354 N 
ATOM     49  N   UNL     1      -4.524   3.463  -5.859  1.00  0.00    -0.248 NA
ATOM     50  C   UNL     1      -5.681   5.458  -5.481  1.00  0.00     0.031 C 
ATOM     51  C   UNL     1      -6.220  -0.053  -7.974  1.00  0.00     0.029 A 
ATOM     52  C   UNL     1      -5.713   1.060  -7.323  1.00  0.00     0.049 A 
ATOM     53  H   UNL     1      -3.787   1.369  -6.517  1.00  0.00     0.167 HD
ATOM     54  C   UNL     1      -5.809   3.351  -6.379  1.00  0.00     0.074 A 
ATOM     55  C   UNL     1      -6.486   4.600  -6.095  1.00  0.00     0.031 C 
ATOM     56  C   UNL     1      -6.376   2.308  -7.034  1.00  0.00     0.037 A 
BRANCH  43  57
ATOM     57  C   UNL     1      -2.624  -2.554  -7.753  1.00  0.00     0.058 A 
ATOM     58  C   UNL     1      -2.552  -3.661  -6.893  1.00  0.00     0.135 A 
ATOM     59  C   UNL     1      -2.557  -2.793  -9.135  1.00  0.00     0.135 A 
ATOM     60  F   UNL     1      -2.595  -3.488  -5.563  1.00  0.00    -0.206 F 
ATOM     61  C   UNL     1      -2.394  -4.954  -7.384  1.00  0.00     0.059 A 
ATOM     62  C   UNL     1      -2.422  -4.079  -9.649  1.00  0.00     0.059 A 
ATOM     63  F   UNL     1      -2.622  -1.769 -10.002  1.00  0.00    -0.206 F 
ATOM     64  C   UNL     1      -2.327  -5.152  -8.764  1.00  0.00     0.060 A 
BRANCH  64  65
ATOM     65  S   UNL     1      -2.114  -6.834  -9.386  1.00  0.00     0.124 S 
ATOM     66  O   UNL     1      -0.708  -7.080  -9.080  1.00  0.00    -0.237 OA
ATOM     67  O   UNL     1      -3.076  -7.588  -8.588  1.00  0.00    -0.237 OA
ATOM     68  O   UNL     1      -2.437  -6.716 -10.804  1.00  0.00    -0.744 OA
ENDBRANCH  64  65
ENDBRANCH  43  57
BRANCH  44  69
ATOM     69  C   UNL     1      -3.404   6.714  -4.126  1.00  0.00     0.058 A 
ATOM     70  C   UNL     1      -4.206   7.035  -3.023  1.00  0.00     0.135 A 
ATOM     71  C   UNL     1      -2.689   7.754  -4.742  1.00  0.00     0.135 A 
ATOM     72  F   UNL     1      -4.917   6.077  -2.409  1.00  0.00    -0.206 F 
ATOM     73  C   UNL     1      -4.307   8.341  -2.553  1.00  0.00     0.059 A 
ATOM     74  C   UNL     1      -2.754   9.062  -4.275  1.00  0.00     0.059 A 
ATOM     75  F   UNL     1      -1.897   7.495  -5.794  1.00  0.00    -0.206 F 
ATOM     76  C   UNL     1      -3.576   9.348  -3.186  1.00  0.00     0.060 A 
BRANCH  76  77
ATOM     77  S   UNL     1      -3.675  11.033  -2.543  1.00  0.00     0.124 S 
ATOM     78  O   UNL     1      -4.974  11.461  -3.047  1.00  0.00    -0.237 OA
ATOM     79  O   UNL     1      -3.586  10.821  -1.102  1.00  0.00    -0.237 OA
ATOM     80  O   UNL     1      -2.517  11.688  -3.144  1.00  0.00    -0.744 OA
ENDBRANCH  76  77
ENDBRANCH  44  69
BRANCH  56  81
ATOM     81  C   UNL     1      -7.807   2.461  -7.468  1.00  0.00     0.058 A 
ATOM     82  C   UNL     1      -8.161   3.264  -8.563  1.00  0.00     0.135 A 
ATOM     83  C   UNL     1      -8.830   1.761  -6.810  1.00  0.00     0.135 A 
ATOM     84  F   UNL     1      -7.221   3.959  -9.223  1.00  0.00    -0.206 F 
ATOM     85  C   UNL     1      -9.483   3.384  -8.979  1.00  0.00     0.059 A 
ATOM     86  C   UNL     1     -10.157   1.848  -7.222  1.00  0.00     0.059 A 
ATOM     87  F   UNL     1      -8.544   0.972  -5.762  1.00  0.00    -0.206 F 
ATOM     88  C   UNL     1     -10.475   2.671  -8.301  1.00  0.00     0.060 A 
BRANCH  88  89
ATOM     89  S   UNL     1     -12.184   2.807  -8.870  1.00  0.00     0.124 S 
ATOM     90  O   UNL     1     -12.561   4.119  -8.356  1.00  0.00    -0.237 OA
ATOM     91  O   UNL     1     -12.041   2.711 -10.320  1.00  0.00    -0.237 OA
ATOM     92  O   UNL     1     -12.843   1.669  -8.235  1.00  0.00    -0.744 OA
ENDBRANCH  88  89
ENDBRANCH  56  81
ENDBRANCH  30  31
ENDBRANCH  23  25
ENDBRANCH  22  23
ENDBRANCH  21  22
ENDBRANCH   1  21
TORSDOF 20
