REMARK SMILES COCCN(C(=O)N1CC[C@H](C(=O)OCCOC(=O)c2ccc(-c3c4nc(c(-c5c(F)cc(S(=O)(=O)[O-])cc5F)c5ccc([nH]5)c(-c5c(F)cc(S(=O)(=O)[O-])cc5F)c5nc(c(-c6c(F)cc(S(=O)(=O)[O-])cc6F)c6ccc3[nH]6)C=C5)C=C4)cc2)[C@H]1C)[C@@H](C)COC
REMARK SMILES IDX 15 1 14 2 12 3 13 4 11 5 8 6 9 7 86 8 10 9 87 10 6 11 7 12
REMARK SMILES IDX 5 13 4 14 3 15 2 16 1 17 88 18 89 19 90 20 91 21 92 22 16 23
REMARK SMILES IDX 17 24 18 25 19 26 20 27 21 28 85 29 22 30 84 31 23 32 24 33
REMARK SMILES IDX 25 34 78 35 26 36 83 37 77 38 79 39 27 40 82 41 76 42 75 43
REMARK SMILES IDX 28 45 62 46 41 47 61 48 42 49 45 50 60 51 80 52 43 53 44 54
REMARK SMILES IDX 59 56 81 57 46 58 29 59 30 60 39 61 31 62 32 63 38 64 40 65
REMARK SMILES IDX 33 66 34 67 35 68 36 69 37 70 63 71 64 72 73 73 65 74 66 75
REMARK SMILES IDX 72 76 74 77 67 78 68 79 69 80 70 81 71 82 47 83 48 84 57 85
REMARK SMILES IDX 49 86 50 87 56 88 58 89 51 90 52 91 53 92 54 93 55 94
REMARK H PARENT 79 44 45 55
REMARK Flexibility Score: inf
ROOT
ATOM      1  C   UNL     1       2.193  -8.386  -1.769  1.00  0.00     0.274 C 
ENDROOT
BRANCH   1   2
ATOM      2  O   UNL     1       2.517  -7.391  -0.780  1.00  0.00    -0.462 OA
BRANCH   2   3
ATOM      3  C   UNL     1       1.522  -7.068   0.080  1.00  0.00     0.311 C 
ATOM      4  O   UNL     1       0.369  -7.484   0.006  1.00  0.00    -0.252 OA
BRANCH   3   5
ATOM      5  C   UNL     1       1.974  -6.208   1.238  1.00  0.00     0.123 C 
ATOM      6  N   UNL     1       2.025  -3.908   0.640  1.00  0.00    -0.321 N 
ATOM      7  C   UNL     1       3.398  -4.422   0.569  1.00  0.00     0.122 C 
ATOM      8  C   UNL     1       1.156  -4.911   1.286  1.00  0.00     0.098 C 
ATOM      9  C   UNL     1       3.419  -5.747   1.296  1.00  0.00     0.039 C 
ATOM     10  C   UNL     1       0.850  -4.608   2.760  1.00  0.00     0.032 C 
BRANCH   6  11
ATOM     11  C   UNL     1       1.606  -3.229  -0.499  1.00  0.00     0.320 C 
ATOM     12  O   UNL     1       2.071  -3.525  -1.601  1.00  0.00    -0.248 OA
BRANCH  11  13
ATOM     13  N   UNL     1       0.765  -2.133  -0.334  1.00  0.00    -0.317 N 
BRANCH  13  14
ATOM     14  C   UNL     1       0.112  -1.760   0.929  1.00  0.00     0.150 C 
BRANCH  14  15
ATOM     15  C   UNL     1       1.030  -1.152   1.998  1.00  0.00     0.181 C 
BRANCH  15  16
ATOM     16  O   UNL     1       0.433  -0.016   2.639  1.00  0.00    -0.383 OA
ATOM     17  C   UNL     1       0.521   1.176   1.874  1.00  0.00     0.194 C 
ENDBRANCH  15  16
ENDBRANCH  14  15
ENDBRANCH  13  14
BRANCH  13  18
ATOM     18  C   UNL     1       0.572  -1.272  -1.534  1.00  0.00     0.109 C 
ATOM     19  C   UNL     1      -0.895  -0.873  -1.748  1.00  0.00     0.033 C 
BRANCH  18  20
ATOM     20  C   UNL     1       1.470  -0.009  -1.557  1.00  0.00     0.184 C 
BRANCH  20  21
ATOM     21  O   UNL     1       2.856  -0.249  -1.809  1.00  0.00    -0.383 OA
ATOM     22  C   UNL     1       3.640  -0.442  -0.643  1.00  0.00     0.194 C 
ENDBRANCH  20  21
ENDBRANCH  18  20
ENDBRANCH  13  18
ENDBRANCH  11  13
ENDBRANCH   6  11
ENDBRANCH   3   5
ENDBRANCH   2   3
ENDBRANCH   1   2
BRANCH   1  23
ATOM     23  C   UNL     1       2.845  -9.725  -1.419  1.00  0.00     0.275 C 
BRANCH  23  24
ATOM     24  O   UNL     1       2.352 -10.244  -0.168  1.00  0.00    -0.458 OA
BRANCH  24  25
ATOM     25  C   UNL     1       3.120  -9.956   0.907  1.00  0.00     0.338 C 
ATOM     26  O   UNL     1       4.156  -9.314   0.930  1.00  0.00    -0.246 OA
BRANCH  25  27
ATOM     27  C   UNL     1       2.495 -10.479   2.128  1.00  0.00     0.060 A 
ATOM     28  C   UNL     1       1.653  -9.643   2.860  1.00  0.00     0.016 A 
ATOM     29  C   UNL     1       2.866 -11.724   2.631  1.00  0.00     0.016 A 
ATOM     30  C   UNL     1       1.243 -10.007   4.138  1.00  0.00     0.010 A 
ATOM     31  C   UNL     1       2.388 -12.123   3.883  1.00  0.00     0.010 A 
ATOM     32  C   UNL     1       1.598 -11.255   4.660  1.00  0.00    -0.014 A 
BRANCH  32  33
ATOM     33  C   UNL     1       1.165 -11.652   6.023  1.00  0.00     0.031 A 
ATOM     34  C   UNL     1       2.193 -11.907   7.090  1.00  0.00     0.074 A 
ATOM     35  C   UNL     1      -0.147 -11.789   6.301  1.00  0.00     0.049 A 
ATOM     36  N   UNL     1       2.046 -12.465   8.263  1.00  0.00    -0.248 NA
ATOM     37  C   UNL     1       3.572 -11.484   6.794  1.00  0.00     0.031 C 
ATOM     38  C   UNL     1      -1.245 -11.507   5.373  1.00  0.00     0.029 A 
ATOM     39  N   UNL     1      -0.780 -12.209   7.443  1.00  0.00    -0.354 N 
ATOM     40  C   UNL     1       3.316 -12.505   8.826  1.00  0.00     0.074 A 
ATOM     41  C   UNL     1       4.223 -11.911   7.867  1.00  0.00     0.031 C 
ATOM     42  C   UNL     1      -2.413 -11.754   5.984  1.00  0.00     0.029 A 
ATOM     43  C   UNL     1      -2.147 -12.287   7.315  1.00  0.00     0.049 A 
ATOM     44  H   UNL     1      -0.302 -12.434   8.274  1.00  0.00     0.167 HD
ATOM     45  C   UNL     1       3.687 -13.001  10.031  1.00  0.00     0.037 A 
ATOM     46  C   UNL     1      -3.078 -12.782   8.153  1.00  0.00     0.037 A 
ATOM     47  C   UNL     1       2.767 -13.559  10.987  1.00  0.00     0.049 A 
ATOM     48  C   UNL     1      -2.639 -13.370   9.464  1.00  0.00     0.074 A 
ATOM     49  C   UNL     1       3.039 -14.108  12.228  1.00  0.00     0.029 A 
ATOM     50  N   UNL     1       1.392 -13.625  10.814  1.00  0.00    -0.354 N 
ATOM     51  N   UNL     1      -1.427 -13.470   9.955  1.00  0.00    -0.248 NA
ATOM     52  C   UNL     1      -3.688 -13.930  10.327  1.00  0.00     0.031 C 
ATOM     53  C   UNL     1       1.830 -14.526  12.796  1.00  0.00     0.029 A 
ATOM     54  C   UNL     1       0.802 -14.205  11.923  1.00  0.00     0.049 A 
ATOM     55  H   UNL     1       0.907 -13.306  10.019  1.00  0.00     0.167 HD
ATOM     56  C   UNL     1      -1.568 -14.085  11.193  1.00  0.00     0.074 A 
ATOM     57  C   UNL     1      -2.984 -14.330  11.378  1.00  0.00     0.031 C 
ATOM     58  C   UNL     1      -0.613 -14.418  12.093  1.00  0.00     0.037 A 
BRANCH  45  59
ATOM     59  C   UNL     1       5.151 -12.994  10.368  1.00  0.00     0.058 A 
ATOM     60  C   UNL     1       5.822 -11.817  10.732  1.00  0.00     0.135 A 
ATOM     61  C   UNL     1       5.886 -14.191  10.357  1.00  0.00     0.135 A 
ATOM     62  F   UNL     1       5.171 -10.643  10.740  1.00  0.00    -0.206 F 
ATOM     63  C   UNL     1       7.177 -11.823  11.053  1.00  0.00     0.059 A 
ATOM     64  C   UNL     1       7.235 -14.224  10.695  1.00  0.00     0.059 A 
ATOM     65  F   UNL     1       5.292 -15.345  10.015  1.00  0.00    -0.206 F 
ATOM     66  C   UNL     1       7.876 -13.031  11.027  1.00  0.00     0.060 A 
BRANCH  66  67
ATOM     67  S   UNL     1       9.633 -13.027  11.444  1.00  0.00     0.124 S 
ATOM     68  O   UNL     1      10.218 -12.477  10.226  1.00  0.00    -0.237 OA
ATOM     69  O   UNL     1       9.677 -12.158  12.616  1.00  0.00    -0.237 OA
ATOM     70  O   UNL     1       9.924 -14.434  11.701  1.00  0.00    -0.744 OA
ENDBRANCH  66  67
ENDBRANCH  45  59
BRANCH  46  71
ATOM     71  C   UNL     1      -4.509 -12.779   7.753  1.00  0.00     0.058 A 
ATOM     72  C   UNL     1      -5.429 -11.923   8.373  1.00  0.00     0.135 A 
ATOM     73  C   UNL     1      -4.979 -13.614   6.727  1.00  0.00     0.135 A 
ATOM     74  F   UNL     1      -5.029 -11.113   9.365  1.00  0.00    -0.206 F 
ATOM     75  C   UNL     1      -6.768 -11.899   7.997  1.00  0.00     0.059 A 
ATOM     76  C   UNL     1      -6.307 -13.591   6.316  1.00  0.00     0.059 A 
ATOM     77  F   UNL     1      -4.133 -14.442   6.093  1.00  0.00    -0.206 F 
ATOM     78  C   UNL     1      -7.197 -12.736   6.965  1.00  0.00     0.060 A 
BRANCH  78  79
ATOM     79  S   UNL     1      -8.924 -12.661   6.441  1.00  0.00     0.124 S 
ATOM     80  O   UNL     1      -9.581 -13.432   7.490  1.00  0.00    -0.237 OA
ATOM     81  O   UNL     1      -9.187 -11.225   6.445  1.00  0.00    -0.237 OA
ATOM     82  O   UNL     1      -8.899 -13.281   5.120  1.00  0.00    -0.744 OA
ENDBRANCH  78  79
ENDBRANCH  46  71
BRANCH  58  83
ATOM     83  C   UNL     1      -1.067 -15.038  13.382  1.00  0.00     0.058 A 
ATOM     84  C   UNL     1      -1.431 -16.390  13.457  1.00  0.00     0.135 A 
ATOM     85  C   UNL     1      -1.068 -14.285  14.566  1.00  0.00     0.135 A 
ATOM     86  F   UNL     1      -1.453 -17.148  12.350  1.00  0.00    -0.206 F 
ATOM     87  C   UNL     1      -1.787 -16.976  14.668  1.00  0.00     0.059 A 
ATOM     88  C   UNL     1      -1.403 -14.854  15.789  1.00  0.00     0.059 A 
ATOM     89  F   UNL     1      -0.721 -12.988  14.542  1.00  0.00    -0.206 F 
ATOM     90  C   UNL     1      -1.766 -16.200  15.829  1.00  0.00     0.060 A 
BRANCH  90  91
ATOM     91  S   UNL     1      -2.174 -16.983  17.404  1.00  0.00     0.124 S 
ATOM     92  O   UNL     1      -3.628 -17.058  17.327  1.00  0.00    -0.237 OA
ATOM     93  O   UNL     1      -1.467 -18.257  17.314  1.00  0.00    -0.237 OA
ATOM     94  O   UNL     1      -1.643 -16.049  18.393  1.00  0.00    -0.744 OA
ENDBRANCH  90  91
ENDBRANCH  58  83
ENDBRANCH  32  33
ENDBRANCH  25  27
ENDBRANCH  24  25
ENDBRANCH  23  24
ENDBRANCH   1  23
TORSDOF 22
