REMARK SMILES O=C(OCCOC(=O)[C@H]1CN(C(=O)C[C@H]2NC(=O)c3ccccc32)C[C@@H]1c1ccc(F)cc1)c1ccc(-c2c3nc(c(-c4c(F)cc(S(=O)(=O)[O-])cc4F)c4ccc([nH]4)c(-c4c(F)cc(S(=O)(=O)[O-])cc4F)c4nc(c(-c5c(F)cc(S(=O)(=O)[O-])cc5F)c5ccc2[nH]5)C=C4)C=C3)cc1
REMARK SMILES IDX 4 1 3 2 2 3 1 4 34 5 35 6 99 7 36 8 98 9 37 10 38 11 39 12
REMARK SMILES IDX 92 13 40 14 97 15 91 16 93 17 41 18 96 19 90 20 89 21 42 23
REMARK SMILES IDX 76 24 55 25 75 26 56 27 59 28 74 29 94 30 57 31 58 32 73 34
REMARK SMILES IDX 95 35 60 36 43 37 44 38 53 39 45 40 46 41 52 42 54 43 47 44
REMARK SMILES IDX 48 45 49 46 50 47 51 48 77 49 78 50 87 51 79 52 80 53 86 54
REMARK SMILES IDX 88 55 81 56 82 57 83 58 84 59 85 60 61 61 62 62 71 63 63 64
REMARK SMILES IDX 64 65 70 66 72 67 65 68 66 69 67 70 68 71 69 72 5 73 6 74
REMARK SMILES IDX 7 75 8 76 9 77 10 78 26 79 11 80 25 81 27 82 28 83 33 84
REMARK SMILES IDX 29 85 32 86 30 87 31 88 12 89 13 90 14 91 15 92 16 93 24 94
REMARK SMILES IDX 17 95 19 97 23 98 18 99 20 100 22 101 21 102
REMARK H PARENT 93 22 59 33 16 96
REMARK Flexibility Score: inf
ROOT
ATOM      1  C   UNL     1       6.879  -2.977   2.196  1.00  0.00     0.275 C 
ENDROOT
BRANCH   1   2
ATOM      2  O   UNL     1       5.493  -2.627   2.125  1.00  0.00    -0.458 OA
BRANCH   2   3
ATOM      3  C   UNL     1       4.918  -1.499   1.651  1.00  0.00     0.338 C 
ATOM      4  O   UNL     1       3.700  -1.377   1.778  1.00  0.00    -0.246 OA
BRANCH   3   5
ATOM      5  C   UNL     1       5.645  -0.458   0.843  1.00  0.00     0.060 A 
ATOM      6  C   UNL     1       7.024  -0.362   0.619  1.00  0.00     0.016 A 
ATOM      7  C   UNL     1       4.823   0.410   0.114  1.00  0.00     0.016 A 
ATOM      8  C   UNL     1       7.554   0.392  -0.436  1.00  0.00     0.010 A 
ATOM      9  C   UNL     1       5.347   1.143  -0.954  1.00  0.00     0.010 A 
ATOM     10  C   UNL     1       6.715   1.105  -1.278  1.00  0.00    -0.014 A 
BRANCH  10  11
ATOM     11  C   UNL     1       7.259   1.954  -2.372  1.00  0.00     0.031 A 
ATOM     12  C   UNL     1       6.930   3.417  -2.298  1.00  0.00     0.074 A 
ATOM     13  C   UNL     1       7.998   1.473  -3.398  1.00  0.00     0.049 A 
ATOM     14  N   UNL     1       7.107   4.357  -3.184  1.00  0.00    -0.248 NA
ATOM     15  C   UNL     1       6.253   3.874  -1.068  1.00  0.00     0.031 C 
ATOM     16  C   UNL     1       8.407   0.078  -3.593  1.00  0.00     0.029 A 
ATOM     17  N   UNL     1       8.524   2.111  -4.500  1.00  0.00    -0.354 N 
ATOM     18  C   UNL     1       6.547   5.489  -2.613  1.00  0.00     0.074 A 
ATOM     19  C   UNL     1       5.863   5.086  -1.411  1.00  0.00     0.031 C 
ATOM     20  C   UNL     1       9.081  -0.037  -4.754  1.00  0.00     0.029 A 
ATOM     21  C   UNL     1       9.169   1.274  -5.388  1.00  0.00     0.049 A 
ATOM     22  H   UNL     1       8.447   3.082  -4.641  1.00  0.00     0.167 HD
ATOM     23  C   UNL     1       6.699   6.780  -2.973  1.00  0.00     0.037 A 
ATOM     24  C   UNL     1       9.762   1.543  -6.572  1.00  0.00     0.037 A 
ATOM     25  C   UNL     1       7.483   7.191  -4.095  1.00  0.00     0.049 A 
ATOM     26  C   UNL     1       9.844   2.985  -7.018  1.00  0.00     0.074 A 
ATOM     27  C   UNL     1       7.765   8.474  -4.516  1.00  0.00     0.029 A 
ATOM     28  N   UNL     1       8.128   6.319  -4.959  1.00  0.00    -0.354 N 
ATOM     29  N   UNL     1       9.374   4.057  -6.422  1.00  0.00    -0.248 NA
ATOM     30  C   UNL     1      10.565   3.266  -8.269  1.00  0.00     0.031 C 
ATOM     31  C   UNL     1       8.551   8.378  -5.666  1.00  0.00     0.029 A 
ATOM     32  C   UNL     1       8.799   7.037  -5.927  1.00  0.00     0.049 A 
ATOM     33  H   UNL     1       8.110   5.338  -4.891  1.00  0.00     0.167 HD
ATOM     34  C   UNL     1       9.789   5.138  -7.194  1.00  0.00     0.074 A 
ATOM     35  C   UNL     1      10.541   4.592  -8.304  1.00  0.00     0.031 C 
ATOM     36  C   UNL     1       9.576   6.463  -6.997  1.00  0.00     0.037 A 
BRANCH  23  37
ATOM     37  C   UNL     1       6.070   7.808  -2.083  1.00  0.00     0.058 A 
ATOM     38  C   UNL     1       4.967   8.549  -2.521  1.00  0.00     0.135 A 
ATOM     39  C   UNL     1       6.539   8.026  -0.773  1.00  0.00     0.135 A 
ATOM     40  F   UNL     1       4.470   8.362  -3.753  1.00  0.00    -0.206 F 
ATOM     41  C   UNL     1       4.346   9.475  -1.691  1.00  0.00     0.059 A 
ATOM     42  C   UNL     1       5.910   8.918   0.085  1.00  0.00     0.059 A 
ATOM     43  F   UNL     1       7.566   7.306  -0.293  1.00  0.00    -0.206 F 
ATOM     44  C   UNL     1       4.822   9.648  -0.389  1.00  0.00     0.060 A 
BRANCH  44  45
ATOM     45  S   UNL     1       3.973  10.817   0.690  1.00  0.00     0.124 S 
ATOM     46  O   UNL     1       4.325  12.093   0.079  1.00  0.00    -0.237 OA
ATOM     47  O   UNL     1       2.580  10.403   0.552  1.00  0.00    -0.237 OA
ATOM     48  O   UNL     1       4.566  10.560   2.000  1.00  0.00    -0.744 OA
ENDBRANCH  44  45
ENDBRANCH  23  37
BRANCH  24  49
ATOM     49  C   UNL     1      10.384   0.460  -7.394  1.00  0.00     0.058 A 
ATOM     50  C   UNL     1       9.605  -0.478  -8.091  1.00  0.00     0.135 A 
ATOM     51  C   UNL     1      11.778   0.360  -7.528  1.00  0.00     0.135 A 
ATOM     52  F   UNL     1       8.267  -0.436  -8.006  1.00  0.00    -0.206 F 
ATOM     53  C   UNL     1      10.182  -1.473  -8.882  1.00  0.00     0.059 A 
ATOM     54  C   UNL     1      12.379  -0.612  -8.329  1.00  0.00     0.059 A 
ATOM     55  F   UNL     1      12.573   1.239  -6.899  1.00  0.00    -0.206 F 
ATOM     56  C   UNL     1      11.572  -1.531  -8.996  1.00  0.00     0.060 A 
BRANCH  56  57
ATOM     57  S   UNL     1      12.305  -2.825 -10.027  1.00  0.00     0.124 S 
ATOM     58  O   UNL     1      11.931  -4.032  -9.296  1.00  0.00    -0.237 OA
ATOM     59  O   UNL     1      11.630  -2.618 -11.303  1.00  0.00    -0.237 OA
ATOM     60  O   UNL     1      13.728  -2.503 -10.013  1.00  0.00    -0.744 OA
ENDBRANCH  56  57
ENDBRANCH  24  49
BRANCH  36  61
ATOM     61  C   UNL     1      10.198   7.436  -7.956  1.00  0.00     0.058 A 
ATOM     62  C   UNL     1      11.220   8.294  -7.519  1.00  0.00     0.135 A 
ATOM     63  C   UNL     1       9.670   7.635  -9.239  1.00  0.00     0.135 A 
ATOM     64  F   UNL     1      11.748   8.150  -6.292  1.00  0.00    -0.206 F 
ATOM     65  C   UNL     1      11.665   9.349  -8.304  1.00  0.00     0.059 A 
ATOM     66  C   UNL     1      10.124   8.665 -10.056  1.00  0.00     0.059 A 
ATOM     67  F   UNL     1       8.697   6.835  -9.702  1.00  0.00    -0.206 F 
ATOM     68  C   UNL     1      11.102   9.533  -9.567  1.00  0.00     0.060 A 
BRANCH  68  69
ATOM     69  S   UNL     1      11.662  10.935 -10.555  1.00  0.00     0.124 S 
ATOM     70  O   UNL     1      11.130  12.064  -9.800  1.00  0.00    -0.237 OA
ATOM     71  O   UNL     1      13.112  10.774 -10.520  1.00  0.00    -0.237 OA
ATOM     72  O   UNL     1      11.043  10.702 -11.856  1.00  0.00    -0.744 OA
ENDBRANCH  68  69
ENDBRANCH  36  61
ENDBRANCH  10  11
ENDBRANCH   3   5
ENDBRANCH   2   3
ENDBRANCH   1   2
BRANCH   1  73
ATOM     73  C   UNL     1       7.439  -3.634   0.924  1.00  0.00     0.274 C 
BRANCH  73  74
ATOM     74  O   UNL     1       7.085  -2.995  -0.325  1.00  0.00    -0.462 OA
BRANCH  74  75
ATOM     75  C   UNL     1       5.950  -3.461  -0.922  1.00  0.00     0.311 C 
ATOM     76  O   UNL     1       5.224  -4.298  -0.398  1.00  0.00    -0.252 OA
BRANCH  75  77
ATOM     77  C   UNL     1       5.750  -2.898  -2.337  1.00  0.00     0.128 C 
ATOM     78  C   UNL     1       5.083  -4.005  -3.126  1.00  0.00     0.135 C 
ATOM     79  C   UNL     1       4.696  -1.779  -2.475  1.00  0.00     0.055 C 
ATOM     80  N   UNL     1       3.653  -3.855  -2.816  1.00  0.00    -0.341 N 
ATOM     81  C   UNL     1       3.360  -2.513  -2.377  1.00  0.00     0.128 C 
BRANCH  79  82
ATOM     82  C   UNL     1       4.691  -0.841  -3.684  1.00  0.00    -0.042 A 
ATOM     83  C   UNL     1       3.779   0.242  -3.681  1.00  0.00     0.007 A 
ATOM     84  C   UNL     1       5.553  -0.952  -4.782  1.00  0.00     0.007 A 
ATOM     85  C   UNL     1       3.778   1.209  -4.689  1.00  0.00     0.039 A 
ATOM     86  C   UNL     1       5.544   0.014  -5.801  1.00  0.00     0.039 A 
ATOM     87  C   UNL     1       4.671   1.091  -5.738  1.00  0.00     0.123 A 
ATOM     88  F   UNL     1       4.683   2.019  -6.703  1.00  0.00    -0.207 F 
ENDBRANCH  79  82
BRANCH  80  89
ATOM     89  C   UNL     1       2.682  -4.816  -2.680  1.00  0.00     0.225 C 
ATOM     90  O   UNL     1       1.530  -4.555  -2.330  1.00  0.00    -0.275 OA
BRANCH  89  91
ATOM     91  C   UNL     1       3.065  -6.223  -3.015  1.00  0.00     0.130 C 
BRANCH  91  92
ATOM     92  C   UNL     1       2.987  -6.441  -4.524  1.00  0.00     0.123 C 
ATOM     93  N   UNL     1       3.859  -5.568  -5.282  1.00  0.00    -0.345 N 
ATOM     94  C   UNL     1       3.583  -7.779  -4.840  1.00  0.00    -0.012 A 
ATOM     95  C   UNL     1       5.011  -6.182  -5.716  1.00  0.00     0.252 C 
ATOM     96  H   UNL     1       3.647  -4.625  -5.470  1.00  0.00     0.164 HD
ATOM     97  C   UNL     1       4.815  -7.613  -5.479  1.00  0.00     0.045 A 
ATOM     98  C   UNL     1       3.112  -9.042  -4.541  1.00  0.00     0.007 A 
ATOM     99  O   UNL     1       5.992  -5.649  -6.182  1.00  0.00    -0.269 OA
ATOM    100  C   UNL     1       5.628  -8.669  -5.825  1.00  0.00     0.014 A 
ATOM    101  C   UNL     1       3.906 -10.133  -4.904  1.00  0.00     0.000 A 
ATOM    102  C   UNL     1       5.154  -9.949  -5.534  1.00  0.00     0.001 A 
ENDBRANCH  91  92
ENDBRANCH  89  91
ENDBRANCH  80  89
ENDBRANCH  75  77
ENDBRANCH  74  75
ENDBRANCH  73  74
ENDBRANCH   1  73
TORSDOF 18
