REMARK SMILES NS(=O)(=O)c1ccc(C#Cc2cc(Cl)cc3c2O[C@H](C(F)(F)F)C(C(=O)OCCOC(=O)c2ccc(-c4c5nc(c(-c6c(F)cc(S(=O)(=O)[O-])cc6F)c6ccc([nH]6)c(-c6c(F)cc(S(=O)(=O)[O-])cc6F)c6nc(c(-c7c(F)cc(S(=O)(=O)[O-])cc7F)c7ccc4[nH]7)C=C6)C=C5)cc2)=C3)cc1
REMARK SMILES IDX 28 1 27 2 25 3 26 4 24 5 11 6 12 7 17 8 13 9 16 10 18 11
REMARK SMILES IDX 14 12 15 13 99 14 19 15 10 16 9 17 8 18 5 19 6 20 101 21
REMARK SMILES IDX 7 22 100 23 2 24 3 25 4 26 1 27 20 30 21 31 22 32 23 33
REMARK SMILES IDX 29 34 30 35 31 36 32 37 33 38 34 39 98 40 35 41 97 42 36 43
REMARK SMILES IDX 37 44 38 45 91 46 39 47 96 48 90 49 92 50 40 51 95 52 89 53
REMARK SMILES IDX 88 54 41 56 75 57 54 58 74 59 55 60 58 61 73 62 93 63 56 64
REMARK SMILES IDX 57 65 72 67 94 68 59 69 42 70 43 71 52 72 44 73 45 74 51 75
REMARK SMILES IDX 53 76 46 77 47 78 48 79 49 80 50 81 76 82 77 83 86 84 78 85
REMARK SMILES IDX 79 86 85 87 87 88 80 89 81 90 82 91 83 92 84 93 60 94 61 95
REMARK SMILES IDX 70 96 62 97 63 98 69 99 71 100 64 101 65 102 66 103 67 104
REMARK SMILES IDX 68 105
REMARK H PARENT 1 28 1 29 92 55 58 66
REMARK Flexibility Score: inf
ROOT
ATOM      1  C   UNL     1       9.916  -7.956   8.402  1.00  0.00     0.275 C 
ENDROOT
BRANCH   1   2
ATOM      2  O   UNL     1       8.637  -7.770   7.753  1.00  0.00    -0.459 OA
BRANCH   2   3
ATOM      3  C   UNL     1       8.396  -8.576   6.692  1.00  0.00     0.338 C 
ATOM      4  O   UNL     1       9.165  -9.397   6.219  1.00  0.00    -0.246 OA
BRANCH   3   5
ATOM      5  C   UNL     1       7.032  -8.360   6.163  1.00  0.00     0.087 C 
ATOM      6  C   UNL     1       3.320  -7.829   4.295  1.00  0.00     0.069 A 
ATOM      7  C   UNL     1       2.584  -8.953   3.897  1.00  0.00     0.041 A 
ATOM      8  C   UNL     1       4.543  -7.973   4.962  1.00  0.00     0.143 A 
ATOM      9  C   UNL     1       3.056 -10.227   4.186  1.00  0.00     0.043 A 
ATOM     10  C   UNL     1       5.008  -9.258   5.228  1.00  0.00     0.020 A 
ATOM     11  O   UNL     1       5.228  -6.846   5.337  1.00  0.00    -0.474 OA
ATOM     12  Cl  UNL     1       2.157 -11.606   3.693  1.00  0.00    -0.084 Cl
ATOM     13  C   UNL     1       4.262 -10.386   4.857  1.00  0.00     0.032 A 
ATOM     14  C   UNL     1       6.296  -9.433   5.858  1.00  0.00     0.027 C 
ATOM     15  C   UNL     1       6.589  -6.964   5.845  1.00  0.00     0.316 C 
BRANCH   6  16
ATOM     16  C   UNL     1       2.803  -6.542   3.974  1.00  0.00    -0.058 C 
ATOM     17  C   UNL     1       2.365  -5.468   3.667  1.00  0.00    -0.062 C 
BRANCH  17  18
ATOM     18  C   UNL     1       1.869  -4.197   3.263  1.00  0.00     0.025 A 
ATOM     19  C   UNL     1       0.973  -1.726   2.385  1.00  0.00     0.082 A 
ATOM     20  C   UNL     1       2.128  -1.801   3.170  1.00  0.00     0.023 A 
ATOM     21  C   UNL     1       0.243  -2.875   2.064  1.00  0.00     0.023 A 
ATOM     22  C   UNL     1       2.578  -3.044   3.606  1.00  0.00     0.018 A 
ATOM     23  C   UNL     1       0.699  -4.117   2.504  1.00  0.00     0.018 A 
BRANCH  19  24
ATOM     24  S   UNL     1       0.435  -0.156   1.784  1.00  0.00     0.238 S 
ATOM     25  O   UNL     1       1.107   0.895   2.512  1.00  0.00    -0.207 OA
ATOM     26  O   UNL     1      -0.997  -0.179   1.601  1.00  0.00    -0.207 OA
BRANCH  24  27
ATOM     27  N   UNL     1       1.105  -0.147   0.246  1.00  0.00    -0.225 NA
ATOM     28  H   UNL     1       0.865   0.727  -0.224  1.00  0.00     0.137 HD
ATOM     29  H   UNL     1       0.737  -0.933  -0.290  1.00  0.00     0.137 HD
ENDBRANCH  24  27
ENDBRANCH  19  24
ENDBRANCH  17  18
ENDBRANCH   6  16
BRANCH  15  30
ATOM     30  C   UNL     1       7.554  -6.304   4.845  1.00  0.00     0.430 C 
ATOM     31  F   UNL     1       7.157  -5.047   4.530  1.00  0.00    -0.167 F 
ATOM     32  F   UNL     1       8.805  -6.192   5.355  1.00  0.00    -0.167 F 
ATOM     33  F   UNL     1       7.649  -7.001   3.690  1.00  0.00    -0.167 F 
ENDBRANCH  15  30
ENDBRANCH   3   5
ENDBRANCH   2   3
ENDBRANCH   1   2
BRANCH   1  34
ATOM     34  C   UNL     1       9.775  -8.710   9.728  1.00  0.00     0.275 C 
BRANCH  34  35
ATOM     35  O   UNL     1       9.435 -10.091   9.511  1.00  0.00    -0.458 OA
BRANCH  35  36
ATOM     36  C   UNL     1       8.112 -10.362   9.555  1.00  0.00     0.338 C 
ATOM     37  O   UNL     1       7.202  -9.581   9.774  1.00  0.00    -0.246 OA
BRANCH  36  38
ATOM     38  C   UNL     1       7.885 -11.750   9.138  1.00  0.00     0.060 A 
ATOM     39  C   UNL     1       7.710 -12.783  10.047  1.00  0.00     0.016 A 
ATOM     40  C   UNL     1       7.702 -11.980   7.783  1.00  0.00     0.016 A 
ATOM     41  C   UNL     1       7.369 -14.052   9.563  1.00  0.00     0.010 A 
ATOM     42  C   UNL     1       7.181 -13.179   7.326  1.00  0.00     0.010 A 
ATOM     43  C   UNL     1       7.067 -14.259   8.200  1.00  0.00    -0.014 A 
BRANCH  43  44
ATOM     44  C   UNL     1       6.688 -15.595   7.660  1.00  0.00     0.031 A 
ATOM     45  C   UNL     1       7.457 -16.201   6.503  1.00  0.00     0.074 A 
ATOM     46  C   UNL     1       5.633 -16.249   8.184  1.00  0.00     0.049 A 
ATOM     47  N   UNL     1       7.262 -17.342   5.890  1.00  0.00    -0.248 NA
ATOM     48  C   UNL     1       8.561 -15.411   5.930  1.00  0.00     0.031 C 
ATOM     49  C   UNL     1       4.758 -15.736   9.242  1.00  0.00     0.029 A 
ATOM     50  N   UNL     1       5.124 -17.494   7.914  1.00  0.00    -0.354 N 
ATOM     51  C   UNL     1       8.203 -17.391   4.865  1.00  0.00     0.074 A 
ATOM     52  C   UNL     1       8.902 -16.129   4.872  1.00  0.00     0.031 C 
ATOM     53  C   UNL     1       3.877 -16.687   9.586  1.00  0.00     0.029 A 
ATOM     54  C   UNL     1       4.081 -17.854   8.736  1.00  0.00     0.049 A 
ATOM     55  H   UNL     1       5.472 -18.075   7.200  1.00  0.00     0.167 HD
ATOM     56  C   UNL     1       8.501 -18.412   4.027  1.00  0.00     0.037 A 
ATOM     57  C   UNL     1       3.374 -18.999   8.803  1.00  0.00     0.037 A 
ATOM     58  C   UNL     1       7.835 -19.686   4.058  1.00  0.00     0.049 A 
ATOM     59  C   UNL     1       3.725 -20.122   7.867  1.00  0.00     0.074 A 
ATOM     60  C   UNL     1       8.095 -20.812   3.298  1.00  0.00     0.029 A 
ATOM     61  N   UNL     1       6.782 -20.007   4.903  1.00  0.00    -0.354 N 
ATOM     62  N   UNL     1       4.664 -20.171   6.951  1.00  0.00    -0.248 NA
ATOM     63  C   UNL     1       2.922 -21.346   7.973  1.00  0.00     0.031 C 
ATOM     64  C   UNL     1       7.166 -21.796   3.646  1.00  0.00     0.029 A 
ATOM     65  C   UNL     1       6.364 -21.305   4.665  1.00  0.00     0.049 A 
ATOM     66  H   UNL     1       6.389 -19.401   5.572  1.00  0.00     0.167 HD
ATOM     67  C   UNL     1       4.574 -21.436   6.382  1.00  0.00     0.074 A 
ATOM     68  C   UNL     1       3.511 -22.130   7.081  1.00  0.00     0.031 C 
ATOM     69  C   UNL     1       5.296 -21.973   5.367  1.00  0.00     0.037 A 
BRANCH  56  70
ATOM     70  C   UNL     1       9.617 -18.210   3.033  1.00  0.00     0.058 A 
ATOM     71  C   UNL     1      10.955 -18.082   3.445  1.00  0.00     0.135 A 
ATOM     72  C   UNL     1       9.358 -18.195   1.653  1.00  0.00     0.135 A 
ATOM     73  F   UNL     1      11.263 -18.071   4.752  1.00  0.00    -0.206 F 
ATOM     74  C   UNL     1      11.989 -17.923   2.529  1.00  0.00     0.059 A 
ATOM     75  C   UNL     1      10.382 -18.072   0.716  1.00  0.00     0.059 A 
ATOM     76  F   UNL     1       8.100 -18.311   1.199  1.00  0.00    -0.206 F 
ATOM     77  C   UNL     1      11.694 -17.927   1.165  1.00  0.00     0.060 A 
BRANCH  77  78
ATOM     78  S   UNL     1      13.056 -17.749  -0.006  1.00  0.00     0.124 S 
ATOM     79  O   UNL     1      13.482 -16.376   0.245  1.00  0.00    -0.237 OA
ATOM     80  O   UNL     1      13.980 -18.789   0.436  1.00  0.00    -0.237 OA
ATOM     81  O   UNL     1      12.426 -17.982  -1.302  1.00  0.00    -0.744 OA
ENDBRANCH  77  78
ENDBRANCH  56  70
BRANCH  57  82
ATOM     82  C   UNL     1       2.302 -19.149   9.825  1.00  0.00     0.058 A 
ATOM     83  C   UNL     1       2.454 -20.033  10.903  1.00  0.00     0.135 A 
ATOM     84  C   UNL     1       1.122 -18.389   9.766  1.00  0.00     0.135 A 
ATOM     85  F   UNL     1       3.560 -20.786  11.003  1.00  0.00    -0.206 F 
ATOM     86  C   UNL     1       1.474 -20.167  11.881  1.00  0.00     0.059 A 
ATOM     87  C   UNL     1       0.141 -18.483  10.749  1.00  0.00     0.059 A 
ATOM     88  F   UNL     1       0.934 -17.515   8.765  1.00  0.00    -0.206 F 
ATOM     89  C   UNL     1       0.324 -19.380  11.799  1.00  0.00     0.060 A 
BRANCH  89  90
ATOM     90  S   UNL     1      -0.913 -19.523  13.108  1.00  0.00     0.124 S 
ATOM     91  O   UNL     1      -1.421 -20.872  12.888  1.00  0.00    -0.237 OA
ATOM     92  O   UNL     1      -0.105 -19.332  14.309  1.00  0.00    -0.237 OA
ATOM     93  O   UNL     1      -1.846 -18.441  12.809  1.00  0.00    -0.744 OA
ENDBRANCH  89  90
ENDBRANCH  57  82
BRANCH  69  94
ATOM     94  C   UNL     1       4.963 -23.381   4.955  1.00  0.00     0.058 A 
ATOM     95  C   UNL     1       3.759 -23.688   4.303  1.00  0.00     0.135 A 
ATOM     96  C   UNL     1       5.874 -24.426   5.176  1.00  0.00     0.135 A 
ATOM     97  F   UNL     1       2.852 -22.725   4.067  1.00  0.00    -0.206 F 
ATOM     98  C   UNL     1       3.451 -24.988   3.922  1.00  0.00     0.059 A 
ATOM     99  C   UNL     1       5.603 -25.728   4.770  1.00  0.00     0.059 A 
ATOM    100  F   UNL     1       7.049 -24.185   5.780  1.00  0.00    -0.206 F 
ATOM    101  C   UNL     1       4.380 -26.002   4.160  1.00  0.00     0.060 A 
BRANCH 101 102
ATOM    102  S   UNL     1       3.964 -27.684   3.656  1.00  0.00     0.124 S 
ATOM    103  O   UNL     1       2.900 -28.017   4.597  1.00  0.00    -0.237 OA
ATOM    104  O   UNL     1       3.549 -27.498   2.269  1.00  0.00    -0.237 OA
ATOM    105  O   UNL     1       5.214 -28.415   3.839  1.00  0.00    -0.744 OA
ENDBRANCH 101 102
ENDBRANCH  69  94
ENDBRANCH  43  44
ENDBRANCH  36  38
ENDBRANCH  35  36
ENDBRANCH  34  35
ENDBRANCH   1  34
TORSDOF 19
