REMARK SMILES COc1ccc([C@H](C(=O)OCCOCCOC(=O)c2ccc(-c3c4nc(c(-c5c(F)cc(S(=O)(=O)[O-])cc5F)c5ccc([nH]5)c(-c5c(F)cc(S(=O)(=O)[O-])cc5F)c5nc(c(-c6c(F)cc(S(=O)(=O)[O-])cc6F)c6ccc3[nH]6)C=C5)C=C4)cc2)c2ccc(O)nn2)cc1
REMARK SMILES IDX 14 1 13 2 12 3 11 4 10 5 8 6 9 7 7 8 6 9 3 10 4 11 93 12
REMARK SMILES IDX 5 13 92 14 2 15 1 16 85 17 86 18 91 19 87 20 90 21 88 22
REMARK SMILES IDX 89 23 15 25 16 26 17 27 18 28 19 29 20 30 84 31 21 32 83 33
REMARK SMILES IDX 22 34 23 35 24 36 77 37 25 38 82 39 76 40 78 41 26 42 81 43
REMARK SMILES IDX 75 44 74 45 27 47 61 48 40 49 60 50 41 51 44 52 59 53 79 54
REMARK SMILES IDX 42 55 43 56 58 58 80 59 45 60 28 61 29 62 38 63 30 64 31 65
REMARK SMILES IDX 37 66 39 67 32 68 33 69 34 70 35 71 36 72 62 73 63 74 72 75
REMARK SMILES IDX 64 76 65 77 71 78 73 79 66 80 67 81 68 82 69 83 70 84 46 85
REMARK SMILES IDX 47 86 56 87 48 88 49 89 55 90 57 91 50 92 51 93 52 94 53 95
REMARK SMILES IDX 54 96
REMARK H PARENT 89 24 78 46 44 57
REMARK Flexibility Score: inf
ROOT
ATOM      1  C   UNL     1       3.568   2.316   2.442  1.00  0.00     0.202 C 
ENDROOT
BRANCH   1   2
ATOM      2  O   UNL     1       2.768   1.450   1.637  1.00  0.00    -0.374 OA
BRANCH   2   3
ATOM      3  C   UNL     1       1.798   2.048   0.771  1.00  0.00     0.202 C 
BRANCH   3   4
ATOM      4  C   UNL     1       0.619   2.710   1.480  1.00  0.00     0.261 C 
BRANCH   4   5
ATOM      5  O   UNL     1       1.099   3.886   2.145  1.00  0.00    -0.462 OA
BRANCH   5   6
ATOM      6  C   UNL     1       0.415   4.252   3.263  1.00  0.00     0.319 C 
ATOM      7  O   UNL     1      -0.675   3.785   3.571  1.00  0.00    -0.251 OA
BRANCH   6   8
ATOM      8  C   UNL     1       1.227   5.270   4.081  1.00  0.00     0.180 C 
BRANCH   8   9
ATOM      9  C   UNL     1       1.364   6.660   3.451  1.00  0.00    -0.027 A 
ATOM     10  C   UNL     1       1.525   9.263   2.360  1.00  0.00     0.118 A 
ATOM     11  C   UNL     1       1.933   9.025   3.670  1.00  0.00     0.047 A 
ATOM     12  C   UNL     1       1.138   8.193   1.562  1.00  0.00     0.047 A 
ATOM     13  C   UNL     1       1.867   7.735   4.208  1.00  0.00     0.009 A 
ATOM     14  C   UNL     1       1.054   6.908   2.103  1.00  0.00     0.009 A 
BRANCH  10  15
ATOM     15  O   UNL     1       1.556  10.566   1.944  1.00  0.00    -0.497 OA
ATOM     16  C   UNL     1       0.563  10.893   0.970  1.00  0.00     0.278 C 
ENDBRANCH  10  15
ENDBRANCH   8   9
BRANCH   8  17
ATOM     17  C   UNL     1       0.660   5.238   5.493  1.00  0.00     0.082 A 
ATOM     18  C   UNL     1      -0.455   5.990   5.859  1.00  0.00     0.032 A 
ATOM     19  N   UNL     1       1.179   4.296   6.327  1.00  0.00    -0.151 NA
ATOM     20  C   UNL     1      -1.069   5.726   7.073  1.00  0.00     0.072 A 
ATOM     21  N   UNL     1       0.566   4.027   7.511  1.00  0.00    -0.112 NA
ATOM     22  C   UNL     1      -0.538   4.720   7.841  1.00  0.00     0.230 A 
BRANCH  22  23
ATOM     23  O   UNL     1      -1.160   4.321   8.982  1.00  0.00    -0.492 OA
ATOM     24  H   UNL     1      -1.935   4.761   9.271  1.00  0.00     0.295 HD
ENDBRANCH  22  23
ENDBRANCH   8  17
ENDBRANCH   6   8
ENDBRANCH   5   6
ENDBRANCH   4   5
ENDBRANCH   3   4
ENDBRANCH   2   3
ENDBRANCH   1   2
BRANCH   1  25
ATOM     25  C   UNL     1       4.745   3.012   1.747  1.00  0.00     0.261 C 
BRANCH  25  26
ATOM     26  O   UNL     1       4.347   3.878   0.670  1.00  0.00    -0.460 OA
BRANCH  26  27
ATOM     27  C   UNL     1       4.594   3.384  -0.566  1.00  0.00     0.338 C 
ATOM     28  O   UNL     1       5.115   2.307  -0.840  1.00  0.00    -0.246 OA
BRANCH  27  29
ATOM     29  C   UNL     1       4.003   4.252  -1.598  1.00  0.00     0.060 A 
ATOM     30  C   UNL     1       3.125   3.664  -2.517  1.00  0.00     0.016 A 
ATOM     31  C   UNL     1       4.378   5.591  -1.730  1.00  0.00     0.016 A 
ATOM     32  C   UNL     1       2.650   4.402  -3.599  1.00  0.00     0.010 A 
ATOM     33  C   UNL     1       3.908   6.327  -2.824  1.00  0.00     0.010 A 
ATOM     34  C   UNL     1       3.069   5.726  -3.781  1.00  0.00    -0.014 A 
BRANCH  34  35
ATOM     35  C   UNL     1       2.737   6.430  -5.043  1.00  0.00     0.031 A 
ATOM     36  C   UNL     1       3.768   6.497  -6.138  1.00  0.00     0.074 A 
ATOM     37  C   UNL     1       1.520   6.974  -5.224  1.00  0.00     0.049 A 
ATOM     38  N   UNL     1       3.699   7.081  -7.306  1.00  0.00    -0.248 NA
ATOM     39  C   UNL     1       5.046   5.814  -5.880  1.00  0.00     0.031 C 
ATOM     40  C   UNL     1       0.427   6.939  -4.254  1.00  0.00     0.029 A 
ATOM     41  N   UNL     1       1.004   7.669  -6.289  1.00  0.00    -0.354 N 
ATOM     42  C   UNL     1       4.923   6.842  -7.921  1.00  0.00     0.074 A 
ATOM     43  C   UNL     1       5.725   6.083  -6.986  1.00  0.00     0.031 C 
ATOM     44  C   UNL     1      -0.629   7.596  -4.764  1.00  0.00     0.029 A 
ATOM     45  C   UNL     1      -0.277   8.121  -6.082  1.00  0.00     0.049 A 
ATOM     46  H   UNL     1       1.503   7.828  -7.122  1.00  0.00     0.167 HD
ATOM     47  C   UNL     1       5.336   7.214  -9.156  1.00  0.00     0.037 A 
ATOM     48  C   UNL     1      -1.067   8.888  -6.859  1.00  0.00     0.037 A 
ATOM     49  C   UNL     1       4.533   7.967 -10.084  1.00  0.00     0.049 A 
ATOM     50  C   UNL     1      -0.564   9.342  -8.205  1.00  0.00     0.074 A 
ATOM     51  C   UNL     1       4.855   8.377 -11.366  1.00  0.00     0.029 A 
ATOM     52  N   UNL     1       3.251   8.430  -9.828  1.00  0.00    -0.354 N 
ATOM     53  N   UNL     1       0.587   9.092  -8.782  1.00  0.00    -0.248 NA
ATOM     54  C   UNL     1      -1.467  10.181  -9.006  1.00  0.00     0.031 C 
ATOM     55  C   UNL     1       3.785   9.126 -11.868  1.00  0.00     0.029 A 
ATOM     56  C   UNL     1       2.777   9.141 -10.918  1.00  0.00     0.049 A 
ATOM     57  H   UNL     1       2.751   8.275  -8.994  1.00  0.00     0.167 HD
ATOM     58  C   UNL     1       0.536   9.719 -10.023  1.00  0.00     0.074 A 
ATOM     59  C   UNL     1      -0.762  10.354 -10.116  1.00  0.00     0.031 C 
ATOM     60  C   UNL     1       1.478   9.763 -10.998  1.00  0.00     0.037 A 
BRANCH  47  61
ATOM     61  C   UNL     1       6.731   6.832  -9.568  1.00  0.00     0.058 A 
ATOM     62  C   UNL     1       7.071   5.508  -9.884  1.00  0.00     0.135 A 
ATOM     63  C   UNL     1       7.733   7.810  -9.677  1.00  0.00     0.135 A 
ATOM     64  F   UNL     1       6.155   4.531  -9.780  1.00  0.00    -0.206 F 
ATOM     65  C   UNL     1       8.362   5.161 -10.271  1.00  0.00     0.059 A 
ATOM     66  C   UNL     1       9.024   7.490 -10.086  1.00  0.00     0.059 A 
ATOM     67  F   UNL     1       7.461   9.091  -9.384  1.00  0.00    -0.206 F 
ATOM     68  C   UNL     1       9.332   6.160 -10.367  1.00  0.00     0.060 A 
BRANCH  68  69
ATOM     69  S   UNL     1      11.003   5.697 -10.873  1.00  0.00     0.124 S 
ATOM     70  O   UNL     1      11.497   5.035  -9.669  1.00  0.00    -0.237 OA
ATOM     71  O   UNL     1      10.753   4.827 -12.017  1.00  0.00    -0.237 OA
ATOM     72  O   UNL     1      11.630   6.976 -11.187  1.00  0.00    -0.744 OA
ENDBRANCH  68  69
ENDBRANCH  47  61
BRANCH  48  73
ATOM     73  C   UNL     1      -2.416   9.288  -6.378  1.00  0.00     0.058 A 
ATOM     74  C   UNL     1      -3.580   8.768  -6.962  1.00  0.00     0.135 A 
ATOM     75  C   UNL     1      -2.564  10.196  -5.317  1.00  0.00     0.135 A 
ATOM     76  F   UNL     1      -3.489   7.905  -7.985  1.00  0.00    -0.206 F 
ATOM     77  C   UNL     1      -4.845   9.141  -6.520  1.00  0.00     0.059 A 
ATOM     78  C   UNL     1      -3.818  10.566  -4.842  1.00  0.00     0.059 A 
ATOM     79  F   UNL     1      -1.481  10.712  -4.716  1.00  0.00    -0.206 F 
ATOM     80  C   UNL     1      -4.953  10.040  -5.456  1.00  0.00     0.060 A 
BRANCH  80  81
ATOM     81  S   UNL     1      -6.598  10.475  -4.850  1.00  0.00     0.124 S 
ATOM     82  O   UNL     1      -7.068  11.373  -5.898  1.00  0.00    -0.237 OA
ATOM     83  O   UNL     1      -7.254   9.173  -4.781  1.00  0.00    -0.237 OA
ATOM     84  O   UNL     1      -6.322  11.098  -3.559  1.00  0.00    -0.744 OA
ENDBRANCH  80  81
ENDBRANCH  48  73
BRANCH  60  85
ATOM     85  C   UNL     1       1.132  10.494 -12.266  1.00  0.00     0.058 A 
ATOM     86  C   UNL     1       1.084  11.895 -12.320  1.00  0.00     0.135 A 
ATOM     87  C   UNL     1       0.902   9.783 -13.456  1.00  0.00     0.135 A 
ATOM     88  F   UNL     1       1.290  12.622 -11.211  1.00  0.00    -0.206 F 
ATOM     89  C   UNL     1       0.800  12.566 -13.506  1.00  0.00     0.059 A 
ATOM     90  C   UNL     1       0.642  10.434 -14.657  1.00  0.00     0.059 A 
ATOM     91  F   UNL     1       0.947   8.441 -13.460  1.00  0.00    -0.206 F 
ATOM     92  C   UNL     1       0.582  11.827 -14.670  1.00  0.00     0.060 A 
BRANCH  92  93
ATOM     93  S   UNL     1       0.250  12.710 -16.209  1.00  0.00     0.124 S 
ATOM     94  O   UNL     1      -1.130  13.140 -16.009  1.00  0.00    -0.237 OA
ATOM     95  O   UNL     1       1.254  13.770 -16.186  1.00  0.00    -0.237 OA
ATOM     96  O   UNL     1       0.448  11.691 -17.235  1.00  0.00    -0.744 OA
ENDBRANCH  92  93
ENDBRANCH  60  85
ENDBRANCH  34  35
ENDBRANCH  27  29
ENDBRANCH  26  27
ENDBRANCH  25  26
ENDBRANCH   1  25
TORSDOF 21
