REMARK SMILES O=C(OCCOCCOC(=O)c1cc(OC[C@@H]2Cc3cc(F)ccc3O2)cs1)c1ccc(-c2c3nc(c(-c4c(F)cc(S(=O)(=O)[O-])cc4F)c4ccc([nH]4)c(-c4c(F)cc(S(=O)(=O)[O-])cc4F)c4nc(c(-c5c(F)cc(S(=O)(=O)[O-])cc5F)c5ccc2[nH]5)C=C4)C=C3)cc1
REMARK SMILES IDX 6 1 5 2 4 3 3 4 2 5 1 6 29 7 30 8 94 9 31 10 93 11 32 12
REMARK SMILES IDX 33 13 34 14 87 15 35 16 92 17 86 18 88 19 36 20 91 21 85 22
REMARK SMILES IDX 84 23 37 25 71 26 50 27 70 28 51 29 54 30 69 31 89 32 52 33
REMARK SMILES IDX 53 34 68 36 90 37 55 38 38 39 39 40 48 41 40 42 41 43 47 44
REMARK SMILES IDX 49 45 42 46 43 47 44 48 45 49 46 50 72 51 73 52 82 53 74 54
REMARK SMILES IDX 75 55 81 56 83 57 76 58 77 59 78 60 79 61 80 62 56 63 57 64
REMARK SMILES IDX 66 65 58 66 59 67 65 68 67 69 60 70 61 71 62 72 63 73 64 74
REMARK SMILES IDX 7 75 8 76 9 77 10 78 11 79 12 80 13 81 28 82 14 83 27 84
REMARK SMILES IDX 15 85 16 86 17 87 18 88 26 89 19 90 25 91 20 92 24 93 21 94
REMARK SMILES IDX 23 95 22 96
REMARK H PARENT 88 24 54 35
REMARK Flexibility Score: inf
ROOT
ATOM      1  O   UNL     1       4.532   1.482   0.054  1.00  0.00    -0.374 OA
ENDROOT
BRANCH   1   2
ATOM      2  C   UNL     1       4.577   0.900  -1.249  1.00  0.00     0.202 C 
BRANCH   2   3
ATOM      3  C   UNL     1       4.158  -0.570  -1.276  1.00  0.00     0.261 C 
BRANCH   3   4
ATOM      4  O   UNL     1       2.775  -0.707  -0.914  1.00  0.00    -0.460 OA
BRANCH   4   5
ATOM      5  C   UNL     1       2.229  -1.189   0.225  1.00  0.00     0.338 C 
ATOM      6  O   UNL     1       1.042  -1.515   0.182  1.00  0.00    -0.246 OA
BRANCH   5   7
ATOM      7  C   UNL     1       2.925  -1.252   1.559  1.00  0.00     0.060 A 
ATOM      8  C   UNL     1       2.135  -1.668   2.650  1.00  0.00     0.016 A 
ATOM      9  C   UNL     1       4.240  -0.871   1.835  1.00  0.00     0.016 A 
ATOM     10  C   UNL     1       2.632  -1.671   3.959  1.00  0.00     0.010 A 
ATOM     11  C   UNL     1       4.744  -0.866   3.136  1.00  0.00     0.010 A 
ATOM     12  C   UNL     1       3.942  -1.257   4.205  1.00  0.00    -0.014 A 
BRANCH  12  13
ATOM     13  C   UNL     1       4.542  -1.326   5.549  1.00  0.00     0.031 A 
ATOM     14  C   UNL     1       4.681  -0.095   6.392  1.00  0.00     0.074 A 
ATOM     15  C   UNL     1       5.069  -2.502   5.931  1.00  0.00     0.049 A 
ATOM     16  N   UNL     1       5.185   0.024   7.591  1.00  0.00    -0.248 NA
ATOM     17  C   UNL     1       4.212   1.172   5.807  1.00  0.00     0.031 C 
ATOM     18  C   UNL     1       5.061  -3.724   5.121  1.00  0.00     0.029 A 
ATOM     19  N   UNL     1       5.739  -2.858   7.069  1.00  0.00    -0.354 N 
ATOM     20  C   UNL     1       5.078   1.370   7.918  1.00  0.00     0.074 A 
ATOM     21  C   UNL     1       4.502   2.039   6.771  1.00  0.00     0.031 C 
ATOM     22  C   UNL     1       5.712  -4.692   5.783  1.00  0.00     0.029 A 
ATOM     23  C   UNL     1       6.176  -4.160   7.059  1.00  0.00     0.049 A 
ATOM     24  H   UNL     1       5.893  -2.241   7.821  1.00  0.00     0.167 HD
ATOM     25  C   UNL     1       5.417   1.976   9.081  1.00  0.00     0.037 A 
ATOM     26  C   UNL     1       6.868  -4.847   7.986  1.00  0.00     0.037 A 
ATOM     27  C   UNL     1       6.007   1.278  10.197  1.00  0.00     0.049 A 
ATOM     28  C   UNL     1       7.203  -4.165   9.278  1.00  0.00     0.074 A 
ATOM     29  C   UNL     1       6.316   1.765  11.454  1.00  0.00     0.029 A 
ATOM     30  N   UNL     1       6.390  -0.057  10.180  1.00  0.00    -0.354 N 
ATOM     31  N   UNL     1       6.981  -2.919   9.627  1.00  0.00    -0.248 NA
ATOM     32  C   UNL     1       7.852  -4.978  10.312  1.00  0.00     0.031 C 
ATOM     33  C   UNL     1       6.921   0.735  12.184  1.00  0.00     0.029 A 
ATOM     34  C   UNL     1       6.952  -0.406  11.396  1.00  0.00     0.049 A 
ATOM     35  H   UNL     1       6.279  -0.667   9.415  1.00  0.00     0.167 HD
ATOM     36  C   UNL     1       7.450  -2.800  10.928  1.00  0.00     0.074 A 
ATOM     37  C   UNL     1       7.954  -4.107  11.307  1.00  0.00     0.031 C 
ATOM     38  C   UNL     1       7.460  -1.712  11.737  1.00  0.00     0.037 A 
BRANCH  25  39
ATOM     39  C   UNL     1       5.138   3.448   9.228  1.00  0.00     0.058 A 
ATOM     40  C   UNL     1       3.827   3.929   9.373  1.00  0.00     0.135 A 
ATOM     41  C   UNL     1       6.187   4.378   9.321  1.00  0.00     0.135 A 
ATOM     42  F   UNL     1       2.785   3.087   9.283  1.00  0.00    -0.206 F 
ATOM     43  C   UNL     1       3.564   5.277   9.600  1.00  0.00     0.059 A 
ATOM     44  C   UNL     1       5.948   5.729   9.567  1.00  0.00     0.059 A 
ATOM     45  F   UNL     1       7.460   3.976   9.189  1.00  0.00    -0.206 F 
ATOM     46  C   UNL     1       4.632   6.169   9.702  1.00  0.00     0.060 A 
BRANCH  46  47
ATOM     47  S   UNL     1       4.270   7.906  10.041  1.00  0.00     0.124 S 
ATOM     48  O   UNL     1       3.682   8.336   8.776  1.00  0.00    -0.237 OA
ATOM     49  O   UNL     1       3.349   7.818  11.169  1.00  0.00    -0.237 OA
ATOM     50  O   UNL     1       5.579   8.475  10.348  1.00  0.00    -0.744 OA
ENDBRANCH  46  47
ENDBRANCH  25  39
BRANCH  26  51
ATOM     51  C   UNL     1       7.207  -6.268   7.729  1.00  0.00     0.058 A 
ATOM     52  C   UNL     1       6.477  -7.298   8.336  1.00  0.00     0.135 A 
ATOM     53  C   UNL     1       8.197  -6.624   6.799  1.00  0.00     0.135 A 
ATOM     54  F   UNL     1       5.517  -7.004   9.226  1.00  0.00    -0.206 F 
ATOM     55  C   UNL     1       6.712  -8.634   8.030  1.00  0.00     0.059 A 
ATOM     56  C   UNL     1       8.439  -7.953   6.464  1.00  0.00     0.059 A 
ATOM     57  F   UNL     1       8.905  -5.671   6.172  1.00  0.00    -0.206 F 
ATOM     58  C   UNL     1       7.690  -8.951   7.086  1.00  0.00     0.060 A 
BRANCH  58  59
ATOM     59  S   UNL     1       7.920 -10.684   6.632  1.00  0.00     0.124 S 
ATOM     60  O   UNL     1       8.583 -11.213   7.818  1.00  0.00    -0.237 OA
ATOM     61  O   UNL     1       6.547 -11.129   6.415  1.00  0.00    -0.237 OA
ATOM     62  O   UNL     1       8.744 -10.610   5.428  1.00  0.00    -0.744 OA
ENDBRANCH  58  59
ENDBRANCH  26  51
BRANCH  38  63
ATOM     63  C   UNL     1       8.039  -1.893  13.108  1.00  0.00     0.058 A 
ATOM     64  C   UNL     1       9.426  -1.970  13.307  1.00  0.00     0.135 A 
ATOM     65  C   UNL     1       7.205  -1.935  14.236  1.00  0.00     0.135 A 
ATOM     66  F   UNL     1      10.262  -1.942  12.257  1.00  0.00    -0.206 F 
ATOM     67  C   UNL     1       9.967  -2.100  14.580  1.00  0.00     0.059 A 
ATOM     68  C   UNL     1       7.726  -2.042  15.521  1.00  0.00     0.059 A 
ATOM     69  F   UNL     1       5.872  -1.856  14.095  1.00  0.00    -0.206 F 
ATOM     70  C   UNL     1       9.109  -2.134  15.681  1.00  0.00     0.060 A 
BRANCH  70  71
ATOM     71  S   UNL     1       9.828  -2.268  17.331  1.00  0.00     0.124 S 
ATOM     72  O   UNL     1      10.239  -3.668  17.358  1.00  0.00    -0.237 OA
ATOM     73  O   UNL     1      10.910  -1.290  17.281  1.00  0.00    -0.237 OA
ATOM     74  O   UNL     1       8.719  -1.922  18.214  1.00  0.00    -0.744 OA
ENDBRANCH  70  71
ENDBRANCH  38  63
ENDBRANCH  12  13
ENDBRANCH   5   7
ENDBRANCH   4   5
ENDBRANCH   3   4
ENDBRANCH   2   3
ENDBRANCH   1   2
BRANCH   1  75
ATOM     75  C   UNL     1       3.315   2.156   0.389  1.00  0.00     0.202 C 
BRANCH  75  76
ATOM     76  C   UNL     1       3.627   3.580   0.860  1.00  0.00     0.261 C 
BRANCH  76  77
ATOM     77  O   UNL     1       4.099   4.345  -0.261  1.00  0.00    -0.459 OA
BRANCH  77  78
ATOM     78  C   UNL     1       5.421   4.184  -0.569  1.00  0.00     0.348 C 
ATOM     79  O   UNL     1       6.296   3.864   0.226  1.00  0.00    -0.245 OA
BRANCH  78  80
ATOM     80  C   UNL     1       5.559   4.321  -2.003  1.00  0.00     0.116 A 
ATOM     81  C   UNL     1       4.682   4.926  -2.884  1.00  0.00     0.074 A 
ATOM     82  S   UNL     1       6.859   3.588  -2.836  1.00  0.00    -0.133 S 
ATOM     83  C   UNL     1       4.984   4.647  -4.242  1.00  0.00     0.131 A 
ATOM     84  C   UNL     1       6.138   3.907  -4.358  1.00  0.00     0.112 A 
BRANCH  83  85
ATOM     85  O   UNL     1       4.277   4.968  -5.355  1.00  0.00    -0.489 OA
BRANCH  85  86
ATOM     86  C   UNL     1       3.250   5.943  -5.166  1.00  0.00     0.275 C 
BRANCH  86  87
ATOM     87  C   UNL     1       1.870   5.382  -4.753  1.00  0.00     0.215 C 
ATOM     88  C   UNL     1       1.290   6.074  -3.499  1.00  0.00     0.088 C 
ATOM     89  O   UNL     1       1.880   3.944  -4.561  1.00  0.00    -0.486 OA
ATOM     90  C   UNL     1       0.847   4.893  -2.727  1.00  0.00     0.001 A 
ATOM     91  C   UNL     1       1.193   3.732  -3.398  1.00  0.00     0.123 A 
ATOM     92  C   UNL     1       0.203   4.838  -1.502  1.00  0.00     0.047 A 
ATOM     93  C   UNL     1       0.883   2.480  -2.902  1.00  0.00     0.050 A 
ATOM     94  C   UNL     1      -0.113   3.580  -0.990  1.00  0.00     0.123 A 
ATOM     95  C   UNL     1       0.206   2.406  -1.682  1.00  0.00     0.043 A 
ATOM     96  F   UNL     1      -0.723   3.494   0.199  1.00  0.00    -0.207 F 
ENDBRANCH  86  87
ENDBRANCH  85  86
ENDBRANCH  83  85
ENDBRANCH  78  80
ENDBRANCH  77  78
ENDBRANCH  76  77
ENDBRANCH  75  76
ENDBRANCH   1  75
TORSDOF 20
