REMARK SMILES CCn1ccnc1[C@H](F)C(=O)OCCOCCOC(=O)c1ccc(-c2c3nc(c(-c4c(F)cc(S(=O)(=O)[O-])cc4F)c4ccc([nH]4)c(-c4c(F)cc(S(=O)(=O)[O-])cc4F)c4nc(c(-c5c(F)cc(S(=O)(=O)[O-])cc5F)c5ccc2[nH]5)C=C4)C=C3)cc1
REMARK SMILES IDX 16 1 15 2 14 3 13 4 12 5 10 6 11 7 8 8 9 9 7 10 3 11 4 12
REMARK SMILES IDX 5 13 6 14 2 15 1 16 17 17 18 18 19 19 20 20 21 21 22 22
REMARK SMILES IDX 86 23 23 24 85 25 24 26 25 27 26 28 79 29 27 30 84 31 78 32
REMARK SMILES IDX 80 33 28 34 83 35 77 36 76 37 29 39 63 40 42 41 62 42 43 43
REMARK SMILES IDX 46 44 61 45 81 46 44 47 45 48 60 50 82 51 47 52 30 53 31 54
REMARK SMILES IDX 40 55 32 56 33 57 39 58 41 59 34 60 35 61 36 62 37 63 38 64
REMARK SMILES IDX 64 65 65 66 74 67 66 68 67 69 73 70 75 71 68 72 69 73 70 74
REMARK SMILES IDX 71 75 72 76 48 77 49 78 58 79 50 80 51 81 57 82 59 83 52 84
REMARK SMILES IDX 53 85 54 86 55 87 56 88
REMARK H PARENT 80 38 46 49
REMARK Flexibility Score: inf
ROOT
ATOM      1  C   UNL     1      -1.565  -2.753   2.198  1.00  0.00     0.202 C 
ENDROOT
BRANCH   1   2
ATOM      2  O   UNL     1      -2.412  -3.630   2.935  1.00  0.00    -0.374 OA
BRANCH   2   3
ATOM      3  C   UNL     1      -2.418  -5.025   2.632  1.00  0.00     0.202 C 
BRANCH   3   4
ATOM      4  C   UNL     1      -3.013  -5.425   1.287  1.00  0.00     0.261 C 
BRANCH   4   5
ATOM      5  O   UNL     1      -2.198  -4.927   0.218  1.00  0.00    -0.461 OA
BRANCH   5   6
ATOM      6  C   UNL     1      -2.793  -4.062  -0.658  1.00  0.00     0.348 C 
ATOM      7  O   UNL     1      -3.989  -3.797  -0.668  1.00  0.00    -0.248 OA
BRANCH   6   8
ATOM      8  C   UNL     1      -1.756  -3.469  -1.598  1.00  0.00     0.341 C 
ATOM      9  F   UNL     1      -0.471  -3.628  -1.146  1.00  0.00    -0.226 F 
BRANCH   8  10
ATOM     10  C   UNL     1      -1.923  -4.079  -2.946  1.00  0.00     0.155 A 
ATOM     11  N   UNL     1      -1.627  -5.391  -3.251  1.00  0.00    -0.332 N 
ATOM     12  C   UNL     1      -1.937  -5.586  -4.571  1.00  0.00     0.107 A 
ATOM     13  C   UNL     1      -2.387  -4.372  -5.023  1.00  0.00     0.131 A 
ATOM     14  N   UNL     1      -2.373  -3.447  -4.017  1.00  0.00    -0.238 NA
BRANCH  11  15
ATOM     15  C   UNL     1      -1.089  -6.418  -2.376  1.00  0.00     0.120 C 
ATOM     16  C   UNL     1      -2.165  -7.369  -1.874  1.00  0.00     0.027 C 
ENDBRANCH  11  15
ENDBRANCH   8  10
ENDBRANCH   6   8
ENDBRANCH   5   6
ENDBRANCH   4   5
ENDBRANCH   3   4
ENDBRANCH   2   3
ENDBRANCH   1   2
BRANCH   1  17
ATOM     17  C   UNL     1      -0.061  -2.862   2.395  1.00  0.00     0.261 C 
BRANCH  17  18
ATOM     18  O   UNL     1       0.458  -4.148   2.083  1.00  0.00    -0.460 OA
BRANCH  18  19
ATOM     19  C   UNL     1       0.765  -4.863   3.193  1.00  0.00     0.338 C 
ATOM     20  O   UNL     1       0.217  -4.800   4.278  1.00  0.00    -0.246 OA
BRANCH  19  21
ATOM     21  C   UNL     1       2.018  -5.583   2.966  1.00  0.00     0.060 A 
ATOM     22  C   UNL     1       2.485  -6.356   4.031  1.00  0.00     0.016 A 
ATOM     23  C   UNL     1       2.834  -5.232   1.880  1.00  0.00     0.016 A 
ATOM     24  C   UNL     1       3.832  -6.619   4.104  1.00  0.00     0.010 A 
ATOM     25  C   UNL     1       4.182  -5.474   1.968  1.00  0.00     0.010 A 
ATOM     26  C   UNL     1       4.671  -6.103   3.111  1.00  0.00    -0.014 A 
BRANCH  26  27
ATOM     27  C   UNL     1       6.083  -6.399   3.196  1.00  0.00     0.031 A 
ATOM     28  C   UNL     1       6.359  -7.811   2.854  1.00  0.00     0.074 A 
ATOM     29  C   UNL     1       7.009  -5.456   3.446  1.00  0.00     0.049 A 
ATOM     30  N   UNL     1       6.720  -8.747   3.665  1.00  0.00    -0.248 NA
ATOM     31  C   UNL     1       5.951  -8.297   1.524  1.00  0.00     0.031 C 
ATOM     32  C   UNL     1       6.815  -4.011   3.566  1.00  0.00     0.029 A 
ATOM     33  N   UNL     1       8.358  -5.589   3.550  1.00  0.00    -0.354 N 
ATOM     34  C   UNL     1       6.854  -9.880   2.873  1.00  0.00     0.074 A 
ATOM     35  C   UNL     1       6.131  -9.611   1.661  1.00  0.00     0.031 C 
ATOM     36  C   UNL     1       8.017  -3.394   3.494  1.00  0.00     0.029 A 
ATOM     37  C   UNL     1       9.067  -4.397   3.425  1.00  0.00     0.049 A 
ATOM     38  H   UNL     1       8.798  -6.457   3.700  1.00  0.00     0.167 HD
ATOM     39  C   UNL     1       7.810 -10.805   3.154  1.00  0.00     0.037 A 
ATOM     40  C   UNL     1      10.403  -4.279   3.197  1.00  0.00     0.037 A 
ATOM     41  C   UNL     1       8.280 -10.658   4.511  1.00  0.00     0.049 A 
ATOM     42  C   UNL     1      11.022  -5.574   3.603  1.00  0.00     0.074 A 
ATOM     43  C   UNL     1       7.668 -10.671   5.751  1.00  0.00     0.029 A 
ATOM     44  N   UNL     1       9.503 -10.056   4.697  1.00  0.00    -0.354 N 
ATOM     45  N   UNL     1      11.089  -5.979   4.843  1.00  0.00    -0.248 NA
ATOM     46  C   UNL     1      11.120  -6.629   2.602  1.00  0.00     0.031 C 
ATOM     47  C   UNL     1       8.340  -9.670   6.508  1.00  0.00     0.029 A 
ATOM     48  C   UNL     1       9.378  -9.160   5.727  1.00  0.00     0.049 A 
ATOM     49  H   UNL     1      10.322 -10.236   4.182  1.00  0.00     0.167 HD
ATOM     50  C   UNL     1      10.779  -7.331   4.790  1.00  0.00     0.074 A 
ATOM     51  C   UNL     1      10.893  -7.694   3.378  1.00  0.00     0.031 C 
ATOM     52  C   UNL     1      10.164  -7.952   5.840  1.00  0.00     0.037 A 
BRANCH  39  53
ATOM     53  C   UNL     1       8.605 -11.537   2.097  1.00  0.00     0.058 A 
ATOM     54  C   UNL     1       9.512 -12.534   2.507  1.00  0.00     0.135 A 
ATOM     55  C   UNL     1       8.733 -11.116   0.753  1.00  0.00     0.135 A 
ATOM     56  F   UNL     1       9.483 -13.012   3.762  1.00  0.00    -0.206 F 
ATOM     57  C   UNL     1      10.526 -13.009   1.677  1.00  0.00     0.059 A 
ATOM     58  C   UNL     1       9.700 -11.617  -0.108  1.00  0.00     0.059 A 
ATOM     59  F   UNL     1       7.997 -10.134   0.223  1.00  0.00    -0.206 F 
ATOM     60  C   UNL     1      10.619 -12.530   0.374  1.00  0.00     0.060 A 
BRANCH  60  61
ATOM     61  S   UNL     1      11.974 -13.074  -0.675  1.00  0.00     0.124 S 
ATOM     62  O   UNL     1      13.115 -12.440  -0.025  1.00  0.00    -0.237 OA
ATOM     63  O   UNL     1      11.886 -14.525  -0.548  1.00  0.00    -0.237 OA
ATOM     64  O   UNL     1      11.616 -12.542  -1.987  1.00  0.00    -0.744 OA
ENDBRANCH  60  61
ENDBRANCH  39  53
BRANCH  40  65
ATOM     65  C   UNL     1      11.122  -3.279   2.351  1.00  0.00     0.058 A 
ATOM     66  C   UNL     1      12.530  -3.280   2.268  1.00  0.00     0.135 A 
ATOM     67  C   UNL     1      10.457  -2.494   1.388  1.00  0.00     0.135 A 
ATOM     68  F   UNL     1      13.259  -3.995   3.139  1.00  0.00    -0.206 F 
ATOM     69  C   UNL     1      13.224  -2.619   1.246  1.00  0.00     0.059 A 
ATOM     70  C   UNL     1      11.127  -1.815   0.371  1.00  0.00     0.059 A 
ATOM     71  F   UNL     1       9.120  -2.434   1.335  1.00  0.00    -0.206 F 
ATOM     72  C   UNL     1      12.509  -1.913   0.281  1.00  0.00     0.060 A 
BRANCH  72  73
ATOM     73  S   UNL     1      13.362  -1.259  -1.174  1.00  0.00     0.124 S 
ATOM     74  O   UNL     1      14.097  -0.131  -0.613  1.00  0.00    -0.237 OA
ATOM     75  O   UNL     1      14.168  -2.399  -1.599  1.00  0.00    -0.237 OA
ATOM     76  O   UNL     1      12.269  -0.906  -2.076  1.00  0.00    -0.744 OA
ENDBRANCH  72  73
ENDBRANCH  40  65
BRANCH  52  77
ATOM     77  C   UNL     1      10.110  -7.235   7.164  1.00  0.00     0.058 A 
ATOM     78  C   UNL     1       9.447  -6.015   7.391  1.00  0.00     0.135 A 
ATOM     79  C   UNL     1      10.624  -7.901   8.287  1.00  0.00     0.135 A 
ATOM     80  F   UNL     1       8.829  -5.369   6.392  1.00  0.00    -0.206 F 
ATOM     81  C   UNL     1       9.345  -5.461   8.668  1.00  0.00     0.059 A 
ATOM     82  C   UNL     1      10.502  -7.386   9.573  1.00  0.00     0.059 A 
ATOM     83  F   UNL     1      11.210  -9.102   8.146  1.00  0.00    -0.206 F 
ATOM     84  C   UNL     1       9.877  -6.156   9.754  1.00  0.00     0.060 A 
BRANCH  84  85
ATOM     85  S   UNL     1       9.692  -5.473  11.415  1.00  0.00     0.124 S 
ATOM     86  O   UNL     1      10.619  -4.347  11.387  1.00  0.00    -0.237 OA
ATOM     87  O   UNL     1       8.274  -5.128  11.462  1.00  0.00    -0.237 OA
ATOM     88  O   UNL     1      10.082  -6.581  12.284  1.00  0.00    -0.744 OA
ENDBRANCH  84  85
ENDBRANCH  52  77
ENDBRANCH  26  27
ENDBRANCH  19  21
ENDBRANCH  18  19
ENDBRANCH  17  18
ENDBRANCH   1  17
TORSDOF 19
