REMARK SMILES C[C@@H]1CC[C@@H](C(=O)OCCOCCOC(=O)c2ccc(-c3c4nc(c(-c5c(F)cc(S(=O)(=O)[O-])cc5F)c5ccc([nH]5)c(-c5c(F)cc(S(=O)(=O)[O-])cc5F)c5nc(c(-c6c(F)cc(S(=O)(=O)[O-])cc6F)c6ccc3[nH]6)C=C5)C=C4)cc2)[C@H](SCC[NH+](C)C)C1
REMARK SMILES IDX 10 1 9 2 8 3 6 4 7 5 5 6 1 7 2 8 3 9 90 10 4 11 83 12 84 13
REMARK SMILES IDX 85 14 86 15 87 16 88 17 89 18 11 20 12 21 13 22 14 23 15 24
REMARK SMILES IDX 16 25 17 26 18 27 82 28 19 29 81 30 20 31 21 32 22 33 75 34
REMARK SMILES IDX 23 35 80 36 74 37 76 38 24 39 79 40 73 41 72 42 25 44 59 45
REMARK SMILES IDX 38 46 58 47 39 48 42 49 57 50 77 51 40 52 41 53 56 55 78 56
REMARK SMILES IDX 43 57 26 58 27 59 36 60 28 61 29 62 35 63 37 64 30 65 31 66
REMARK SMILES IDX 32 67 33 68 34 69 60 70 61 71 70 72 62 73 63 74 69 75 71 76
REMARK SMILES IDX 64 77 65 78 66 79 67 80 68 81 44 82 45 83 54 84 46 85 47 86
REMARK SMILES IDX 53 87 55 88 48 89 49 90 50 91 51 92 52 93
REMARK H PARENT 87 19 76 43 42 54
REMARK Flexibility Score: inf
ROOT
ATOM      1  C   UNL     1      -2.602   0.588  -4.903  1.00  0.00     0.202 C 
ENDROOT
BRANCH   1   2
ATOM      2  C   UNL     1      -2.770  -0.596  -3.925  1.00  0.00     0.261 C 
BRANCH   2   3
ATOM      3  O   UNL     1      -2.644  -0.190  -2.542  1.00  0.00    -0.463 OA
BRANCH   3   4
ATOM      4  C   UNL     1      -2.371  -1.184  -1.634  1.00  0.00     0.310 C 
ATOM      5  O   UNL     1      -2.449  -2.376  -1.896  1.00  0.00    -0.252 OA
BRANCH   4   6
ATOM      6  C   UNL     1      -1.895  -0.601  -0.269  1.00  0.00     0.112 C 
ATOM      7  C   UNL     1       2.268  -1.278   0.296  1.00  0.00     0.007 C 
ATOM      8  C   UNL     1       1.013  -1.367  -0.576  1.00  0.00    -0.013 C 
ATOM      9  C   UNL     1       0.486  -0.007  -1.069  1.00  0.00     0.004 C 
ATOM     10  C   UNL     1      -0.015  -2.316   0.039  1.00  0.00     0.018 C 
ATOM     11  C   UNL     1      -0.900   0.485  -0.611  1.00  0.00     0.017 C 
ATOM     12  C   UNL     1      -1.267  -1.676   0.665  1.00  0.00     0.061 C 
BRANCH  12  13
ATOM     13  S   UNL     1      -1.048  -1.738   2.568  1.00  0.00    -0.152 SA
BRANCH  13  14
ATOM     14  C   UNL     1      -0.776  -0.136   3.468  1.00  0.00     0.131 C 
BRANCH  14  15
ATOM     15  C   UNL     1       0.687   0.354   3.816  1.00  0.00     0.272 C 
BRANCH  15  16
ATOM     16  N   UNL     1       1.262   1.490   3.054  1.00  0.00    -0.339 N 
ATOM     17  C   UNL     1       2.707   1.394   2.842  1.00  0.00     0.332 C 
ATOM     18  C   UNL     1       0.600   1.614   1.790  1.00  0.00     0.332 C 
ATOM     19  H   UNL     1       1.108   2.320   3.626  1.00  0.00     0.347 HD
ENDBRANCH  15  16
ENDBRANCH  14  15
ENDBRANCH  13  14
ENDBRANCH  12  13
ENDBRANCH   4   6
ENDBRANCH   3   4
ENDBRANCH   2   3
ENDBRANCH   1   2
BRANCH   1  20
ATOM     20  O   UNL     1      -1.309   1.177  -5.095  1.00  0.00    -0.374 OA
BRANCH  20  21
ATOM     21  C   UNL     1      -0.697   1.767  -3.958  1.00  0.00     0.202 C 
BRANCH  21  22
ATOM     22  C   UNL     1      -1.179   3.143  -3.468  1.00  0.00     0.261 C 
BRANCH  22  23
ATOM     23  O   UNL     1      -2.602   3.288  -3.487  1.00  0.00    -0.460 OA
BRANCH  23  24
ATOM     24  C   UNL     1      -3.055   3.986  -4.555  1.00  0.00     0.338 C 
ATOM     25  O   UNL     1      -2.385   4.606  -5.373  1.00  0.00    -0.246 OA
BRANCH  24  26
ATOM     26  C   UNL     1      -4.486   3.727  -4.747  1.00  0.00     0.060 A 
ATOM     27  C   UNL     1      -4.853   3.085  -5.936  1.00  0.00     0.016 A 
ATOM     28  C   UNL     1      -5.449   4.144  -3.826  1.00  0.00     0.016 A 
ATOM     29  C   UNL     1      -6.194   2.898  -6.237  1.00  0.00     0.010 A 
ATOM     30  C   UNL     1      -6.801   3.974  -4.141  1.00  0.00     0.010 A 
ATOM     31  C   UNL     1      -7.173   3.389  -5.366  1.00  0.00    -0.014 A 
BRANCH  31  32
ATOM     32  C   UNL     1      -8.569   3.456  -5.850  1.00  0.00     0.031 A 
ATOM     33  C   UNL     1      -9.071   4.761  -6.403  1.00  0.00     0.074 A 
ATOM     34  C   UNL     1      -9.339   2.354  -5.873  1.00  0.00     0.049 A 
ATOM     35  N   UNL     1     -10.247   5.058  -6.886  1.00  0.00    -0.248 NA
ATOM     36  C   UNL     1      -8.114   5.881  -6.416  1.00  0.00     0.031 C 
ATOM     37  C   UNL     1      -8.925   1.028  -5.417  1.00  0.00     0.029 A 
ATOM     38  N   UNL     1     -10.629   2.178  -6.301  1.00  0.00    -0.354 N 
ATOM     39  C   UNL     1     -10.178   6.399  -7.249  1.00  0.00     0.074 A 
ATOM     40  C   UNL     1      -8.852   6.865  -6.908  1.00  0.00     0.031 C 
ATOM     41  C   UNL     1      -9.950   0.173  -5.579  1.00  0.00     0.029 A 
ATOM     42  C   UNL     1     -11.099   0.900  -6.115  1.00  0.00     0.049 A 
ATOM     43  H   UNL     1     -11.167   2.897  -6.703  1.00  0.00     0.167 HD
ATOM     44  C   UNL     1     -11.135   7.165  -7.821  1.00  0.00     0.037 A 
ATOM     45  C   UNL     1     -12.326   0.388  -6.328  1.00  0.00     0.037 A 
ATOM     46  C   UNL     1     -12.447   6.681  -8.159  1.00  0.00     0.049 A 
ATOM     47  C   UNL     1     -13.396   1.278  -6.904  1.00  0.00     0.074 A 
ATOM     48  C   UNL     1     -13.489   7.367  -8.757  1.00  0.00     0.029 A 
ATOM     49  N   UNL     1     -12.902   5.391  -7.921  1.00  0.00    -0.354 N 
ATOM     50  N   UNL     1     -13.318   2.541  -7.255  1.00  0.00    -0.248 NA
ATOM     51  C   UNL     1     -14.719   0.677  -7.119  1.00  0.00     0.031 C 
ATOM     52  C   UNL     1     -14.593   6.511  -8.822  1.00  0.00     0.029 A 
ATOM     53  C   UNL     1     -14.219   5.270  -8.331  1.00  0.00     0.049 A 
ATOM     54  H   UNL     1     -12.366   4.668  -7.521  1.00  0.00     0.167 HD
ATOM     55  C   UNL     1     -14.571   2.877  -7.757  1.00  0.00     0.074 A 
ATOM     56  C   UNL     1     -15.384   1.681  -7.675  1.00  0.00     0.031 C 
ATOM     57  C   UNL     1     -15.009   4.066  -8.243  1.00  0.00     0.037 A 
BRANCH  44  58
ATOM     58  C   UNL     1     -10.815   8.613  -8.078  1.00  0.00     0.058 A 
ATOM     59  C   UNL     1      -9.908   9.013  -9.072  1.00  0.00     0.135 A 
ATOM     60  C   UNL     1     -11.460   9.619  -7.340  1.00  0.00     0.135 A 
ATOM     61  F   UNL     1      -9.245   8.095  -9.793  1.00  0.00    -0.206 F 
ATOM     62  C   UNL     1      -9.637  10.357  -9.311  1.00  0.00     0.059 A 
ATOM     63  C   UNL     1     -11.227  10.969  -7.582  1.00  0.00     0.059 A 
ATOM     64  F   UNL     1     -12.331   9.294  -6.371  1.00  0.00    -0.206 F 
ATOM     65  C   UNL     1     -10.305  11.329  -8.563  1.00  0.00     0.060 A 
BRANCH  65  66
ATOM     66  S   UNL     1      -9.958  13.068  -8.900  1.00  0.00     0.124 S 
ATOM     67  O   UNL     1      -8.602  13.202  -8.378  1.00  0.00    -0.237 OA
ATOM     68  O   UNL     1     -10.088  13.134 -10.352  1.00  0.00    -0.237 OA
ATOM     69  O   UNL     1     -10.991  13.774  -8.148  1.00  0.00    -0.744 OA
ENDBRANCH  65  66
ENDBRANCH  44  58
BRANCH  45  70
ATOM     70  C   UNL     1     -12.609  -1.028  -5.972  1.00  0.00     0.058 A 
ATOM     71  C   UNL     1     -12.874  -1.992  -6.955  1.00  0.00     0.135 A 
ATOM     72  C   UNL     1     -12.606  -1.448  -4.631  1.00  0.00     0.135 A 
ATOM     73  F   UNL     1     -12.899  -1.641  -8.250  1.00  0.00    -0.206 F 
ATOM     74  C   UNL     1     -13.135  -3.319  -6.624  1.00  0.00     0.059 A 
ATOM     75  C   UNL     1     -12.835  -2.773  -4.277  1.00  0.00     0.059 A 
ATOM     76  F   UNL     1     -12.349  -0.568  -3.651  1.00  0.00    -0.206 F 
ATOM     77  C   UNL     1     -13.108  -3.700  -5.281  1.00  0.00     0.060 A 
BRANCH  77  78
ATOM     78  S   UNL     1     -13.393  -5.435  -4.867  1.00  0.00     0.124 S 
ATOM     79  O   UNL     1     -14.818  -5.573  -5.149  1.00  0.00    -0.237 OA
ATOM     80  O   UNL     1     -12.490  -6.120  -5.787  1.00  0.00    -0.237 OA
ATOM     81  O   UNL     1     -13.018  -5.510  -3.459  1.00  0.00    -0.744 OA
ENDBRANCH  77  78
ENDBRANCH  45  70
BRANCH  57  82
ATOM     82  C   UNL     1     -16.421   4.125  -8.761  1.00  0.00     0.058 A 
ATOM     83  C   UNL     1     -17.529   4.078  -7.901  1.00  0.00     0.135 A 
ATOM     84  C   UNL     1     -16.665   4.292 -10.134  1.00  0.00     0.135 A 
ATOM     85  F   UNL     1     -17.354   3.915  -6.580  1.00  0.00    -0.206 F 
ATOM     86  C   UNL     1     -18.830   4.167  -8.387  1.00  0.00     0.059 A 
ATOM     87  C   UNL     1     -17.955   4.417 -10.639  1.00  0.00     0.059 A 
ATOM     88  F   UNL     1     -15.640   4.357 -11.000  1.00  0.00    -0.206 F 
ATOM     89  C   UNL     1     -19.032   4.340  -9.758  1.00  0.00     0.060 A 
BRANCH  89  90
ATOM     90  S   UNL     1     -20.723   4.486 -10.370  1.00  0.00     0.124 S 
ATOM     91  O   UNL     1     -21.210   3.119 -10.220  1.00  0.00    -0.237 OA
ATOM     92  O   UNL     1     -21.301   5.468  -9.457  1.00  0.00    -0.237 OA
ATOM     93  O   UNL     1     -20.550   4.943 -11.745  1.00  0.00    -0.744 OA
ENDBRANCH  89  90
ENDBRANCH  57  82
ENDBRANCH  31  32
ENDBRANCH  24  26
ENDBRANCH  23  24
ENDBRANCH  22  23
ENDBRANCH  21  22
ENDBRANCH  20  21
ENDBRANCH   1  20
TORSDOF 21
