REMARK SMILES COc1ccc(N2C(=O)/C(=C/c3c(C(=O)OCCOCCOC(=O)c4ccc(-c5c6nc(c(-c7c(F)cc(S(=O)(=O)[O-])cc7F)c7ccc([nH]7)c(-c7c(F)cc(S(=O)(=O)[O-])cc7F)c7nc(c(-c8c(F)cc(S(=O)(=O)[O-])cc8F)c8ccc5[nH]8)C=C7)C=C6)cc4)[nH]c4cc(OC)ccc34)SC2=S)cc1
REMARK SMILES IDX 19 1 18 2 17 3 16 4 14 5 15 6 13 7 12 8 99 9 91 10 92 11
REMARK SMILES IDX 98 12 93 14 97 15 94 16 11 17 7 18 8 19 101 20 9 21 10 22
REMARK SMILES IDX 100 23 102 24 6 25 3 26 4 27 104 28 5 29 103 30 2 31 1 32
REMARK SMILES IDX 95 33 96 34 20 35 21 36 22 37 23 38 24 39 25 40 26 41 90 42
REMARK SMILES IDX 27 43 89 44 28 45 29 46 30 47 83 48 31 49 88 50 82 51 84 52
REMARK SMILES IDX 32 53 87 54 81 55 80 56 33 58 67 59 46 60 66 61 47 62 50 63
REMARK SMILES IDX 65 64 85 65 48 66 49 67 64 69 86 70 51 71 34 72 35 73 44 74
REMARK SMILES IDX 36 75 37 76 43 77 45 78 38 79 39 80 40 81 41 82 42 83 68 84
REMARK SMILES IDX 69 85 78 86 70 87 71 88 77 89 79 90 72 91 73 92 74 93 75 94
REMARK SMILES IDX 76 95 52 96 53 97 62 98 54 99 55 100 61 101 63 102 56 103
REMARK SMILES IDX 57 104 58 105 59 106 60 107
REMARK H PARENT 91 13 84 57 50 68
REMARK Flexibility Score: inf
ROOT
ATOM      1  O   UNL     1       3.257 -10.677   1.719  1.00  0.00    -0.374 OA
ENDROOT
BRANCH   1   2
ATOM      2  C   UNL     1       3.435  -9.289   1.441  1.00  0.00     0.202 C 
BRANCH   2   3
ATOM      3  C   UNL     1       4.142  -8.951   0.124  1.00  0.00     0.261 C 
BRANCH   3   4
ATOM      4  O   UNL     1       3.473  -9.514  -1.013  1.00  0.00    -0.459 OA
BRANCH   4   5
ATOM      5  C   UNL     1       4.080 -10.610  -1.553  1.00  0.00     0.355 C 
ATOM      6  O   UNL     1       5.159 -11.063  -1.209  1.00  0.00    -0.244 OA
BRANCH   5   7
ATOM      7  C   UNL     1       3.200 -11.290  -2.479  1.00  0.00     0.133 A 
ATOM      8  C   UNL     1       2.148 -10.914  -3.313  1.00  0.00     0.016 A 
ATOM      9  C   UNL     1       1.627 -12.114  -3.922  1.00  0.00     0.008 A 
ATOM     10  N   UNL     1       3.320 -12.654  -2.584  1.00  0.00    -0.348 N 
ATOM     11  C   UNL     1       2.328 -13.180  -3.361  1.00  0.00     0.050 A 
ATOM     12  C   UNL     1       0.616 -12.439  -4.857  1.00  0.00     0.015 A 
ATOM     13  H   UNL     1       4.029 -13.184  -2.155  1.00  0.00     0.167 HD
ATOM     14  C   UNL     1       2.018 -14.523  -3.589  1.00  0.00     0.073 A 
ATOM     15  C   UNL     1       0.330 -13.795  -5.148  1.00  0.00     0.047 A 
ATOM     16  C   UNL     1       1.006 -14.825  -4.497  1.00  0.00     0.120 A 
BRANCH   8  17
ATOM     17  C   UNL     1       1.621  -9.573  -3.372  1.00  0.00     0.032 C 
ATOM     18  N   UNL     1       3.005  -6.333  -2.735  1.00  0.00    -0.261 N 
ATOM     19  C   UNL     1       1.882  -7.134  -3.005  1.00  0.00     0.270 C 
ATOM     20  C   UNL     1       4.222  -6.860  -3.169  1.00  0.00     0.152 C 
ATOM     21  O   UNL     1       0.703  -6.899  -2.773  1.00  0.00    -0.268 OA
ATOM     22  C   UNL     1       2.327  -8.445  -3.575  1.00  0.00     0.081 C 
ATOM     23  S   UNL     1       3.940  -8.310  -4.135  1.00  0.00    -0.054 SA
ATOM     24  S   UNL     1       5.802  -6.453  -2.784  1.00  0.00    -0.051 S 
BRANCH  18  25
ATOM     25  C   UNL     1       2.893  -5.131  -1.946  1.00  0.00     0.051 A 
ATOM     26  C   UNL     1       2.813  -2.869  -0.241  1.00  0.00     0.119 A 
ATOM     27  C   UNL     1       1.961  -3.939  -0.036  1.00  0.00     0.048 A 
ATOM     28  C   UNL     1       3.703  -2.900  -1.301  1.00  0.00     0.048 A 
ATOM     29  C   UNL     1       1.978  -5.053  -0.887  1.00  0.00     0.030 A 
ATOM     30  C   UNL     1       3.728  -4.017  -2.153  1.00  0.00     0.030 A 
BRANCH  26  31
ATOM     31  O   UNL     1       2.805  -1.858   0.674  1.00  0.00    -0.497 OA
ATOM     32  C   UNL     1       2.256  -0.651   0.141  1.00  0.00     0.278 C 
ENDBRANCH  26  31
ENDBRANCH  18  25
ENDBRANCH   8  17
BRANCH  16  33
ATOM     33  O   UNL     1       0.755 -16.166  -4.607  1.00  0.00    -0.497 OA
ATOM     34  C   UNL     1       0.201 -16.617  -5.833  1.00  0.00     0.278 C 
ENDBRANCH  16  33
ENDBRANCH   5   7
ENDBRANCH   4   5
ENDBRANCH   3   4
ENDBRANCH   2   3
ENDBRANCH   1   2
BRANCH   1  35
ATOM     35  C   UNL     1       2.158 -11.340   1.095  1.00  0.00     0.202 C 
BRANCH  35  36
ATOM     36  C   UNL     1       0.754 -11.039   1.629  1.00  0.00     0.261 C 
BRANCH  36  37
ATOM     37  O   UNL     1       0.276  -9.727   1.273  1.00  0.00    -0.460 OA
BRANCH  37  38
ATOM     38  C   UNL     1       0.130  -8.877   2.320  1.00  0.00     0.338 C 
ATOM     39  O   UNL     1       0.441  -9.100   3.479  1.00  0.00    -0.246 OA
BRANCH  38  40
ATOM     40  C   UNL     1      -0.376  -7.556   1.884  1.00  0.00     0.060 A 
ATOM     41  C   UNL     1       0.139  -6.433   2.537  1.00  0.00     0.016 A 
ATOM     42  C   UNL     1      -1.399  -7.407   0.939  1.00  0.00     0.016 A 
ATOM     43  C   UNL     1      -0.389  -5.171   2.271  1.00  0.00     0.010 A 
ATOM     44  C   UNL     1      -1.932  -6.132   0.678  1.00  0.00     0.010 A 
ATOM     45  C   UNL     1      -1.437  -5.004   1.347  1.00  0.00    -0.014 A 
BRANCH  45  46
ATOM     46  C   UNL     1      -2.021  -3.641   1.193  1.00  0.00     0.031 A 
ATOM     47  C   UNL     1      -2.780  -3.049   2.349  1.00  0.00     0.074 A 
ATOM     48  C   UNL     1      -1.779  -2.889   0.100  1.00  0.00     0.049 A 
ATOM     49  N   UNL     1      -3.197  -1.823   2.529  1.00  0.00    -0.248 NA
ATOM     50  C   UNL     1      -3.120  -3.971   3.444  1.00  0.00     0.031 C 
ATOM     51  C   UNL     1      -1.073  -3.342  -1.094  1.00  0.00     0.029 A 
ATOM     52  N   UNL     1      -2.026  -1.558  -0.149  1.00  0.00    -0.354 N 
ATOM     53  C   UNL     1      -3.889  -1.836   3.733  1.00  0.00     0.074 A 
ATOM     54  C   UNL     1      -3.781  -3.176   4.271  1.00  0.00     0.031 C 
ATOM     55  C   UNL     1      -0.808  -2.282  -1.877  1.00  0.00     0.029 A 
ATOM     56  C   UNL     1      -1.383  -1.083  -1.274  1.00  0.00     0.049 A 
ATOM     57  H   UNL     1      -2.605  -1.000   0.419  1.00  0.00     0.167 HD
ATOM     58  C   UNL     1      -4.604  -0.840   4.309  1.00  0.00     0.037 A 
ATOM     59  C   UNL     1      -1.245   0.177  -1.737  1.00  0.00     0.037 A 
ATOM     60  C   UNL     1      -4.762   0.473   3.745  1.00  0.00     0.049 A 
ATOM     61  C   UNL     1      -1.962   1.298  -1.027  1.00  0.00     0.074 A 
ATOM     62  C   UNL     1      -5.563   1.512   4.184  1.00  0.00     0.029 A 
ATOM     63  N   UNL     1      -4.110   0.923   2.607  1.00  0.00    -0.354 N 
ATOM     64  N   UNL     1      -2.633   1.266   0.099  1.00  0.00    -0.248 NA
ATOM     65  C   UNL     1      -1.940   2.618  -1.677  1.00  0.00     0.031 C 
ATOM     66  C   UNL     1      -5.422   2.581   3.290  1.00  0.00     0.029 A 
ATOM     67  C   UNL     1      -4.499   2.221   2.321  1.00  0.00     0.049 A 
ATOM     68  H   UNL     1      -3.466   0.397   2.080  1.00  0.00     0.167 HD
ATOM     69  C   UNL     1      -3.148   2.547   0.269  1.00  0.00     0.074 A 
ATOM     70  C   UNL     1      -2.648   3.350  -0.827  1.00  0.00     0.031 C 
ATOM     71  C   UNL     1      -3.997   3.005   1.221  1.00  0.00     0.037 A 
BRANCH  58  72
ATOM     72  C   UNL     1      -5.376  -1.199   5.545  1.00  0.00     0.058 A 
ATOM     73  C   UNL     1      -4.758  -1.355   6.795  1.00  0.00     0.135 A 
ATOM     74  C   UNL     1      -6.754  -1.453   5.454  1.00  0.00     0.135 A 
ATOM     75  F   UNL     1      -3.438  -1.152   6.926  1.00  0.00    -0.206 F 
ATOM     76  C   UNL     1      -5.474  -1.792   7.905  1.00  0.00     0.059 A 
ATOM     77  C   UNL     1      -7.493  -1.871   6.555  1.00  0.00     0.059 A 
ATOM     78  F   UNL     1      -7.388  -1.327   4.278  1.00  0.00    -0.206 F 
ATOM     79  C   UNL     1      -6.839  -2.061   7.770  1.00  0.00     0.060 A 
BRANCH  79  80
ATOM     80  S   UNL     1      -7.749  -2.688   9.197  1.00  0.00     0.124 S 
ATOM     81  O   UNL     1      -7.312  -4.081   9.229  1.00  0.00    -0.237 OA
ATOM     82  O   UNL     1      -7.256  -1.845  10.282  1.00  0.00    -0.237 OA
ATOM     83  O   UNL     1      -9.145  -2.477   8.828  1.00  0.00    -0.744 OA
ENDBRANCH  79  80
ENDBRANCH  58  72
BRANCH  59  84
ATOM     84  C   UNL     1      -0.365   0.479  -2.904  1.00  0.00     0.058 A 
ATOM     85  C   UNL     1       0.787   1.267  -2.733  1.00  0.00     0.135 A 
ATOM     86  C   UNL     1      -0.645   0.020  -4.199  1.00  0.00     0.135 A 
ATOM     87  F   UNL     1       1.099   1.742  -1.517  1.00  0.00    -0.206 F 
ATOM     88  C   UNL     1       1.623   1.591  -3.797  1.00  0.00     0.059 A 
ATOM     89  C   UNL     1       0.190   0.309  -5.276  1.00  0.00     0.059 A 
ATOM     90  F   UNL     1      -1.732  -0.733  -4.426  1.00  0.00    -0.206 F 
ATOM     91  C   UNL     1       1.316   1.105  -5.067  1.00  0.00     0.060 A 
BRANCH  91  92
ATOM     92  S   UNL     1       2.434   1.472  -6.438  1.00  0.00     0.124 S 
ATOM     93  O   UNL     1       1.982   2.800  -6.836  1.00  0.00    -0.237 OA
ATOM     94  O   UNL     1       3.745   1.408  -5.799  1.00  0.00    -0.237 OA
ATOM     95  O   UNL     1       2.157   0.396  -7.384  1.00  0.00    -0.744 OA
ENDBRANCH  91  92
ENDBRANCH  59  84
BRANCH  71  96
ATOM     96  C   UNL     1      -4.484   4.422   1.095  1.00  0.00     0.058 A 
ATOM     97  C   UNL     1      -5.429   4.777   0.119  1.00  0.00     0.135 A 
ATOM     98  C   UNL     1      -4.069   5.411   2.000  1.00  0.00     0.135 A 
ATOM     99  F   UNL     1      -5.857   3.866  -0.770  1.00  0.00    -0.206 F 
ATOM    100  C   UNL     1      -5.937   6.068   0.035  1.00  0.00     0.059 A 
ATOM    101  C   UNL     1      -4.580   6.705   1.946  1.00  0.00     0.059 A 
ATOM    102  F   UNL     1      -3.175   5.120   2.957  1.00  0.00    -0.206 F 
ATOM    103  C   UNL     1      -5.509   7.026   0.956  1.00  0.00     0.060 A 
BRANCH 103 104
ATOM    104  S   UNL     1      -6.217   8.684   0.870  1.00  0.00     0.124 S 
ATOM    105  O   UNL     1      -5.511   9.246  -0.276  1.00  0.00    -0.237 OA
ATOM    106  O   UNL     1      -7.637   8.411   0.668  1.00  0.00    -0.237 OA
ATOM    107  O   UNL     1      -5.877   9.265   2.165  1.00  0.00    -0.744 OA
ENDBRANCH 103 104
ENDBRANCH  71  96
ENDBRANCH  45  46
ENDBRANCH  38  40
ENDBRANCH  37  38
ENDBRANCH  36  37
ENDBRANCH  35  36
ENDBRANCH   1  35
TORSDOF 21
