REMARK SMILES O=C(CCCC(=O)OCCOCCOC(=O)c1ccc(-c2c3nc(c(-c4c(F)cc(S(=O)(=O)[O-])cc4F)c4ccc([nH]4)c(-c4c(F)cc(S(=O)(=O)[O-])cc4F)c4nc(c(-c5c(F)cc(S(=O)(=O)[O-])cc5F)c5ccc2[nH]5)C=C4)C=C3)cc1)Nc1ccc(C(=O)N2CCOCC2)cc1
REMARK SMILES IDX 10 1 9 2 8 3 6 4 7 5 5 6 4 7 3 8 2 9 1 10 83 11 84 13 85 14
REMARK SMILES IDX 97 15 86 16 96 17 87 18 88 19 89 20 90 21 91 22 95 23 92 24
REMARK SMILES IDX 94 25 93 26 11 27 12 28 13 29 14 30 15 31 16 32 17 33 18 34
REMARK SMILES IDX 82 35 19 36 81 37 20 38 21 39 22 40 75 41 23 42 80 43 74 44
REMARK SMILES IDX 76 45 24 46 79 47 73 48 72 49 25 51 59 52 38 53 58 54 39 55
REMARK SMILES IDX 42 56 57 57 77 58 40 59 41 60 56 62 78 63 43 64 26 65 27 66
REMARK SMILES IDX 36 67 28 68 29 69 35 70 37 71 30 72 31 73 32 74 33 75 34 76
REMARK SMILES IDX 60 77 61 78 70 79 62 80 63 81 69 82 71 83 64 84 65 85 66 86
REMARK SMILES IDX 67 87 68 88 44 89 45 90 54 91 46 92 47 93 53 94 55 95 48 96
REMARK SMILES IDX 49 97 50 98 51 99 52 100
REMARK H PARENT 83 12 76 50 42 61
REMARK Flexibility Score: inf
ROOT
ATOM      1  C   UNL     1       7.019  -2.347   0.018  1.00  0.00     0.202 C 
ENDROOT
BRANCH   1   2
ATOM      2  C   UNL     1       6.705  -1.274   1.069  1.00  0.00     0.261 C 
BRANCH   2   3
ATOM      3  O   UNL     1       5.695  -0.362   0.587  1.00  0.00    -0.463 OA
BRANCH   3   4
ATOM      4  C   UNL     1       6.092   0.887   0.239  1.00  0.00     0.305 C 
ATOM      5  O   UNL     1       7.187   1.370   0.487  1.00  0.00    -0.252 OA
BRANCH   4   6
ATOM      6  C   UNL     1       4.974   1.662  -0.437  1.00  0.00     0.123 C 
BRANCH   6   7
ATOM      7  C   UNL     1       4.052   0.925  -1.425  1.00  0.00     0.022 C 
BRANCH   7   8
ATOM      8  C   UNL     1       3.252  -0.296  -0.952  1.00  0.00     0.101 C 
BRANCH   8   9
ATOM      9  C   UNL     1       2.267   0.001   0.160  1.00  0.00     0.224 C 
ATOM     10  O   UNL     1       1.063   0.050  -0.070  1.00  0.00    -0.275 OA
ATOM     11  N   UNL     1       2.880   0.260   1.372  1.00  0.00    -0.326 N 
ATOM     12  H   UNL     1       3.859   0.164   1.411  1.00  0.00     0.169 HD
BRANCH  11  13
ATOM     13  C   UNL     1       2.228   0.647   2.551  1.00  0.00     0.041 A 
ATOM     14  C   UNL     1       2.926   1.456   3.458  1.00  0.00     0.027 A 
ATOM     15  C   UNL     1       0.918   0.271   2.826  1.00  0.00     0.027 A 
ATOM     16  C   UNL     1       2.290   1.930   4.611  1.00  0.00     0.016 A 
ATOM     17  C   UNL     1       0.294   0.722   3.984  1.00  0.00     0.016 A 
ATOM     18  C   UNL     1       0.975   1.548   4.886  1.00  0.00     0.040 A 
BRANCH  18  19
ATOM     19  C   UNL     1       0.232   2.188   6.001  1.00  0.00     0.254 C 
ATOM     20  O   UNL     1       0.467   3.368   6.255  1.00  0.00    -0.269 OA
ATOM     21  N   UNL     1      -0.811   1.485   6.574  1.00  0.00    -0.334 N 
ATOM     22  C   UNL     1      -0.801   0.062   6.946  1.00  0.00     0.148 C 
ATOM     23  C   UNL     1      -2.046   2.182   6.897  1.00  0.00     0.148 C 
ATOM     24  C   UNL     1      -2.070  -0.659   6.460  1.00  0.00     0.181 C 
ATOM     25  C   UNL     1      -3.203   1.421   6.243  1.00  0.00     0.181 C 
ATOM     26  O   UNL     1      -3.269   0.082   6.755  1.00  0.00    -0.378 OA
ENDBRANCH  18  19
ENDBRANCH  11  13
ENDBRANCH   8   9
ENDBRANCH   7   8
ENDBRANCH   6   7
ENDBRANCH   4   6
ENDBRANCH   3   4
ENDBRANCH   2   3
ENDBRANCH   1   2
BRANCH   1  27
ATOM     27  O   UNL     1       7.798  -1.892  -1.092  1.00  0.00    -0.374 OA
BRANCH  27  28
ATOM     28  C   UNL     1       7.090  -1.232  -2.138  1.00  0.00     0.202 C 
BRANCH  28  29
ATOM     29  C   UNL     1       6.466  -2.137  -3.204  1.00  0.00     0.261 C 
BRANCH  29  30
ATOM     30  O   UNL     1       5.441  -2.982  -2.652  1.00  0.00    -0.460 OA
BRANCH  30  31
ATOM     31  C   UNL     1       5.824  -4.268  -2.475  1.00  0.00     0.338 C 
ATOM     32  O   UNL     1       6.898  -4.762  -2.800  1.00  0.00    -0.246 OA
BRANCH  31  33
ATOM     33  C   UNL     1       4.828  -5.012  -1.681  1.00  0.00     0.060 A 
ATOM     34  C   UNL     1       5.322  -5.866  -0.687  1.00  0.00     0.016 A 
ATOM     35  C   UNL     1       3.457  -4.958  -1.949  1.00  0.00     0.016 A 
ATOM     36  C   UNL     1       4.462  -6.730  -0.017  1.00  0.00     0.010 A 
ATOM     37  C   UNL     1       2.592  -5.829  -1.273  1.00  0.00     0.010 A 
ATOM     38  C   UNL     1       3.099  -6.753  -0.342  1.00  0.00    -0.014 A 
BRANCH  38  39
ATOM     39  C   UNL     1       2.260  -7.870   0.161  1.00  0.00     0.031 A 
ATOM     40  C   UNL     1       1.970  -9.029  -0.759  1.00  0.00     0.074 A 
ATOM     41  C   UNL     1       1.821  -7.891   1.432  1.00  0.00     0.049 A 
ATOM     42  N   UNL     1       1.261 -10.105  -0.539  1.00  0.00    -0.248 NA
ATOM     43  C   UNL     1       2.563  -8.966  -2.106  1.00  0.00     0.031 C 
ATOM     44  C   UNL     1       2.071  -6.851   2.429  1.00  0.00     0.029 A 
ATOM     45  N   UNL     1       1.071  -8.825   2.101  1.00  0.00    -0.354 N 
ATOM     46  C   UNL     1       1.322 -10.846  -1.714  1.00  0.00     0.074 A 
ATOM     47  C   UNL     1       2.107 -10.081  -2.657  1.00  0.00     0.031 C 
ATOM     48  C   UNL     1       1.470  -7.199   3.581  1.00  0.00     0.029 A 
ATOM     49  C   UNL     1       0.775  -8.471   3.396  1.00  0.00     0.049 A 
ATOM     50  H   UNL     1       0.772  -9.669   1.692  1.00  0.00     0.167 HD
ATOM     51  C   UNL     1       0.786 -12.061  -1.979  1.00  0.00     0.037 A 
ATOM     52  C   UNL     1       0.013  -9.094   4.317  1.00  0.00     0.037 A 
ATOM     53  C   UNL     1       0.008 -12.824  -1.039  1.00  0.00     0.049 A 
ATOM     54  C   UNL     1      -0.619 -10.421   3.982  1.00  0.00     0.074 A 
ATOM     55  C   UNL     1      -0.588 -14.060  -1.217  1.00  0.00     0.029 A 
ATOM     56  N   UNL     1      -0.278 -12.425   0.258  1.00  0.00    -0.354 N 
ATOM     57  N   UNL     1      -0.551 -11.108   2.866  1.00  0.00    -0.248 NA
ATOM     58  C   UNL     1      -1.423 -11.061   5.032  1.00  0.00     0.031 C 
ATOM     59  C   UNL     1      -1.264 -14.394  -0.038  1.00  0.00     0.029 A 
ATOM     60  C   UNL     1      -1.049 -13.387   0.889  1.00  0.00     0.049 A 
ATOM     61  H   UNL     1       0.022 -11.583   0.670  1.00  0.00     0.167 HD
ATOM     62  C   UNL     1      -1.275 -12.275   3.093  1.00  0.00     0.074 A 
ATOM     63  C   UNL     1      -1.765 -12.204   4.453  1.00  0.00     0.031 C 
ATOM     64  C   UNL     1      -1.512 -13.312   2.252  1.00  0.00     0.037 A 
BRANCH  51  65
ATOM     65  C   UNL     1       1.014 -12.641  -3.347  1.00  0.00     0.058 A 
ATOM     66  C   UNL     1       2.266 -13.147  -3.731  1.00  0.00     0.135 A 
ATOM     67  C   UNL     1      -0.042 -12.734  -4.269  1.00  0.00     0.135 A 
ATOM     68  F   UNL     1       3.314 -13.063  -2.896  1.00  0.00    -0.206 F 
ATOM     69  C   UNL     1       2.467 -13.712  -4.986  1.00  0.00     0.059 A 
ATOM     70  C   UNL     1       0.131 -13.318  -5.520  1.00  0.00     0.059 A 
ATOM     71  F   UNL     1      -1.257 -12.261  -3.953  1.00  0.00    -0.206 F 
ATOM     72  C   UNL     1       1.392 -13.795  -5.873  1.00  0.00     0.060 A 
BRANCH  72  73
ATOM     73  S   UNL     1       1.665 -14.550  -7.491  1.00  0.00     0.124 S 
ATOM     74  O   UNL     1       2.441 -13.515  -8.167  1.00  0.00    -0.237 OA
ATOM     75  O   UNL     1       2.394 -15.766  -7.148  1.00  0.00    -0.237 OA
ATOM     76  O   UNL     1       0.314 -14.755  -8.002  1.00  0.00    -0.744 OA
ENDBRANCH  72  73
ENDBRANCH  51  65
BRANCH  52  77
ATOM     77  C   UNL     1      -0.217  -8.461   5.644  1.00  0.00     0.058 A 
ATOM     78  C   UNL     1       0.321  -9.006   6.818  1.00  0.00     0.135 A 
ATOM     79  C   UNL     1      -0.999  -7.301   5.760  1.00  0.00     0.135 A 
ATOM     80  F   UNL     1       1.067 -10.120   6.760  1.00  0.00    -0.206 F 
ATOM     81  C   UNL     1       0.075  -8.438   8.065  1.00  0.00     0.059 A 
ATOM     82  C   UNL     1      -1.238  -6.700   6.991  1.00  0.00     0.059 A 
ATOM     83  F   UNL     1      -1.525  -6.731   4.665  1.00  0.00    -0.206 F 
ATOM     84  C   UNL     1      -0.707  -7.284   8.140  1.00  0.00     0.060 A 
BRANCH  84  85
ATOM     85  S   UNL     1      -0.985  -6.519   9.752  1.00  0.00     0.124 S 
ATOM     86  O   UNL     1      -2.002  -7.397  10.320  1.00  0.00    -0.237 OA
ATOM     87  O   UNL     1       0.339  -6.593  10.362  1.00  0.00    -0.237 OA
ATOM     88  O   UNL     1      -1.430  -5.172   9.406  1.00  0.00    -0.744 OA
ENDBRANCH  84  85
ENDBRANCH  52  77
BRANCH  64  89
ATOM     89  C   UNL     1      -2.291 -14.480   2.788  1.00  0.00     0.058 A 
ATOM     90  C   UNL     1      -3.674 -14.409   3.011  1.00  0.00     0.135 A 
ATOM     91  C   UNL     1      -1.650 -15.707   3.031  1.00  0.00     0.135 A 
ATOM     92  F   UNL     1      -4.334 -13.259   2.799  1.00  0.00    -0.206 F 
ATOM     93  C   UNL     1      -4.392 -15.505   3.480  1.00  0.00     0.059 A 
ATOM     94  C   UNL     1      -2.351 -16.823   3.474  1.00  0.00     0.059 A 
ATOM     95  F   UNL     1      -0.330 -15.832   2.821  1.00  0.00    -0.206 F 
ATOM     96  C   UNL     1      -3.721 -16.709   3.709  1.00  0.00     0.060 A 
BRANCH  96  97
ATOM     97  S   UNL     1      -4.667 -18.133   4.289  1.00  0.00     0.124 S 
ATOM     98  O   UNL     1      -4.889 -17.787   5.689  1.00  0.00    -0.237 OA
ATOM     99  O   UNL     1      -5.847 -18.096   3.432  1.00  0.00    -0.237 OA
ATOM    100  O   UNL     1      -3.765 -19.257   4.055  1.00  0.00    -0.744 OA
ENDBRANCH  96  97
ENDBRANCH  64  89
ENDBRANCH  38  39
ENDBRANCH  31  33
ENDBRANCH  30  31
ENDBRANCH  29  30
ENDBRANCH  28  29
ENDBRANCH  27  28
ENDBRANCH   1  27
TORSDOF 22
