REMARK SMILES COc1ccc(OC)c(/C=N/[NH+]=C2/NC(=O)[C@@H](CC(=O)OCCOCCOC(=O)c3ccc(-c4c5nc(c(-c6c(F)cc(S(=O)(=O)[O-])cc6F)c6ccc([nH]6)c(-c6c(F)cc(S(=O)(=O)[O-])cc6F)c6nc(c(-c7c(F)cc(S(=O)(=O)[O-])cc7F)c7ccc4[nH]7)C=C6)C=C5)cc3)S2)c1
REMARK SMILES IDX 23 1 22 2 21 3 19 4 20 5 18 6 17 7 12 8 13 9 14 11 96 12
REMARK SMILES IDX 15 13 16 15 11 16 10 17 9 18 3 19 4 20 97 21 5 22 6 23 2 24
REMARK SMILES IDX 1 25 7 26 8 27 24 28 25 29 26 30 27 31 28 32 29 33 30 34
REMARK SMILES IDX 31 35 95 36 32 37 94 38 33 39 34 40 35 41 88 42 36 43 93 44
REMARK SMILES IDX 87 45 89 46 37 47 92 48 86 49 85 50 38 52 72 53 51 54 71 55
REMARK SMILES IDX 52 56 55 57 70 58 90 59 53 60 54 61 69 63 91 64 56 65 39 66
REMARK SMILES IDX 40 67 49 68 41 69 42 70 48 71 50 72 43 73 44 74 45 75 46 76
REMARK SMILES IDX 47 77 73 78 74 79 83 80 75 81 76 82 82 83 84 84 77 85 78 86
REMARK SMILES IDX 79 87 80 88 81 89 57 90 58 91 67 92 59 93 60 94 66 95 68 96
REMARK SMILES IDX 61 97 62 98 63 99 64 100 65 101
REMARK H PARENT 12 10 14 14 89 51 55 62
REMARK Flexibility Score: inf
ROOT
ATOM      1  C   UNL     1       6.141  -0.778   0.067  1.00  0.00     0.202 C 
ENDROOT
BRANCH   1   2
ATOM      2  C   UNL     1       7.052   0.462  -0.029  1.00  0.00     0.261 C 
BRANCH   2   3
ATOM      3  O   UNL     1       7.659   0.702  -1.317  1.00  0.00    -0.463 OA
BRANCH   3   4
ATOM      4  C   UNL     1       8.841   0.064  -1.480  1.00  0.00     0.307 C 
ATOM      5  O   UNL     1       9.373  -0.626  -0.612  1.00  0.00    -0.252 OA
BRANCH   4   6
ATOM      6  C   UNL     1       9.487   0.201  -2.839  1.00  0.00     0.150 C 
BRANCH   6   7
ATOM      7  C   UNL     1       8.910   0.975  -4.024  1.00  0.00     0.184 C 
ATOM      8  N   UNL     1       5.827   2.830  -5.514  1.00  0.00    -0.142 N 
ATOM      9  C   UNL     1       6.866   2.249  -5.013  1.00  0.00     0.337 C 
ATOM     10  H   UNL     1       5.825   3.815  -5.525  1.00  0.00     0.343 HD
ATOM     11  N   UNL     1       7.836   3.040  -4.471  1.00  0.00    -0.202 N 
ATOM     12  S   UNL     1       7.290   0.581  -4.799  1.00  0.00    -0.020 SA
ATOM     13  C   UNL     1       8.910   2.470  -3.851  1.00  0.00     0.322 C 
ATOM     14  H   UNL     1       7.762   4.020  -4.527  1.00  0.00     0.316 HD
ATOM     15  O   UNL     1       9.799   3.108  -3.295  1.00  0.00    -0.246 OA
BRANCH   8  16
ATOM     16  N   UNL     1       4.686   2.173  -6.050  1.00  0.00    -0.093 NA
ATOM     17  C   UNL     1       3.844   1.855  -5.113  1.00  0.00     0.170 C 
BRANCH  17  18
ATOM     18  C   UNL     1       2.357   1.776  -5.103  1.00  0.00     0.042 A 
ATOM     19  C   UNL     1       0.440   0.972  -3.785  1.00  0.00     0.119 A 
ATOM     20  C   UNL     1      -0.396   1.838  -4.470  1.00  0.00     0.050 A 
ATOM     21  C   UNL     1       1.801   0.932  -4.105  1.00  0.00     0.060 A 
ATOM     22  C   UNL     1       0.126   2.640  -5.486  1.00  0.00     0.051 A 
ATOM     23  C   UNL     1       1.499   2.636  -5.801  1.00  0.00     0.128 A 
BRANCH  19  24
ATOM     24  O   UNL     1      -0.163   0.092  -2.928  1.00  0.00    -0.497 OA
ATOM     25  C   UNL     1       0.243   0.217  -1.569  1.00  0.00     0.278 C 
ENDBRANCH  19  24
BRANCH  23  26
ATOM     26  O   UNL     1       1.814   3.462  -6.840  1.00  0.00    -0.496 OA
ATOM     27  C   UNL     1       2.834   4.425  -6.611  1.00  0.00     0.278 C 
ENDBRANCH  23  26
ENDBRANCH  17  18
ENDBRANCH   8  16
ENDBRANCH   6   7
ENDBRANCH   4   6
ENDBRANCH   3   4
ENDBRANCH   2   3
ENDBRANCH   1   2
BRANCH   1  28
ATOM     28  O   UNL     1       6.338  -1.851  -0.837  1.00  0.00    -0.374 OA
BRANCH  28  29
ATOM     29  C   UNL     1       6.136  -1.613  -2.225  1.00  0.00     0.202 C 
BRANCH  29  30
ATOM     30  C   UNL     1       4.941  -0.763  -2.676  1.00  0.00     0.261 C 
BRANCH  30  31
ATOM     31  O   UNL     1       4.987   0.648  -2.315  1.00  0.00    -0.460 OA
BRANCH  31  32
ATOM     32  C   UNL     1       3.983   1.059  -1.497  1.00  0.00     0.338 C 
ATOM     33  O   UNL     1       3.279   0.290  -0.855  1.00  0.00    -0.246 OA
BRANCH  32  34
ATOM     34  C   UNL     1       3.632   2.508  -1.536  1.00  0.00     0.060 A 
ATOM     35  C   UNL     1       2.521   2.869  -0.760  1.00  0.00     0.016 A 
ATOM     36  C   UNL     1       4.186   3.459  -2.393  1.00  0.00     0.016 A 
ATOM     37  C   UNL     1       1.884   4.096  -0.932  1.00  0.00     0.010 A 
ATOM     38  C   UNL     1       3.535   4.686  -2.592  1.00  0.00     0.010 A 
ATOM     39  C   UNL     1       2.369   5.004  -1.875  1.00  0.00    -0.014 A 
BRANCH  39  40
ATOM     40  C   UNL     1       1.846   6.388  -1.895  1.00  0.00     0.031 A 
ATOM     41  C   UNL     1       0.796   6.867  -2.851  1.00  0.00     0.074 A 
ATOM     42  C   UNL     1       2.445   7.242  -1.048  1.00  0.00     0.049 A 
ATOM     43  N   UNL     1       0.263   8.058  -2.960  1.00  0.00    -0.248 NA
ATOM     44  C   UNL     1       0.293   5.897  -3.828  1.00  0.00     0.031 C 
ATOM     45  C   UNL     1       3.528   6.879  -0.128  1.00  0.00     0.029 A 
ATOM     46  N   UNL     1       2.276   8.583  -0.860  1.00  0.00    -0.354 N 
ATOM     47  C   UNL     1      -0.640   7.984  -4.017  1.00  0.00     0.074 A 
ATOM     48  C   UNL     1      -0.556   6.634  -4.537  1.00  0.00     0.031 C 
ATOM     49  C   UNL     1       3.972   7.986   0.479  1.00  0.00     0.029 A 
ATOM     50  C   UNL     1       3.192   9.122   0.006  1.00  0.00     0.049 A 
ATOM     51  H   UNL     1       1.569   9.108  -1.301  1.00  0.00     0.167 HD
ATOM     52  C   UNL     1      -1.458   8.959  -4.494  1.00  0.00     0.037 A 
ATOM     53  C   UNL     1       3.387  10.397   0.377  1.00  0.00     0.037 A 
ATOM     54  C   UNL     1      -1.496  10.301  -3.956  1.00  0.00     0.049 A 
ATOM     55  C   UNL     1       2.446  11.447  -0.125  1.00  0.00     0.074 A 
ATOM     56  C   UNL     1      -2.360  11.336  -4.275  1.00  0.00     0.029 A 
ATOM     57  N   UNL     1      -0.612  10.804  -3.010  1.00  0.00    -0.354 N 
ATOM     58  N   UNL     1       1.481  11.329  -1.005  1.00  0.00    -0.248 NA
ATOM     59  C   UNL     1       2.589  12.789   0.447  1.00  0.00     0.031 C 
ATOM     60  C   UNL     1      -1.958  12.478  -3.573  1.00  0.00     0.029 A 
ATOM     61  C   UNL     1      -0.887  12.140  -2.762  1.00  0.00     0.049 A 
ATOM     62  H   UNL     1       0.105  10.286  -2.577  1.00  0.00     0.167 HD
ATOM     63  C   UNL     1       0.876  12.577  -1.069  1.00  0.00     0.074 A 
ATOM     64  C   UNL     1       1.581  13.428  -0.130  1.00  0.00     0.031 C 
ATOM     65  C   UNL     1      -0.172  12.978  -1.829  1.00  0.00     0.037 A 
BRANCH  52  66
ATOM     66  C   UNL     1      -2.392   8.639  -5.638  1.00  0.00     0.058 A 
ATOM     67  C   UNL     1      -3.481   7.766  -5.482  1.00  0.00     0.135 A 
ATOM     68  C   UNL     1      -2.274   9.307  -6.872  1.00  0.00     0.135 A 
ATOM     69  F   UNL     1      -3.653   7.099  -4.329  1.00  0.00    -0.206 F 
ATOM     70  C   UNL     1      -4.406   7.557  -6.503  1.00  0.00     0.059 A 
ATOM     71  C   UNL     1      -3.204   9.134  -7.897  1.00  0.00     0.059 A 
ATOM     72  F   UNL     1      -1.261  10.162  -7.082  1.00  0.00    -0.206 F 
ATOM     73  C   UNL     1      -4.264   8.251  -7.705  1.00  0.00     0.060 A 
BRANCH  73  74
ATOM     74  S   UNL     1      -5.498   7.995  -9.000  1.00  0.00     0.124 S 
ATOM     75  O   UNL     1      -5.202   6.628  -9.419  1.00  0.00    -0.237 OA
ATOM     76  O   UNL     1      -6.752   8.176  -8.275  1.00  0.00    -0.237 OA
ATOM     77  O   UNL     1      -5.188   9.031  -9.979  1.00  0.00    -0.744 OA
ENDBRANCH  73  74
ENDBRANCH  52  66
BRANCH  53  78
ATOM     78  C   UNL     1       4.472  10.699   1.337  1.00  0.00     0.058 A 
ATOM     79  C   UNL     1       4.176  10.970   2.678  1.00  0.00     0.135 A 
ATOM     80  C   UNL     1       5.822  10.621   0.958  1.00  0.00     0.135 A 
ATOM     81  F   UNL     1       2.898  11.027   3.084  1.00  0.00    -0.206 F 
ATOM     82  C   UNL     1       5.180  11.178   3.612  1.00  0.00     0.059 A 
ATOM     83  C   UNL     1       6.846  10.802   1.880  1.00  0.00     0.059 A 
ATOM     84  F   UNL     1       6.150  10.314  -0.307  1.00  0.00    -0.206 F 
ATOM     85  C   UNL     1       6.513  11.090   3.203  1.00  0.00     0.060 A 
BRANCH  85  86
ATOM     86  S   UNL     1       7.804  11.313   4.443  1.00  0.00     0.124 S 
ATOM     87  O   UNL     1       7.710  12.744   4.706  1.00  0.00    -0.237 OA
ATOM     88  O   UNL     1       7.350  10.434   5.516  1.00  0.00    -0.237 OA
ATOM     89  O   UNL     1       9.012  10.874   3.752  1.00  0.00    -0.744 OA
ENDBRANCH  85  86
ENDBRANCH  53  78
BRANCH  65  90
ATOM     90  C   UNL     1      -0.637  14.398  -1.661  1.00  0.00     0.058 A 
ATOM     91  C   UNL     1       0.120  15.483  -2.128  1.00  0.00     0.135 A 
ATOM     92  C   UNL     1      -1.877  14.671  -1.061  1.00  0.00     0.135 A 
ATOM     93  F   UNL     1       1.319  15.277  -2.696  1.00  0.00    -0.206 F 
ATOM     94  C   UNL     1      -0.326  16.793  -1.987  1.00  0.00     0.059 A 
ATOM     95  C   UNL     1      -2.357  15.971  -0.938  1.00  0.00     0.059 A 
ATOM     96  F   UNL     1      -2.642  13.669  -0.600  1.00  0.00    -0.206 F 
ATOM     97  C   UNL     1      -1.569  17.026  -1.396  1.00  0.00     0.060 A 
BRANCH  97  98
ATOM     98  S   UNL     1      -2.155  18.728  -1.261  1.00  0.00     0.124 S 
ATOM     99  O   UNL     1      -1.284  19.257  -0.217  1.00  0.00    -0.237 OA
ATOM    100  O   UNL     1      -1.919  19.244  -2.606  1.00  0.00    -0.237 OA
ATOM    101  O   UNL     1      -3.558  18.577  -0.891  1.00  0.00    -0.744 OA
ENDBRANCH  97  98
ENDBRANCH  65  90
ENDBRANCH  39  40
ENDBRANCH  32  34
ENDBRANCH  31  32
ENDBRANCH  30  31
ENDBRANCH  29  30
ENDBRANCH  28  29
ENDBRANCH   1  28
TORSDOF 22
