REMARK SMILES COc1c(C(=O)OCCOCCOC(=O)c2ccc(-c3c4nc(c(-c5c(F)cc(S(=O)(=O)[O-])cc5F)c5ccc([nH]5)c(-c5c(F)cc(S(=O)(=O)[O-])cc5F)c5nc(c(-c6c(F)cc(S(=O)(=O)[O-])cc6F)c6ccc3[nH]6)C=C5)C=C4)cc2)cccc1-c1cc(C)ccc1C
REMARK SMILES IDX 11 1 10 2 9 3 8 4 7 5 5 6 6 7 4 8 3 9 85 10 82 11 84 12
REMARK SMILES IDX 83 13 2 14 1 15 86 16 87 17 92 18 88 19 91 20 93 21 89 22
REMARK SMILES IDX 90 23 12 24 13 25 14 26 15 27 16 28 17 29 81 30 18 31 80 32
REMARK SMILES IDX 19 33 20 34 21 35 74 36 22 37 79 38 73 39 75 40 23 41 78 42
REMARK SMILES IDX 72 43 71 44 24 46 58 47 37 48 57 49 38 50 41 51 56 52 76 53
REMARK SMILES IDX 39 54 40 55 55 57 77 58 42 59 25 60 26 61 35 62 27 63 28 64
REMARK SMILES IDX 34 65 36 66 29 67 30 68 31 69 32 70 33 71 59 72 60 73 69 74
REMARK SMILES IDX 61 75 62 76 68 77 70 78 63 79 64 80 65 81 66 82 67 83 43 84
REMARK SMILES IDX 44 85 53 86 45 87 46 88 52 89 54 90 47 91 48 92 49 93 50 94
REMARK SMILES IDX 51 95
REMARK H PARENT 75 45 41 56
REMARK Flexibility Score: inf
ROOT
ATOM      1  C   UNL     1      -2.929  -1.486  -3.160  1.00  0.00     0.202 C 
ENDROOT
BRANCH   1   2
ATOM      2  O   UNL     1      -4.136  -1.752  -2.449  1.00  0.00    -0.374 OA
BRANCH   2   3
ATOM      3  C   UNL     1      -4.153  -1.464  -1.047  1.00  0.00     0.202 C 
BRANCH   3   4
ATOM      4  C   UNL     1      -3.394  -2.447  -0.154  1.00  0.00     0.261 C 
BRANCH   4   5
ATOM      5  O   UNL     1      -1.983  -2.335  -0.397  1.00  0.00    -0.460 OA
BRANCH   5   6
ATOM      6  C   UNL     1      -1.353  -3.489  -0.712  1.00  0.00     0.342 C 
ATOM      7  O   UNL     1      -1.826  -4.615  -0.665  1.00  0.00    -0.246 OA
BRANCH   6   8
ATOM      8  C   UNL     1      -0.057  -3.212  -1.374  1.00  0.00     0.102 A 
ATOM      9  C   UNL     1       0.899  -2.308  -0.884  1.00  0.00     0.141 A 
ATOM     10  C   UNL     1       2.188  -2.269  -1.468  1.00  0.00     0.025 A 
ATOM     11  C   UNL     1       0.197  -3.950  -2.541  1.00  0.00     0.019 A 
ATOM     12  C   UNL     1       2.401  -3.008  -2.654  1.00  0.00     0.012 A 
ATOM     13  C   UNL     1       1.410  -3.820  -3.202  1.00  0.00     0.002 A 
BRANCH   9  14
ATOM     14  O   UNL     1       0.583  -1.571   0.231  1.00  0.00    -0.495 OA
ATOM     15  C   UNL     1       0.597  -0.164  -0.026  1.00  0.00     0.278 C 
ENDBRANCH   9  14
BRANCH  10  16
ATOM     16  C   UNL     1       3.355  -1.592  -0.849  1.00  0.00    -0.011 A 
ATOM     17  C   UNL     1       4.126  -0.694  -1.623  1.00  0.00     0.012 A 
ATOM     18  C   UNL     1       3.784  -1.863   0.473  1.00  0.00    -0.043 A 
ATOM     19  C   UNL     1       5.277  -0.072  -1.116  1.00  0.00    -0.050 A 
ATOM     20  C   UNL     1       4.903  -1.189   0.992  1.00  0.00     0.004 A 
ATOM     21  C   UNL     1       3.082  -2.830   1.393  1.00  0.00     0.045 C 
ATOM     22  C   UNL     1       6.100   0.824  -1.992  1.00  0.00     0.044 C 
ATOM     23  C   UNL     1       5.646  -0.312   0.206  1.00  0.00     0.004 A 
ENDBRANCH  10  16
ENDBRANCH   6   8
ENDBRANCH   5   6
ENDBRANCH   4   5
ENDBRANCH   3   4
ENDBRANCH   2   3
ENDBRANCH   1   2
BRANCH   1  24
ATOM     24  C   UNL     1      -2.663  -0.029  -3.555  1.00  0.00     0.261 C 
BRANCH  24  25
ATOM     25  O   UNL     1      -2.513   0.840  -2.421  1.00  0.00    -0.460 OA
BRANCH  25  26
ATOM     26  C   UNL     1      -3.574   1.652  -2.194  1.00  0.00     0.338 C 
ATOM     27  O   UNL     1      -4.586   1.748  -2.877  1.00  0.00    -0.246 OA
BRANCH  26  28
ATOM     28  C   UNL     1      -3.437   2.322  -0.889  1.00  0.00     0.060 A 
ATOM     29  C   UNL     1      -4.522   2.243  -0.006  1.00  0.00     0.016 A 
ATOM     30  C   UNL     1      -2.311   3.081  -0.564  1.00  0.00     0.016 A 
ATOM     31  C   UNL     1      -4.507   2.966   1.184  1.00  0.00     0.010 A 
ATOM     32  C   UNL     1      -2.302   3.814   0.629  1.00  0.00     0.010 A 
ATOM     33  C   UNL     1      -3.414   3.789   1.490  1.00  0.00    -0.014 A 
BRANCH  33  34
ATOM     34  C   UNL     1      -3.509   4.731   2.632  1.00  0.00     0.031 A 
ATOM     35  C   UNL     1      -3.847   6.173   2.361  1.00  0.00     0.074 A 
ATOM     36  C   UNL     1      -3.340   4.299   3.896  1.00  0.00     0.049 A 
ATOM     37  N   UNL     1      -3.941   7.174   3.198  1.00  0.00    -0.248 NA
ATOM     38  C   UNL     1      -4.117   6.535   0.959  1.00  0.00     0.031 C 
ATOM     39  C   UNL     1      -3.048   2.920   4.286  1.00  0.00     0.029 A 
ATOM     40  N   UNL     1      -3.384   4.982   5.085  1.00  0.00    -0.354 N 
ATOM     41  C   UNL     1      -4.288   8.279   2.429  1.00  0.00     0.074 A 
ATOM     42  C   UNL     1      -4.349   7.836   1.054  1.00  0.00     0.031 C 
ATOM     43  C   UNL     1      -2.921   2.863   5.623  1.00  0.00     0.029 A 
ATOM     44  C   UNL     1      -3.097   4.202   6.180  1.00  0.00     0.049 A 
ATOM     45  H   UNL     1      -3.600   5.941   5.148  1.00  0.00     0.167 HD
ATOM     46  C   UNL     1      -4.548   9.545   2.836  1.00  0.00     0.037 A 
ATOM     47  C   UNL     1      -2.969   4.538   7.479  1.00  0.00     0.037 A 
ATOM     48  C   UNL     1      -4.482   9.983   4.205  1.00  0.00     0.049 A 
ATOM     49  C   UNL     1      -3.200   5.969   7.898  1.00  0.00     0.074 A 
ATOM     50  C   UNL     1      -4.698  11.252   4.715  1.00  0.00     0.029 A 
ATOM     51  N   UNL     1      -4.185   9.165   5.284  1.00  0.00    -0.354 N 
ATOM     52  N   UNL     1      -3.520   7.004   7.158  1.00  0.00    -0.248 NA
ATOM     53  C   UNL     1      -3.063   6.275   9.329  1.00  0.00     0.031 C 
ATOM     54  C   UNL     1      -4.503  11.207   6.099  1.00  0.00     0.029 A 
ATOM     55  C   UNL     1      -4.210   9.901   6.457  1.00  0.00     0.049 A 
ATOM     56  H   UNL     1      -3.985   8.202   5.226  1.00  0.00     0.167 HD
ATOM     57  C   UNL     1      -3.658   8.073   8.038  1.00  0.00     0.074 A 
ATOM     58  C   UNL     1      -3.395   7.558   9.365  1.00  0.00     0.031 C 
ATOM     59  C   UNL     1      -3.974   9.365   7.773  1.00  0.00     0.037 A 
BRANCH  46  60
ATOM     60  C   UNL     1      -4.929  10.551   1.787  1.00  0.00     0.058 A 
ATOM     61  C   UNL     1      -6.194  10.528   1.178  1.00  0.00     0.135 A 
ATOM     62  C   UNL     1      -4.048  11.584   1.429  1.00  0.00     0.135 A 
ATOM     63  F   UNL     1      -7.066   9.550   1.468  1.00  0.00    -0.206 F 
ATOM     64  C   UNL     1      -6.569  11.489   0.244  1.00  0.00     0.059 A 
ATOM     65  C   UNL     1      -4.410  12.569   0.515  1.00  0.00     0.059 A 
ATOM     66  F   UNL     1      -2.825  11.649   1.978  1.00  0.00    -0.206 F 
ATOM     67  C   UNL     1      -5.671  12.508  -0.078  1.00  0.00     0.060 A 
BRANCH  67  68
ATOM     68  S   UNL     1      -6.185  13.765  -1.268  1.00  0.00     0.124 S 
ATOM     69  O   UNL     1      -6.150  13.013  -2.519  1.00  0.00    -0.237 OA
ATOM     70  O   UNL     1      -7.513  14.129  -0.784  1.00  0.00    -0.237 OA
ATOM     71  O   UNL     1      -5.166  14.801  -1.131  1.00  0.00    -0.744 OA
ENDBRANCH  67  68
ENDBRANCH  46  60
BRANCH  47  72
ATOM     72  C   UNL     1      -2.578   3.514   8.485  1.00  0.00     0.058 A 
ATOM     73  C   UNL     1      -3.468   3.095   9.485  1.00  0.00     0.135 A 
ATOM     74  C   UNL     1      -1.285   2.966   8.491  1.00  0.00     0.135 A 
ATOM     75  F   UNL     1      -4.712   3.595   9.527  1.00  0.00    -0.206 F 
ATOM     76  C   UNL     1      -3.081   2.200  10.478  1.00  0.00     0.059 A 
ATOM     77  C   UNL     1      -0.883   2.048   9.455  1.00  0.00     0.059 A 
ATOM     78  F   UNL     1      -0.399   3.322   7.547  1.00  0.00    -0.206 F 
ATOM     79  C   UNL     1      -1.782   1.687  10.457  1.00  0.00     0.060 A 
BRANCH  79  80
ATOM     80  S   UNL     1      -1.284   0.525  11.747  1.00  0.00     0.124 S 
ATOM     81  O   UNL     1      -1.088   1.418  12.883  1.00  0.00    -0.237 OA
ATOM     82  O   UNL     1      -2.439  -0.364  11.825  1.00  0.00    -0.237 OA
ATOM     83  O   UNL     1      -0.073  -0.080  11.201  1.00  0.00    -0.744 OA
ENDBRANCH  79  80
ENDBRANCH  47  72
BRANCH  59  84
ATOM     84  C   UNL     1      -4.117  10.300   8.943  1.00  0.00     0.058 A 
ATOM     85  C   UNL     1      -3.004  10.768   9.658  1.00  0.00     0.135 A 
ATOM     86  C   UNL     1      -5.385  10.771   9.320  1.00  0.00     0.135 A 
ATOM     87  F   UNL     1      -1.770  10.347   9.340  1.00  0.00    -0.206 F 
ATOM     88  C   UNL     1      -3.146  11.649  10.725  1.00  0.00     0.059 A 
ATOM     89  C   UNL     1      -5.548  11.672  10.366  1.00  0.00     0.059 A 
ATOM     90  F   UNL     1      -6.481  10.364   8.660  1.00  0.00    -0.206 F 
ATOM     91  C   UNL     1      -4.423  12.096  11.072  1.00  0.00     0.060 A 
BRANCH  91  92
ATOM     92  S   UNL     1      -4.593  13.260  12.442  1.00  0.00     0.124 S 
ATOM     93  O   UNL     1      -4.396  12.389  13.595  1.00  0.00    -0.237 OA
ATOM     94  O   UNL     1      -3.520  14.214  12.177  1.00  0.00    -0.237 OA
ATOM     95  O   UNL     1      -5.945  13.786  12.275  1.00  0.00    -0.744 OA
ENDBRANCH  91  92
ENDBRANCH  59  84
ENDBRANCH  33  34
ENDBRANCH  26  28
ENDBRANCH  25  26
ENDBRANCH  24  25
ENDBRANCH   1  24
TORSDOF 19
