REMARK SMILES CC[C@@H]1CCC[C@@](CC[NH+]2CCOCC2)(C(=O)OCCOCCOC(=O)c2ccc(-c3c4nc(c(-c5c(F)cc(S(=O)(=O)[O-])cc5F)c5ccc([nH]5)c(-c5c(F)cc(S(=O)(=O)[O-])cc5F)c5nc(c(-c6c(F)cc(S(=O)(=O)[O-])cc6F)c6ccc3[nH]6)C=C5)C=C4)cc2)C1
REMARK SMILES IDX 21 1 20 2 19 3 18 4 16 5 17 6 7 7 3 8 4 9 93 10 5 11 6 12
REMARK SMILES IDX 2 13 1 14 8 15 9 16 10 17 11 18 15 19 12 21 14 22 13 23
REMARK SMILES IDX 22 24 23 25 24 26 25 27 26 28 27 29 28 30 92 31 29 32 91 33
REMARK SMILES IDX 30 34 31 35 32 36 85 37 33 38 90 39 84 40 86 41 34 42 89 43
REMARK SMILES IDX 83 44 82 45 35 47 69 48 48 49 68 50 49 51 52 52 67 53 87 54
REMARK SMILES IDX 50 55 51 56 66 58 88 59 53 60 36 61 37 62 46 63 38 64 39 65
REMARK SMILES IDX 45 66 47 67 40 68 41 69 42 70 43 71 44 72 70 73 71 74 80 75
REMARK SMILES IDX 72 76 73 77 79 78 81 79 74 80 75 81 76 82 77 83 78 84 54 85
REMARK SMILES IDX 55 86 64 87 56 88 57 89 63 90 65 91 58 92 59 93 60 94 61 95
REMARK SMILES IDX 62 96
REMARK H PARENT 10 20 86 46 52 57
REMARK Flexibility Score: inf
ROOT
ATOM      1  O   UNL     1       5.410  -2.987   1.800  1.00  0.00    -0.374 OA
ENDROOT
BRANCH   1   2
ATOM      2  C   UNL     1       5.013  -3.221   3.153  1.00  0.00     0.202 C 
BRANCH   2   3
ATOM      3  C   UNL     1       3.760  -2.459   3.577  1.00  0.00     0.261 C 
BRANCH   3   4
ATOM      4  O   UNL     1       2.563  -3.110   3.082  1.00  0.00    -0.463 OA
BRANCH   4   5
ATOM      5  C   UNL     1       1.448  -2.372   3.289  1.00  0.00     0.312 C 
ATOM      6  O   UNL     1       1.478  -1.260   3.817  1.00  0.00    -0.252 OA
BRANCH   5   7
ATOM      7  C   UNL     1       0.130  -3.004   2.810  1.00  0.00     0.074 C 
ATOM      8  C   UNL     1       0.476  -1.940   0.491  1.00  0.00    -0.010 C 
ATOM      9  C   UNL     1       0.332  -3.290  -0.219  1.00  0.00     0.003 C 
ATOM     10  C   UNL     1      -0.393  -1.927   1.786  1.00  0.00     0.022 C 
ATOM     11  C   UNL     1       0.715  -4.436   0.698  1.00  0.00     0.001 C 
ATOM     12  C   UNL     1       0.045  -4.350   2.054  1.00  0.00     0.019 C 
BRANCH   8  13
ATOM     13  C   UNL     1       0.161  -0.802  -0.492  1.00  0.00     0.000 C 
ATOM     14  C   UNL     1       0.812   0.511  -0.082  1.00  0.00     0.004 C 
ENDBRANCH   8  13
BRANCH   7  15
ATOM     15  C   UNL     1      -0.743  -3.130   4.116  1.00  0.00     0.080 C 
BRANCH  15  16
ATOM     16  C   UNL     1      -0.774  -4.504   4.873  1.00  0.00     0.263 C 
BRANCH  16  17
ATOM     17  N   UNL     1       0.256  -4.948   5.823  1.00  0.00    -0.331 N 
ATOM     18  C   UNL     1       1.674  -4.683   5.585  1.00  0.00     0.291 C 
ATOM     19  C   UNL     1       0.131  -6.393   6.150  1.00  0.00     0.291 C 
ATOM     20  H   UNL     1       0.016  -4.315   6.586  1.00  0.00     0.348 HD
ATOM     21  C   UNL     1       2.381  -5.642   4.610  1.00  0.00     0.221 C 
ATOM     22  C   UNL     1       0.809  -7.319   5.120  1.00  0.00     0.221 C 
ATOM     23  O   UNL     1       2.198  -7.009   4.979  1.00  0.00    -0.370 OA
ENDBRANCH  16  17
ENDBRANCH  15  16
ENDBRANCH   7  15
ENDBRANCH   5   7
ENDBRANCH   4   5
ENDBRANCH   3   4
ENDBRANCH   2   3
ENDBRANCH   1   2
BRANCH   1  24
ATOM     24  C   UNL     1       4.491  -3.398   0.794  1.00  0.00     0.202 C 
BRANCH  24  25
ATOM     25  C   UNL     1       4.550  -4.877   0.390  1.00  0.00     0.261 C 
BRANCH  25  26
ATOM     26  O   UNL     1       4.405  -5.806   1.481  1.00  0.00    -0.460 OA
BRANCH  26  27
ATOM     27  C   UNL     1       5.577  -6.362   1.874  1.00  0.00     0.338 C 
ATOM     28  O   UNL     1       6.689  -6.100   1.423  1.00  0.00    -0.246 OA
BRANCH  27  29
ATOM     29  C   UNL     1       5.421  -7.301   3.001  1.00  0.00     0.060 A 
ATOM     30  C   UNL     1       6.319  -7.160   4.064  1.00  0.00     0.016 A 
ATOM     31  C   UNL     1       4.556  -8.399   2.955  1.00  0.00     0.016 A 
ATOM     32  C   UNL     1       6.415  -8.154   5.036  1.00  0.00     0.010 A 
ATOM     33  C   UNL     1       4.646  -9.393   3.946  1.00  0.00     0.010 A 
ATOM     34  C   UNL     1       5.613  -9.304   4.964  1.00  0.00    -0.014 A 
BRANCH  34  35
ATOM     35  C   UNL     1       5.919 -10.436   5.885  1.00  0.00     0.031 A 
ATOM     36  C   UNL     1       6.650 -11.652   5.365  1.00  0.00     0.074 A 
ATOM     37  C   UNL     1       5.671 -10.327   7.206  1.00  0.00     0.049 A 
ATOM     38  N   UNL     1       7.136 -12.674   6.027  1.00  0.00    -0.248 NA
ATOM     39  C   UNL     1       6.867 -11.727   3.912  1.00  0.00     0.031 C 
ATOM     40  C   UNL     1       4.986  -9.203   7.845  1.00  0.00     0.029 A 
ATOM     41  N   UNL     1       5.993 -11.160   8.250  1.00  0.00    -0.354 N 
ATOM     42  C   UNL     1       7.731 -13.498   5.077  1.00  0.00     0.074 A 
ATOM     43  C   UNL     1       7.497 -12.887   3.787  1.00  0.00     0.031 C 
ATOM     44  C   UNL     1       4.963  -9.404   9.175  1.00  0.00     0.029 A 
ATOM     45  C   UNL     1       5.613 -10.677   9.481  1.00  0.00     0.049 A 
ATOM     46  H   UNL     1       6.452 -12.022   8.129  1.00  0.00     0.167 HD
ATOM     47  C   UNL     1       8.430 -14.645   5.259  1.00  0.00     0.037 A 
ATOM     48  C   UNL     1       5.774 -11.197  10.715  1.00  0.00     0.037 A 
ATOM     49  C   UNL     1       8.673 -15.260   6.540  1.00  0.00     0.049 A 
ATOM     50  C   UNL     1       6.518 -12.498  10.883  1.00  0.00     0.074 A 
ATOM     51  C   UNL     1       9.368 -16.425   6.819  1.00  0.00     0.029 A 
ATOM     52  N   UNL     1       8.236 -14.759   7.757  1.00  0.00    -0.354 N 
ATOM     53  N   UNL     1       7.093 -13.248   9.973  1.00  0.00    -0.248 NA
ATOM     54  C   UNL     1       6.646 -13.016  12.254  1.00  0.00     0.031 C 
ATOM     55  C   UNL     1       9.320 -16.648   8.199  1.00  0.00     0.029 A 
ATOM     56  C   UNL     1       8.636 -15.598   8.786  1.00  0.00     0.049 A 
ATOM     57  H   UNL     1       7.718 -13.931   7.873  1.00  0.00     0.167 HD
ATOM     58  C   UNL     1       7.676 -14.307  10.666  1.00  0.00     0.074 A 
ATOM     59  C   UNL     1       7.404 -14.087  12.070  1.00  0.00     0.031 C 
ATOM     60  C   UNL     1       8.369 -15.368  10.183  1.00  0.00     0.037 A 
BRANCH  47  61
ATOM     61  C   UNL     1       9.002 -15.319   4.041  1.00  0.00     0.058 A 
ATOM     62  C   UNL     1      10.114 -14.789   3.366  1.00  0.00     0.135 A 
ATOM     63  C   UNL     1       8.484 -16.543   3.587  1.00  0.00     0.135 A 
ATOM     64  F   UNL     1      10.639 -13.614   3.748  1.00  0.00    -0.206 F 
ATOM     65  C   UNL     1      10.686 -15.444   2.280  1.00  0.00     0.059 A 
ATOM     66  C   UNL     1       9.055 -17.227   2.517  1.00  0.00     0.059 A 
ATOM     67  F   UNL     1       7.421 -17.093   4.194  1.00  0.00    -0.206 F 
ATOM     68  C   UNL     1      10.153 -16.665   1.865  1.00  0.00     0.060 A 
BRANCH  68  69
ATOM     69  S   UNL     1      10.930 -17.519   0.477  1.00  0.00     0.124 S 
ATOM     70  O   UNL     1      10.529 -16.677  -0.645  1.00  0.00    -0.237 OA
ATOM     71  O   UNL     1      12.345 -17.469   0.833  1.00  0.00    -0.237 OA
ATOM     72  O   UNL     1      10.325 -18.847   0.512  1.00  0.00    -0.744 OA
ENDBRANCH  68  69
ENDBRANCH  47  61
BRANCH  48  73
ATOM     73  C   UNL     1       5.218 -10.499  11.907  1.00  0.00     0.058 A 
ATOM     74  C   UNL     1       6.055  -9.959  12.896  1.00  0.00     0.135 A 
ATOM     75  C   UNL     1       3.832 -10.416  12.111  1.00  0.00     0.135 A 
ATOM     76  F   UNL     1       7.388 -10.021  12.753  1.00  0.00    -0.206 F 
ATOM     77  C   UNL     1       5.541  -9.403  14.063  1.00  0.00     0.059 A 
ATOM     78  C   UNL     1       3.293  -9.836  13.255  1.00  0.00     0.059 A 
ATOM     79  F   UNL     1       2.985 -10.905  11.191  1.00  0.00    -0.206 F 
ATOM     80  C   UNL     1       4.157  -9.353  14.237  1.00  0.00     0.060 A 
BRANCH  80  81
ATOM     81  S   UNL     1       3.493  -8.637  15.756  1.00  0.00     0.124 S 
ATOM     82  O   UNL     1       3.742  -9.705  16.716  1.00  0.00    -0.237 OA
ATOM     83  O   UNL     1       4.307  -7.435  15.912  1.00  0.00    -0.237 OA
ATOM     84  O   UNL     1       2.091  -8.396  15.426  1.00  0.00    -0.744 OA
ENDBRANCH  80  81
ENDBRANCH  48  73
BRANCH  60  85
ATOM     85  C   UNL     1       8.916 -16.349  11.187  1.00  0.00     0.058 A 
ATOM     86  C   UNL     1       8.077 -17.206  11.918  1.00  0.00     0.135 A 
ATOM     87  C   UNL     1      10.298 -16.431  11.424  1.00  0.00     0.135 A 
ATOM     88  F   UNL     1       6.748 -17.170  11.731  1.00  0.00    -0.206 F 
ATOM     89  C   UNL     1       8.582 -18.068  12.886  1.00  0.00     0.059 A 
ATOM     90  C   UNL     1      10.828 -17.309  12.366  1.00  0.00     0.059 A 
ATOM     91  F   UNL     1      11.150 -15.649  10.742  1.00  0.00    -0.206 F 
ATOM     92  C   UNL     1       9.959 -18.105  13.110  1.00  0.00     0.060 A 
BRANCH  92  93
ATOM     93  S   UNL     1      10.603 -19.212  14.384  1.00  0.00     0.124 S 
ATOM     94  O   UNL     1      10.264 -18.484  15.602  1.00  0.00    -0.237 OA
ATOM     95  O   UNL     1       9.848 -20.438  14.147  1.00  0.00    -0.237 OA
ATOM     96  O   UNL     1      12.028 -19.291  14.075  1.00  0.00    -0.744 OA
ENDBRANCH  92  93
ENDBRANCH  60  85
ENDBRANCH  34  35
ENDBRANCH  27  29
ENDBRANCH  26  27
ENDBRANCH  25  26
ENDBRANCH  24  25
ENDBRANCH   1  24
TORSDOF 21
