REMARK SMILES CCCN1CCC[C@@]2(CCN(c3ccc(C(=O)OCCOCCOC(=O)c4ccc(-c5c6nc(c(-c7c(F)cc(S(=O)(=O)[O-])cc7F)c7ccc([nH]7)c(-c7c(F)cc(S(=O)(=O)[O-])cc7F)c7nc(c(-c8c(F)cc(S(=O)(=O)[O-])cc8F)c8ccc5[nH]8)C=C7)C=C6)cc4)cn3)C2)C1=O
REMARK SMILES IDX 21 1 20 2 19 3 18 4 16 5 17 6 15 7 12 8 13 9 94 10 14 11
REMARK SMILES IDX 93 12 11 13 4 14 5 15 96 16 6 17 8 18 97 19 7 20 9 21 95 22
REMARK SMILES IDX 10 23 3 24 2 25 1 26 22 27 23 28 24 29 25 30 26 31 27 32
REMARK SMILES IDX 28 33 92 34 29 35 91 36 30 37 31 38 32 39 85 40 33 41 90 42
REMARK SMILES IDX 84 43 86 44 34 45 89 46 83 47 82 48 35 50 69 51 48 52 68 53
REMARK SMILES IDX 49 54 52 55 67 56 87 57 50 58 51 59 66 61 88 62 53 63 36 64
REMARK SMILES IDX 37 65 46 66 38 67 39 68 45 69 47 70 40 71 41 72 42 73 43 74
REMARK SMILES IDX 44 75 70 76 71 77 80 78 72 79 73 80 79 81 81 82 74 83 75 84
REMARK SMILES IDX 76 85 77 86 78 87 54 88 55 89 64 90 56 91 57 92 63 93 65 94
REMARK SMILES IDX 58 95 59 96 60 97 61 98 62 99
REMARK H PARENT 86 49 52 60
REMARK Flexibility Score: inf
ROOT
ATOM      1  O   UNL     1       9.521   7.786  -5.834  1.00  0.00    -0.374 OA
ENDROOT
BRANCH   1   2
ATOM      2  C   UNL     1      10.500   6.820  -5.454  1.00  0.00     0.202 C 
BRANCH   2   3
ATOM      3  C   UNL     1      10.174   5.937  -4.245  1.00  0.00     0.261 C 
BRANCH   3   4
ATOM      4  O   UNL     1       9.018   5.118  -4.481  1.00  0.00    -0.460 OA
BRANCH   4   5
ATOM      5  C   UNL     1       7.902   5.490  -3.811  1.00  0.00     0.339 C 
ATOM      6  O   UNL     1       7.808   6.364  -2.961  1.00  0.00    -0.246 OA
BRANCH   5   7
ATOM      7  C   UNL     1       6.732   4.794  -4.367  1.00  0.00     0.078 A 
ATOM      8  C   UNL     1       4.392   3.668  -5.292  1.00  0.00     0.128 A 
ATOM      9  C   UNL     1       5.586   2.942  -5.350  1.00  0.00     0.048 A 
ATOM     10  N   UNL     1       4.364   4.942  -4.854  1.00  0.00    -0.238 NA
ATOM     11  C   UNL     1       6.775   3.511  -4.897  1.00  0.00     0.021 A 
ATOM     12  C   UNL     1       5.520   5.468  -4.382  1.00  0.00     0.129 A 
BRANCH   8  13
ATOM     13  N   UNL     1       3.203   3.023  -5.581  1.00  0.00    -0.356 N 
ATOM     14  N   UNL     1       0.429   1.465  -2.513  1.00  0.00    -0.342 N 
ATOM     15  C   UNL     1       0.125   0.076  -2.805  1.00  0.00     0.119 C 
ATOM     16  C   UNL     1       0.523   2.370  -3.571  1.00  0.00     0.230 C 
ATOM     17  C   UNL     1       1.098  -0.487  -3.819  1.00  0.00     0.023 C 
ATOM     18  C   UNL     1       1.267   1.840  -4.811  1.00  0.00     0.069 C 
ATOM     19  O   UNL     1       0.226   3.557  -3.443  1.00  0.00    -0.274 OA
ATOM     20  C   UNL     1       0.993   0.353  -5.090  1.00  0.00     0.021 C 
ATOM     21  C   UNL     1       0.965   2.708  -6.051  1.00  0.00     0.040 C 
ATOM     22  C   UNL     1       2.779   2.072  -4.551  1.00  0.00     0.135 C 
ATOM     23  C   UNL     1       2.050   3.784  -6.032  1.00  0.00     0.119 C 
BRANCH  14  24
ATOM     24  C   UNL     1       0.861   1.933  -1.195  1.00  0.00     0.119 C 
BRANCH  24  25
ATOM     25  C   UNL     1       0.359   1.201   0.049  1.00  0.00     0.018 C 
ATOM     26  C   UNL     1       1.235   0.024   0.469  1.00  0.00     0.006 C 
ENDBRANCH  24  25
ENDBRANCH  14  24
ENDBRANCH   8  13
ENDBRANCH   5   7
ENDBRANCH   4   5
ENDBRANCH   3   4
ENDBRANCH   2   3
ENDBRANCH   1   2
BRANCH   1  27
ATOM     27  C   UNL     1       8.398   7.329  -6.588  1.00  0.00     0.202 C 
BRANCH  27  28
ATOM     28  C   UNL     1       8.612   7.033  -8.078  1.00  0.00     0.261 C 
BRANCH  28  29
ATOM     29  O   UNL     1       9.541   5.960  -8.307  1.00  0.00    -0.460 OA
BRANCH  29  30
ATOM     30  C   UNL     1      10.747   6.353  -8.785  1.00  0.00     0.338 C 
ATOM     31  O   UNL     1      11.089   7.488  -9.078  1.00  0.00    -0.246 OA
BRANCH  30  32
ATOM     32  C   UNL     1      11.697   5.226  -8.743  1.00  0.00     0.060 A 
ATOM     33  C   UNL     1      12.907   5.422  -8.066  1.00  0.00     0.016 A 
ATOM     34  C   UNL     1      11.444   4.027  -9.412  1.00  0.00     0.016 A 
ATOM     35  C   UNL     1      13.889   4.434  -8.092  1.00  0.00     0.010 A 
ATOM     36  C   UNL     1      12.434   3.039  -9.442  1.00  0.00     0.010 A 
ATOM     37  C   UNL     1      13.673   3.250  -8.809  1.00  0.00    -0.014 A 
BRANCH  37  38
ATOM     38  C   UNL     1      14.786   2.284  -8.990  1.00  0.00     0.031 A 
ATOM     39  C   UNL     1      15.513   2.241 -10.308  1.00  0.00     0.074 A 
ATOM     40  C   UNL     1      15.154   1.468  -7.985  1.00  0.00     0.049 A 
ATOM     41  N   UNL     1      16.475   1.444 -10.696  1.00  0.00    -0.248 NA
ATOM     42  C   UNL     1      15.100   3.223 -11.324  1.00  0.00     0.031 C 
ATOM     43  C   UNL     1      14.548   1.443  -6.653  1.00  0.00     0.029 A 
ATOM     44  N   UNL     1      16.122   0.496  -7.931  1.00  0.00    -0.354 N 
ATOM     45  C   UNL     1      16.774   1.817 -12.001  1.00  0.00     0.074 A 
ATOM     46  C   UNL     1      15.876   2.897 -12.349  1.00  0.00     0.031 C 
ATOM     47  C   UNL     1      15.151   0.494  -5.917  1.00  0.00     0.029 A 
ATOM     48  C   UNL     1      16.159  -0.179  -6.733  1.00  0.00     0.049 A 
ATOM     49  H   UNL     1      16.731   0.301  -8.678  1.00  0.00     0.167 HD
ATOM     50  C   UNL     1      17.716   1.308 -12.831  1.00  0.00     0.037 A 
ATOM     51  C   UNL     1      16.903  -1.237  -6.351  1.00  0.00     0.037 A 
ATOM     52  C   UNL     1      18.618   0.244 -12.472  1.00  0.00     0.049 A 
ATOM     53  C   UNL     1      17.903  -1.822  -7.316  1.00  0.00     0.074 A 
ATOM     54  C   UNL     1      19.633  -0.313 -13.230  1.00  0.00     0.029 A 
ATOM     55  N   UNL     1      18.611  -0.428 -11.259  1.00  0.00    -0.354 N 
ATOM     56  N   UNL     1      18.198  -1.435  -8.535  1.00  0.00    -0.248 NA
ATOM     57  C   UNL     1      18.672  -2.986  -6.855  1.00  0.00     0.031 C 
ATOM     58  C   UNL     1      20.201  -1.361 -12.499  1.00  0.00     0.029 A 
ATOM     59  C   UNL     1      19.582  -1.416 -11.261  1.00  0.00     0.049 A 
ATOM     60  H   UNL     1      18.006  -0.232 -10.508  1.00  0.00     0.167 HD
ATOM     61  C   UNL     1      19.210  -2.286  -8.970  1.00  0.00     0.074 A 
ATOM     62  C   UNL     1      19.483  -3.200  -7.881  1.00  0.00     0.031 C 
ATOM     63  C   UNL     1      19.855  -2.309 -10.163  1.00  0.00     0.037 A 
BRANCH  50  64
ATOM     64  C   UNL     1      17.817   1.873 -14.221  1.00  0.00     0.058 A 
ATOM     65  C   UNL     1      18.351   3.148 -14.467  1.00  0.00     0.135 A 
ATOM     66  C   UNL     1      17.450   1.092 -15.329  1.00  0.00     0.135 A 
ATOM     67  F   UNL     1      18.700   3.944 -13.445  1.00  0.00    -0.206 F 
ATOM     68  C   UNL     1      18.512   3.630 -15.763  1.00  0.00     0.059 A 
ATOM     69  C   UNL     1      17.627   1.543 -16.634  1.00  0.00     0.059 A 
ATOM     70  F   UNL     1      16.930  -0.133 -15.150  1.00  0.00    -0.206 F 
ATOM     71  C   UNL     1      18.154   2.817 -16.840  1.00  0.00     0.060 A 
BRANCH  71  72
ATOM     72  S   UNL     1      18.412   3.440 -18.515  1.00  0.00     0.124 S 
ATOM     73  O   UNL     1      17.384   4.472 -18.604  1.00  0.00    -0.237 OA
ATOM     74  O   UNL     1      19.789   3.921 -18.458  1.00  0.00    -0.237 OA
ATOM     75  O   UNL     1      18.195   2.265 -19.354  1.00  0.00    -0.744 OA
ENDBRANCH  71  72
ENDBRANCH  50  64
BRANCH  51  76
ATOM     76  C   UNL     1      16.721  -1.835  -5.000  1.00  0.00     0.058 A 
ATOM     77  C   UNL     1      17.741  -1.779  -4.037  1.00  0.00     0.135 A 
ATOM     78  C   UNL     1      15.537  -2.507  -4.656  1.00  0.00     0.135 A 
ATOM     79  F   UNL     1      18.896  -1.157  -4.319  1.00  0.00    -0.206 F 
ATOM     80  C   UNL     1      17.607  -2.394  -2.796  1.00  0.00     0.059 A 
ATOM     81  C   UNL     1      15.368  -3.103  -3.411  1.00  0.00     0.059 A 
ATOM     82  F   UNL     1      14.525  -2.580  -5.534  1.00  0.00    -0.206 F 
ATOM     83  C   UNL     1      16.416  -3.056  -2.493  1.00  0.00     0.060 A 
BRANCH  83  84
ATOM     84  S   UNL     1      16.244  -3.838  -0.875  1.00  0.00     0.124 S 
ATOM     85  O   UNL     1      17.116  -4.998  -1.016  1.00  0.00    -0.237 OA
ATOM     86  O   UNL     1      16.716  -2.789   0.024  1.00  0.00    -0.237 OA
ATOM     87  O   UNL     1      14.816  -4.127  -0.792  1.00  0.00    -0.744 OA
ENDBRANCH  83  84
ENDBRANCH  51  76
BRANCH  63  88
ATOM     88  C   UNL     1      20.954  -3.322 -10.342  1.00  0.00     0.058 A 
ATOM     89  C   UNL     1      20.684  -4.693 -10.480  1.00  0.00     0.135 A 
ATOM     90  C   UNL     1      22.294  -2.907 -10.432  1.00  0.00     0.135 A 
ATOM     91  F   UNL     1      19.423  -5.145 -10.397  1.00  0.00    -0.206 F 
ATOM     92  C   UNL     1      21.705  -5.619 -10.672  1.00  0.00     0.059 A 
ATOM     93  C   UNL     1      23.327  -3.812 -10.655  1.00  0.00     0.059 A 
ATOM     94  F   UNL     1      22.607  -1.607 -10.320  1.00  0.00    -0.206 F 
ATOM     95  C   UNL     1      23.024  -5.168 -10.761  1.00  0.00     0.060 A 
BRANCH  95  96
ATOM     96  S   UNL     1      24.334  -6.377 -11.043  1.00  0.00     0.124 S 
ATOM     97  O   UNL     1      24.409  -7.038  -9.744  1.00  0.00    -0.237 OA
ATOM     98  O   UNL     1      23.789  -7.180 -12.133  1.00  0.00    -0.237 OA
ATOM     99  O   UNL     1      25.488  -5.553 -11.394  1.00  0.00    -0.744 OA
ENDBRANCH  95  96
ENDBRANCH  63  88
ENDBRANCH  37  38
ENDBRANCH  30  32
ENDBRANCH  29  30
ENDBRANCH  28  29
ENDBRANCH  27  28
ENDBRANCH   1  27
TORSDOF 20
