REMARK SMILES O=C(C[C@H]1COCC[NH2+]1)Nc1cncc(C(=O)OCCOCCOC(=O)c2ccc(-c3c4nc(c(-c5c(F)cc(S(=O)(=O)[O-])cc5F)c5ccc([nH]5)c(-c5c(F)cc(S(=O)(=O)[O-])cc5F)c5nc(c(-c6c(F)cc(S(=O)(=O)[O-])cc6F)c6ccc3[nH]6)C=C5)C=C4)cc2)c1
REMARK SMILES IDX 21 1 20 2 19 3 18 4 16 5 17 6 15 7 11 8 12 9 93 10 13 11
REMARK SMILES IDX 14 12 10 13 1 14 2 15 3 17 4 18 5 19 9 20 6 21 8 22 7 25
REMARK SMILES IDX 22 26 23 27 24 28 25 29 26 30 27 31 28 32 92 33 29 34 91 35
REMARK SMILES IDX 30 36 31 37 32 38 85 39 33 40 90 41 84 42 86 43 34 44 89 45
REMARK SMILES IDX 83 46 82 47 35 49 69 50 48 51 68 52 49 53 52 54 67 55 87 56
REMARK SMILES IDX 50 57 51 58 66 60 88 61 53 62 36 63 37 64 46 65 38 66 39 67
REMARK SMILES IDX 45 68 47 69 40 70 41 71 42 72 43 73 44 74 70 75 71 76 80 77
REMARK SMILES IDX 72 78 73 79 79 80 81 81 74 82 75 83 76 84 77 85 78 86 54 87
REMARK SMILES IDX 55 88 64 89 56 90 57 91 63 92 65 93 58 94 59 95 60 96 61 97
REMARK SMILES IDX 62 98
REMARK H PARENT 10 16 9 23 9 24 86 48 52 59
REMARK Flexibility Score: inf
ROOT
ATOM      1  O   UNL     1      12.040   1.322   7.479  1.00  0.00    -0.374 OA
ENDROOT
BRANCH   1   2
ATOM      2  C   UNL     1      10.870   1.558   8.265  1.00  0.00     0.202 C 
BRANCH   2   3
ATOM      3  C   UNL     1       9.816   2.506   7.678  1.00  0.00     0.261 C 
BRANCH   3   4
ATOM      4  O   UNL     1       9.250   1.982   6.467  1.00  0.00    -0.460 OA
BRANCH   4   5
ATOM      5  C   UNL     1       9.632   2.598   5.322  1.00  0.00     0.339 C 
ATOM      6  O   UNL     1      10.318   3.602   5.212  1.00  0.00    -0.246 OA
BRANCH   5   7
ATOM      7  C   UNL     1       9.280   1.738   4.183  1.00  0.00     0.080 A 
ATOM      8  C   UNL     1       7.903   0.129   3.058  1.00  0.00     0.060 A 
ATOM      9  C   UNL     1       8.906   0.030   2.094  1.00  0.00     0.137 A 
ATOM     10  C   UNL     1       8.115   0.977   4.140  1.00  0.00     0.045 A 
ATOM     11  N   UNL     1      10.046   0.762   2.104  1.00  0.00    -0.262 NA
ATOM     12  C   UNL     1      10.196   1.618   3.144  1.00  0.00     0.126 A 
BRANCH   8  13
ATOM     13  N   UNL     1       6.720  -0.612   2.896  1.00  0.00    -0.324 N 
ATOM     14  O   UNL     1       5.230   0.851   3.916  1.00  0.00    -0.274 OA
ATOM     15  C   UNL     1       5.473  -0.208   3.346  1.00  0.00     0.230 C 
ATOM     16  H   UNL     1       6.781  -1.476   2.429  1.00  0.00     0.169 HD
BRANCH  15  17
ATOM     17  C   UNL     1       4.376  -1.193   3.014  1.00  0.00     0.167 C 
BRANCH  17  18
ATOM     18  C   UNL     1       3.918  -1.171   1.538  1.00  0.00     0.218 C 
ATOM     19  C   UNL     1       5.034  -0.980   0.490  1.00  0.00     0.225 C 
ATOM     20  N   UNL     1       3.178  -2.426   1.226  1.00  0.00    -0.340 N 
ATOM     21  O   UNL     1       5.989  -2.048   0.599  1.00  0.00    -0.369 OA
ATOM     22  C   UNL     1       4.112  -3.569   1.129  1.00  0.00     0.289 C 
ATOM     23  H   UNL     1       2.690  -2.315   0.337  1.00  0.00     0.346 HD
ATOM     24  H   UNL     1       2.510  -2.609   1.974  1.00  0.00     0.346 HD
ATOM     25  C   UNL     1       5.353  -3.294   0.260  1.00  0.00     0.221 C 
ENDBRANCH  17  18
ENDBRANCH  15  17
ENDBRANCH   8  13
ENDBRANCH   5   7
ENDBRANCH   4   5
ENDBRANCH   3   4
ENDBRANCH   2   3
ENDBRANCH   1   2
BRANCH   1  26
ATOM     26  C   UNL     1      11.934   0.386   6.408  1.00  0.00     0.202 C 
BRANCH  26  27
ATOM     27  C   UNL     1      11.969  -1.108   6.755  1.00  0.00     0.261 C 
BRANCH  27  28
ATOM     28  O   UNL     1      10.880  -1.510   7.601  1.00  0.00    -0.460 OA
BRANCH  28  29
ATOM     29  C   UNL     1      11.236  -1.714   8.893  1.00  0.00     0.338 C 
ATOM     30  O   UNL     1      12.359  -1.647   9.364  1.00  0.00    -0.246 OA
BRANCH  29  31
ATOM     31  C   UNL     1      10.039  -1.874   9.739  1.00  0.00     0.060 A 
ATOM     32  C   UNL     1       9.957  -1.070  10.881  1.00  0.00     0.016 A 
ATOM     33  C   UNL     1       9.072  -2.850   9.485  1.00  0.00     0.016 A 
ATOM     34  C   UNL     1       8.951  -1.290  11.815  1.00  0.00     0.010 A 
ATOM     35  C   UNL     1       8.059  -3.068  10.427  1.00  0.00     0.010 A 
ATOM     36  C   UNL     1       8.022  -2.321  11.619  1.00  0.00    -0.014 A 
BRANCH  36  37
ATOM     37  C   UNL     1       7.109  -2.684  12.732  1.00  0.00     0.031 A 
ATOM     38  C   UNL     1       7.389  -3.922  13.545  1.00  0.00     0.074 A 
ATOM     39  C   UNL     1       6.080  -1.879  13.055  1.00  0.00     0.049 A 
ATOM     40  N   UNL     1       6.745  -4.394  14.581  1.00  0.00    -0.248 NA
ATOM     41  C   UNL     1       8.545  -4.738  13.137  1.00  0.00     0.031 C 
ATOM     42  C   UNL     1       5.718  -0.649  12.350  1.00  0.00     0.029 A 
ATOM     43  N   UNL     1       5.151  -1.974  14.060  1.00  0.00    -0.354 N 
ATOM     44  C   UNL     1       7.405  -5.565  14.940  1.00  0.00     0.074 A 
ATOM     45  C   UNL     1       8.485  -5.747  13.994  1.00  0.00     0.031 C 
ATOM     46  C   UNL     1       4.641  -0.106  12.941  1.00  0.00     0.029 A 
ATOM     47  C   UNL     1       4.221  -0.962  14.049  1.00  0.00     0.049 A 
ATOM     48  H   UNL     1       5.151  -2.699  14.726  1.00  0.00     0.167 HD
ATOM     49  C   UNL     1       7.139  -6.405  15.968  1.00  0.00     0.037 A 
ATOM     50  C   UNL     1       3.142  -0.759  14.831  1.00  0.00     0.037 A 
ATOM     51  C   UNL     1       6.075  -6.205  16.919  1.00  0.00     0.049 A 
ATOM     52  C   UNL     1       2.864  -1.718  15.960  1.00  0.00     0.074 A 
ATOM     53  C   UNL     1       5.757  -6.972  18.027  1.00  0.00     0.029 A 
ATOM     54  N   UNL     1       5.151  -5.171  16.874  1.00  0.00    -0.354 N 
ATOM     55  N   UNL     1       3.529  -2.792  16.317  1.00  0.00    -0.248 NA
ATOM     56  C   UNL     1       1.698  -1.426  16.806  1.00  0.00     0.031 C 
ATOM     57  C   UNL     1       4.605  -6.440  18.613  1.00  0.00     0.029 A 
ATOM     58  C   UNL     1       4.245  -5.299  17.915  1.00  0.00     0.049 A 
ATOM     59  H   UNL     1       5.140  -4.452  16.201  1.00  0.00     0.167 HD
ATOM     60  C   UNL     1       2.878  -3.286  17.444  1.00  0.00     0.074 A 
ATOM     61  C   UNL     1       1.785  -2.379  17.722  1.00  0.00     0.031 C 
ATOM     62  C   UNL     1       3.159  -4.390  18.182  1.00  0.00     0.037 A 
BRANCH  49  63
ATOM     63  C   UNL     1       7.989  -7.638  16.119  1.00  0.00     0.058 A 
ATOM     64  C   UNL     1       9.320  -7.578  16.560  1.00  0.00     0.135 A 
ATOM     65  C   UNL     1       7.431  -8.909  15.900  1.00  0.00     0.135 A 
ATOM     66  F   UNL     1       9.912  -6.391  16.766  1.00  0.00    -0.206 F 
ATOM     67  C   UNL     1      10.068  -8.733  16.775  1.00  0.00     0.059 A 
ATOM     68  C   UNL     1       8.150 -10.077  16.135  1.00  0.00     0.059 A 
ATOM     69  F   UNL     1       6.164  -9.025  15.471  1.00  0.00    -0.206 F 
ATOM     70  C   UNL     1       9.470  -9.978  16.569  1.00  0.00     0.060 A 
BRANCH  70  71
ATOM     71  S   UNL     1      10.437 -11.466  16.904  1.00  0.00     0.124 S 
ATOM     72  O   UNL     1      11.402 -11.441  15.809  1.00  0.00    -0.237 OA
ATOM     73  O   UNL     1      10.977 -11.193  18.232  1.00  0.00    -0.237 OA
ATOM     74  O   UNL     1       9.447 -12.537  16.841  1.00  0.00    -0.744 OA
ENDBRANCH  70  71
ENDBRANCH  49  63
BRANCH  50  75
ATOM     75  C   UNL     1       2.229   0.386  14.564  1.00  0.00     0.058 A 
ATOM     76  C   UNL     1       2.094   1.447  15.472  1.00  0.00     0.135 A 
ATOM     77  C   UNL     1       1.447   0.423  13.398  1.00  0.00     0.135 A 
ATOM     78  F   UNL     1       2.813   1.456  16.604  1.00  0.00    -0.206 F 
ATOM     79  C   UNL     1       1.191   2.483  15.254  1.00  0.00     0.059 A 
ATOM     80  C   UNL     1       0.563   1.466  13.141  1.00  0.00     0.059 A 
ATOM     81  F   UNL     1       1.548  -0.558  12.488  1.00  0.00    -0.206 F 
ATOM     82  C   UNL     1       0.428   2.482  14.084  1.00  0.00     0.060 A 
BRANCH  82  83
ATOM     83  S   UNL     1      -0.729   3.839  13.802  1.00  0.00     0.124 S 
ATOM     84  O   UNL     1      -1.781   3.533  14.765  1.00  0.00    -0.237 OA
ATOM     85  O   UNL     1       0.091   5.008  14.100  1.00  0.00    -0.237 OA
ATOM     86  O   UNL     1      -1.094   3.681  12.397  1.00  0.00    -0.744 OA
ENDBRANCH  82  83
ENDBRANCH  50  75
BRANCH  62  87
ATOM     87  C   UNL     1       2.295  -4.650  19.388  1.00  0.00     0.058 A 
ATOM     88  C   UNL     1       0.944  -5.017  19.273  1.00  0.00     0.135 A 
ATOM     89  C   UNL     1       2.829  -4.529  20.682  1.00  0.00     0.135 A 
ATOM     90  F   UNL     1       0.381  -5.149  18.061  1.00  0.00    -0.206 F 
ATOM     91  C   UNL     1       0.140  -5.197  20.394  1.00  0.00     0.059 A 
ATOM     92  C   UNL     1       2.053  -4.742  21.818  1.00  0.00     0.059 A 
ATOM     93  F   UNL     1       4.119  -4.200  20.855  1.00  0.00    -0.206 F 
ATOM     94  C   UNL     1       0.703  -5.049  21.663  1.00  0.00     0.060 A 
BRANCH  94  95
ATOM     95  S   UNL     1      -0.355  -5.259  23.110  1.00  0.00     0.124 S 
ATOM     96  O   UNL     1      -1.140  -4.029  23.080  1.00  0.00    -0.237 OA
ATOM     97  O   UNL     1      -1.083  -6.483  22.792  1.00  0.00    -0.237 OA
ATOM     98  O   UNL     1       0.595  -5.370  24.213  1.00  0.00    -0.744 OA
ENDBRANCH  94  95
ENDBRANCH  62  87
ENDBRANCH  36  37
ENDBRANCH  29  31
ENDBRANCH  28  29
ENDBRANCH  27  28
ENDBRANCH  26  27
ENDBRANCH   1  26
TORSDOF 20
