REMARK SMILES CC1(C)Cc2c(-c3ccccc3)c(-c3ccc(Cl)cc3)c(CC(=O)OCCOCCOC(=O)c3ccc(-c4c5nc(c(-c6c(F)cc(S(=O)(=O)[O-])cc6F)c6ccc([nH]6)c(-c6c(F)cc(S(=O)(=O)[O-])cc6F)c6nc(c(-c7c(F)cc(S(=O)(=O)[O-])cc7F)c7ccc4[nH]7)C=C6)C=C5)cc3)n2C1
REMARK SMILES IDX 29 1 28 2 27 3 26 4 25 5 23 6 24 7 22 8 21 9 1 10 2 11 3 12
REMARK SMILES IDX 4 13 101 14 5 15 100 16 6 17 13 18 7 19 8 20 12 21 9 22
REMARK SMILES IDX 11 23 10 24 14 25 15 26 20 27 16 28 19 29 17 30 18 31 30 32
REMARK SMILES IDX 31 33 32 34 33 35 34 36 35 37 99 38 36 39 98 40 37 41 38 42
REMARK SMILES IDX 39 43 92 44 40 45 97 46 91 47 93 48 41 49 96 50 90 51 89 52
REMARK SMILES IDX 42 54 76 55 55 56 75 57 56 58 59 59 74 60 94 61 57 62 58 63
REMARK SMILES IDX 73 65 95 66 60 67 43 68 44 69 53 70 45 71 46 72 52 73 54 74
REMARK SMILES IDX 47 75 48 76 49 77 50 78 51 79 77 80 78 81 87 82 79 83 80 84
REMARK SMILES IDX 86 85 88 86 81 87 82 88 83 89 84 90 85 91 61 92 62 93 71 94
REMARK SMILES IDX 63 95 64 96 70 97 72 98 65 99 66 100 67 101 68 102 69 103
REMARK H PARENT 93 53 59 64
REMARK Flexibility Score: inf
ROOT
ATOM      1  C   UNL     1      -2.069   7.995  -0.080  1.00  0.00     0.202 C 
ENDROOT
BRANCH   1   2
ATOM      2  O   UNL     1      -2.789   8.250  -1.281  1.00  0.00    -0.374 OA
BRANCH   2   3
ATOM      3  C   UNL     1      -3.575   7.199  -1.808  1.00  0.00     0.202 C 
BRANCH   3   4
ATOM      4  C   UNL     1      -2.773   6.107  -2.533  1.00  0.00     0.261 C 
BRANCH   4   5
ATOM      5  O   UNL     1      -1.550   5.718  -1.853  1.00  0.00    -0.463 OA
BRANCH   5   6
ATOM      6  C   UNL     1      -0.383   6.161  -2.376  1.00  0.00     0.311 C 
ATOM      7  O   UNL     1      -0.306   6.674  -3.492  1.00  0.00    -0.252 OA
BRANCH   6   8
ATOM      8  C   UNL     1       0.875   5.985  -1.527  1.00  0.00     0.177 C 
BRANCH   8   9
ATOM      9  C   UNL     1       0.834   5.413  -0.125  1.00  0.00     0.037 A 
ATOM     10  C   UNL     1       1.058   0.445  -0.119  1.00  0.00     0.013 C 
ATOM     11  C   UNL     1       0.336   1.728   0.309  1.00  0.00    -0.012 C 
ATOM     12  C   UNL     1      -1.157   1.422   0.514  1.00  0.00     0.013 C 
ATOM     13  C   UNL     1       0.940   2.280   1.634  1.00  0.00     0.063 C 
ATOM     14  C   UNL     1       0.526   2.880  -0.730  1.00  0.00     0.129 C 
ATOM     15  C   UNL     1       0.949   3.742   1.402  1.00  0.00     0.027 A 
ATOM     16  N   UNL     1       0.695   4.067   0.104  1.00  0.00    -0.346 N 
ATOM     17  C   UNL     1       1.184   4.889   2.104  1.00  0.00     0.011 A 
ATOM     18  C   UNL     1       1.142   5.968   1.142  1.00  0.00     0.011 A 
BRANCH  17  19
ATOM     19  C   UNL     1       1.458   4.910   3.530  1.00  0.00    -0.016 A 
ATOM     20  C   UNL     1       2.441   4.097   4.107  1.00  0.00     0.009 A 
ATOM     21  C   UNL     1       0.699   5.747   4.350  1.00  0.00     0.009 A 
ATOM     22  C   UNL     1       2.627   4.092   5.492  1.00  0.00     0.001 A 
ATOM     23  C   UNL     1       0.914   5.769   5.723  1.00  0.00     0.001 A 
ATOM     24  C   UNL     1       1.855   4.923   6.299  1.00  0.00     0.000 A 
ENDBRANCH  17  19
BRANCH  18  25
ATOM     25  C   UNL     1       1.549   7.346   1.454  1.00  0.00    -0.016 A 
ATOM     26  C   UNL     1       2.907   7.664   1.577  1.00  0.00     0.010 A 
ATOM     27  C   UNL     1       0.625   8.296   1.909  1.00  0.00     0.010 A 
ATOM     28  C   UNL     1       3.309   8.908   2.094  1.00  0.00     0.021 A 
ATOM     29  C   UNL     1       1.012   9.549   2.389  1.00  0.00     0.021 A 
ATOM     30  C   UNL     1       2.359   9.851   2.482  1.00  0.00     0.041 A 
ATOM     31  Cl  UNL     1       2.845  11.371   3.124  1.00  0.00    -0.084 Cl
ENDBRANCH  18  25
ENDBRANCH   8   9
ENDBRANCH   6   8
ENDBRANCH   5   6
ENDBRANCH   4   5
ENDBRANCH   3   4
ENDBRANCH   2   3
ENDBRANCH   1   2
BRANCH   1  32
ATOM     32  C   UNL     1      -2.295   6.697   0.706  1.00  0.00     0.261 C 
BRANCH  32  33
ATOM     33  O   UNL     1      -3.649   6.448   1.067  1.00  0.00    -0.460 OA
BRANCH  33  34
ATOM     34  C   UNL     1      -3.997   7.125   2.165  1.00  0.00     0.338 C 
ATOM     35  O   UNL     1      -4.392   8.296   2.168  1.00  0.00    -0.246 OA
BRANCH  34  36
ATOM     36  C   UNL     1      -3.866   6.284   3.358  1.00  0.00     0.060 A 
ATOM     37  C   UNL     1      -4.723   6.554   4.423  1.00  0.00     0.016 A 
ATOM     38  C   UNL     1      -2.869   5.295   3.458  1.00  0.00     0.016 A 
ATOM     39  C   UNL     1      -4.566   5.851   5.601  1.00  0.00     0.010 A 
ATOM     40  C   UNL     1      -2.665   4.646   4.655  1.00  0.00     0.010 A 
ATOM     41  C   UNL     1      -3.526   4.921   5.711  1.00  0.00    -0.014 A 
BRANCH  41  42
ATOM     42  C   UNL     1      -3.534   4.024   6.847  1.00  0.00     0.031 A 
ATOM     43  C   UNL     1      -4.492   2.907   6.691  1.00  0.00     0.074 A 
ATOM     44  C   UNL     1      -2.677   4.104   7.875  1.00  0.00     0.049 A 
ATOM     45  N   UNL     1      -5.590   2.736   7.347  1.00  0.00    -0.248 NA
ATOM     46  C   UNL     1      -4.314   1.977   5.564  1.00  0.00     0.031 C 
ATOM     47  C   UNL     1      -1.532   4.991   8.009  1.00  0.00     0.029 A 
ATOM     48  N   UNL     1      -2.591   3.315   8.976  1.00  0.00    -0.354 N 
ATOM     49  C   UNL     1      -6.112   1.536   6.883  1.00  0.00     0.074 A 
ATOM     50  C   UNL     1      -5.430   1.253   5.650  1.00  0.00     0.031 C 
ATOM     51  C   UNL     1      -0.725   4.533   8.992  1.00  0.00     0.029 A 
ATOM     52  C   UNL     1      -1.385   3.419   9.653  1.00  0.00     0.049 A 
ATOM     53  H   UNL     1      -3.321   2.722   9.269  1.00  0.00     0.167 HD
ATOM     54  C   UNL     1      -6.843   0.736   7.705  1.00  0.00     0.037 A 
ATOM     55  C   UNL     1      -0.952   2.612  10.653  1.00  0.00     0.037 A 
ATOM     56  C   UNL     1      -7.343   1.482   8.838  1.00  0.00     0.049 A 
ATOM     57  C   UNL     1      -2.155   1.976  11.251  1.00  0.00     0.074 A 
ATOM     58  C   UNL     1      -8.094   2.635   8.984  1.00  0.00     0.029 A 
ATOM     59  N   UNL     1      -6.754   1.268  10.062  1.00  0.00    -0.354 N 
ATOM     60  N   UNL     1      -3.063   2.630  11.924  1.00  0.00    -0.248 NA
ATOM     61  C   UNL     1      -2.578   0.679  10.744  1.00  0.00     0.031 C 
ATOM     62  C   UNL     1      -7.553   3.296  10.126  1.00  0.00     0.029 A 
ATOM     63  C   UNL     1      -6.543   2.489  10.649  1.00  0.00     0.049 A 
ATOM     64  H   UNL     1      -6.524   0.392  10.449  1.00  0.00     0.167 HD
ATOM     65  C   UNL     1      -4.267   2.053  11.547  1.00  0.00     0.074 A 
ATOM     66  C   UNL     1      -3.897   0.784  10.926  1.00  0.00     0.031 C 
ATOM     67  C   UNL     1      -5.420   2.786  11.514  1.00  0.00     0.037 A 
BRANCH  54  68
ATOM     68  C   UNL     1      -6.746  -0.777   7.696  1.00  0.00     0.058 A 
ATOM     69  C   UNL     1      -7.585  -1.514   8.558  1.00  0.00     0.135 A 
ATOM     70  C   UNL     1      -5.689  -1.515   7.111  1.00  0.00     0.135 A 
ATOM     71  F   UNL     1      -8.631  -0.927   9.160  1.00  0.00    -0.206 F 
ATOM     72  C   UNL     1      -7.324  -2.840   8.903  1.00  0.00     0.059 A 
ATOM     73  C   UNL     1      -5.446  -2.852   7.397  1.00  0.00     0.059 A 
ATOM     74  F   UNL     1      -4.772  -0.967   6.307  1.00  0.00    -0.206 F 
ATOM     75  C   UNL     1      -6.234  -3.490   8.335  1.00  0.00     0.060 A 
BRANCH  75  76
ATOM     76  S   UNL     1      -5.801  -5.149   8.879  1.00  0.00     0.124 S 
ATOM     77  O   UNL     1      -5.303  -4.886  10.224  1.00  0.00    -0.237 OA
ATOM     78  O   UNL     1      -7.083  -5.839   8.792  1.00  0.00    -0.237 OA
ATOM     79  O   UNL     1      -4.801  -5.570   7.903  1.00  0.00    -0.744 OA
ENDBRANCH  75  76
ENDBRANCH  54  68
BRANCH  55  80
ATOM     80  C   UNL     1       0.430   2.151  10.937  1.00  0.00     0.058 A 
ATOM     81  C   UNL     1       0.741   1.504  12.145  1.00  0.00     0.135 A 
ATOM     82  C   UNL     1       1.406   2.076   9.922  1.00  0.00     0.135 A 
ATOM     83  F   UNL     1      -0.137   1.511  13.160  1.00  0.00    -0.206 F 
ATOM     84  C   UNL     1       1.922   0.775  12.319  1.00  0.00     0.059 A 
ATOM     85  C   UNL     1       2.596   1.366  10.076  1.00  0.00     0.059 A 
ATOM     86  F   UNL     1       1.192   2.613   8.712  1.00  0.00    -0.206 F 
ATOM     87  C   UNL     1       2.834   0.693  11.268  1.00  0.00     0.060 A 
BRANCH  87  88
ATOM     88  S   UNL     1       4.264  -0.404  11.418  1.00  0.00     0.124 S 
ATOM     89  O   UNL     1       5.084   0.302  12.395  1.00  0.00    -0.237 OA
ATOM     90  O   UNL     1       3.653  -1.647  11.876  1.00  0.00    -0.237 OA
ATOM     91  O   UNL     1       4.804  -0.442  10.061  1.00  0.00    -0.744 OA
ENDBRANCH  87  88
ENDBRANCH  55  80
BRANCH  67  92
ATOM     92  C   UNL     1      -5.446   4.103  12.249  1.00  0.00     0.058 A 
ATOM     93  C   UNL     1      -4.619   5.203  11.961  1.00  0.00     0.135 A 
ATOM     94  C   UNL     1      -6.438   4.291  13.225  1.00  0.00     0.135 A 
ATOM     95  F   UNL     1      -3.723   5.153  10.965  1.00  0.00    -0.206 F 
ATOM     96  C   UNL     1      -4.729   6.408  12.658  1.00  0.00     0.059 A 
ATOM     97  C   UNL     1      -6.590   5.495  13.906  1.00  0.00     0.059 A 
ATOM     98  F   UNL     1      -7.306   3.303  13.502  1.00  0.00    -0.206 F 
ATOM     99  C   UNL     1      -5.715   6.544  13.634  1.00  0.00     0.060 A 
BRANCH  99 100
ATOM    100  S   UNL     1      -5.886   8.117  14.502  1.00  0.00     0.124 S 
ATOM    101  O   UNL     1      -4.721   8.112  15.380  1.00  0.00    -0.237 OA
ATOM    102  O   UNL     1      -5.854   9.088  13.412  1.00  0.00    -0.237 OA
ATOM    103  O   UNL     1      -7.177   7.996  15.177  1.00  0.00    -0.744 OA
ENDBRANCH  99 100
ENDBRANCH  67  92
ENDBRANCH  41  42
ENDBRANCH  34  36
ENDBRANCH  33  34
ENDBRANCH  32  33
ENDBRANCH   1  32
TORSDOF 20
