REMARK SMILES CCOC(=O)c1cccc(Nc2c(-c3ccc(C(=O)OCCOCCOC(=O)c4ccc(-c5c6nc(c(-c7c(F)cc(S(=O)(=O)[O-])cc7F)c7ccc([nH]7)c(-c7c(F)cc(S(=O)(=O)[O-])cc7F)c7nc(c(-c8c(F)cc(S(=O)(=O)[O-])cc8F)c8ccc5[nH]8)C=C7)C=C6)cc4)cc3)nc3cnccn23)c1
REMARK SMILES IDX 21 1 20 2 18 3 19 4 17 5 14 6 15 7 96 8 16 9 95 10 13 11
REMARK SMILES IDX 12 12 103 13 97 14 98 15 102 16 99 17 101 18 100 19 11 20
REMARK SMILES IDX 10 22 6 23 7 24 104 25 8 26 9 27 4 28 5 29 3 30 2 31 1 32
REMARK SMILES IDX 22 33 23 34 24 35 25 36 26 37 27 38 28 39 29 40 30 41 94 42
REMARK SMILES IDX 31 43 93 44 32 45 33 46 34 47 87 48 35 49 92 50 86 51 88 52
REMARK SMILES IDX 36 53 91 54 85 55 84 56 37 58 71 59 50 60 70 61 51 62 54 63
REMARK SMILES IDX 69 64 89 65 52 66 53 67 68 69 90 70 55 71 38 72 39 73 48 74
REMARK SMILES IDX 40 75 41 76 47 77 49 78 42 79 43 80 44 81 45 82 46 83 72 84
REMARK SMILES IDX 73 85 82 86 74 87 75 88 81 89 83 90 76 91 77 92 78 93 79 94
REMARK SMILES IDX 80 95 56 96 57 97 66 98 58 99 59 100 65 101 67 102 60 103
REMARK SMILES IDX 61 104 62 105 63 106 64 107
REMARK H PARENT 11 21 88 57 54 68
REMARK Flexibility Score: inf
ROOT
ATOM      1  C   UNL     1       4.316  -8.899  -9.748  1.00  0.00     0.261 C 
ENDROOT
BRANCH   1   2
ATOM      2  O   UNL     1       4.017  -9.301  -8.400  1.00  0.00    -0.460 OA
BRANCH   2   3
ATOM      3  C   UNL     1       4.913  -8.888  -7.473  1.00  0.00     0.338 C 
ATOM      4  O   UNL     1       5.977  -8.324  -7.682  1.00  0.00    -0.246 OA
BRANCH   3   5
ATOM      5  C   UNL     1       4.368  -9.068  -6.107  1.00  0.00     0.060 A 
ATOM      6  C   UNL     1       3.563  -9.377  -3.440  1.00  0.00     0.004 A 
ATOM      7  C   UNL     1       4.358  -8.286  -3.812  1.00  0.00     0.011 A 
ATOM      8  C   UNL     1       3.132 -10.283  -4.420  1.00  0.00     0.011 A 
ATOM      9  C   UNL     1       4.764  -8.138  -5.138  1.00  0.00     0.016 A 
ATOM     10  C   UNL     1       3.520 -10.124  -5.758  1.00  0.00     0.016 A 
BRANCH   6  11
ATOM     11  C   UNL     1       3.328  -9.654  -2.036  1.00  0.00     0.114 A 
ATOM     12  C   UNL     1       2.883  -8.757  -1.068  1.00  0.00     0.143 A 
ATOM     13  N   UNL     1       2.957  -9.477   0.112  1.00  0.00    -0.283 N 
ATOM     14  N   UNL     1       3.705 -10.859  -1.484  1.00  0.00    -0.225 NA
ATOM     15  C   UNL     1       3.503 -10.697  -0.199  1.00  0.00     0.157 A 
ATOM     16  C   UNL     1       2.617  -9.202   1.428  1.00  0.00     0.115 A 
ATOM     17  C   UNL     1       3.783 -11.621   0.863  1.00  0.00     0.158 A 
ATOM     18  C   UNL     1       2.893 -10.125   2.367  1.00  0.00     0.129 A 
ATOM     19  N   UNL     1       3.499 -11.344   2.109  1.00  0.00    -0.259 NA
BRANCH  12  20
ATOM     20  N   UNL     1       2.422  -7.476  -1.160  1.00  0.00    -0.339 N 
ATOM     21  H   UNL     1       1.607  -7.336  -1.694  1.00  0.00     0.168 HD
BRANCH  20  22
ATOM     22  C   UNL     1       3.001  -6.328  -0.562  1.00  0.00     0.040 A 
ATOM     23  C   UNL     1       3.000  -3.907  -0.273  1.00  0.00     0.062 A 
ATOM     24  C   UNL     1       4.136  -3.987   0.536  1.00  0.00     0.016 A 
ATOM     25  C   UNL     1       2.417  -5.071  -0.797  1.00  0.00     0.041 A 
ATOM     26  C   UNL     1       4.689  -5.229   0.823  1.00  0.00     0.003 A 
ATOM     27  C   UNL     1       4.131  -6.385   0.270  1.00  0.00     0.026 A 
BRANCH  23  28
ATOM     28  C   UNL     1       2.515  -2.562  -0.643  1.00  0.00     0.338 C 
ATOM     29  O   UNL     1       3.269  -1.648  -0.941  1.00  0.00    -0.246 OA
BRANCH  28  30
ATOM     30  O   UNL     1       1.165  -2.503  -0.549  1.00  0.00    -0.462 OA
BRANCH  30  31
ATOM     31  C   UNL     1       0.586  -1.238  -0.911  1.00  0.00     0.230 C 
ATOM     32  C   UNL     1       0.790  -0.185   0.167  1.00  0.00     0.049 C 
ENDBRANCH  30  31
ENDBRANCH  28  30
ENDBRANCH  23  28
ENDBRANCH  20  22
ENDBRANCH  12  20
ENDBRANCH   6  11
ENDBRANCH   3   5
ENDBRANCH   2   3
ENDBRANCH   1   2
BRANCH   1  33
ATOM     33  C   UNL     1       3.354  -7.810 -10.231  1.00  0.00     0.202 C 
BRANCH  33  34
ATOM     34  O   UNL     1       3.398  -6.575  -9.515  1.00  0.00    -0.374 OA
BRANCH  34  35
ATOM     35  C   UNL     1       2.643  -6.502  -8.305  1.00  0.00     0.202 C 
BRANCH  35  36
ATOM     36  C   UNL     1       1.135  -6.274  -8.460  1.00  0.00     0.261 C 
BRANCH  36  37
ATOM     37  O   UNL     1       0.468  -7.447  -8.960  1.00  0.00    -0.460 OA
BRANCH  37  38
ATOM     38  C   UNL     1       0.023  -7.354 -10.235  1.00  0.00     0.338 C 
ATOM     39  O   UNL     1       0.069  -6.372 -10.962  1.00  0.00    -0.246 OA
BRANCH  38  40
ATOM     40  C   UNL     1      -0.378  -8.688 -10.721  1.00  0.00     0.060 A 
ATOM     41  C   UNL     1       0.129  -9.114 -11.957  1.00  0.00     0.016 A 
ATOM     42  C   UNL     1      -1.283  -9.483 -10.013  1.00  0.00     0.016 A 
ATOM     43  C   UNL     1      -0.308 -10.313 -12.517  1.00  0.00     0.010 A 
ATOM     44  C   UNL     1      -1.728 -10.679 -10.581  1.00  0.00     0.010 A 
ATOM     45  C   UNL     1      -1.272 -11.080 -11.851  1.00  0.00    -0.014 A 
BRANCH  45  46
ATOM     46  C   UNL     1      -1.940 -12.207 -12.544  1.00  0.00     0.031 A 
ATOM     47  C   UNL     1      -3.300 -11.972 -13.144  1.00  0.00     0.074 A 
ATOM     48  C   UNL     1      -1.358 -13.416 -12.629  1.00  0.00     0.049 A 
ATOM     49  N   UNL     1      -4.130 -12.827 -13.678  1.00  0.00    -0.248 NA
ATOM     50  C   UNL     1      -3.789 -10.583 -13.131  1.00  0.00     0.031 C 
ATOM     51  C   UNL     1      -0.024 -13.749 -12.133  1.00  0.00     0.029 A 
ATOM     52  N   UNL     1      -1.829 -14.595 -13.150  1.00  0.00    -0.354 N 
ATOM     53  C   UNL     1      -5.247 -12.087 -14.049  1.00  0.00     0.074 A 
ATOM     54  C   UNL     1      -4.997 -10.716 -13.660  1.00  0.00     0.031 C 
ATOM     55  C   UNL     1       0.208 -15.056 -12.353  1.00  0.00     0.029 A 
ATOM     56  C   UNL     1      -0.975 -15.656 -12.969  1.00  0.00     0.049 A 
ATOM     57  H   UNL     1      -2.696 -14.673 -13.609  1.00  0.00     0.167 HD
ATOM     58  C   UNL     1      -6.378 -12.512 -14.661  1.00  0.00     0.037 A 
ATOM     59  C   UNL     1      -1.144 -16.966 -13.239  1.00  0.00     0.037 A 
ATOM     60  C   UNL     1      -6.617 -13.877 -15.047  1.00  0.00     0.049 A 
ATOM     61  C   UNL     1      -2.437 -17.429 -13.862  1.00  0.00     0.074 A 
ATOM     62  C   UNL     1      -7.728 -14.413 -15.674  1.00  0.00     0.029 A 
ATOM     63  N   UNL     1      -5.728 -14.923 -14.843  1.00  0.00    -0.354 N 
ATOM     64  N   UNL     1      -3.488 -16.722 -14.204  1.00  0.00    -0.248 NA
ATOM     65  C   UNL     1      -2.569 -18.868 -14.134  1.00  0.00     0.031 C 
ATOM     66  C   UNL     1      -7.528 -15.790 -15.812  1.00  0.00     0.029 A 
ATOM     67  C   UNL     1      -6.271 -16.104 -15.319  1.00  0.00     0.049 A 
ATOM     68  H   UNL     1      -4.842 -14.838 -14.423  1.00  0.00     0.167 HD
ATOM     69  C   UNL     1      -4.387 -17.622 -14.766  1.00  0.00     0.074 A 
ATOM     70  C   UNL     1      -3.760 -18.926 -14.715  1.00  0.00     0.031 C 
ATOM     71  C   UNL     1      -5.619 -17.389 -15.284  1.00  0.00     0.037 A 
BRANCH  58  72
ATOM     72  C   UNL     1      -7.452 -11.494 -14.923  1.00  0.00     0.058 A 
ATOM     73  C   UNL     1      -7.310 -10.507 -15.911  1.00  0.00     0.135 A 
ATOM     74  C   UNL     1      -8.650 -11.520 -14.190  1.00  0.00     0.135 A 
ATOM     75  F   UNL     1      -6.177 -10.425 -16.626  1.00  0.00    -0.206 F 
ATOM     76  C   UNL     1      -8.307  -9.566 -16.146  1.00  0.00     0.059 A 
ATOM     77  C   UNL     1      -9.671 -10.605 -14.427  1.00  0.00     0.059 A 
ATOM     78  F   UNL     1      -8.835 -12.441 -13.231  1.00  0.00    -0.206 F 
ATOM     79  C   UNL     1      -9.483  -9.622 -15.397  1.00  0.00     0.060 A 
BRANCH  79  80
ATOM     80  S   UNL     1     -10.768  -8.393 -15.711  1.00  0.00     0.124 S 
ATOM     81  O   UNL     1     -10.184  -7.201 -15.104  1.00  0.00    -0.237 OA
ATOM     82  O   UNL     1     -10.846  -8.388 -17.169  1.00  0.00    -0.237 OA
ATOM     83  O   UNL     1     -11.935  -8.938 -15.026  1.00  0.00    -0.744 OA
ENDBRANCH  79  80
ENDBRANCH  58  72
BRANCH  59  84
ATOM     84  C   UNL     1      -0.068 -17.939 -12.911  1.00  0.00     0.058 A 
ATOM     85  C   UNL     1       0.666 -18.574 -13.923  1.00  0.00     0.135 A 
ATOM     86  C   UNL     1       0.247 -18.253 -11.580  1.00  0.00     0.135 A 
ATOM     87  F   UNL     1       0.395 -18.314 -15.211  1.00  0.00    -0.206 F 
ATOM     88  C   UNL     1       1.664 -19.498 -13.629  1.00  0.00     0.059 A 
ATOM     89  C   UNL     1       1.257 -19.155 -11.260  1.00  0.00     0.059 A 
ATOM     90  F   UNL     1      -0.419 -17.665 -10.574  1.00  0.00    -0.206 F 
ATOM     91  C   UNL     1       1.953 -19.781 -12.293  1.00  0.00     0.060 A 
BRANCH  91  92
ATOM     92  S   UNL     1       3.280 -20.948 -11.922  1.00  0.00     0.124 S 
ATOM     93  O   UNL     1       2.658 -22.220 -12.270  1.00  0.00    -0.237 OA
ATOM     94  O   UNL     1       4.346 -20.493 -12.810  1.00  0.00    -0.237 OA
ATOM     95  O   UNL     1       3.527 -20.733 -10.499  1.00  0.00    -0.744 OA
ENDBRANCH  91  92
ENDBRANCH  59  84
BRANCH  71  96
ATOM     96  C   UNL     1      -6.353 -18.550 -15.897  1.00  0.00     0.058 A 
ATOM     97  C   UNL     1      -6.960 -19.541 -15.112  1.00  0.00     0.135 A 
ATOM     98  C   UNL     1      -6.521 -18.619 -17.290  1.00  0.00     0.135 A 
ATOM     99  F   UNL     1      -6.825 -19.524 -13.777  1.00  0.00    -0.206 F 
ATOM    100  C   UNL     1      -7.702 -20.568 -15.689  1.00  0.00     0.059 A 
ATOM    101  C   UNL     1      -7.278 -19.622 -17.885  1.00  0.00     0.059 A 
ATOM    102  F   UNL     1      -5.968 -17.689 -18.084  1.00  0.00    -0.206 F 
ATOM    103  C   UNL     1      -7.860 -20.597 -17.076  1.00  0.00     0.060 A 
BRANCH 103 104
ATOM    104  S   UNL     1      -8.873 -21.900 -17.807  1.00  0.00     0.124 S 
ATOM    105  O   UNL     1      -7.991 -23.057 -17.695  1.00  0.00    -0.237 OA
ATOM    106  O   UNL     1     -10.045 -21.910 -16.937  1.00  0.00    -0.237 OA
ATOM    107  O   UNL     1      -9.114 -21.422 -19.166  1.00  0.00    -0.744 OA
ENDBRANCH 103 104
ENDBRANCH  71  96
ENDBRANCH  45  46
ENDBRANCH  38  40
ENDBRANCH  37  38
ENDBRANCH  36  37
ENDBRANCH  35  36
ENDBRANCH  34  35
ENDBRANCH  33  34
ENDBRANCH   1  33
TORSDOF 23
