REMARK SMILES O=C(OCCOCCOC(=O)[C@@H]1[C@@H](C(=O)N2CC[NH+](C/C=C/c3ccccc3)CC2)[C@@H]2C=C[C@H]1C2)c1ccc(-c2c3nc(c(-c4c(F)cc(S(=O)(=O)[O-])cc4F)c4ccc([nH]4)c(-c4c(F)cc(S(=O)(=O)[O-])cc4F)c4nc(c(-c5c(F)cc(S(=O)(=O)[O-])cc5F)c5ccc2[nH]5)C=C4)C=C3)cc1
REMARK SMILES IDX 7 1 6 2 5 3 4 4 3 5 2 6 1 7 36 8 37 9 101 10 38 11 100 12
REMARK SMILES IDX 39 13 40 14 41 15 94 16 42 17 99 18 93 19 95 20 43 21 98 22
REMARK SMILES IDX 92 23 91 24 44 26 78 27 57 28 77 29 58 30 61 31 76 32 96 33
REMARK SMILES IDX 59 34 60 35 75 37 97 38 62 39 45 40 46 41 55 42 47 43 48 44
REMARK SMILES IDX 54 45 56 46 49 47 50 48 51 49 52 50 53 51 79 52 80 53 89 54
REMARK SMILES IDX 81 55 82 56 88 57 90 58 83 59 84 60 85 61 86 62 87 63 63 64
REMARK SMILES IDX 64 65 73 66 65 67 66 68 72 69 74 70 67 71 68 72 69 73 70 74
REMARK SMILES IDX 71 75 8 76 9 77 10 78 11 79 12 80 13 81 34 82 31 83 33 84
REMARK SMILES IDX 35 85 32 86 14 87 15 88 16 89 17 90 30 91 18 92 29 93 19 94
REMARK SMILES IDX 20 96 21 97 22 98 23 99 24 100 28 101 25 102 27 103 26 104
REMARK H PARENT 95 25 61 36 19 95
REMARK Flexibility Score: inf
ROOT
ATOM      1  C   UNL     1       2.545   1.181   1.615  1.00  0.00     0.202 C 
ENDROOT
BRANCH   1   2
ATOM      2  O   UNL     1       3.910   0.818   1.402  1.00  0.00    -0.374 OA
BRANCH   2   3
ATOM      3  C   UNL     1       4.416   0.869   0.072  1.00  0.00     0.202 C 
BRANCH   3   4
ATOM      4  C   UNL     1       3.985  -0.184  -0.957  1.00  0.00     0.261 C 
BRANCH   4   5
ATOM      5  O   UNL     1       2.555  -0.395  -0.946  1.00  0.00    -0.460 OA
BRANCH   5   6
ATOM      6  C   UNL     1       1.904  -1.460  -0.399  1.00  0.00     0.338 C 
ATOM      7  O   UNL     1       0.698  -1.601  -0.568  1.00  0.00    -0.246 OA
BRANCH   6   8
ATOM      8  C   UNL     1       2.656  -2.463   0.396  1.00  0.00     0.060 A 
ATOM      9  C   UNL     1       3.733  -2.078   1.170  1.00  0.00     0.016 A 
ATOM     10  C   UNL     1       2.299  -3.809   0.416  1.00  0.00     0.016 A 
ATOM     11  C   UNL     1       4.588  -2.952   1.760  1.00  0.00     0.010 A 
ATOM     12  C   UNL     1       3.063  -4.715   1.171  1.00  0.00     0.010 A 
ATOM     13  C   UNL     1       4.221  -4.274   1.833  1.00  0.00    -0.014 A 
BRANCH  13  14
ATOM     14  C   UNL     1       5.189  -5.104   2.554  1.00  0.00     0.031 A 
ATOM     15  C   UNL     1       6.039  -6.023   1.747  1.00  0.00     0.074 A 
ATOM     16  C   UNL     1       5.476  -4.783   3.835  1.00  0.00     0.049 A 
ATOM     17  N   UNL     1       6.940  -6.867   2.154  1.00  0.00    -0.248 NA
ATOM     18  C   UNL     1       5.868  -5.976   0.281  1.00  0.00     0.031 C 
ATOM     19  C   UNL     1       4.822  -3.712   4.610  1.00  0.00     0.029 A 
ATOM     20  N   UNL     1       6.438  -5.248   4.685  1.00  0.00    -0.354 N 
ATOM     21  C   UNL     1       7.401  -7.494   1.007  1.00  0.00     0.074 A 
ATOM     22  C   UNL     1       6.699  -6.926  -0.118  1.00  0.00     0.031 C 
ATOM     23  C   UNL     1       5.440  -3.574   5.791  1.00  0.00     0.029 A 
ATOM     24  C   UNL     1       6.437  -4.624   5.912  1.00  0.00     0.049 A 
ATOM     25  H   UNL     1       7.072  -5.962   4.443  1.00  0.00     0.167 HD
ATOM     26  C   UNL     1       8.322  -8.477   0.932  1.00  0.00     0.037 A 
ATOM     27  C   UNL     1       7.123  -4.926   7.028  1.00  0.00     0.037 A 
ATOM     28  C   UNL     1       8.998  -8.985   2.094  1.00  0.00     0.049 A 
ATOM     29  C   UNL     1       8.050  -6.105   6.942  1.00  0.00     0.074 A 
ATOM     30  C   UNL     1       9.855 -10.060   2.199  1.00  0.00     0.029 A 
ATOM     31  N   UNL     1       8.892  -8.422   3.362  1.00  0.00    -0.354 N 
ATOM     32  N   UNL     1       8.363  -6.826   5.887  1.00  0.00    -0.248 NA
ATOM     33  C   UNL     1       8.690  -6.539   8.185  1.00  0.00     0.031 C 
ATOM     34  C   UNL     1      10.240 -10.170   3.541  1.00  0.00     0.029 A 
ATOM     35  C   UNL     1       9.662  -9.133   4.261  1.00  0.00     0.049 A 
ATOM     36  H   UNL     1       8.347  -7.633   3.586  1.00  0.00     0.167 HD
ATOM     37  C   UNL     1       9.237  -7.802   6.340  1.00  0.00     0.074 A 
ATOM     38  C   UNL     1       9.431  -7.551   7.757  1.00  0.00     0.031 C 
ATOM     39  C   UNL     1       9.816  -8.824   5.662  1.00  0.00     0.037 A 
BRANCH  26  40
ATOM     40  C   UNL     1       8.553  -9.097  -0.411  1.00  0.00     0.058 A 
ATOM     41  C   UNL     1       9.259  -8.439  -1.429  1.00  0.00     0.135 A 
ATOM     42  C   UNL     1       8.017 -10.363  -0.697  1.00  0.00     0.135 A 
ATOM     43  F   UNL     1       9.746  -7.205  -1.226  1.00  0.00    -0.206 F 
ATOM     44  C   UNL     1       9.422  -9.013  -2.687  1.00  0.00     0.059 A 
ATOM     45  C   UNL     1       8.185 -10.965  -1.940  1.00  0.00     0.059 A 
ATOM     46  F   UNL     1       7.304 -11.020   0.231  1.00  0.00    -0.206 F 
ATOM     47  C   UNL     1       8.883 -10.278  -2.931  1.00  0.00     0.060 A 
BRANCH  47  48
ATOM     48  S   UNL     1       9.114 -11.016  -4.562  1.00  0.00     0.124 S 
ATOM     49  O   UNL     1       8.227 -10.197  -5.382  1.00  0.00    -0.237 OA
ATOM     50  O   UNL     1      10.543 -10.824  -4.789  1.00  0.00    -0.237 OA
ATOM     51  O   UNL     1       8.693 -12.400  -4.373  1.00  0.00    -0.744 OA
ENDBRANCH  47  48
ENDBRANCH  26  40
BRANCH  27  52
ATOM     52  C   UNL     1       6.861  -4.213   8.311  1.00  0.00     0.058 A 
ATOM     53  C   UNL     1       7.870  -3.516   8.991  1.00  0.00     0.135 A 
ATOM     54  C   UNL     1       5.588  -4.248   8.910  1.00  0.00     0.135 A 
ATOM     55  F   UNL     1       9.105  -3.449   8.471  1.00  0.00    -0.206 F 
ATOM     56  C   UNL     1       7.639  -2.914  10.227  1.00  0.00     0.059 A 
ATOM     57  C   UNL     1       5.324  -3.625  10.125  1.00  0.00     0.059 A 
ATOM     58  F   UNL     1       4.575  -4.892   8.307  1.00  0.00    -0.206 F 
ATOM     59  C   UNL     1       6.363  -2.982  10.790  1.00  0.00     0.060 A 
BRANCH  59  60
ATOM     60  S   UNL     1       6.072  -2.222  12.402  1.00  0.00     0.124 S 
ATOM     61  O   UNL     1       6.730  -3.170  13.294  1.00  0.00    -0.237 OA
ATOM     62  O   UNL     1       6.724  -0.924  12.256  1.00  0.00    -0.237 OA
ATOM     63  O   UNL     1       4.616  -2.176  12.494  1.00  0.00    -0.744 OA
ENDBRANCH  59  60
ENDBRANCH  27  52
BRANCH  39  64
ATOM     64  C   UNL     1      10.727  -9.709   6.455  1.00  0.00     0.058 A 
ATOM     65  C   UNL     1      10.223 -10.634   7.381  1.00  0.00     0.135 A 
ATOM     66  C   UNL     1      12.114  -9.648   6.258  1.00  0.00     0.135 A 
ATOM     67  F   UNL     1       8.902 -10.717   7.606  1.00  0.00    -0.206 F 
ATOM     68  C   UNL     1      11.073 -11.451   8.113  1.00  0.00     0.059 A 
ATOM     69  C   UNL     1      12.979 -10.478   6.955  1.00  0.00     0.059 A 
ATOM     70  F   UNL     1      12.635  -8.785   5.371  1.00  0.00    -0.206 F 
ATOM     71  C   UNL     1      12.449 -11.365   7.892  1.00  0.00     0.060 A 
BRANCH  71  72
ATOM     72  S   UNL     1      13.542 -12.448   8.832  1.00  0.00     0.124 S 
ATOM     73  O   UNL     1      13.542 -11.799  10.139  1.00  0.00    -0.237 OA
ATOM     74  O   UNL     1      12.850 -13.731   8.759  1.00  0.00    -0.237 OA
ATOM     75  O   UNL     1      14.801 -12.379   8.095  1.00  0.00    -0.744 OA
ENDBRANCH  71  72
ENDBRANCH  39  64
ENDBRANCH  13  14
ENDBRANCH   6   8
ENDBRANCH   5   6
ENDBRANCH   4   5
ENDBRANCH   3   4
ENDBRANCH   2   3
ENDBRANCH   1   2
BRANCH   1  76
ATOM     76  C   UNL     1       2.497   2.375   2.559  1.00  0.00     0.261 C 
BRANCH  76  77
ATOM     77  O   UNL     1       3.014   3.497   1.833  1.00  0.00    -0.463 OA
BRANCH  77  78
ATOM     78  C   UNL     1       4.370   3.565   1.776  1.00  0.00     0.310 C 
ATOM     79  O   UNL     1       5.144   3.003   2.543  1.00  0.00    -0.252 OA
BRANCH  78  80
ATOM     80  C   UNL     1       4.829   4.416   0.625  1.00  0.00     0.119 C 
ATOM     81  C   UNL     1       4.106   5.784   0.674  1.00  0.00     0.100 C 
ATOM     82  C   UNL     1       4.634   3.974  -0.850  1.00  0.00     0.027 C 
ATOM     83  C   UNL     1       3.691   5.981  -0.816  1.00  0.00     0.025 C 
ATOM     84  C   UNL     1       3.169   3.796  -1.203  1.00  0.00    -0.027 C 
ATOM     85  C   UNL     1       4.847   5.306  -1.562  1.00  0.00     0.017 C 
ATOM     86  C   UNL     1       2.596   5.002  -1.143  1.00  0.00    -0.027 C 
BRANCH  81  87
ATOM     87  C   UNL     1       5.138   6.756   1.171  1.00  0.00     0.227 C 
ATOM     88  O   UNL     1       5.980   6.484   2.022  1.00  0.00    -0.275 OA
ATOM     89  N   UNL     1       5.120   7.939   0.496  1.00  0.00    -0.331 N 
ATOM     90  C   UNL     1       6.386   8.446   0.004  1.00  0.00     0.181 C 
ATOM     91  C   UNL     1       3.984   8.838   0.650  1.00  0.00     0.181 C 
ATOM     92  C   UNL     1       6.179   9.430  -1.147  1.00  0.00     0.284 C 
ATOM     93  C   UNL     1       3.886   9.857  -0.490  1.00  0.00     0.284 C 
ATOM     94  N   UNL     1       5.159  10.470  -0.904  1.00  0.00    -0.329 N 
ATOM     95  H   UNL     1       4.979  10.941  -1.790  1.00  0.00     0.348 HD
BRANCH  94  96
ATOM     96  C   UNL     1       5.624  11.568  -0.049  1.00  0.00     0.291 C 
BRANCH  96  97
ATOM     97  C   UNL     1       5.916  11.252   1.392  1.00  0.00     0.034 C 
ATOM     98  C   UNL     1       7.151  11.146   1.909  1.00  0.00     0.009 C 
BRANCH  98  99
ATOM     99  C   UNL     1       7.434  10.605   3.248  1.00  0.00    -0.026 A 
ATOM    100  C   UNL     1       8.381  11.232   4.059  1.00  0.00     0.008 A 
ATOM    101  C   UNL     1       6.892   9.381   3.671  1.00  0.00     0.008 A 
ATOM    102  C   UNL     1       8.777  10.649   5.267  1.00  0.00     0.001 A 
ATOM    103  C   UNL     1       7.302   8.787   4.866  1.00  0.00     0.001 A 
ATOM    104  C   UNL     1       8.246   9.422   5.665  1.00  0.00     0.000 A 
ENDBRANCH  98  99
ENDBRANCH  96  97
ENDBRANCH  94  96
ENDBRANCH  81  87
ENDBRANCH  78  80
ENDBRANCH  77  78
ENDBRANCH  76  77
ENDBRANCH   1  76
TORSDOF 21
