REMARK SMILES CCC(CC)COc1cc2c(cc1Cl)C=C(C(=O)OCCOCCOC(=O)c1ccc(-c3c4nc(c(-c5c(F)cc(S(=O)(=O)[O-])cc5F)c5ccc([nH]5)c(-c5c(F)cc(S(=O)(=O)[O-])cc5F)c5nc(c(-c6c(F)cc(S(=O)(=O)[O-])cc6F)c6ccc3[nH]6)C=C5)C=C4)cc1)[C@@H](C(F)(F)F)O2
REMARK SMILES IDX 21 1 20 2 19 3 17 4 18 5 16 6 8 7 9 8 13 9 10 10 12 11 14 12
REMARK SMILES IDX 11 13 99 14 15 15 94 16 7 17 6 18 3 19 2 20 1 21 4 22 5 23
REMARK SMILES IDX 95 24 96 25 97 26 98 27 22 28 23 29 24 30 25 31 26 32 27 33
REMARK SMILES IDX 28 34 29 35 93 36 30 37 92 38 31 39 32 40 33 41 86 42 34 43
REMARK SMILES IDX 91 44 85 45 87 46 35 47 90 48 84 49 83 50 36 52 70 53 49 54
REMARK SMILES IDX 69 55 50 56 53 57 68 58 88 59 51 60 52 61 67 63 89 64 54 65
REMARK SMILES IDX 37 66 38 67 47 68 39 69 40 70 46 71 48 72 41 73 42 74 43 75
REMARK SMILES IDX 44 76 45 77 71 78 72 79 81 80 73 81 74 82 80 83 82 84 75 85
REMARK SMILES IDX 76 86 77 87 78 88 79 89 55 90 56 91 65 92 57 93 58 94 64 95
REMARK SMILES IDX 66 96 59 97 60 98 61 99 62 100 63 101
REMARK H PARENT 87 51 53 62
REMARK Flexibility Score: inf
ROOT
ATOM      1  C   UNL     1      -1.716 -10.314   1.581  1.00  0.00     0.202 C 
ENDROOT
BRANCH   1   2
ATOM      2  C   UNL     1      -0.507 -10.062   2.488  1.00  0.00     0.261 C 
BRANCH   2   3
ATOM      3  O   UNL     1      -0.532  -8.770   3.117  1.00  0.00    -0.460 OA
BRANCH   3   4
ATOM      4  C   UNL     1       0.430  -7.937   2.660  1.00  0.00     0.338 C 
ATOM      5  O   UNL     1       1.320  -8.218   1.870  1.00  0.00    -0.246 OA
BRANCH   4   6
ATOM      6  C   UNL     1       0.215  -6.558   3.128  1.00  0.00     0.087 C 
ATOM      7  C   UNL     1       1.140  -1.697   3.625  1.00  0.00     0.141 A 
ATOM      8  C   UNL     1       0.342  -2.577   4.373  1.00  0.00     0.095 A 
ATOM      9  C   UNL     1       1.860  -2.180   2.525  1.00  0.00     0.083 A 
ATOM     10  C   UNL     1       0.200  -3.903   3.948  1.00  0.00     0.131 A 
ATOM     11  C   UNL     1       1.578  -3.438   2.015  1.00  0.00     0.036 A 
ATOM     12  Cl  UNL     1       3.141  -1.298   1.779  1.00  0.00    -0.080 Cl
ATOM     13  C   UNL     1       0.735  -4.291   2.719  1.00  0.00     0.019 A 
ATOM     14  O   UNL     1      -0.459  -4.800   4.755  1.00  0.00    -0.475 OA
ATOM     15  C   UNL     1       0.534  -5.631   2.220  1.00  0.00     0.027 C 
ATOM     16  C   UNL     1      -0.122  -6.222   4.554  1.00  0.00     0.316 C 
BRANCH   7  17
ATOM     17  O   UNL     1       1.286  -0.395   4.026  1.00  0.00    -0.492 OA
BRANCH  17  18
ATOM     18  C   UNL     1       0.268   0.491   3.496  1.00  0.00     0.233 C 
BRANCH  18  19
ATOM     19  C   UNL     1       0.584   0.993   2.060  1.00  0.00     0.026 C 
BRANCH  19  20
ATOM     20  C   UNL     1      -0.088   0.101   0.990  1.00  0.00     0.003 C 
ATOM     21  C   UNL     1       0.517   0.269  -0.398  1.00  0.00     0.004 C 
ENDBRANCH  19  20
BRANCH  19  22
ATOM     22  C   UNL     1       0.247   2.487   1.856  1.00  0.00     0.003 C 
ATOM     23  C   UNL     1      -1.233   2.837   1.851  1.00  0.00     0.004 C 
ENDBRANCH  19  22
ENDBRANCH  18  19
ENDBRANCH  17  18
ENDBRANCH   7  17
BRANCH  16  24
ATOM     24  C   UNL     1       1.001  -6.668   5.504  1.00  0.00     0.430 C 
ATOM     25  F   UNL     1       0.728  -6.343   6.787  1.00  0.00    -0.167 F 
ATOM     26  F   UNL     1       1.167  -8.012   5.461  1.00  0.00    -0.167 F 
ATOM     27  F   UNL     1       2.189  -6.106   5.182  1.00  0.00    -0.167 F 
ENDBRANCH  16  24
ENDBRANCH   4   6
ENDBRANCH   3   4
ENDBRANCH   2   3
ENDBRANCH   1   2
BRANCH   1  28
ATOM     28  O   UNL     1      -2.026  -9.358   0.571  1.00  0.00    -0.374 OA
BRANCH  28  29
ATOM     29  C   UNL     1      -2.502  -8.071   0.952  1.00  0.00     0.202 C 
BRANCH  29  30
ATOM     30  C   UNL     1      -3.858  -7.945   1.661  1.00  0.00     0.261 C 
BRANCH  30  31
ATOM     31  O   UNL     1      -3.936  -8.662   2.902  1.00  0.00    -0.460 OA
BRANCH  31  32
ATOM     32  C   UNL     1      -4.739  -9.758   2.866  1.00  0.00     0.338 C 
ATOM     33  O   UNL     1      -5.368 -10.177   1.911  1.00  0.00    -0.246 OA
BRANCH  32  34
ATOM     34  C   UNL     1      -4.605 -10.510   4.128  1.00  0.00     0.060 A 
ATOM     35  C   UNL     1      -4.843  -9.898   5.358  1.00  0.00     0.016 A 
ATOM     36  C   UNL     1      -4.300 -11.876   4.057  1.00  0.00     0.016 A 
ATOM     37  C   UNL     1      -4.807 -10.671   6.520  1.00  0.00     0.010 A 
ATOM     38  C   UNL     1      -4.269 -12.647   5.219  1.00  0.00     0.010 A 
ATOM     39  C   UNL     1      -4.546 -12.054   6.458  1.00  0.00    -0.014 A 
BRANCH  39  40
ATOM     40  C   UNL     1      -4.703 -12.885   7.677  1.00  0.00     0.031 A 
ATOM     41  C   UNL     1      -3.518 -13.447   8.401  1.00  0.00     0.074 A 
ATOM     42  C   UNL     1      -5.950 -13.118   8.131  1.00  0.00     0.049 A 
ATOM     43  N   UNL     1      -3.483 -14.070   9.551  1.00  0.00    -0.248 NA
ATOM     44  C   UNL     1      -2.205 -13.301   7.755  1.00  0.00     0.031 C 
ATOM     45  C   UNL     1      -7.178 -12.669   7.471  1.00  0.00     0.029 A 
ATOM     46  N   UNL     1      -6.394 -13.765   9.256  1.00  0.00    -0.354 N 
ATOM     47  C   UNL     1      -2.146 -14.364   9.784  1.00  0.00     0.074 A 
ATOM     48  C   UNL     1      -1.407 -13.907   8.626  1.00  0.00     0.031 C 
ATOM     49  C   UNL     1      -8.232 -13.008   8.228  1.00  0.00     0.029 A 
ATOM     50  C   UNL     1      -7.760 -13.720   9.412  1.00  0.00     0.049 A 
ATOM     51  H   UNL     1      -5.793 -14.218   9.890  1.00  0.00     0.167 HD
ATOM     52  C   UNL     1      -1.589 -14.938  10.878  1.00  0.00     0.037 A 
ATOM     53  C   UNL     1      -8.543 -14.184  10.405  1.00  0.00     0.037 A 
ATOM     54  C   UNL     1      -2.340 -15.404  12.017  1.00  0.00     0.049 A 
ATOM     55  C   UNL     1      -7.903 -14.852  11.591  1.00  0.00     0.074 A 
ATOM     56  C   UNL     1      -1.863 -15.960  13.191  1.00  0.00     0.029 A 
ATOM     57  N   UNL     1      -3.724 -15.382  12.121  1.00  0.00    -0.354 N 
ATOM     58  N   UNL     1      -6.628 -15.035  11.842  1.00  0.00    -0.248 NA
ATOM     59  C   UNL     1      -8.802 -15.376  12.628  1.00  0.00     0.031 C 
ATOM     60  C   UNL     1      -2.958 -16.325  13.980  1.00  0.00     0.029 A 
ATOM     61  C   UNL     1      -4.118 -15.947  13.323  1.00  0.00     0.049 A 
ATOM     62  H   UNL     1      -4.336 -15.019  11.441  1.00  0.00     0.167 HD
ATOM     63  C   UNL     1      -6.572 -15.679  13.072  1.00  0.00     0.074 A 
ATOM     64  C   UNL     1      -7.939 -15.839  13.523  1.00  0.00     0.031 C 
ATOM     65  C   UNL     1      -5.484 -16.102  13.762  1.00  0.00     0.037 A 
BRANCH  52  66
ATOM     66  C   UNL     1      -0.092 -15.081  10.913  1.00  0.00     0.058 A 
ATOM     67  C   UNL     1       0.742 -13.962  11.068  1.00  0.00     0.135 A 
ATOM     68  C   UNL     1       0.514 -16.347  10.871  1.00  0.00     0.135 A 
ATOM     69  F   UNL     1       0.216 -12.727  11.106  1.00  0.00    -0.206 F 
ATOM     70  C   UNL     1       2.123 -14.091  11.161  1.00  0.00     0.059 A 
ATOM     71  C   UNL     1       1.893 -16.502  10.988  1.00  0.00     0.059 A 
ATOM     72  F   UNL     1      -0.236 -17.451  10.726  1.00  0.00    -0.206 F 
ATOM     73  C   UNL     1       2.690 -15.367  11.124  1.00  0.00     0.060 A 
BRANCH  73  74
ATOM     74  S   UNL     1       4.484 -15.511  11.260  1.00  0.00     0.124 S 
ATOM     75  O   UNL     1       4.920 -14.928   9.995  1.00  0.00    -0.237 OA
ATOM     76  O   UNL     1       4.768 -14.720  12.453  1.00  0.00    -0.237 OA
ATOM     77  O   UNL     1       4.702 -16.948  11.395  1.00  0.00    -0.744 OA
ENDBRANCH  73  74
ENDBRANCH  52  66
BRANCH  53  78
ATOM     78  C   UNL     1     -10.016 -13.990  10.333  1.00  0.00     0.058 A 
ATOM     79  C   UNL     1     -10.668 -13.099  11.197  1.00  0.00     0.135 A 
ATOM     80  C   UNL     1     -10.794 -14.663   9.377  1.00  0.00     0.135 A 
ATOM     81  F   UNL     1      -9.969 -12.435  12.130  1.00  0.00    -0.206 F 
ATOM     82  C   UNL     1     -12.041 -12.886  11.122  1.00  0.00     0.059 A 
ATOM     83  C   UNL     1     -12.163 -14.447   9.266  1.00  0.00     0.059 A 
ATOM     84  F   UNL     1     -10.214 -15.514   8.517  1.00  0.00    -0.206 F 
ATOM     85  C   UNL     1     -12.779 -13.560  10.148  1.00  0.00     0.060 A 
BRANCH  85  86
ATOM     86  S   UNL     1     -14.551 -13.233  10.027  1.00  0.00     0.124 S 
ATOM     87  O   UNL     1     -15.047 -13.842  11.256  1.00  0.00    -0.237 OA
ATOM     88  O   UNL     1     -14.587 -11.774   9.978  1.00  0.00    -0.237 OA
ATOM     89  O   UNL     1     -14.934 -13.905   8.790  1.00  0.00    -0.744 OA
ENDBRANCH  85  86
ENDBRANCH  53  78
BRANCH  65  90
ATOM     90  C   UNL     1      -5.712 -16.786  15.082  1.00  0.00     0.058 A 
ATOM     91  C   UNL     1      -6.206 -18.098  15.149  1.00  0.00     0.135 A 
ATOM     92  C   UNL     1      -5.334 -16.165  16.284  1.00  0.00     0.135 A 
ATOM     93  F   UNL     1      -6.592 -18.733  14.031  1.00  0.00    -0.206 F 
ATOM     94  C   UNL     1      -6.314 -18.771  16.361  1.00  0.00     0.059 A 
ATOM     95  C   UNL     1      -5.408 -16.829  17.504  1.00  0.00     0.059 A 
ATOM     96  F   UNL     1      -4.850 -14.912  16.274  1.00  0.00    -0.206 F 
ATOM     97  C   UNL     1      -5.900 -18.134  17.532  1.00  0.00     0.060 A 
BRANCH  97  98
ATOM     98  S   UNL     1      -5.973 -19.054  19.084  1.00  0.00     0.124 S 
ATOM     99  O   UNL     1      -7.412 -19.162  19.297  1.00  0.00    -0.237 OA
ATOM    100  O   UNL     1      -5.288 -20.296  18.739  1.00  0.00    -0.237 OA
ATOM    101  O   UNL     1      -5.263 -18.193  20.026  1.00  0.00    -0.744 OA
ENDBRANCH  97  98
ENDBRANCH  65  90
ENDBRANCH  39  40
ENDBRANCH  32  34
ENDBRANCH  31  32
ENDBRANCH  30  31
ENDBRANCH  29  30
ENDBRANCH  28  29
ENDBRANCH   1  28
TORSDOF 23
