REMARK SMILES O=C(C[C@@H]1CN(c2cc(C(F)(F)F)ccn2)CCO1)OCCOCCOC(=O)c1ccc(-c2c3nc(c(-c4c(F)cc(S(=O)(=O)[O-])cc4F)c4ccc([nH]4)c(-c4c(F)cc(S(=O)(=O)[O-])cc4F)c4nc(c(-c5c(F)cc(S(=O)(=O)[O-])cc5F)c5ccc2[nH]5)C=C4)C=C3)cc1
REMARK SMILES IDX 23 1 22 2 21 3 20 4 2 5 1 6 3 7 4 8 5 9 19 10 6 11 18 12
REMARK SMILES IDX 17 13 7 14 8 15 16 16 9 17 15 18 14 19 10 20 11 21 12 22
REMARK SMILES IDX 13 23 24 24 25 25 26 26 27 27 28 28 29 29 30 30 94 31 31 32
REMARK SMILES IDX 93 33 32 34 33 35 34 36 87 37 35 38 92 39 86 40 88 41 36 42
REMARK SMILES IDX 91 43 85 44 84 45 37 47 71 48 50 49 70 50 51 51 54 52 69 53
REMARK SMILES IDX 89 54 52 55 53 56 68 58 90 59 55 60 38 61 39 62 48 63 40 64
REMARK SMILES IDX 41 65 47 66 49 67 42 68 43 69 44 70 45 71 46 72 72 73 73 74
REMARK SMILES IDX 82 75 74 76 75 77 81 78 83 79 76 80 77 81 78 82 79 83 80 84
REMARK SMILES IDX 56 85 57 86 66 87 58 88 59 89 65 90 67 91 60 92 61 93 62 94
REMARK SMILES IDX 63 95 64 96
REMARK H PARENT 88 46 54 57
REMARK Flexibility Score: inf
ROOT
ATOM      1  O   UNL     1       4.159   1.394   1.202  1.00  0.00    -0.374 OA
ENDROOT
BRANCH   1   2
ATOM      2  C   UNL     1       4.718   1.226  -0.094  1.00  0.00     0.202 C 
BRANCH   2   3
ATOM      3  C   UNL     1       4.227   0.058  -0.938  1.00  0.00     0.261 C 
BRANCH   3   4
ATOM      4  O   UNL     1       2.797  -0.071  -1.017  1.00  0.00    -0.463 OA
BRANCH   4   5
ATOM      5  C   UNL     1       2.009  -0.750  -0.159  1.00  0.00     0.308 C 
ATOM      6  O   UNL     1       0.810  -0.879  -0.405  1.00  0.00    -0.252 OA
BRANCH   5   7
ATOM      7  C   UNL     1       2.571  -1.301   1.126  1.00  0.00     0.156 C 
BRANCH   7   8
ATOM      8  C   UNL     1       3.575  -2.405   0.877  1.00  0.00     0.148 C 
ATOM      9  C   UNL     1       3.149  -3.722   1.526  1.00  0.00     0.150 C 
ATOM     10  O   UNL     1       4.866  -2.013   1.399  1.00  0.00    -0.374 OA
ATOM     11  N   UNL     1       4.148  -4.733   1.196  1.00  0.00    -0.352 N 
ATOM     12  C   UNL     1       5.876  -2.978   1.040  1.00  0.00     0.182 C 
ATOM     13  C   UNL     1       5.530  -4.397   1.532  1.00  0.00     0.146 C 
BRANCH  11  14
ATOM     14  C   UNL     1       3.860  -5.639   0.207  1.00  0.00     0.129 A 
ATOM     15  C   UNL     1       3.494  -5.242  -1.078  1.00  0.00     0.060 A 
ATOM     16  N   UNL     1       3.797  -6.930   0.576  1.00  0.00    -0.239 NA
ATOM     17  C   UNL     1       2.972  -6.170  -1.985  1.00  0.00     0.061 A 
ATOM     18  C   UNL     1       3.294  -7.822  -0.304  1.00  0.00     0.114 A 
ATOM     19  C   UNL     1       2.858  -7.495  -1.574  1.00  0.00     0.033 A 
BRANCH  17  20
ATOM     20  C   UNL     1       2.497  -5.742  -3.348  1.00  0.00     0.416 C 
ATOM     21  F   UNL     1       3.106  -6.434  -4.347  1.00  0.00    -0.166 F 
ATOM     22  F   UNL     1       1.160  -5.942  -3.508  1.00  0.00    -0.166 F 
ATOM     23  F   UNL     1       2.715  -4.424  -3.608  1.00  0.00    -0.166 F 
ENDBRANCH  17  20
ENDBRANCH  11  14
ENDBRANCH   7   8
ENDBRANCH   5   7
ENDBRANCH   4   5
ENDBRANCH   3   4
ENDBRANCH   2   3
ENDBRANCH   1   2
BRANCH   1  24
ATOM     24  C   UNL     1       2.914   2.099   1.270  1.00  0.00     0.202 C 
BRANCH  24  25
ATOM     25  C   UNL     1       3.006   3.627   1.243  1.00  0.00     0.261 C 
BRANCH  25  26
ATOM     26  O   UNL     1       3.351   4.106  -0.064  1.00  0.00    -0.460 OA
BRANCH  26  27
ATOM     27  C   UNL     1       4.655   4.428  -0.239  1.00  0.00     0.338 C 
ATOM     28  O   UNL     1       5.531   4.454   0.610  1.00  0.00    -0.246 OA
BRANCH  27  29
ATOM     29  C   UNL     1       4.921   4.499  -1.690  1.00  0.00     0.060 A 
ATOM     30  C   UNL     1       6.056   3.841  -2.191  1.00  0.00     0.016 A 
ATOM     31  C   UNL     1       4.057   5.183  -2.546  1.00  0.00     0.016 A 
ATOM     32  C   UNL     1       6.362   3.913  -3.546  1.00  0.00     0.010 A 
ATOM     33  C   UNL     1       4.370   5.266  -3.899  1.00  0.00     0.010 A 
ATOM     34  C   UNL     1       5.545   4.670  -4.393  1.00  0.00    -0.014 A 
BRANCH  34  35
ATOM     35  C   UNL     1       6.004   5.035  -5.748  1.00  0.00     0.031 A 
ATOM     36  C   UNL     1       6.568   6.413  -5.944  1.00  0.00     0.074 A 
ATOM     37  C   UNL     1       5.863   4.187  -6.779  1.00  0.00     0.049 A 
ATOM     38  N   UNL     1       6.869   7.037  -7.050  1.00  0.00    -0.248 NA
ATOM     39  C   UNL     1       6.801   7.201  -4.721  1.00  0.00     0.031 C 
ATOM     40  C   UNL     1       5.352   2.821  -6.685  1.00  0.00     0.029 A 
ATOM     41  N   UNL     1       6.099   4.372  -8.117  1.00  0.00    -0.354 N 
ATOM     42  C   UNL     1       7.293   8.302  -6.660  1.00  0.00     0.074 A 
ATOM     43  C   UNL     1       7.191   8.363  -5.219  1.00  0.00     0.031 C 
ATOM     44  C   UNL     1       5.273   2.303  -7.922  1.00  0.00     0.029 A 
ATOM     45  C   UNL     1       5.684   3.316  -8.892  1.00  0.00     0.049 A 
ATOM     46  H   UNL     1       6.524   5.180  -8.485  1.00  0.00     0.167 HD
ATOM     47  C   UNL     1       7.726   9.319  -7.440  1.00  0.00     0.037 A 
ATOM     48  C   UNL     1       5.601   3.206 -10.233  1.00  0.00     0.037 A 
ATOM     49  C   UNL     1       7.815   9.233  -8.873  1.00  0.00     0.049 A 
ATOM     50  C   UNL     1       6.045   4.362 -11.090  1.00  0.00     0.074 A 
ATOM     51  C   UNL     1       8.280  10.181  -9.765  1.00  0.00     0.029 A 
ATOM     52  N   UNL     1       7.412   8.136  -9.624  1.00  0.00    -0.354 N 
ATOM     53  N   UNL     1       6.487   5.541 -10.717  1.00  0.00    -0.248 NA
ATOM     54  C   UNL     1       5.986   4.177 -12.546  1.00  0.00     0.031 C 
ATOM     55  C   UNL     1       8.097   9.684 -11.059  1.00  0.00     0.029 A 
ATOM     56  C   UNL     1       7.586   8.397 -10.972  1.00  0.00     0.049 A 
ATOM     57  H   UNL     1       7.055   7.297  -9.253  1.00  0.00     0.167 HD
ATOM     58  C   UNL     1       6.786   6.227 -11.889  1.00  0.00     0.074 A 
ATOM     59  C   UNL     1       6.475   5.330 -12.984  1.00  0.00     0.031 C 
ATOM     60  C   UNL     1       7.279   7.481 -12.046  1.00  0.00     0.037 A 
BRANCH  47  61
ATOM     61  C   UNL     1       8.083  10.614  -6.763  1.00  0.00     0.058 A 
ATOM     62  C   UNL     1       9.194  10.732  -5.911  1.00  0.00     0.135 A 
ATOM     63  C   UNL     1       7.295  11.759  -6.967  1.00  0.00     0.135 A 
ATOM     64  F   UNL     1       9.973   9.666  -5.663  1.00  0.00    -0.206 F 
ATOM     65  C   UNL     1       9.485  11.923  -5.254  1.00  0.00     0.059 A 
ATOM     66  C   UNL     1       7.587  12.970  -6.348  1.00  0.00     0.059 A 
ATOM     67  F   UNL     1       6.219  11.705  -7.768  1.00  0.00    -0.206 F 
ATOM     68  C   UNL     1       8.672  13.036  -5.476  1.00  0.00     0.060 A 
BRANCH  68  69
ATOM     69  S   UNL     1       9.050  14.568  -4.600  1.00  0.00     0.124 S 
ATOM     70  O   UNL     1       8.657  14.228  -3.236  1.00  0.00    -0.237 OA
ATOM     71  O   UNL     1      10.485  14.711  -4.828  1.00  0.00    -0.237 OA
ATOM     72  O   UNL     1       8.210  15.558  -5.266  1.00  0.00    -0.744 OA
ENDBRANCH  68  69
ENDBRANCH  47  61
BRANCH  48  73
ATOM     73  C   UNL     1       5.051   1.960 -10.829  1.00  0.00     0.058 A 
ATOM     74  C   UNL     1       5.878   1.053 -11.506  1.00  0.00     0.135 A 
ATOM     75  C   UNL     1       3.695   1.623 -10.681  1.00  0.00     0.135 A 
ATOM     76  F   UNL     1       7.178   1.333 -11.682  1.00  0.00    -0.206 F 
ATOM     77  C   UNL     1       5.383  -0.145 -12.013  1.00  0.00     0.059 A 
ATOM     78  C   UNL     1       3.182   0.420 -11.155  1.00  0.00     0.059 A 
ATOM     79  F   UNL     1       2.864   2.453 -10.030  1.00  0.00    -0.206 F 
ATOM     80  C   UNL     1       4.035  -0.457 -11.822  1.00  0.00     0.060 A 
BRANCH  80  81
ATOM     81  S   UNL     1       3.427  -2.054 -12.409  1.00  0.00     0.124 S 
ATOM     82  O   UNL     1       3.457  -1.867 -13.854  1.00  0.00    -0.237 OA
ATOM     83  O   UNL     1       4.419  -2.975 -11.863  1.00  0.00    -0.237 OA
ATOM     84  O   UNL     1       2.099  -2.148 -11.811  1.00  0.00    -0.744 OA
ENDBRANCH  80  81
ENDBRANCH  48  73
BRANCH  60  85
ATOM     85  C   UNL     1       7.565   7.956 -13.444  1.00  0.00     0.058 A 
ATOM     86  C   UNL     1       6.539   8.318 -14.329  1.00  0.00     0.135 A 
ATOM     87  C   UNL     1       8.892   8.153 -13.861  1.00  0.00     0.135 A 
ATOM     88  F   UNL     1       5.254   8.142 -13.984  1.00  0.00    -0.206 F 
ATOM     89  C   UNL     1       6.819   8.859 -15.581  1.00  0.00     0.059 A 
ATOM     90  C   UNL     1       9.194   8.719 -15.095  1.00  0.00     0.059 A 
ATOM     91  F   UNL     1       9.911   7.831 -13.048  1.00  0.00    -0.206 F 
ATOM     92  C   UNL     1       8.150   9.067 -15.949  1.00  0.00     0.060 A 
BRANCH  92  93
ATOM     93  S   UNL     1       8.495   9.841 -17.543  1.00  0.00     0.124 S 
ATOM     94  O   UNL     1       8.138   8.775 -18.472  1.00  0.00    -0.237 OA
ATOM     95  O   UNL     1       7.602  10.996 -17.527  1.00  0.00    -0.237 OA
ATOM     96  O   UNL     1       9.919  10.157 -17.467  1.00  0.00    -0.744 OA
ENDBRANCH  92  93
ENDBRANCH  60  85
ENDBRANCH  34  35
ENDBRANCH  27  29
ENDBRANCH  26  27
ENDBRANCH  25  26
ENDBRANCH  24  25
ENDBRANCH   1  24
TORSDOF 20
