REMARK SMILES Cc1ccc(F)cc1NS(=O)(=O)c1ccc(C(=O)OCCOCCOC(=O)c2ccc(-c3c4nc(c(-c5c(F)cc(S(=O)(=O)[O-])cc5F)c5ccc([nH]5)c(-c5c(F)cc(S(=O)(=O)[O-])cc5F)c5nc(c(-c6c(F)cc(S(=O)(=O)[O-])cc6F)c6ccc3[nH]6)C=C5)C=C4)cc2)cc1
REMARK SMILES IDX 22 1 21 2 20 3 19 4 17 5 18 6 16 7 13 8 14 9 95 10 15 11
REMARK SMILES IDX 94 12 10 13 11 14 12 15 9 16 8 18 1 19 2 20 3 21 4 22 7 23
REMARK SMILES IDX 5 24 6 25 23 26 24 27 25 28 26 29 27 30 28 31 29 32 93 33
REMARK SMILES IDX 30 34 92 35 31 36 32 37 33 38 86 39 34 40 91 41 85 42 87 43
REMARK SMILES IDX 35 44 90 45 84 46 83 47 36 49 70 50 49 51 69 52 50 53 53 54
REMARK SMILES IDX 68 55 88 56 51 57 52 58 67 60 89 61 54 62 37 63 38 64 47 65
REMARK SMILES IDX 39 66 40 67 46 68 48 69 41 70 42 71 43 72 44 73 45 74 71 75
REMARK SMILES IDX 72 76 81 77 73 78 74 79 80 80 82 81 75 82 76 83 77 84 78 85
REMARK SMILES IDX 79 86 55 87 56 88 65 89 57 90 58 91 64 92 66 93 59 94 60 95
REMARK SMILES IDX 61 96 62 97 63 98
REMARK H PARENT 9 17 87 48 53 59
REMARK Flexibility Score: inf
ROOT
ATOM      1  O   UNL     1      -7.084  -1.527   1.218  1.00  0.00    -0.374 OA
ENDROOT
BRANCH   1   2
ATOM      2  C   UNL     1      -7.915  -2.568   0.713  1.00  0.00     0.202 C 
BRANCH   2   3
ATOM      3  C   UNL     1      -7.434  -3.320  -0.535  1.00  0.00     0.261 C 
BRANCH   3   4
ATOM      4  O   UNL     1      -6.058  -3.719  -0.462  1.00  0.00    -0.460 OA
BRANCH   4   5
ATOM      5  C   UNL     1      -5.223  -3.051  -1.298  1.00  0.00     0.338 C 
ATOM      6  O   UNL     1      -5.547  -2.232  -2.146  1.00  0.00    -0.246 OA
BRANCH   5   7
ATOM      7  C   UNL     1      -3.796  -3.349  -0.993  1.00  0.00     0.060 A 
ATOM      8  C   UNL     1      -1.079  -3.690  -0.380  1.00  0.00     0.087 A 
ATOM      9  C   UNL     1      -1.463  -2.680  -1.261  1.00  0.00     0.023 A 
ATOM     10  C   UNL     1      -2.042  -4.572   0.139  1.00  0.00     0.023 A 
ATOM     11  C   UNL     1      -2.822  -2.493  -1.537  1.00  0.00     0.017 A 
ATOM     12  C   UNL     1      -3.397  -4.410  -0.175  1.00  0.00     0.017 A 
BRANCH   8  13
ATOM     13  S   UNL     1       0.611  -3.923   0.113  1.00  0.00     0.261 S 
ATOM     14  O   UNL     1       1.296  -4.454  -1.050  1.00  0.00    -0.201 OA
ATOM     15  O   UNL     1       0.604  -4.658   1.358  1.00  0.00    -0.201 OA
BRANCH  13  16
ATOM     16  N   UNL     1       1.417  -2.474   0.433  1.00  0.00    -0.279 N 
ATOM     17  H   UNL     1       2.384  -2.540   0.609  1.00  0.00     0.180 HD
BRANCH  16  18
ATOM     18  C   UNL     1       0.852  -1.161   0.477  1.00  0.00     0.055 A 
ATOM     19  C   UNL     1       3.107  -0.128  -0.272  1.00  0.00     0.046 C 
ATOM     20  C   UNL     1       1.634  -0.060   0.052  1.00  0.00    -0.027 A 
ATOM     21  C   UNL     1       1.050   1.221  -0.004  1.00  0.00     0.008 A 
ATOM     22  C   UNL     1      -0.259   1.422   0.421  1.00  0.00     0.039 A 
ATOM     23  C   UNL     1      -0.397  -0.914   1.047  1.00  0.00     0.066 A 
ATOM     24  C   UNL     1      -0.956   0.359   0.974  1.00  0.00     0.125 A 
ATOM     25  F   UNL     1      -2.196   0.561   1.437  1.00  0.00    -0.207 F 
ENDBRANCH  16  18
ENDBRANCH  13  16
ENDBRANCH   8  13
ENDBRANCH   5   7
ENDBRANCH   4   5
ENDBRANCH   3   4
ENDBRANCH   2   3
ENDBRANCH   1   2
BRANCH   1  26
ATOM     26  C   UNL     1      -5.917  -1.905   1.952  1.00  0.00     0.202 C 
BRANCH  26  27
ATOM     27  C   UNL     1      -6.126  -2.572   3.319  1.00  0.00     0.261 C 
BRANCH  27  28
ATOM     28  O   UNL     1      -6.679  -3.898   3.207  1.00  0.00    -0.460 OA
BRANCH  28  29
ATOM     29  C   UNL     1      -7.878  -4.071   3.816  1.00  0.00     0.338 C 
ATOM     30  O   UNL     1      -8.492  -3.249   4.483  1.00  0.00    -0.246 OA
BRANCH  29  31
ATOM     31  C   UNL     1      -8.468  -5.358   3.409  1.00  0.00     0.060 A 
ATOM     32  C   UNL     1      -9.713  -5.334   2.767  1.00  0.00     0.016 A 
ATOM     33  C   UNL     1      -7.857  -6.571   3.728  1.00  0.00     0.016 A 
ATOM     34  C   UNL     1     -10.370  -6.527   2.473  1.00  0.00     0.010 A 
ATOM     35  C   UNL     1      -8.523  -7.768   3.441  1.00  0.00     0.010 A 
ATOM     36  C   UNL     1      -9.795  -7.751   2.840  1.00  0.00    -0.014 A 
BRANCH  36  37
ATOM     37  C   UNL     1     -10.582  -9.002   2.712  1.00  0.00     0.031 A 
ATOM     38  C   UNL     1     -11.256  -9.570   3.932  1.00  0.00     0.074 A 
ATOM     39  C   UNL     1     -10.710  -9.613   1.521  1.00  0.00     0.049 A 
ATOM     40  N   UNL     1     -11.955 -10.668   4.057  1.00  0.00    -0.248 NA
ATOM     41  C   UNL     1     -11.121  -8.796   5.177  1.00  0.00     0.031 C 
ATOM     42  C   UNL     1     -10.133  -9.139   0.264  1.00  0.00     0.029 A 
ATOM     43  N   UNL     1     -11.361 -10.771   1.178  1.00  0.00    -0.354 N 
ATOM     44  C   UNL     1     -12.339 -10.722   5.392  1.00  0.00     0.074 A 
ATOM     45  C   UNL     1     -11.770  -9.561   6.043  1.00  0.00     0.031 C 
ATOM     46  C   UNL     1     -10.447 -10.007  -0.714  1.00  0.00     0.029 A 
ATOM     47  C   UNL     1     -11.218 -11.112  -0.146  1.00  0.00     0.049 A 
ATOM     48  H   UNL     1     -11.882 -11.307   1.819  1.00  0.00     0.167 HD
ATOM     49  C   UNL     1     -13.102 -11.652   6.016  1.00  0.00     0.037 A 
ATOM     50  C   UNL     1     -11.641 -12.202  -0.817  1.00  0.00     0.037 A 
ATOM     51  C   UNL     1     -13.665 -12.805   5.362  1.00  0.00     0.049 A 
ATOM     52  C   UNL     1     -12.434 -13.255  -0.088  1.00  0.00     0.074 A 
ATOM     53  C   UNL     1     -14.468 -13.794   5.902  1.00  0.00     0.029 A 
ATOM     54  N   UNL     1     -13.476 -13.130   4.027  1.00  0.00    -0.354 N 
ATOM     55  N   UNL     1     -12.810 -13.282   1.169  1.00  0.00    -0.248 NA
ATOM     56  C   UNL     1     -12.863 -14.424  -0.868  1.00  0.00     0.031 C 
ATOM     57  C   UNL     1     -14.725 -14.741   4.906  1.00  0.00     0.029 A 
ATOM     58  C   UNL     1     -14.126 -14.317   3.731  1.00  0.00     0.049 A 
ATOM     59  H   UNL     1     -12.956 -12.595   3.384  1.00  0.00     0.167 HD
ATOM     60  C   UNL     1     -13.541 -14.457   1.323  1.00  0.00     0.074 A 
ATOM     61  C   UNL     1     -13.562 -15.106   0.029  1.00  0.00     0.031 C 
ATOM     62  C   UNL     1     -14.141 -14.950   2.435  1.00  0.00     0.037 A 
BRANCH  49  63
ATOM     63  C   UNL     1     -13.350 -11.472   7.489  1.00  0.00     0.058 A 
ATOM     64  C   UNL     1     -14.197 -10.465   7.979  1.00  0.00     0.135 A 
ATOM     65  C   UNL     1     -12.753 -12.336   8.421  1.00  0.00     0.135 A 
ATOM     66  F   UNL     1     -14.780  -9.601   7.133  1.00  0.00    -0.206 F 
ATOM     67  C   UNL     1     -14.421 -10.303   9.343  1.00  0.00     0.059 A 
ATOM     68  C   UNL     1     -12.984 -12.210   9.788  1.00  0.00     0.059 A 
ATOM     69  F   UNL     1     -11.934 -13.316   8.007  1.00  0.00    -0.206 F 
ATOM     70  C   UNL     1     -13.808 -11.180  10.240  1.00  0.00     0.060 A 
BRANCH  70  71
ATOM     71  S   UNL     1     -14.106 -10.957  12.006  1.00  0.00     0.124 S 
ATOM     72  O   UNL     1     -13.318  -9.760  12.285  1.00  0.00    -0.237 OA
ATOM     73  O   UNL     1     -15.554 -10.787  12.060  1.00  0.00    -0.237 OA
ATOM     74  O   UNL     1     -13.600 -12.192  12.596  1.00  0.00    -0.744 OA
ENDBRANCH  70  71
ENDBRANCH  49  63
BRANCH  50  75
ATOM     75  C   UNL     1     -11.313 -12.358  -2.259  1.00  0.00     0.058 A 
ATOM     76  C   UNL     1     -12.307 -12.264  -3.243  1.00  0.00     0.135 A 
ATOM     77  C   UNL     1      -9.995 -12.597  -2.681  1.00  0.00     0.135 A 
ATOM     78  F   UNL     1     -13.583 -12.048  -2.889  1.00  0.00    -0.206 F 
ATOM     79  C   UNL     1     -12.011 -12.412  -4.595  1.00  0.00     0.059 A 
ATOM     80  C   UNL     1      -9.670 -12.724  -4.027  1.00  0.00     0.059 A 
ATOM     81  F   UNL     1      -9.006 -12.686  -1.779  1.00  0.00    -0.206 F 
ATOM     82  C   UNL     1     -10.687 -12.637  -4.977  1.00  0.00     0.060 A 
BRANCH  82  83
ATOM     83  S   UNL     1     -10.304 -12.771  -6.737  1.00  0.00     0.124 S 
ATOM     84  O   UNL     1     -10.842 -14.089  -7.055  1.00  0.00    -0.237 OA
ATOM     85  O   UNL     1     -11.027 -11.633  -7.295  1.00  0.00    -0.237 OA
ATOM     86  O   UNL     1      -8.849 -12.657  -6.773  1.00  0.00    -0.744 OA
ENDBRANCH  82  83
ENDBRANCH  50  75
BRANCH  62  87
ATOM     87  C   UNL     1     -14.902 -16.242   2.299  1.00  0.00     0.058 A 
ATOM     88  C   UNL     1     -14.246 -17.473   2.150  1.00  0.00     0.135 A 
ATOM     89  C   UNL     1     -16.305 -16.251   2.371  1.00  0.00     0.135 A 
ATOM     90  F   UNL     1     -12.907 -17.520   2.069  1.00  0.00    -0.206 F 
ATOM     91  C   UNL     1     -14.954 -18.667   2.056  1.00  0.00     0.059 A 
ATOM     92  C   UNL     1     -17.032 -17.436   2.307  1.00  0.00     0.059 A 
ATOM     93  F   UNL     1     -16.982 -15.102   2.524  1.00  0.00    -0.206 F 
ATOM     94  C   UNL     1     -16.348 -18.638   2.137  1.00  0.00     0.060 A 
BRANCH  94  95
ATOM     95  S   UNL     1     -17.254 -20.197   2.047  1.00  0.00     0.124 S 
ATOM     96  O   UNL     1     -17.148 -20.517   0.627  1.00  0.00    -0.237 OA
ATOM     97  O   UNL     1     -16.492 -21.055   2.949  1.00  0.00    -0.237 OA
ATOM     98  O   UNL     1     -18.591 -19.841   2.513  1.00  0.00    -0.744 OA
ENDBRANCH  94  95
ENDBRANCH  62  87
ENDBRANCH  36  37
ENDBRANCH  29  31
ENDBRANCH  28  29
ENDBRANCH  27  28
ENDBRANCH  26  27
ENDBRANCH   1  26
TORSDOF 20
