REMARK SMILES O=C(OCCOCCOC(=O)c1ccc(-c2c3nc(c(-c4c(F)cc(S(=O)(=O)[O-])cc4F)c4ccc([nH]4)c(-c4c(F)cc(S(=O)(=O)[O-])cc4F)c4nc(c(-c5c(F)cc(S(=O)(=O)[O-])cc5F)c5ccc2[nH]5)C=C4)C=C3)cc1)C1=Cc2cc(S(F)(F)(F)(F)F)cc(Br)c2O[C@H]1C(F)(F)F
REMARK SMILES IDX 7 1 6 2 5 3 4 4 3 5 2 6 1 7 78 8 79 9 94 10 80 11 93 12
REMARK SMILES IDX 81 13 92 14 82 15 90 16 89 17 91 18 95 19 96 20 97 21 98 22
REMARK SMILES IDX 83 23 84 24 85 25 86 26 87 27 88 28 8 29 9 30 10 31 11 32
REMARK SMILES IDX 12 33 13 34 77 35 14 36 76 37 15 38 16 39 17 40 70 41 18 42
REMARK SMILES IDX 75 43 69 44 71 45 19 46 74 47 68 48 67 49 20 51 54 52 33 53
REMARK SMILES IDX 53 54 34 55 37 56 52 57 72 58 35 59 36 60 51 62 73 63 38 64
REMARK SMILES IDX 21 65 22 66 31 67 23 68 24 69 30 70 32 71 25 72 26 73 27 74
REMARK SMILES IDX 28 75 29 76 55 77 56 78 65 79 57 80 58 81 64 82 66 83 59 84
REMARK SMILES IDX 60 85 61 86 62 87 63 88 39 89 40 90 49 91 41 92 42 93 48 94
REMARK SMILES IDX 50 95 43 96 44 97 45 98 46 99 47 100
REMARK H PARENT 71 50 37 61
REMARK Flexibility Score: inf
ROOT
ATOM      1  C   UNL     1       3.086  -0.981  -1.200  1.00  0.00     0.202 C 
ENDROOT
BRANCH   1   2
ATOM      2  O   UNL     1       4.506  -0.981  -1.200  1.00  0.00    -0.374 OA
BRANCH   2   3
ATOM      3  C   UNL     1       4.979  -1.405   0.070  1.00  0.00     0.202 C 
BRANCH   3   4
ATOM      4  C   UNL     1       4.472  -0.456   1.143  1.00  0.00     0.261 C 
BRANCH   4   5
ATOM      5  O   UNL     1       3.052  -0.456   1.143  1.00  0.00    -0.460 OA
BRANCH   5   6
ATOM      6  C   UNL     1       2.342  -0.066  -0.024  1.00  0.00     0.338 C 
ATOM      7  O   UNL     1       1.071  -0.066  -0.024  1.00  0.00    -0.246 OA
BRANCH   6   8
ATOM      8  C   UNL     1       3.102   0.352  -1.272  1.00  0.00     0.087 C 
ATOM      9  C   UNL     1       4.463   0.352  -1.272  1.00  0.00     0.027 C 
ATOM     10  C   UNL     1       2.342   0.769  -2.521  1.00  0.00     0.316 C 
ATOM     11  C   UNL     1       5.223  -0.066  -0.024  1.00  0.00     0.020 A 
ATOM     12  O   UNL     1       3.614  -1.778   0.337  1.00  0.00    -0.474 OA
ATOM     13  C   UNL     1       6.339   0.663   0.352  1.00  0.00     0.036 A 
ATOM     14  C   UNL     1       4.849  -1.149   0.648  1.00  0.00     0.142 A 
ATOM     15  C   UNL     1       7.170  -0.001   1.286  1.00  0.00     0.109 A 
ATOM     16  C   UNL     1       5.645  -1.666   1.641  1.00  0.00     0.062 A 
ATOM     17  C   UNL     1       6.793  -1.030   2.024  1.00  0.00     0.044 A 
ATOM     18  Br  UNL     1       5.128  -3.339   2.521  1.00  0.00    -0.047 Br
BRANCH  10  19
ATOM     19  C   UNL     1       0.848   0.681  -2.257  1.00  0.00     0.430 C 
ATOM     20  F   UNL     1       0.563   1.261  -1.095  1.00  0.00    -0.167 F 
ATOM     21  F   UNL     1       0.195   1.303  -3.235  1.00  0.00    -0.167 F 
ATOM     22  F   UNL     1       0.477  -0.596  -2.218  1.00  0.00    -0.167 F 
ENDBRANCH  10  19
BRANCH  15  23
ATOM     23  S   UNL     1       8.865   0.601   1.482  1.00  0.00     0.310 S 
ATOM     24  F   UNL     1       8.747   0.602   3.064  1.00  0.00    -0.094 F 
ATOM     25  F   UNL     1       8.306   2.073   1.507  1.00  0.00    -0.094 F 
ATOM     26  F   UNL     1      10.321   1.120   1.651  1.00  0.00    -0.094 F 
ATOM     27  F   UNL     1       9.391  -0.885   1.595  1.00  0.00    -0.094 F 
ATOM     28  F   UNL     1       7.382   0.056   1.424  1.00  0.00    -0.094 F 
ENDBRANCH  15  23
ENDBRANCH   6   8
ENDBRANCH   5   6
ENDBRANCH   4   5
ENDBRANCH   3   4
ENDBRANCH   2   3
ENDBRANCH   1   2
BRANCH   1  29
ATOM     29  C   UNL     1       2.579  -2.385  -0.914  1.00  0.00     0.261 C 
BRANCH  29  30
ATOM     30  O   UNL     1       3.052  -2.810   0.355  1.00  0.00    -0.460 OA
BRANCH  30  31
ATOM     31  C   UNL     1       4.449  -2.892   0.602  1.00  0.00     0.338 C 
ATOM     32  O   UNL     1       5.274  -2.586  -0.315  1.00  0.00    -0.246 OA
BRANCH  31  33
ATOM     33  C   UNL     1       4.955  -3.346   1.961  1.00  0.00     0.060 A 
ATOM     34  C   UNL     1       6.052  -2.705   2.512  1.00  0.00     0.016 A 
ATOM     35  C   UNL     1       4.407  -4.403   2.550  1.00  0.00     0.016 A 
ATOM     36  C   UNL     1       6.682  -3.435   3.548  1.00  0.00     0.010 A 
ATOM     37  C   UNL     1       5.005  -4.983   3.642  1.00  0.00     0.010 A 
ATOM     38  C   UNL     1       6.126  -4.437   4.203  1.00  0.00    -0.014 A 
BRANCH  38  39
ATOM     39  C   UNL     1       6.700  -4.955   5.512  1.00  0.00     0.031 A 
ATOM     40  C   UNL     1       7.114  -6.285   5.598  1.00  0.00     0.074 A 
ATOM     41  C   UNL     1       6.872  -4.024   6.522  1.00  0.00     0.049 A 
ATOM     42  N   UNL     1       7.756  -6.874   6.609  1.00  0.00    -0.248 NA
ATOM     43  C   UNL     1       6.902  -7.284   4.540  1.00  0.00     0.031 C 
ATOM     44  C   UNL     1       6.464  -2.678   6.439  1.00  0.00     0.029 A 
ATOM     45  N   UNL     1       7.450  -4.214   7.757  1.00  0.00    -0.354 N 
ATOM     46  C   UNL     1       8.001  -8.153   6.317  1.00  0.00     0.074 A 
ATOM     47  C   UNL     1       7.450  -8.437   4.985  1.00  0.00     0.031 C 
ATOM     48  C   UNL     1       6.781  -2.069   7.612  1.00  0.00     0.029 A 
ATOM     49  C   UNL     1       7.393  -3.023   8.447  1.00  0.00     0.049 A 
ATOM     50  H   UNL     1       7.837  -5.056   8.090  1.00  0.00     0.167 HD
ATOM     51  C   UNL     1       8.664  -9.092   7.108  1.00  0.00     0.037 A 
ATOM     52  C   UNL     1       7.841  -2.764   9.733  1.00  0.00     0.037 A 
ATOM     53  C   UNL     1       9.151  -8.822   8.377  1.00  0.00     0.049 A 
ATOM     54  C   UNL     1       8.452  -3.720  10.548  1.00  0.00     0.074 A 
ATOM     55  C   UNL     1       9.828  -9.755   9.185  1.00  0.00     0.029 A 
ATOM     56  N   UNL     1       9.072  -7.638   9.076  1.00  0.00    -0.354 N 
ATOM     57  N   UNL     1       8.732  -4.988  10.240  1.00  0.00    -0.248 NA
ATOM     58  C   UNL     1       8.902  -3.466  11.923  1.00  0.00     0.031 C 
ATOM     59  C   UNL     1      10.145  -9.146  10.358  1.00  0.00     0.029 A 
ATOM     60  C   UNL     1       9.670  -7.822  10.303  1.00  0.00     0.049 A 
ATOM     61  H   UNL     1       8.659  -6.804   8.754  1.00  0.00     0.167 HD
ATOM     62  C   UNL     1       9.336  -5.587  11.268  1.00  0.00     0.074 A 
ATOM     63  C   UNL     1       9.448  -4.619  12.368  1.00  0.00     0.031 C 
ATOM     64  C   UNL     1       9.803  -6.901  11.331  1.00  0.00     0.037 A 
BRANCH  51  65
ATOM     65  C   UNL     1       8.863 -10.491   6.546  1.00  0.00     0.058 A 
ATOM     66  C   UNL     1       9.637 -10.577   5.401  1.00  0.00     0.135 A 
ATOM     67  C   UNL     1       8.374 -11.578   7.131  1.00  0.00     0.135 A 
ATOM     68  F   UNL     1      10.350  -9.558   4.929  1.00  0.00    -0.206 F 
ATOM     69  C   UNL     1       9.601 -11.848   4.780  1.00  0.00     0.059 A 
ATOM     70  C   UNL     1       8.494 -12.809   6.532  1.00  0.00     0.059 A 
ATOM     71  F   UNL     1       7.763 -11.475   8.309  1.00  0.00    -0.206 F 
ATOM     72  C   UNL     1       9.195 -12.958   5.368  1.00  0.00     0.060 A 
BRANCH  72  73
ATOM     73  S   UNL     1       9.550 -14.591   4.671  1.00  0.00     0.124 S 
ATOM     74  O   UNL     1       8.930 -14.695   3.275  1.00  0.00    -0.237 OA
ATOM     75  O   UNL     1      11.064 -14.786   4.573  1.00  0.00    -0.237 OA
ATOM     76  O   UNL     1       8.883 -15.799   5.682  1.00  0.00    -0.744 OA
ENDBRANCH  72  73
ENDBRANCH  51  65
BRANCH  52  77
ATOM     77  C   UNL     1       7.657  -1.361  10.288  1.00  0.00     0.058 A 
ATOM     78  C   UNL     1       8.739  -0.636  10.758  1.00  0.00     0.135 A 
ATOM     79  C   UNL     1       6.419  -0.890  10.381  1.00  0.00     0.135 A 
ATOM     80  F   UNL     1      10.000  -0.942  10.465  1.00  0.00    -0.206 F 
ATOM     81  C   UNL     1       8.382   0.459  11.579  1.00  0.00     0.059 A 
ATOM     82  C   UNL     1       6.160   0.261  11.085  1.00  0.00     0.059 A 
ATOM     83  F   UNL     1       5.421  -1.538   9.787  1.00  0.00    -0.206 F 
ATOM     84  C   UNL     1       7.176   0.997  11.628  1.00  0.00     0.060 A 
BRANCH  84  85
ATOM     85  S   UNL     1       6.886   2.620  12.373  1.00  0.00     0.124 S 
ATOM     86  O   UNL     1       7.309   2.590  13.844  1.00  0.00    -0.237 OA
ATOM     87  O   UNL     1       7.704   3.678  11.629  1.00  0.00    -0.237 OA
ATOM     88  O   UNL     1       5.223   3.007  12.267  1.00  0.00    -0.744 OA
ENDBRANCH  84  85
ENDBRANCH  52  77
BRANCH  64  89
ATOM     89  C   UNL     1      10.500  -7.351  12.605  1.00  0.00     0.058 A 
ATOM     90  C   UNL     1       9.826  -7.229  13.809  1.00  0.00     0.135 A 
ATOM     91  C   UNL     1      11.757  -7.777  12.559  1.00  0.00     0.135 A 
ATOM     92  F   UNL     1       8.510  -7.054  13.890  1.00  0.00    -0.206 F 
ATOM     93  C   UNL     1      10.665  -7.308  14.946  1.00  0.00     0.059 A 
ATOM     94  C   UNL     1      12.475  -7.963  13.715  1.00  0.00     0.059 A 
ATOM     95  F   UNL     1      12.325  -8.026  11.383  1.00  0.00    -0.206 F 
ATOM     96  C   UNL     1      11.889  -7.803  14.941  1.00  0.00     0.060 A 
BRANCH  96  97
ATOM     97  S   UNL     1      12.746  -8.246  16.472  1.00  0.00     0.124 S 
ATOM     98  O   UNL     1      12.880  -7.006  17.359  1.00  0.00    -0.237 OA
ATOM     99  O   UNL     1      11.944  -9.319  17.213  1.00  0.00    -0.237 OA
ATOM    100  O   UNL     1      14.301  -8.852  16.101  1.00  0.00    -0.744 OA
ENDBRANCH  96  97
ENDBRANCH  64  89
ENDBRANCH  38  39
ENDBRANCH  31  33
ENDBRANCH  30  31
ENDBRANCH  29  30
ENDBRANCH   1  29
TORSDOF 19
