REMARK SMILES O=C(OCCOCCOC(=O)[C@@]12CCC[C@@H](C[NH2+]1)C2)c1ccc(-c2c3nc(c(-c4c(F)cc(S(=O)(=O)[O-])cc4F)c4ccc([nH]4)c(-c4c(F)cc(S(=O)(=O)[O-])cc4F)c4nc(c(-c5c(F)cc(S(=O)(=O)[O-])cc5F)c5ccc2[nH]5)C=C4)C=C3)cc1
REMARK SMILES IDX 4 1 3 2 2 3 1 4 20 5 21 6 85 7 22 8 84 9 23 10 24 11 25 12
REMARK SMILES IDX 78 13 26 14 83 15 77 16 79 17 27 18 82 19 76 20 75 21 28 23
REMARK SMILES IDX 62 24 41 25 61 26 42 27 45 28 60 29 80 30 43 31 44 32 59 34
REMARK SMILES IDX 81 35 46 36 29 37 30 38 39 39 31 40 32 41 38 42 40 43 33 44
REMARK SMILES IDX 34 45 35 46 36 47 37 48 63 49 64 50 73 51 65 52 66 53 72 54
REMARK SMILES IDX 74 55 67 56 68 57 69 58 70 59 71 60 47 61 48 62 57 63 49 64
REMARK SMILES IDX 50 65 56 66 58 67 51 68 52 69 53 70 54 71 55 72 5 73 6 74
REMARK SMILES IDX 7 75 8 76 9 77 10 78 11 79 12 80 13 81 18 82 19 83 14 84
REMARK SMILES IDX 17 85 16 88 15 89
REMARK H PARENT 79 22 45 33 18 86 18 87
REMARK Flexibility Score: inf
ROOT
ATOM      1  C   UNL     1       4.183  -0.367   1.300  1.00  0.00     0.261 C 
ENDROOT
BRANCH   1   2
ATOM      2  O   UNL     1       2.838   0.084   1.500  1.00  0.00    -0.460 OA
BRANCH   2   3
ATOM      3  C   UNL     1       2.185   1.039   0.799  1.00  0.00     0.338 C 
ATOM      4  O   UNL     1       0.959   1.088   0.893  1.00  0.00    -0.246 OA
BRANCH   3   5
ATOM      5  C   UNL     1       2.864   2.067  -0.052  1.00  0.00     0.060 A 
ATOM      6  C   UNL     1       4.093   1.918  -0.705  1.00  0.00     0.016 A 
ATOM      7  C   UNL     1       2.148   3.256  -0.271  1.00  0.00     0.016 A 
ATOM      8  C   UNL     1       4.591   2.879  -1.561  1.00  0.00     0.010 A 
ATOM      9  C   UNL     1       2.655   4.252  -1.104  1.00  0.00     0.010 A 
ATOM     10  C   UNL     1       3.884   4.056  -1.739  1.00  0.00    -0.014 A 
BRANCH  10  11
ATOM     11  C   UNL     1       4.585   5.144  -2.419  1.00  0.00     0.031 A 
ATOM     12  C   UNL     1       5.301   6.128  -1.553  1.00  0.00     0.074 A 
ATOM     13  C   UNL     1       4.680   5.141  -3.757  1.00  0.00     0.049 A 
ATOM     14  N   UNL     1       5.910   7.229  -1.883  1.00  0.00    -0.248 NA
ATOM     15  C   UNL     1       5.344   5.818  -0.111  1.00  0.00     0.031 C 
ATOM     16  C   UNL     1       4.146   4.099  -4.638  1.00  0.00     0.029 A 
ATOM     17  N   UNL     1       5.268   6.034  -4.605  1.00  0.00    -0.354 N 
ATOM     18  C   UNL     1       6.371   7.766  -0.689  1.00  0.00     0.074 A 
ATOM     19  C   UNL     1       5.983   6.868   0.373  1.00  0.00     0.031 C 
ATOM     20  C   UNL     1       4.413   4.429  -5.912  1.00  0.00     0.029 A 
ATOM     21  C   UNL     1       5.072   5.730  -5.930  1.00  0.00     0.049 A 
ATOM     22  H   UNL     1       5.780   6.816  -4.299  1.00  0.00     0.167 HD
ATOM     23  C   UNL     1       7.039   8.927  -0.513  1.00  0.00     0.037 A 
ATOM     24  C   UNL     1       5.349   6.467  -7.021  1.00  0.00     0.037 A 
ATOM     25  C   UNL     1       7.377   9.787  -1.613  1.00  0.00     0.049 A 
ATOM     26  C   UNL     1       5.998   7.807  -6.801  1.00  0.00     0.074 A 
ATOM     27  C   UNL     1       7.983  11.025  -1.591  1.00  0.00     0.029 A 
ATOM     28  N   UNL     1       7.119   9.483  -2.947  1.00  0.00    -0.354 N 
ATOM     29  N   UNL     1       6.357   8.369  -5.668  1.00  0.00    -0.248 NA
ATOM     30  C   UNL     1       6.271   8.620  -7.990  1.00  0.00     0.031 C 
ATOM     31  C   UNL     1       8.044  11.493  -2.909  1.00  0.00     0.029 A 
ATOM     32  C   UNL     1       7.538  10.517  -3.759  1.00  0.00     0.049 A 
ATOM     33  H   UNL     1       6.698   8.651  -3.265  1.00  0.00     0.167 HD
ATOM     34  C   UNL     1       6.926   9.589  -6.005  1.00  0.00     0.074 A 
ATOM     35  C   UNL     1       6.859   9.682  -7.453  1.00  0.00     0.031 C 
ATOM     36  C   UNL     1       7.460  10.543  -5.202  1.00  0.00     0.037 A 
BRANCH  23  37
ATOM     37  C   UNL     1       7.320   9.344   0.902  1.00  0.00     0.058 A 
ATOM     38  C   UNL     1       8.232   8.659   1.723  1.00  0.00     0.135 A 
ATOM     39  C   UNL     1       6.596  10.402   1.475  1.00  0.00     0.135 A 
ATOM     40  F   UNL     1       8.924   7.614   1.240  1.00  0.00    -0.206 F 
ATOM     41  C   UNL     1       8.381   8.978   3.070  1.00  0.00     0.059 A 
ATOM     42  C   UNL     1       6.752  10.758   2.811  1.00  0.00     0.059 A 
ATOM     43  F   UNL     1       5.698  11.081   0.744  1.00  0.00    -0.206 F 
ATOM     44  C   UNL     1       7.629  10.024   3.607  1.00  0.00     0.060 A 
BRANCH  44  45
ATOM     45  S   UNL     1       7.794  10.396   5.366  1.00  0.00     0.124 S 
ATOM     46  O   UNL     1       7.097   9.264   5.969  1.00  0.00    -0.237 OA
ATOM     47  O   UNL     1       9.242  10.415   5.546  1.00  0.00    -0.237 OA
ATOM     48  O   UNL     1       7.130  11.688   5.505  1.00  0.00    -0.744 OA
ENDBRANCH  44  45
ENDBRANCH  23  37
BRANCH  24  49
ATOM     49  C   UNL     1       4.962   5.970  -8.368  1.00  0.00     0.058 A 
ATOM     50  C   UNL     1       5.924   5.593  -9.314  1.00  0.00     0.135 A 
ATOM     51  C   UNL     1       3.609   5.805  -8.715  1.00  0.00     0.135 A 
ATOM     52  F   UNL     1       7.229   5.734  -9.037  1.00  0.00    -0.206 F 
ATOM     53  C   UNL     1       5.562   5.067 -10.553  1.00  0.00     0.059 A 
ATOM     54  C   UNL     1       3.223   5.258  -9.935  1.00  0.00     0.059 A 
ATOM     55  F   UNL     1       2.645   6.140  -7.843  1.00  0.00    -0.206 F 
ATOM     56  C   UNL     1       4.208   4.895 -10.850  1.00  0.00     0.060 A 
BRANCH  56  57
ATOM     57  S   UNL     1       3.754   4.149 -12.431  1.00  0.00     0.124 S 
ATOM     58  O   UNL     1       4.104   5.209 -13.369  1.00  0.00    -0.237 OA
ATOM     59  O   UNL     1       4.602   2.961 -12.463  1.00  0.00    -0.237 OA
ATOM     60  O   UNL     1       2.325   3.886 -12.282  1.00  0.00    -0.744 OA
ENDBRANCH  56  57
ENDBRANCH  24  49
BRANCH  36  61
ATOM     61  C   UNL     1       8.069  11.739  -5.873  1.00  0.00     0.058 A 
ATOM     62  C   UNL     1       7.281  12.759  -6.423  1.00  0.00     0.135 A 
ATOM     63  C   UNL     1       9.463  11.908  -5.857  1.00  0.00     0.135 A 
ATOM     64  F   UNL     1       5.945  12.635  -6.465  1.00  0.00    -0.206 F 
ATOM     65  C   UNL     1       7.858  13.914  -6.938  1.00  0.00     0.059 A 
ATOM     66  C   UNL     1      10.058  13.066  -6.339  1.00  0.00     0.059 A 
ATOM     67  F   UNL     1      10.254  10.960  -5.330  1.00  0.00    -0.206 F 
ATOM     68  C   UNL     1       9.246  14.062  -6.880  1.00  0.00     0.060 A 
BRANCH  68  69
ATOM     69  S   UNL     1       9.974  15.601  -7.476  1.00  0.00     0.124 S 
ATOM     70  O   UNL     1       9.829  15.453  -8.921  1.00  0.00    -0.237 OA
ATOM     71  O   UNL     1       9.123  16.609  -6.853  1.00  0.00    -0.237 OA
ATOM     72  O   UNL     1      11.344  15.546  -6.973  1.00  0.00    -0.744 OA
ENDBRANCH  68  69
ENDBRANCH  36  61
ENDBRANCH  10  11
ENDBRANCH   3   5
ENDBRANCH   2   3
ENDBRANCH   1   2
BRANCH   1  73
ATOM     73  C   UNL     1       4.254  -1.352   0.132  1.00  0.00     0.202 C 
BRANCH  73  74
ATOM     74  O   UNL     1       3.849  -0.810  -1.122  1.00  0.00    -0.374 OA
BRANCH  74  75
ATOM     75  C   UNL     1       2.518  -1.108  -1.543  1.00  0.00     0.202 C 
BRANCH  75  76
ATOM     76  C   UNL     1       2.541  -2.193  -2.610  1.00  0.00     0.261 C 
BRANCH  76  77
ATOM     77  O   UNL     1       3.062  -3.401  -2.033  1.00  0.00    -0.459 OA
BRANCH  77  78
ATOM     78  C   UNL     1       4.408  -3.566  -2.144  1.00  0.00     0.368 C 
ATOM     79  O   UNL     1       5.175  -2.813  -2.743  1.00  0.00    -0.245 OA
BRANCH  78  80
ATOM     80  C   UNL     1       4.890  -4.811  -1.385  1.00  0.00     0.194 C 
ATOM     81  C   UNL     1       4.012  -6.041  -1.694  1.00  0.00     0.081 C 
ATOM     82  N   UNL     1       6.314  -5.098  -1.799  1.00  0.00    -0.332 N 
ATOM     83  C   UNL     1       4.988  -4.671   0.137  1.00  0.00     0.090 C 
ATOM     84  C   UNL     1       4.146  -7.145  -0.635  1.00  0.00     0.008 C 
ATOM     85  C   UNL     1       7.089  -5.304  -0.569  1.00  0.00     0.265 C 
ATOM     86  H   UNL     1       6.692  -4.309  -2.322  1.00  0.00     0.347 HD
ATOM     87  H   UNL     1       6.358  -5.923  -2.397  1.00  0.00     0.347 HD
ATOM     88  C   UNL     1       6.026  -5.752   0.426  1.00  0.00     0.051 C 
ATOM     89  C   UNL     1       5.514  -7.165   0.050  1.00  0.00     0.010 C 
ENDBRANCH  78  80
ENDBRANCH  77  78
ENDBRANCH  76  77
ENDBRANCH  75  76
ENDBRANCH  74  75
ENDBRANCH  73  74
ENDBRANCH   1  73
TORSDOF 17
