REMARK SMILES O=C(CCc1cccnc1)Nc1ccsc1C(=O)OCCOCCOC(=O)c1ccc(-c2c3nc(c(-c4c(F)cc(S(=O)(=O)[O-])cc4F)c4ccc([nH]4)c(-c4c(F)cc(S(=O)(=O)[O-])cc4F)c4nc(c(-c5c(F)cc(S(=O)(=O)[O-])cc5F)c5ccc2[nH]5)C=C4)C=C3)cc1
REMARK SMILES IDX 21 1 20 2 19 3 17 4 18 5 16 6 12 7 13 8 14 9 15 10 11 11
REMARK SMILES IDX 1 12 2 13 3 15 4 16 5 17 6 18 10 19 7 20 9 21 8 22 22 23
REMARK SMILES IDX 23 24 24 25 25 26 26 27 27 28 28 29 29 30 93 31 30 32 92 33
REMARK SMILES IDX 31 34 32 35 33 36 86 37 34 38 91 39 85 40 87 41 35 42 90 43
REMARK SMILES IDX 84 44 83 45 36 47 70 48 49 49 69 50 50 51 53 52 68 53 88 54
REMARK SMILES IDX 51 55 52 56 67 58 89 59 54 60 37 61 38 62 47 63 39 64 40 65
REMARK SMILES IDX 46 66 48 67 41 68 42 69 43 70 44 71 45 72 71 73 72 74 81 75
REMARK SMILES IDX 73 76 74 77 80 78 82 79 75 80 76 81 77 82 78 83 79 84 55 85
REMARK SMILES IDX 56 86 65 87 57 88 58 89 64 90 66 91 59 92 60 93 61 94 62 95
REMARK SMILES IDX 63 96
REMARK H PARENT 11 14 87 46 53 57
REMARK Flexibility Score: inf
ROOT
ATOM      1  C   UNL     1       5.133  -3.764  -3.219  1.00  0.00     0.202 C 
ENDROOT
BRANCH   1   2
ATOM      2  C   UNL     1       5.476  -2.363  -3.728  1.00  0.00     0.261 C 
BRANCH   2   3
ATOM      3  O   UNL     1       4.485  -1.430  -3.253  1.00  0.00    -0.459 OA
BRANCH   3   4
ATOM      4  C   UNL     1       4.135  -0.468  -4.157  1.00  0.00     0.350 C 
ATOM      5  O   UNL     1       4.793  -0.188  -5.145  1.00  0.00    -0.245 OA
BRANCH   4   6
ATOM      6  C   UNL     1       2.817   0.054  -3.829  1.00  0.00     0.136 A 
ATOM      7  C   UNL     1       2.141   0.217  -2.624  1.00  0.00     0.066 A 
ATOM      8  C   UNL     1       0.810   0.703  -2.851  1.00  0.00     0.039 A 
ATOM      9  C   UNL     1       0.524   0.909  -4.179  1.00  0.00     0.068 A 
ATOM     10  S   UNL     1       1.848   0.533  -5.173  1.00  0.00    -0.135 S 
BRANCH   7  11
ATOM     11  N   UNL     1       2.718  -0.006  -1.368  1.00  0.00    -0.325 N 
ATOM     12  O   UNL     1       0.817   0.107  -0.044  1.00  0.00    -0.275 OA
ATOM     13  C   UNL     1       2.043   0.087  -0.163  1.00  0.00     0.224 C 
ATOM     14  H   UNL     1       3.672  -0.246  -1.340  1.00  0.00     0.169 HD
BRANCH  13  15
ATOM     15  C   UNL     1       2.907   0.296   1.073  1.00  0.00     0.105 C 
BRANCH  15  16
ATOM     16  C   UNL     1       4.053  -0.688   1.283  1.00  0.00     0.047 C 
BRANCH  16  17
ATOM     17  C   UNL     1       5.275  -0.488   0.427  1.00  0.00    -0.029 A 
ATOM     18  C   UNL     1       5.783   0.767   0.083  1.00  0.00     0.007 A 
ATOM     19  C   UNL     1       5.984  -1.595  -0.026  1.00  0.00     0.114 A 
ATOM     20  C   UNL     1       6.925   0.861  -0.708  1.00  0.00     0.020 A 
ATOM     21  N   UNL     1       7.089  -1.539  -0.799  1.00  0.00    -0.264 NA
ATOM     22  C   UNL     1       7.542  -0.308  -1.114  1.00  0.00     0.111 A 
ENDBRANCH  16  17
ENDBRANCH  15  16
ENDBRANCH  13  15
ENDBRANCH   7  11
ENDBRANCH   4   6
ENDBRANCH   3   4
ENDBRANCH   2   3
ENDBRANCH   1   2
BRANCH   1  23
ATOM     23  O   UNL     1       4.039  -4.358  -3.930  1.00  0.00    -0.374 OA
BRANCH  23  24
ATOM     24  C   UNL     1       2.732  -3.966  -3.508  1.00  0.00     0.202 C 
BRANCH  24  25
ATOM     25  C   UNL     1       2.146  -4.841  -2.397  1.00  0.00     0.261 C 
BRANCH  25  26
ATOM     26  O   UNL     1       2.855  -4.670  -1.156  1.00  0.00    -0.460 OA
BRANCH  26  27
ATOM     27  C   UNL     1       3.700  -5.681  -0.831  1.00  0.00     0.338 C 
ATOM     28  O   UNL     1       3.889  -6.712  -1.453  1.00  0.00    -0.246 OA
BRANCH  27  29
ATOM     29  C   UNL     1       4.494  -5.297   0.356  1.00  0.00     0.060 A 
ATOM     30  C   UNL     1       5.860  -5.604   0.360  1.00  0.00     0.016 A 
ATOM     31  C   UNL     1       3.911  -4.664   1.459  1.00  0.00     0.016 A 
ATOM     32  C   UNL     1       6.643  -5.304   1.477  1.00  0.00     0.010 A 
ATOM     33  C   UNL     1       4.698  -4.363   2.576  1.00  0.00     0.010 A 
ATOM     34  C   UNL     1       6.062  -4.705   2.602  1.00  0.00    -0.014 A 
BRANCH  34  35
ATOM     35  C   UNL     1       6.838  -4.567   3.860  1.00  0.00     0.031 A 
ATOM     36  C   UNL     1       6.628  -5.579   4.953  1.00  0.00     0.074 A 
ATOM     37  C   UNL     1       7.702  -3.552   4.042  1.00  0.00     0.049 A 
ATOM     38  N   UNL     1       7.171  -5.640   6.141  1.00  0.00    -0.248 NA
ATOM     39  C   UNL     1       5.674  -6.663   4.669  1.00  0.00     0.031 C 
ATOM     40  C   UNL     1       8.009  -2.514   3.061  1.00  0.00     0.029 A 
ATOM     41  N   UNL     1       8.468  -3.219   5.132  1.00  0.00    -0.354 N 
ATOM     42  C   UNL     1       6.628  -6.766   6.746  1.00  0.00     0.074 A 
ATOM     43  C   UNL     1       5.682  -7.335   5.810  1.00  0.00     0.031 C 
ATOM     44  C   UNL     1       8.867  -1.635   3.607  1.00  0.00     0.029 A 
ATOM     45  C   UNL     1       9.171  -2.048   4.975  1.00  0.00     0.049 A 
ATOM     46  H   UNL     1       8.509  -3.766   5.949  1.00  0.00     0.167 HD
ATOM     47  C   UNL     1       6.903  -7.291   7.963  1.00  0.00     0.037 A 
ATOM     48  C   UNL     1       9.964  -1.382   5.837  1.00  0.00     0.037 A 
ATOM     49  C   UNL     1       7.847  -6.731   8.893  1.00  0.00     0.049 A 
ATOM     50  C   UNL     1      10.231  -1.962   7.201  1.00  0.00     0.074 A 
ATOM     51  C   UNL     1       8.232  -7.220  10.129  1.00  0.00     0.029 A 
ATOM     52  N   UNL     1       8.547  -5.551   8.694  1.00  0.00    -0.354 N 
ATOM     53  N   UNL     1       9.764  -3.067   7.731  1.00  0.00    -0.248 NA
ATOM     54  C   UNL     1      11.147  -1.216   8.076  1.00  0.00     0.031 C 
ATOM     55  C   UNL     1       9.135  -6.313  10.695  1.00  0.00     0.029 A 
ATOM     56  C   UNL     1       9.342  -5.280   9.795  1.00  0.00     0.049 A 
ATOM     57  H   UNL     1       8.487  -4.988   7.888  1.00  0.00     0.167 HD
ATOM     58  C   UNL     1      10.351  -3.163   8.989  1.00  0.00     0.074 A 
ATOM     59  C   UNL     1      11.209  -2.006   9.139  1.00  0.00     0.031 C 
ATOM     60  C   UNL     1      10.197  -4.127   9.930  1.00  0.00     0.037 A 
BRANCH  47  61
ATOM     61  C   UNL     1       6.156  -8.532   8.357  1.00  0.00     0.058 A 
ATOM     62  C   UNL     1       6.446  -9.778   7.780  1.00  0.00     0.135 A 
ATOM     63  C   UNL     1       5.137  -8.473   9.320  1.00  0.00     0.135 A 
ATOM     64  F   UNL     1       7.399  -9.883   6.841  1.00  0.00    -0.206 F 
ATOM     65  C   UNL     1       5.726 -10.919   8.118  1.00  0.00     0.059 A 
ATOM     66  C   UNL     1       4.420  -9.607   9.691  1.00  0.00     0.059 A 
ATOM     67  F   UNL     1       4.819  -7.305   9.899  1.00  0.00    -0.206 F 
ATOM     68  C   UNL     1       4.709 -10.821   9.069  1.00  0.00     0.060 A 
BRANCH  68  69
ATOM     69  S   UNL     1       3.766 -12.303   9.483  1.00  0.00     0.124 S 
ATOM     70  O   UNL     1       2.884 -12.417   8.325  1.00  0.00    -0.237 OA
ATOM     71  O   UNL     1       4.807 -13.320   9.589  1.00  0.00    -0.237 OA
ATOM     72  O   UNL     1       3.111 -11.948  10.739  1.00  0.00    -0.744 OA
ENDBRANCH  68  69
ENDBRANCH  47  61
BRANCH  48  73
ATOM     73  C   UNL     1      10.570  -0.088   5.431  1.00  0.00     0.058 A 
ATOM     74  C   UNL     1      11.935   0.013   5.129  1.00  0.00     0.135 A 
ATOM     75  C   UNL     1       9.787   1.073   5.326  1.00  0.00     0.135 A 
ATOM     76  F   UNL     1      12.725  -1.067   5.226  1.00  0.00    -0.206 F 
ATOM     77  C   UNL     1      12.508   1.221   4.744  1.00  0.00     0.059 A 
ATOM     78  C   UNL     1      10.333   2.288   4.926  1.00  0.00     0.059 A 
ATOM     79  F   UNL     1       8.473   1.024   5.594  1.00  0.00    -0.206 F 
ATOM     80  C   UNL     1      11.697   2.353   4.643  1.00  0.00     0.060 A 
BRANCH  80  81
ATOM     81  S   UNL     1      12.434   3.904   4.081  1.00  0.00     0.124 S 
ATOM     82  O   UNL     1      13.154   4.336   5.272  1.00  0.00    -0.237 OA
ATOM     83  O   UNL     1      13.257   3.465   2.958  1.00  0.00    -0.237 OA
ATOM     84  O   UNL     1      11.273   4.711   3.715  1.00  0.00    -0.744 OA
ENDBRANCH  80  81
ENDBRANCH  48  73
BRANCH  60  85
ATOM     85  C   UNL     1      10.991  -3.994  11.199  1.00  0.00     0.058 A 
ATOM     86  C   UNL     1      10.637  -3.071  12.195  1.00  0.00     0.135 A 
ATOM     87  C   UNL     1      12.080  -4.845  11.449  1.00  0.00     0.135 A 
ATOM     88  F   UNL     1       9.608  -2.231  12.002  1.00  0.00    -0.206 F 
ATOM     89  C   UNL     1      11.345  -2.985  13.390  1.00  0.00     0.059 A 
ATOM     90  C   UNL     1      12.788  -4.792  12.646  1.00  0.00     0.059 A 
ATOM     91  F   UNL     1      12.453  -5.752  10.533  1.00  0.00    -0.206 F 
ATOM     92  C   UNL     1      12.418  -3.851  13.607  1.00  0.00     0.060 A 
BRANCH  92  93
ATOM     93  S   UNL     1      13.303  -3.763  15.179  1.00  0.00     0.124 S 
ATOM     94  O   UNL     1      14.130  -2.577  14.984  1.00  0.00    -0.237 OA
ATOM     95  O   UNL     1      12.217  -3.627  16.145  1.00  0.00    -0.237 OA
ATOM     96  O   UNL     1      14.025  -5.031  15.232  1.00  0.00    -0.744 OA
ENDBRANCH  92  93
ENDBRANCH  60  85
ENDBRANCH  34  35
ENDBRANCH  27  29
ENDBRANCH  26  27
ENDBRANCH  25  26
ENDBRANCH  24  25
ENDBRANCH  23  24
ENDBRANCH   1  23
TORSDOF 21
