REMARK SMILES Nn1c(S[C@@H](C(=O)OCCOCCOC(=O)c2ccc(-c3c4nc(c(-c5c(F)cc(S(=O)(=O)[O-])cc5F)c5ccc([nH]5)c(-c5c(F)cc(S(=O)(=O)[O-])cc5F)c5nc(c(-c6c(F)cc(S(=O)(=O)[O-])cc6F)c6ccc3[nH]6)C=C5)C=C4)cc2)c2ccccc2)nc2ccc(Br)cc2c1=O
REMARK SMILES IDX 11 1 10 2 9 3 8 4 6 5 7 6 5 7 4 8 3 9 2 10 97 11 89 12 96 13
REMARK SMILES IDX 98 14 90 15 95 16 91 17 93 18 92 19 94 20 1 21 83 24 84 25
REMARK SMILES IDX 88 26 85 27 87 28 86 29 12 30 13 31 14 32 15 33 16 34 17 35
REMARK SMILES IDX 18 36 82 37 19 38 81 39 20 40 21 41 22 42 75 43 23 44 80 45
REMARK SMILES IDX 74 46 76 47 24 48 79 49 73 50 72 51 25 53 59 54 38 55 58 56
REMARK SMILES IDX 39 57 42 58 57 59 77 60 40 61 41 62 56 64 78 65 43 66 26 67
REMARK SMILES IDX 27 68 36 69 28 70 29 71 35 72 37 73 30 74 31 75 32 76 33 77
REMARK SMILES IDX 34 78 60 79 61 80 70 81 62 82 63 83 69 84 71 85 64 86 65 87
REMARK SMILES IDX 66 88 67 89 68 90 44 91 45 92 54 93 46 94 47 95 53 96 55 97
REMARK SMILES IDX 48 98 49 99 50 100 51 101 52 102
REMARK H PARENT 1 22 1 23 76 52 42 63
REMARK Flexibility Score: inf
ROOT
ATOM      1  O   UNL     1       3.113   1.024   3.132  1.00  0.00    -0.374 OA
ENDROOT
BRANCH   1   2
ATOM      2  C   UNL     1       4.312   1.312   2.412  1.00  0.00     0.202 C 
BRANCH   2   3
ATOM      3  C   UNL     1       4.686   0.473   1.178  1.00  0.00     0.261 C 
BRANCH   3   4
ATOM      4  O   UNL     1       3.851   0.650   0.004  1.00  0.00    -0.462 OA
BRANCH   4   5
ATOM      5  C   UNL     1       3.128  -0.450  -0.380  1.00  0.00     0.324 C 
ATOM      6  O   UNL     1       3.003  -1.421   0.362  1.00  0.00    -0.251 OA
BRANCH   5   7
ATOM      7  C   UNL     1       2.535  -0.366  -1.816  1.00  0.00     0.194 C 
BRANCH   7   8
ATOM      8  S   UNL     1       1.850   1.269  -2.165  1.00  0.00    -0.066 SA
BRANCH   8   9
ATOM      9  C   UNL     1       0.316   1.592  -1.381  1.00  0.00     0.191 A 
ATOM     10  N   UNL     1      -0.339   0.789  -0.438  1.00  0.00    -0.202 N 
ATOM     11  C   UNL     1      -1.456   1.256   0.273  1.00  0.00     0.280 A 
ATOM     12  N   UNL     1      -0.159   2.751  -1.728  1.00  0.00    -0.222 NA
ATOM     13  C   UNL     1      -1.959   2.586  -0.086  1.00  0.00     0.069 A 
ATOM     14  O   UNL     1      -1.993   0.616   1.178  1.00  0.00    -0.267 OA
ATOM     15  C   UNL     1      -1.314   3.252  -1.123  1.00  0.00     0.079 A 
ATOM     16  C   UNL     1      -3.045   3.154   0.589  1.00  0.00     0.031 A 
ATOM     17  C   UNL     1      -1.807   4.497  -1.523  1.00  0.00     0.030 A 
ATOM     18  C   UNL     1      -3.510   4.402   0.189  1.00  0.00     0.018 A 
ATOM     19  C   UNL     1      -2.906   5.071  -0.875  1.00  0.00     0.018 A 
ATOM     20  Br  UNL     1      -4.970   5.192   1.092  1.00  0.00    -0.051 Br
BRANCH  10  21
ATOM     21  N   UNL     1       0.009  -0.546  -0.142  1.00  0.00    -0.334 N 
ATOM     22  H   UNL     1       0.780  -0.965  -0.590  1.00  0.00     0.178 HD
ATOM     23  H   UNL     1      -0.518  -1.058   0.512  1.00  0.00     0.178 HD
ENDBRANCH  10  21
ENDBRANCH   8   9
ENDBRANCH   7   8
BRANCH   7  24
ATOM     24  C   UNL     1       1.678  -1.577  -2.239  1.00  0.00    -0.023 A 
ATOM     25  C   UNL     1       2.048  -2.872  -1.829  1.00  0.00     0.005 A 
ATOM     26  C   UNL     1       0.463  -1.452  -2.940  1.00  0.00     0.005 A 
ATOM     27  C   UNL     1       1.146  -3.934  -1.892  1.00  0.00     0.000 A 
ATOM     28  C   UNL     1      -0.444  -2.514  -2.997  1.00  0.00     0.000 A 
ATOM     29  C   UNL     1      -0.119  -3.742  -2.434  1.00  0.00     0.000 A 
ENDBRANCH   7  24
ENDBRANCH   5   7
ENDBRANCH   4   5
ENDBRANCH   3   4
ENDBRANCH   2   3
ENDBRANCH   1   2
BRANCH   1  30
ATOM     30  C   UNL     1       1.888   1.091   2.428  1.00  0.00     0.202 C 
BRANCH  30  31
ATOM     31  C   UNL     1       1.356   2.455   1.984  1.00  0.00     0.261 C 
BRANCH  31  32
ATOM     32  O   UNL     1       2.354   3.396   1.640  1.00  0.00    -0.460 OA
BRANCH  32  33
ATOM     33  C   UNL     1       2.550   4.343   2.583  1.00  0.00     0.338 C 
ATOM     34  O   UNL     1       1.936   4.514   3.620  1.00  0.00    -0.246 OA
BRANCH  33  35
ATOM     35  C   UNL     1       3.782   5.037   2.211  1.00  0.00     0.060 A 
ATOM     36  C   UNL     1       3.897   5.669   0.970  1.00  0.00     0.016 A 
ATOM     37  C   UNL     1       4.847   4.985   3.113  1.00  0.00     0.016 A 
ATOM     38  C   UNL     1       5.096   6.289   0.642  1.00  0.00     0.010 A 
ATOM     39  C   UNL     1       6.042   5.608   2.784  1.00  0.00     0.010 A 
ATOM     40  C   UNL     1       6.160   6.283   1.560  1.00  0.00    -0.014 A 
BRANCH  40  41
ATOM     41  C   UNL     1       7.351   7.120   1.321  1.00  0.00     0.031 A 
ATOM     42  C   UNL     1       8.668   6.509   0.969  1.00  0.00     0.074 A 
ATOM     43  C   UNL     1       7.215   8.446   1.505  1.00  0.00     0.049 A 
ATOM     44  N   UNL     1       9.813   7.101   0.764  1.00  0.00    -0.248 NA
ATOM     45  C   UNL     1       8.711   5.044   0.841  1.00  0.00     0.031 C 
ATOM     46  C   UNL     1       5.968   9.114   1.892  1.00  0.00     0.029 A 
ATOM     47  N   UNL     1       8.121   9.464   1.404  1.00  0.00    -0.354 N 
ATOM     48  C   UNL     1      10.717   6.088   0.476  1.00  0.00     0.074 A 
ATOM     49  C   UNL     1       9.994   4.837   0.574  1.00  0.00     0.031 C 
ATOM     50  C   UNL     1       6.185  10.434   1.976  1.00  0.00     0.029 A 
ATOM     51  C   UNL     1       7.590  10.698   1.692  1.00  0.00     0.049 A 
ATOM     52  H   UNL     1       9.063   9.327   1.150  1.00  0.00     0.167 HD
ATOM     53  C   UNL     1      12.025   6.206   0.148  1.00  0.00     0.037 A 
ATOM     54  C   UNL     1       8.177  11.908   1.732  1.00  0.00     0.037 A 
ATOM     55  C   UNL     1      12.718   7.469   0.076  1.00  0.00     0.049 A 
ATOM     56  C   UNL     1       9.637  12.005   1.397  1.00  0.00     0.074 A 
ATOM     57  C   UNL     1      14.032   7.709  -0.284  1.00  0.00     0.029 A 
ATOM     58  N   UNL     1      12.156   8.702   0.381  1.00  0.00    -0.354 N 
ATOM     59  N   UNL     1      10.467  11.046   1.059  1.00  0.00    -0.248 NA
ATOM     60  C   UNL     1      10.242  13.341   1.444  1.00  0.00     0.031 C 
ATOM     61  C   UNL     1      14.280   9.078  -0.141  1.00  0.00     0.029 A 
ATOM     62  C   UNL     1      13.105   9.703   0.249  1.00  0.00     0.049 A 
ATOM     63  H   UNL     1      11.220   8.845   0.652  1.00  0.00     0.167 HD
ATOM     64  C   UNL     1      11.691  11.664   0.838  1.00  0.00     0.074 A 
ATOM     65  C   UNL     1      11.485  13.082   1.060  1.00  0.00     0.031 C 
ATOM     66  C   UNL     1      12.877  11.109   0.485  1.00  0.00     0.037 A 
BRANCH  53  67
ATOM     67  C   UNL     1      12.794   4.949  -0.154  1.00  0.00     0.058 A 
ATOM     68  C   UNL     1      12.553   4.204  -1.320  1.00  0.00     0.135 A 
ATOM     69  C   UNL     1      13.825   4.515   0.696  1.00  0.00     0.135 A 
ATOM     70  F   UNL     1      11.571   4.563  -2.162  1.00  0.00    -0.206 F 
ATOM     71  C   UNL     1      13.293   3.066  -1.623  1.00  0.00     0.059 A 
ATOM     72  C   UNL     1      14.596   3.394   0.399  1.00  0.00     0.059 A 
ATOM     73  F   UNL     1      14.097   5.187   1.825  1.00  0.00    -0.206 F 
ATOM     74  C   UNL     1      14.316   2.671  -0.759  1.00  0.00     0.060 A 
BRANCH  74  75
ATOM     75  S   UNL     1      15.270   1.196  -1.177  1.00  0.00     0.124 S 
ATOM     76  O   UNL     1      14.270   0.145  -1.012  1.00  0.00    -0.237 OA
ATOM     77  O   UNL     1      15.677   1.472  -2.551  1.00  0.00    -0.237 OA
ATOM     78  O   UNL     1      16.348   1.195  -0.194  1.00  0.00    -0.744 OA
ENDBRANCH  74  75
ENDBRANCH  53  67
BRANCH  54  79
ATOM     79  C   UNL     1       7.366  13.104   2.073  1.00  0.00     0.058 A 
ATOM     80  C   UNL     1       7.049  14.058   1.096  1.00  0.00     0.135 A 
ATOM     81  C   UNL     1       6.837  13.286   3.361  1.00  0.00     0.135 A 
ATOM     82  F   UNL     1       7.530  13.927  -0.150  1.00  0.00    -0.206 F 
ATOM     83  C   UNL     1       6.242  15.153   1.383  1.00  0.00     0.059 A 
ATOM     84  C   UNL     1       6.005  14.358   3.666  1.00  0.00     0.059 A 
ATOM     85  F   UNL     1       7.093  12.388   4.326  1.00  0.00    -0.206 F 
ATOM     86  C   UNL     1       5.717  15.290   2.670  1.00  0.00     0.060 A 
BRANCH  86  87
ATOM     87  S   UNL     1       4.621  16.683   3.009  1.00  0.00     0.124 S 
ATOM     88  O   UNL     1       5.543  17.810   2.925  1.00  0.00    -0.237 OA
ATOM     89  O   UNL     1       3.647  16.573   1.928  1.00  0.00    -0.237 OA
ATOM     90  O   UNL     1       4.104  16.390   4.342  1.00  0.00    -0.744 OA
ENDBRANCH  86  87
ENDBRANCH  54  79
BRANCH  66  91
ATOM     91  C   UNL     1      14.047  12.038   0.314  1.00  0.00     0.058 A 
ATOM     92  C   UNL     1      14.670  12.643   1.416  1.00  0.00     0.135 A 
ATOM     93  C   UNL     1      14.591  12.271  -0.960  1.00  0.00     0.135 A 
ATOM     94  F   UNL     1      14.183  12.460   2.653  1.00  0.00    -0.206 F 
ATOM     95  C   UNL     1      15.784  13.460   1.260  1.00  0.00     0.059 A 
ATOM     96  C   UNL     1      15.723  13.059  -1.135  1.00  0.00     0.059 A 
ATOM     97  F   UNL     1      14.037  11.709  -2.046  1.00  0.00    -0.206 F 
ATOM     98  C   UNL     1      16.308  13.655  -0.019  1.00  0.00     0.060 A 
BRANCH  98  99
ATOM     99  S   UNL     1      17.782  14.681  -0.197  1.00  0.00     0.124 S 
ATOM    100  O   UNL     1      17.258  16.007   0.111  1.00  0.00    -0.237 OA
ATOM    101  O   UNL     1      18.680  14.107   0.800  1.00  0.00    -0.237 OA
ATOM    102  O   UNL     1      18.179  14.471  -1.586  1.00  0.00    -0.744 OA
ENDBRANCH  98  99
ENDBRANCH  66  91
ENDBRANCH  40  41
ENDBRANCH  33  35
ENDBRANCH  32  33
ENDBRANCH  31  32
ENDBRANCH  30  31
ENDBRANCH   1  30
TORSDOF 21
