REMARK SMILES CC(C)CCNC(=O)[C@@H](C)Oc1ccc(N)cc1C(=O)OCCOCCOC(=O)c1ccc(-c2c3nc(c(-c4c(F)cc(S(=O)(=O)[O-])cc4F)c4ccc([nH]4)c(-c4c(F)cc(S(=O)(=O)[O-])cc4F)c4nc(c(-c5c(F)cc(S(=O)(=O)[O-])cc5F)c5ccc2[nH]5)C=C4)C=C3)cc1
REMARK SMILES IDX 22 1 21 2 19 3 20 4 18 5 12 6 13 7 14 8 17 9 15 10 11 11
REMARK SMILES IDX 9 12 10 13 7 14 6 15 8 17 5 18 4 19 2 20 1 21 3 22 16 23
REMARK SMILES IDX 23 26 24 27 25 28 26 29 27 30 28 31 29 32 30 33 31 34 95 35
REMARK SMILES IDX 32 36 94 37 33 38 34 39 35 40 88 41 36 42 93 43 87 44 89 45
REMARK SMILES IDX 37 46 92 47 86 48 85 49 38 51 72 52 51 53 71 54 52 55 55 56
REMARK SMILES IDX 70 57 90 58 53 59 54 60 69 62 91 63 56 64 39 65 40 66 49 67
REMARK SMILES IDX 41 68 42 69 48 70 50 71 43 72 44 73 45 74 46 75 47 76 73 77
REMARK SMILES IDX 74 78 83 79 75 80 76 81 82 82 84 83 77 84 78 85 79 86 80 87
REMARK SMILES IDX 81 88 57 89 58 90 67 91 59 92 60 93 66 94 68 95 61 96 62 97
REMARK SMILES IDX 63 98 64 99 65 100
REMARK H PARENT 6 16 16 24 16 25 89 50 55 61
REMARK Flexibility Score: inf
ROOT
ATOM      1  C   UNL     1      -7.419  -2.895  -1.412  1.00  0.00     0.261 C 
ENDROOT
BRANCH   1   2
ATOM      2  O   UNL     1      -6.014  -2.825  -1.108  1.00  0.00    -0.460 OA
BRANCH   2   3
ATOM      3  C   UNL     1      -5.264  -2.346  -2.124  1.00  0.00     0.342 C 
ATOM      4  O   UNL     1      -5.681  -2.046  -3.236  1.00  0.00    -0.246 OA
BRANCH   3   5
ATOM      5  C   UNL     1      -3.849  -2.089  -1.765  1.00  0.00     0.104 A 
ATOM      6  C   UNL     1      -3.068  -2.836  -0.881  1.00  0.00     0.135 A 
ATOM      7  C   UNL     1      -1.687  -2.802  -1.056  1.00  0.00     0.049 A 
ATOM      8  C   UNL     1      -1.095  -1.820  -1.861  1.00  0.00     0.029 A 
ATOM      9  C   UNL     1      -3.246  -1.054  -2.507  1.00  0.00     0.045 A 
ATOM     10  C   UNL     1      -1.874  -0.846  -2.472  1.00  0.00     0.032 A 
BRANCH   6  11
ATOM     11  O   UNL     1      -3.602  -3.657   0.063  1.00  0.00    -0.480 OA
BRANCH  11  12
ATOM     12  C   UNL     1      -3.293  -3.343   1.433  1.00  0.00     0.258 C 
ATOM     13  C   UNL     1      -4.220  -2.260   1.995  1.00  0.00     0.064 C 
BRANCH  12  14
ATOM     14  C   UNL     1      -1.843  -3.275   2.042  1.00  0.00     0.260 C 
ATOM     15  N   UNL     1      -1.112  -2.123   2.163  1.00  0.00    -0.353 N 
ATOM     16  H   UNL     1      -0.390  -2.151   2.831  1.00  0.00     0.163 HD
ATOM     17  O   UNL     1      -1.298  -4.304   2.462  1.00  0.00    -0.271 OA
BRANCH  15  18
ATOM     18  C   UNL     1      -1.246  -0.872   1.450  1.00  0.00     0.116 C 
BRANCH  18  19
ATOM     19  C   UNL     1      -0.542   0.323   2.083  1.00  0.00     0.024 C 
BRANCH  19  20
ATOM     20  C   UNL     1       0.995   0.370   1.913  1.00  0.00    -0.016 C 
ATOM     21  C   UNL     1       1.464   0.205   0.462  1.00  0.00     0.007 C 
ATOM     22  C   UNL     1       1.513   1.709   2.449  1.00  0.00     0.007 C 
ENDBRANCH  19  20
ENDBRANCH  18  19
ENDBRANCH  15  18
ENDBRANCH  12  14
ENDBRANCH  11  12
ENDBRANCH   6  11
BRANCH  10  23
ATOM     23  N   UNL     1      -1.301   0.206  -3.162  1.00  0.00    -0.399 N 
ATOM     24  H   UNL     1      -0.327   0.344  -3.130  1.00  0.00     0.156 HD
ATOM     25  H   UNL     1      -1.867   0.818  -3.687  1.00  0.00     0.156 HD
ENDBRANCH  10  23
ENDBRANCH   3   5
ENDBRANCH   2   3
ENDBRANCH   1   2
BRANCH   1  26
ATOM     26  C   UNL     1      -8.196  -1.767  -0.730  1.00  0.00     0.202 C 
BRANCH  26  27
ATOM     27  O   UNL     1      -7.827  -0.435  -1.087  1.00  0.00    -0.374 OA
BRANCH  27  28
ATOM     28  C   UNL     1      -6.694   0.125  -0.421  1.00  0.00     0.202 C 
BRANCH  28  29
ATOM     29  C   UNL     1      -6.932   0.643   1.001  1.00  0.00     0.261 C 
BRANCH  29  30
ATOM     30  O   UNL     1      -7.141  -0.440   1.926  1.00  0.00    -0.460 OA
BRANCH  30  31
ATOM     31  C   UNL     1      -8.411  -0.560   2.376  1.00  0.00     0.338 C 
ATOM     32  O   UNL     1      -9.335   0.219   2.173  1.00  0.00    -0.246 OA
BRANCH  31  33
ATOM     33  C   UNL     1      -8.615  -1.882   3.001  1.00  0.00     0.060 A 
ATOM     34  C   UNL     1      -9.775  -2.581   2.642  1.00  0.00     0.016 A 
ATOM     35  C   UNL     1      -7.745  -2.400   3.964  1.00  0.00     0.016 A 
ATOM     36  C   UNL     1     -10.123  -3.745   3.317  1.00  0.00     0.010 A 
ATOM     37  C   UNL     1      -8.097  -3.574   4.642  1.00  0.00     0.010 A 
ATOM     38  C   UNL     1      -9.320  -4.211   4.365  1.00  0.00    -0.014 A 
BRANCH  38  39
ATOM     39  C   UNL     1      -9.898  -5.206   5.303  1.00  0.00     0.031 A 
ATOM     40  C   UNL     1     -10.500  -4.708   6.592  1.00  0.00     0.074 A 
ATOM     41  C   UNL     1      -9.980  -6.508   4.975  1.00  0.00     0.049 A 
ATOM     42  N   UNL     1     -11.151  -5.366   7.516  1.00  0.00    -0.248 NA
ATOM     43  C   UNL     1     -10.347  -3.272   6.875  1.00  0.00     0.031 C 
ATOM     44  C   UNL     1      -9.474  -7.102   3.740  1.00  0.00     0.029 A 
ATOM     45  N   UNL     1     -10.545  -7.560   5.651  1.00  0.00    -0.354 N 
ATOM     46  C   UNL     1     -11.480  -4.428   8.488  1.00  0.00     0.074 A 
ATOM     47  C   UNL     1     -10.921  -3.164   8.062  1.00  0.00     0.031 C 
ATOM     48  C   UNL     1      -9.768  -8.414   3.737  1.00  0.00     0.029 A 
ATOM     49  C   UNL     1     -10.469  -8.753   4.975  1.00  0.00     0.049 A 
ATOM     50  H   UNL     1     -10.964  -7.468   6.537  1.00  0.00     0.167 HD
ATOM     51  C   UNL     1     -12.197  -4.596   9.625  1.00  0.00     0.037 A 
ATOM     52  C   UNL     1     -10.922  -9.976   5.315  1.00  0.00     0.037 A 
ATOM     53  C   UNL     1     -12.758  -5.853  10.043  1.00  0.00     0.049 A 
ATOM     54  C   UNL     1     -11.676 -10.152   6.608  1.00  0.00     0.074 A 
ATOM     55  C   UNL     1     -13.516  -6.128  11.168  1.00  0.00     0.029 A 
ATOM     56  N   UNL     1     -12.616  -7.049   9.354  1.00  0.00    -0.354 N 
ATOM     57  N   UNL     1     -12.004  -9.251   7.504  1.00  0.00    -0.248 NA
ATOM     58  C   UNL     1     -12.132 -11.512   6.928  1.00  0.00     0.031 C 
ATOM     59  C   UNL     1     -13.793  -7.501  11.181  1.00  0.00     0.029 A 
ATOM     60  C   UNL     1     -13.253  -8.070  10.039  1.00  0.00     0.049 A 
ATOM     61  H   UNL     1     -12.133  -7.156   8.503  1.00  0.00     0.167 HD
ATOM     62  C   UNL     1     -12.739  -9.927   8.473  1.00  0.00     0.074 A 
ATOM     63  C   UNL     1     -12.806 -11.312   8.053  1.00  0.00     0.031 C 
ATOM     64  C   UNL     1     -13.317  -9.443   9.602  1.00  0.00     0.037 A 
BRANCH  51  65
ATOM     65  C   UNL     1     -12.374  -3.390  10.507  1.00  0.00     0.058 A 
ATOM     66  C   UNL     1     -13.187  -2.307  10.133  1.00  0.00     0.135 A 
ATOM     67  C   UNL     1     -11.697  -3.305  11.734  1.00  0.00     0.135 A 
ATOM     68  F   UNL     1     -13.843  -2.327   8.962  1.00  0.00    -0.206 F 
ATOM     69  C   UNL     1     -13.281  -1.162  10.919  1.00  0.00     0.059 A 
ATOM     70  C   UNL     1     -11.799  -2.182  12.550  1.00  0.00     0.059 A 
ATOM     71  F   UNL     1     -10.907  -4.311  12.142  1.00  0.00    -0.206 F 
ATOM     72  C   UNL     1     -12.574  -1.105  12.121  1.00  0.00     0.060 A 
BRANCH  72  73
ATOM     73  S   UNL     1     -12.665   0.402  13.110  1.00  0.00     0.124 S 
ATOM     74  O   UNL     1     -11.799   1.299  12.351  1.00  0.00    -0.237 OA
ATOM     75  O   UNL     1     -14.089   0.717  13.075  1.00  0.00    -0.237 OA
ATOM     76  O   UNL     1     -12.151  -0.015  14.411  1.00  0.00    -0.744 OA
ENDBRANCH  72  73
ENDBRANCH  51  65
BRANCH  52  77
ATOM     77  C   UNL     1     -10.713 -11.123   4.393  1.00  0.00     0.058 A 
ATOM     78  C   UNL     1     -11.786 -11.682   3.683  1.00  0.00     0.135 A 
ATOM     79  C   UNL     1      -9.438 -11.672   4.190  1.00  0.00     0.135 A 
ATOM     80  F   UNL     1     -13.026 -11.198   3.852  1.00  0.00    -0.206 F 
ATOM     81  C   UNL     1     -11.604 -12.746   2.806  1.00  0.00     0.059 A 
ATOM     82  C   UNL     1      -9.227 -12.722   3.302  1.00  0.00     0.059 A 
ATOM     83  F   UNL     1      -8.378 -11.168   4.841  1.00  0.00    -0.206 F 
ATOM     84  C   UNL     1     -10.319 -13.256   2.618  1.00  0.00     0.060 A 
BRANCH  84  85
ATOM     85  S   UNL     1     -10.085 -14.593   1.426  1.00  0.00     0.124 S 
ATOM     86  O   UNL     1     -10.671 -15.725   2.135  1.00  0.00    -0.237 OA
ATOM     87  O   UNL     1     -10.831 -14.106   0.270  1.00  0.00    -0.237 OA
ATOM     88  O   UNL     1      -8.636 -14.639   1.253  1.00  0.00    -0.744 OA
ENDBRANCH  84  85
ENDBRANCH  52  77
BRANCH  64  89
ATOM     89  C   UNL     1     -14.117 -10.407  10.437  1.00  0.00     0.058 A 
ATOM     90  C   UNL     1     -13.507 -11.409  11.207  1.00  0.00     0.135 A 
ATOM     91  C   UNL     1     -15.517 -10.303  10.488  1.00  0.00     0.135 A 
ATOM     92  F   UNL     1     -12.172 -11.553  11.194  1.00  0.00    -0.206 F 
ATOM     93  C   UNL     1     -14.258 -12.297  11.971  1.00  0.00     0.059 A 
ATOM     94  C   UNL     1     -16.286 -11.162  11.265  1.00  0.00     0.059 A 
ATOM     95  F   UNL     1     -16.151  -9.353   9.782  1.00  0.00    -0.206 F 
ATOM     96  C   UNL     1     -15.649 -12.169  11.990  1.00  0.00     0.060 A 
BRANCH  96  97
ATOM     97  S   UNL     1     -16.616 -13.321  12.988  1.00  0.00     0.124 S 
ATOM     98  O   UNL     1     -16.582 -14.523  12.163  1.00  0.00    -0.237 OA
ATOM     99  O   UNL     1     -15.849 -13.382  14.229  1.00  0.00    -0.237 OA
ATOM    100  O   UNL     1     -17.917 -12.667  13.096  1.00  0.00    -0.744 OA
ENDBRANCH  96  97
ENDBRANCH  64  89
ENDBRANCH  38  39
ENDBRANCH  31  33
ENDBRANCH  30  31
ENDBRANCH  29  30
ENDBRANCH  28  29
ENDBRANCH  27  28
ENDBRANCH  26  27
ENDBRANCH   1  26
TORSDOF 24
