REMARK SMILES Cc1ccc(C)c(N2C(=O)S[C@H](CC(=O)Nc3ccc(C(=O)OCCOCCOC(=O)c4ccc(-c5c6nc(c(-c7c(F)cc(S(=O)(=O)[O-])cc7F)c7ccc([nH]7)c(-c7c(F)cc(S(=O)(=O)[O-])cc7F)c7nc(c(-c8c(F)cc(S(=O)(=O)[O-])cc8F)c8ccc5[nH]8)C=C7)C=C6)cc4)c(O)c3)C2=O)c1
REMARK SMILES IDX 25 1 24 2 23 3 21 4 22 5 20 6 17 7 18 8 100 9 19 10 98 11
REMARK SMILES IDX 16 12 14 13 15 14 13 16 12 17 8 18 9 19 101 20 10 21 11 22
REMARK SMILES IDX 102 23 7 24 1 25 2 26 3 27 103 28 4 29 5 30 6 31 99 32 26 34
REMARK SMILES IDX 27 35 28 36 29 37 30 38 31 39 32 40 33 41 97 42 34 43 96 44
REMARK SMILES IDX 35 45 36 46 37 47 90 48 38 49 95 50 89 51 91 52 39 53 94 54
REMARK SMILES IDX 88 55 87 56 40 58 74 59 53 60 73 61 54 62 57 63 72 64 92 65
REMARK SMILES IDX 55 66 56 67 71 69 93 70 58 71 41 72 42 73 51 74 43 75 44 76
REMARK SMILES IDX 50 77 52 78 45 79 46 80 47 81 48 82 49 83 75 84 76 85 85 86
REMARK SMILES IDX 77 87 78 88 84 89 86 90 79 91 80 92 81 93 82 94 83 95 59 96
REMARK SMILES IDX 60 97 69 98 61 99 62 100 68 101 70 102 63 103 64 104 65 105
REMARK SMILES IDX 66 106 67 107
REMARK H PARENT 16 15 99 33 91 57 57 68
REMARK Flexibility Score: inf
ROOT
ATOM      1  C   UNL     1       3.903   6.527  -2.599  1.00  0.00     0.202 C 
ENDROOT
BRANCH   1   2
ATOM      2  C   UNL     1       3.224   7.619  -3.437  1.00  0.00     0.261 C 
BRANCH   2   3
ATOM      3  O   UNL     1       2.144   8.154  -2.641  1.00  0.00    -0.460 OA
BRANCH   3   4
ATOM      4  C   UNL     1       1.029   7.401  -2.792  1.00  0.00     0.341 C 
ATOM      5  O   UNL     1       0.813   6.677  -3.750  1.00  0.00    -0.246 OA
BRANCH   4   6
ATOM      6  C   UNL     1       0.176   7.427  -1.588  1.00  0.00     0.101 A 
ATOM      7  C   UNL     1      -1.728   7.315   0.486  1.00  0.00     0.044 A 
ATOM      8  C   UNL     1      -1.558   6.273  -0.405  1.00  0.00     0.027 A 
ATOM      9  C   UNL     1      -0.963   8.469   0.299  1.00  0.00     0.073 A 
ATOM     10  C   UNL     1      -0.553   6.270  -1.351  1.00  0.00     0.022 A 
ATOM     11  C   UNL     1      -0.016   8.524  -0.745  1.00  0.00     0.132 A 
BRANCH   7  12
ATOM     12  N   UNL     1      -2.703   7.204   1.495  1.00  0.00    -0.326 N 
ATOM     13  C   UNL     1      -3.244   6.051   2.040  1.00  0.00     0.226 C 
ATOM     14  O   UNL     1      -4.305   6.119   2.661  1.00  0.00    -0.275 OA
ATOM     15  H   UNL     1      -3.044   8.052   1.859  1.00  0.00     0.169 HD
BRANCH  13  16
ATOM     16  C   UNL     1      -2.402   4.769   2.086  1.00  0.00     0.125 C 
BRANCH  16  17
ATOM     17  C   UNL     1      -3.081   3.453   1.685  1.00  0.00     0.156 C 
ATOM     18  N   UNL     1      -1.500   1.881   0.768  1.00  0.00    -0.240 N 
ATOM     19  C   UNL     1      -1.927   2.458  -0.393  1.00  0.00     0.293 C 
ATOM     20  C   UNL     1      -2.110   2.297   1.943  1.00  0.00     0.248 C 
ATOM     21  O   UNL     1      -1.390   2.432  -1.487  1.00  0.00    -0.261 OA
ATOM     22  S   UNL     1      -3.426   3.269  -0.086  1.00  0.00    -0.050 SA
ATOM     23  O   UNL     1      -1.867   1.867   3.067  1.00  0.00    -0.273 OA
BRANCH  18  24
ATOM     24  C   UNL     1      -0.697   0.727   0.675  1.00  0.00     0.056 A 
ATOM     25  C   UNL     1       2.987  -0.128   0.141  1.00  0.00     0.044 C 
ATOM     26  C   UNL     1       1.500  -0.251   0.290  1.00  0.00    -0.049 A 
ATOM     27  C   UNL     1       0.894  -1.500   0.114  1.00  0.00     0.004 A 
ATOM     28  C   UNL     1       0.698   0.861   0.586  1.00  0.00     0.030 A 
ATOM     29  C   UNL     1      -0.492  -1.633   0.188  1.00  0.00     0.006 A 
ATOM     30  C   UNL     1      -1.307  -0.522   0.440  1.00  0.00    -0.027 A 
ATOM     31  C   UNL     1      -2.799  -0.724   0.392  1.00  0.00     0.046 C 
ENDBRANCH  18  24
ENDBRANCH  16  17
ENDBRANCH  13  16
ENDBRANCH   7  12
BRANCH  11  32
ATOM     32  O   UNL     1       0.690   9.687  -0.885  1.00  0.00    -0.507 OA
ATOM     33  H   UNL     1       1.329   9.768  -1.565  1.00  0.00     0.293 HD
ENDBRANCH  11  32
ENDBRANCH   4   6
ENDBRANCH   3   4
ENDBRANCH   2   3
ENDBRANCH   1   2
BRANCH   1  34
ATOM     34  O   UNL     1       2.997   5.438  -2.433  1.00  0.00    -0.374 OA
BRANCH  34  35
ATOM     35  C   UNL     1       3.184   4.609  -1.297  1.00  0.00     0.202 C 
BRANCH  35  36
ATOM     36  C   UNL     1       4.485   3.796  -1.327  1.00  0.00     0.261 C 
BRANCH  36  37
ATOM     37  O   UNL     1       4.513   2.768  -2.341  1.00  0.00    -0.460 OA
BRANCH  37  38
ATOM     38  C   UNL     1       4.578   3.225  -3.623  1.00  0.00     0.338 C 
ATOM     39  O   UNL     1       5.582   3.685  -4.139  1.00  0.00    -0.246 OA
BRANCH  38  40
ATOM     40  C   UNL     1       3.215   3.212  -4.219  1.00  0.00     0.060 A 
ATOM     41  C   UNL     1       2.904   4.101  -5.256  1.00  0.00     0.016 A 
ATOM     42  C   UNL     1       2.196   2.509  -3.570  1.00  0.00     0.016 A 
ATOM     43  C   UNL     1       1.561   4.370  -5.553  1.00  0.00     0.010 A 
ATOM     44  C   UNL     1       0.874   2.848  -3.809  1.00  0.00     0.010 A 
ATOM     45  C   UNL     1       0.536   3.794  -4.786  1.00  0.00    -0.014 A 
BRANCH  45  46
ATOM     46  C   UNL     1      -0.866   3.762  -5.256  1.00  0.00     0.031 A 
ATOM     47  C   UNL     1      -0.981   2.774  -6.338  1.00  0.00     0.074 A 
ATOM     48  C   UNL     1      -1.975   4.403  -4.810  1.00  0.00     0.049 A 
ATOM     49  N   UNL     1      -1.123   3.094  -7.583  1.00  0.00    -0.248 NA
ATOM     50  C   UNL     1      -0.684   1.352  -6.107  1.00  0.00     0.031 C 
ATOM     51  C   UNL     1      -2.022   5.529  -3.906  1.00  0.00     0.029 A 
ATOM     52  N   UNL     1      -3.323   4.176  -5.017  1.00  0.00    -0.354 N 
ATOM     53  C   UNL     1      -1.292   1.887  -8.220  1.00  0.00     0.074 A 
ATOM     54  C   UNL     1      -0.740   0.876  -7.353  1.00  0.00     0.031 C 
ATOM     55  C   UNL     1      -3.256   5.722  -3.402  1.00  0.00     0.029 A 
ATOM     56  C   UNL     1      -4.159   4.834  -4.096  1.00  0.00     0.049 A 
ATOM     57  H   UNL     1      -3.666   3.607  -5.743  1.00  0.00     0.167 HD
ATOM     58  C   UNL     1      -2.263   1.781  -9.160  1.00  0.00     0.037 A 
ATOM     59  C   UNL     1      -5.515   4.892  -4.011  1.00  0.00     0.037 A 
ATOM     60  C   UNL     1      -2.709   3.066  -9.638  1.00  0.00     0.049 A 
ATOM     61  C   UNL     1      -5.982   4.866  -5.409  1.00  0.00     0.074 A 
ATOM     62  C   UNL     1      -2.191   4.065 -10.435  1.00  0.00     0.029 A 
ATOM     63  N   UNL     1      -3.737   3.622  -8.921  1.00  0.00    -0.354 N 
ATOM     64  N   UNL     1      -5.838   5.880  -6.219  1.00  0.00    -0.248 NA
ATOM     65  C   UNL     1      -6.330   3.596  -6.039  1.00  0.00     0.031 C 
ATOM     66  C   UNL     1      -2.910   5.258 -10.129  1.00  0.00     0.029 A 
ATOM     67  C   UNL     1      -3.863   4.968  -9.161  1.00  0.00     0.049 A 
ATOM     68  H   UNL     1      -4.316   3.116  -8.307  1.00  0.00     0.167 HD
ATOM     69  C   UNL     1      -5.593   5.278  -7.434  1.00  0.00     0.074 A 
ATOM     70  C   UNL     1      -6.108   3.922  -7.313  1.00  0.00     0.031 C 
ATOM     71  C   UNL     1      -4.681   5.797  -8.300  1.00  0.00     0.037 A 
BRANCH  58  72
ATOM     72  C   UNL     1      -3.120   0.555  -9.251  1.00  0.00     0.058 A 
ATOM     73  C   UNL     1      -3.785   0.259 -10.446  1.00  0.00     0.135 A 
ATOM     74  C   UNL     1      -3.487  -0.215  -8.121  1.00  0.00     0.135 A 
ATOM     75  F   UNL     1      -3.553   0.986 -11.550  1.00  0.00    -0.206 F 
ATOM     76  C   UNL     1      -4.741  -0.752 -10.520  1.00  0.00     0.059 A 
ATOM     77  C   UNL     1      -4.376  -1.274  -8.188  1.00  0.00     0.059 A 
ATOM     78  F   UNL     1      -3.071   0.091  -6.885  1.00  0.00    -0.206 F 
ATOM     79  C   UNL     1      -5.022  -1.517  -9.387  1.00  0.00     0.060 A 
BRANCH  79  80
ATOM     80  S   UNL     1      -6.274  -2.804  -9.465  1.00  0.00     0.124 S 
ATOM     81  O   UNL     1      -7.500  -2.015  -9.446  1.00  0.00    -0.237 OA
ATOM     82  O   UNL     1      -5.955  -3.466 -10.726  1.00  0.00    -0.237 OA
ATOM     83  O   UNL     1      -6.011  -3.597  -8.267  1.00  0.00    -0.744 OA
ENDBRANCH  79  80
ENDBRANCH  58  72
BRANCH  59  84
ATOM     84  C   UNL     1      -6.451   5.023  -2.852  1.00  0.00     0.058 A 
ATOM     85  C   UNL     1      -7.830   4.806  -3.039  1.00  0.00     0.135 A 
ATOM     86  C   UNL     1      -6.026   5.027  -1.516  1.00  0.00     0.135 A 
ATOM     87  F   UNL     1      -8.376   4.900  -4.260  1.00  0.00    -0.206 F 
ATOM     88  C   UNL     1      -8.677   4.402  -2.003  1.00  0.00     0.059 A 
ATOM     89  C   UNL     1      -6.837   4.580  -0.465  1.00  0.00     0.059 A 
ATOM     90  F   UNL     1      -4.799   5.454  -1.195  1.00  0.00    -0.206 F 
ATOM     91  C   UNL     1      -8.151   4.214  -0.731  1.00  0.00     0.060 A 
BRANCH  91  92
ATOM     92  S   UNL     1      -9.121   3.353   0.530  1.00  0.00     0.124 S 
ATOM     93  O   UNL     1      -9.722   4.460   1.263  1.00  0.00    -0.237 OA
ATOM     94  O   UNL     1     -10.044   2.544  -0.262  1.00  0.00    -0.237 OA
ATOM     95  O   UNL     1      -8.105   2.589   1.253  1.00  0.00    -0.744 OA
ENDBRANCH  91  92
ENDBRANCH  59  84
BRANCH  71  96
ATOM     96  C   UNL     1      -4.462   7.281  -8.267  1.00  0.00     0.058 A 
ATOM     97  C   UNL     1      -3.830   7.988  -7.231  1.00  0.00     0.135 A 
ATOM     98  C   UNL     1      -4.893   8.021  -9.378  1.00  0.00     0.135 A 
ATOM     99  F   UNL     1      -3.343   7.351  -6.157  1.00  0.00    -0.206 F 
ATOM    100  C   UNL     1      -3.653   9.374  -7.293  1.00  0.00     0.059 A 
ATOM    101  C   UNL     1      -4.708   9.396  -9.472  1.00  0.00     0.059 A 
ATOM    102  F   UNL     1      -5.484   7.397 -10.412  1.00  0.00    -0.206 F 
ATOM    103  C   UNL     1      -4.094  10.070  -8.419  1.00  0.00     0.060 A 
BRANCH 103 104
ATOM    104  S   UNL     1      -3.801  11.849  -8.536  1.00  0.00     0.124 S 
ATOM    105  O   UNL     1      -4.772  12.386  -7.589  1.00  0.00    -0.237 OA
ATOM    106  O   UNL     1      -2.400  11.969  -8.144  1.00  0.00    -0.237 OA
ATOM    107  O   UNL     1      -4.071  12.147  -9.941  1.00  0.00    -0.744 OA
ENDBRANCH 103 104
ENDBRANCH  71  96
ENDBRANCH  45  46
ENDBRANCH  38  40
ENDBRANCH  37  38
ENDBRANCH  36  37
ENDBRANCH  35  36
ENDBRANCH  34  35
ENDBRANCH   1  34
TORSDOF 22
