REMARK SMILES O=C(OCCOCCOC(=O)[C@H](c1c[nH]c2ccc(Cl)cc12)[NH+]1CCN(c2cccc(Cl)c2)CC1)c1ccc(-c2c3nc(c(-c4c(F)cc(S(=O)(=O)[O-])cc4F)c4ccc([nH]4)c(-c4c(F)cc(S(=O)(=O)[O-])cc4F)c4nc(c(-c5c(F)cc(S(=O)(=O)[O-])cc5F)c5ccc2[nH]5)C=C4)C=C3)cc1
REMARK SMILES IDX 5 1 4 2 3 3 2 4 1 5 36 6 37 7 101 8 38 9 100 10 39 11 40 12
REMARK SMILES IDX 41 13 94 14 42 15 99 16 93 17 95 18 43 19 98 20 92 21 91 22
REMARK SMILES IDX 44 24 78 25 57 26 77 27 58 28 61 29 76 30 96 31 59 32 60 33
REMARK SMILES IDX 75 35 97 36 62 37 45 38 46 39 55 40 47 41 48 42 54 43 56 44
REMARK SMILES IDX 49 45 50 46 51 47 52 48 53 49 79 50 80 51 89 52 81 53 82 54
REMARK SMILES IDX 88 55 90 56 83 57 84 58 85 59 86 60 87 61 63 62 64 63 73 64
REMARK SMILES IDX 65 65 66 66 72 67 74 68 67 69 68 70 69 71 70 72 71 73 6 74
REMARK SMILES IDX 7 75 8 76 9 77 10 78 11 79 12 80 23 81 24 82 35 83 25 85
REMARK SMILES IDX 34 86 26 87 27 88 28 89 33 90 29 91 31 92 30 93 32 94 13 95
REMARK SMILES IDX 14 96 22 97 15 98 16 99 21 100 17 102 19 103 18 104 20 105
REMARK H PARENT 95 23 61 34 23 84 15 101
REMARK Flexibility Score: inf
ROOT
ATOM      1  C   UNL     1       6.468   3.850  -0.931  1.00  0.00     0.202 C 
ENDROOT
BRANCH   1   2
ATOM      2  C   UNL     1       7.641   4.063  -1.884  1.00  0.00     0.261 C 
BRANCH   2   3
ATOM      3  O   UNL     1       7.505   5.329  -2.540  1.00  0.00    -0.460 OA
BRANCH   3   4
ATOM      4  C   UNL     1       7.143   5.568  -3.818  1.00  0.00     0.338 C 
ATOM      5  O   UNL     1       7.214   6.723  -4.235  1.00  0.00    -0.246 OA
BRANCH   4   6
ATOM      6  C   UNL     1       6.617   4.515  -4.741  1.00  0.00     0.060 A 
ATOM      7  C   UNL     1       6.077   3.290  -4.341  1.00  0.00     0.016 A 
ATOM      8  C   UNL     1       6.566   4.837  -6.108  1.00  0.00     0.016 A 
ATOM      9  C   UNL     1       5.517   2.409  -5.244  1.00  0.00     0.010 A 
ATOM     10  C   UNL     1       5.987   3.962  -7.031  1.00  0.00     0.010 A 
ATOM     11  C   UNL     1       5.463   2.747  -6.589  1.00  0.00    -0.014 A 
BRANCH  11  12
ATOM     12  C   UNL     1       4.917   1.731  -7.494  1.00  0.00     0.031 A 
ATOM     13  C   UNL     1       5.877   0.812  -8.174  1.00  0.00     0.074 A 
ATOM     14  C   UNL     1       3.586   1.537  -7.514  1.00  0.00     0.049 A 
ATOM     15  N   UNL     1       5.632  -0.183  -8.978  1.00  0.00    -0.248 NA
ATOM     16  C   UNL     1       7.308   1.022  -7.885  1.00  0.00     0.031 C 
ATOM     17  C   UNL     1       2.610   2.312  -6.739  1.00  0.00     0.029 A 
ATOM     18  N   UNL     1       2.829   0.606  -8.165  1.00  0.00    -0.354 N 
ATOM     19  C   UNL     1       6.873  -0.713  -9.301  1.00  0.00     0.074 A 
ATOM     20  C   UNL     1       7.873   0.065  -8.605  1.00  0.00     0.031 C 
ATOM     21  C   UNL     1       1.383   1.809  -6.950  1.00  0.00     0.029 A 
ATOM     22  C   UNL     1       1.482   0.720  -7.914  1.00  0.00     0.049 A 
ATOM     23  H   UNL     1       3.210  -0.082  -8.758  1.00  0.00     0.167 HD
ATOM     24  C   UNL     1       7.139  -1.754 -10.120  1.00  0.00     0.037 A 
ATOM     25  C   UNL     1       0.452   0.033  -8.441  1.00  0.00     0.037 A 
ATOM     26  C   UNL     1       6.113  -2.481 -10.813  1.00  0.00     0.049 A 
ATOM     27  C   UNL     1       0.778  -1.045  -9.440  1.00  0.00     0.074 A 
ATOM     28  C   UNL     1       6.243  -3.473 -11.765  1.00  0.00     0.029 A 
ATOM     29  N   UNL     1       4.750  -2.283 -10.617  1.00  0.00    -0.354 N 
ATOM     30  N   UNL     1       1.958  -1.478  -9.825  1.00  0.00    -0.248 NA
ATOM     31  C   UNL     1      -0.354  -1.711 -10.092  1.00  0.00     0.031 C 
ATOM     32  C   UNL     1       4.957  -3.852 -12.169  1.00  0.00     0.029 A 
ATOM     33  C   UNL     1       4.027  -3.125 -11.439  1.00  0.00     0.049 A 
ATOM     34  H   UNL     1       4.359  -1.638  -9.985  1.00  0.00     0.167 HD
ATOM     35  C   UNL     1       1.711  -2.467 -10.767  1.00  0.00     0.074 A 
ATOM     36  C   UNL     1       0.268  -2.588 -10.868  1.00  0.00     0.031 C 
ATOM     37  C   UNL     1       2.588  -3.202 -11.496  1.00  0.00     0.037 A 
BRANCH  24  38
ATOM     38  C   UNL     1       8.582  -2.086 -10.355  1.00  0.00     0.058 A 
ATOM     39  C   UNL     1       9.354  -2.757  -9.393  1.00  0.00     0.135 A 
ATOM     40  C   UNL     1       9.213  -1.691 -11.544  1.00  0.00     0.135 A 
ATOM     41  F   UNL     1       8.808  -3.122  -8.222  1.00  0.00    -0.206 F 
ATOM     42  C   UNL     1      10.707  -3.011  -9.598  1.00  0.00     0.059 A 
ATOM     43  C   UNL     1      10.561  -1.948 -11.777  1.00  0.00     0.059 A 
ATOM     44  F   UNL     1       8.525  -1.025 -12.485  1.00  0.00    -0.206 F 
ATOM     45  C   UNL     1      11.303  -2.597 -10.791  1.00  0.00     0.060 A 
BRANCH  45  46
ATOM     46  S   UNL     1      13.063  -2.916 -11.038  1.00  0.00     0.124 S 
ATOM     47  O   UNL     1      13.665  -1.932 -10.144  1.00  0.00    -0.237 OA
ATOM     48  O   UNL     1      13.190  -4.309 -10.623  1.00  0.00    -0.237 OA
ATOM     49  O   UNL     1      13.257  -2.670 -12.463  1.00  0.00    -0.744 OA
ENDBRANCH  45  46
ENDBRANCH  24  38
BRANCH  25  50
ATOM     50  C   UNL     1      -0.953   0.390  -8.103  1.00  0.00     0.058 A 
ATOM     51  C   UNL     1      -1.801  -0.505  -7.434  1.00  0.00     0.135 A 
ATOM     52  C   UNL     1      -1.486   1.638  -8.467  1.00  0.00     0.135 A 
ATOM     53  F   UNL     1      -1.346  -1.713  -7.068  1.00  0.00    -0.206 F 
ATOM     54  C   UNL     1      -3.130  -0.188  -7.162  1.00  0.00     0.059 A 
ATOM     55  C   UNL     1      -2.802   1.989  -8.182  1.00  0.00     0.059 A 
ATOM     56  F   UNL     1      -0.719   2.540  -9.100  1.00  0.00    -0.206 F 
ATOM     57  C   UNL     1      -3.623   1.061  -7.546  1.00  0.00     0.060 A 
BRANCH  57  58
ATOM     58  S   UNL     1      -5.345   1.475  -7.188  1.00  0.00     0.124 S 
ATOM     59  O   UNL     1      -6.045   0.735  -8.231  1.00  0.00    -0.237 OA
ATOM     60  O   UNL     1      -5.509   0.973  -5.827  1.00  0.00    -0.237 OA
ATOM     61  O   UNL     1      -5.372   2.929  -7.317  1.00  0.00    -0.744 OA
ENDBRANCH  57  58
ENDBRANCH  25  50
BRANCH  37  62
ATOM     62  C   UNL     1       1.996  -4.195 -12.448  1.00  0.00     0.058 A 
ATOM     63  C   UNL     1       1.428  -3.788 -13.664  1.00  0.00     0.135 A 
ATOM     64  C   UNL     1       2.042  -5.567 -12.160  1.00  0.00     0.135 A 
ATOM     65  F   UNL     1       1.358  -2.484 -13.975  1.00  0.00    -0.206 F 
ATOM     66  C   UNL     1       0.902  -4.711 -14.558  1.00  0.00     0.059 A 
ATOM     67  C   UNL     1       1.543  -6.509 -13.050  1.00  0.00     0.059 A 
ATOM     68  F   UNL     1       2.587  -6.000 -11.012  1.00  0.00    -0.206 F 
ATOM     69  C   UNL     1       0.964  -6.070 -14.241  1.00  0.00     0.060 A 
BRANCH  69  70
ATOM     70  S   UNL     1       0.310  -7.266 -15.423  1.00  0.00     0.124 S 
ATOM     71  O   UNL     1      -1.124  -7.163 -15.178  1.00  0.00    -0.237 OA
ATOM     72  O   UNL     1       0.776  -6.734 -16.700  1.00  0.00    -0.237 OA
ATOM     73  O   UNL     1       0.931  -8.521 -15.011  1.00  0.00    -0.744 OA
ENDBRANCH  69  70
ENDBRANCH  37  62
ENDBRANCH  11  12
ENDBRANCH   4   6
ENDBRANCH   3   4
ENDBRANCH   2   3
ENDBRANCH   1   2
BRANCH   1  74
ATOM     74  O   UNL     1       5.160   3.702  -1.482  1.00  0.00    -0.374 OA
BRANCH  74  75
ATOM     75  C   UNL     1       4.458   4.901  -1.826  1.00  0.00     0.202 C 
BRANCH  75  76
ATOM     76  C   UNL     1       2.978   4.724  -1.465  1.00  0.00     0.261 C 
BRANCH  76  77
ATOM     77  O   UNL     1       2.888   4.761  -0.032  1.00  0.00    -0.459 OA
BRANCH  77  78
ATOM     78  C   UNL     1       3.014   3.559   0.598  1.00  0.00     0.370 C 
ATOM     79  O   UNL     1       2.439   2.553   0.196  1.00  0.00    -0.245 OA
BRANCH  78  80
ATOM     80  C   UNL     1       4.112   3.634   1.717  1.00  0.00     0.328 C 
BRANCH  80  81
ATOM     81  N   UNL     1       3.939   4.624   2.820  1.00  0.00    -0.316 N 
ATOM     82  C   UNL     1       5.251   5.151   3.304  1.00  0.00     0.284 C 
ATOM     83  C   UNL     1       3.071   5.785   2.548  1.00  0.00     0.284 C 
ATOM     84  H   UNL     1       3.463   4.064   3.526  1.00  0.00     0.349 HD
ATOM     85  C   UNL     1       5.908   6.320   2.495  1.00  0.00     0.178 C 
ATOM     86  C   UNL     1       3.666   6.904   1.663  1.00  0.00     0.178 C 
ATOM     87  N   UNL     1       4.941   7.394   2.212  1.00  0.00    -0.360 N 
BRANCH  87  88
ATOM     88  C   UNL     1       5.335   8.647   1.733  1.00  0.00     0.038 A 
ATOM     89  C   UNL     1       4.439   9.733   1.816  1.00  0.00     0.026 A 
ATOM     90  C   UNL     1       6.579   8.900   1.141  1.00  0.00     0.046 A 
ATOM     91  C   UNL     1       4.735  10.993   1.291  1.00  0.00     0.004 A 
ATOM     92  C   UNL     1       6.884  10.167   0.622  1.00  0.00     0.043 A 
ATOM     93  C   UNL     1       5.964  11.211   0.685  1.00  0.00     0.020 A 
ATOM     94  Cl  UNL     1       8.417  10.447  -0.113  1.00  0.00    -0.084 Cl
ENDBRANCH  87  88
ENDBRANCH  80  81
BRANCH  80  95
ATOM     95  C   UNL     1       4.292   2.237   2.298  1.00  0.00     0.046 A 
ATOM     96  C   UNL     1       3.292   1.433   2.825  1.00  0.00     0.094 A 
ATOM     97  C   UNL     1       5.464   1.407   2.214  1.00  0.00     0.011 A 
ATOM     98  N   UNL     1       3.750   0.145   2.868  1.00  0.00    -0.361 N 
ATOM     99  C   UNL     1       5.063   0.093   2.464  1.00  0.00     0.046 A 
ATOM    100  C   UNL     1       6.809   1.628   1.852  1.00  0.00     0.031 A 
ATOM    101  H   UNL     1       3.216  -0.634   3.147  1.00  0.00     0.166 HD
ATOM    102  C   UNL     1       5.903  -1.012   2.271  1.00  0.00     0.028 A 
ATOM    103  C   UNL     1       7.659   0.535   1.655  1.00  0.00     0.041 A 
ATOM    104  C   UNL     1       7.210  -0.767   1.839  1.00  0.00     0.022 A 
ATOM    105  Cl  UNL     1       9.277   0.819   1.136  1.00  0.00    -0.084 Cl
ENDBRANCH  80  95
ENDBRANCH  78  80
ENDBRANCH  77  78
ENDBRANCH  76  77
ENDBRANCH  75  76
ENDBRANCH  74  75
ENDBRANCH   1  74
TORSDOF 20
