REMARK SMILES CC(C)C[C@H](NC(=O)[C@@H](NC(=O)[C@H](C)NC(=O)CNC(=O)OCc1ccccc1)C(C)C)C(=O)OCCOCCOC(=O)c1ccc(-c2c3nc(c(-c4c(F)cc(S(=O)(=O)[O-])cc4F)c4ccc([nH]4)c(-c4c(F)cc(S(=O)(=O)[O-])cc4F)c4nc(c(-c5c(F)cc(S(=O)(=O)[O-])cc5F)c5ccc2[nH]5)C=C4)C=C3)cc1
REMARK SMILES IDX 33 1 34 2 5 3 4 4 2 5 1 6 3 7 6 8 7 9 8 11 9 12 10 13 11 14
REMARK SMILES IDX 12 16 13 17 14 18 15 19 16 20 17 22 18 23 19 24 20 25 21 27
REMARK SMILES IDX 22 28 23 29 24 30 25 31 29 32 26 33 28 34 27 35 30 36 31 37
REMARK SMILES IDX 32 38 35 39 36 40 37 41 38 42 39 43 40 44 41 45 42 46 43 47
REMARK SMILES IDX 44 48 45 49 109 50 46 51 108 52 47 53 48 54 49 55 102 56
REMARK SMILES IDX 50 57 107 58 101 59 103 60 51 61 106 62 100 63 99 64 52 66
REMARK SMILES IDX 86 67 65 68 85 69 66 70 69 71 84 72 104 73 67 74 68 75 83 77
REMARK SMILES IDX 105 78 70 79 53 80 54 81 63 82 55 83 56 84 62 85 64 86 57 87
REMARK SMILES IDX 58 88 59 89 60 90 61 91 87 92 88 93 97 94 89 95 90 96 96 97
REMARK SMILES IDX 98 98 91 99 92 100 93 101 94 102 95 103 71 104 72 105 81 106
REMARK SMILES IDX 73 107 74 108 80 109 82 110 75 111 76 112 77 113 78 114
REMARK SMILES IDX 79 115
REMARK H PARENT 6 10 10 15 15 21 19 26 103 65 69 76
REMARK Flexibility Score: inf
ROOT
ATOM      1  C   UNL     1       1.755   0.774   1.339  1.00  0.00     0.328 C 
ATOM      2  O   UNL     1       2.961   0.559   1.251  1.00  0.00    -0.250 OA
ENDROOT
BRANCH   1   3
ATOM      3  C   UNL     1       0.733  -0.341   1.175  1.00  0.00     0.192 C 
BRANCH   3   4
ATOM      4  C   UNL     1       0.346  -0.433  -0.299  1.00  0.00     0.040 C 
BRANCH   4   5
ATOM      5  C   UNL     1       1.333  -0.023  -1.412  1.00  0.00    -0.015 C 
ATOM      6  C   UNL     1       2.738  -0.631  -1.297  1.00  0.00     0.007 C 
ATOM      7  C   UNL     1       0.723  -0.445  -2.755  1.00  0.00     0.007 C 
ENDBRANCH   4   5
ENDBRANCH   3   4
BRANCH   3   8
ATOM      8  N   UNL     1      -0.435  -0.279   2.072  1.00  0.00    -0.341 N 
ATOM      9  C   UNL     1      -1.286  -1.203   2.604  1.00  0.00     0.243 C 
ATOM     10  H   UNL     1      -0.652   0.640   2.350  1.00  0.00     0.164 HD
ATOM     11  O   UNL     1      -1.941  -0.797   3.576  1.00  0.00    -0.273 OA
BRANCH   9  12
ATOM     12  C   UNL     1      -1.464  -2.712   2.170  1.00  0.00     0.174 C 
BRANCH  12  13
ATOM     13  N   UNL     1      -1.400  -2.952   0.713  1.00  0.00    -0.342 N 
ATOM     14  C   UNL     1      -0.585  -3.485  -0.229  1.00  0.00     0.242 C 
ATOM     15  H   UNL     1      -2.220  -2.614   0.286  1.00  0.00     0.164 HD
ATOM     16  O   UNL     1      -1.065  -3.487  -1.373  1.00  0.00    -0.273 OA
BRANCH  14  17
ATOM     17  C   UNL     1       0.794  -4.147   0.013  1.00  0.00     0.168 C 
ATOM     18  C   UNL     1       1.683  -3.710   1.157  1.00  0.00     0.041 C 
BRANCH  17  19
ATOM     19  N   UNL     1       1.634  -4.116  -1.189  1.00  0.00    -0.343 N 
ATOM     20  C   UNL     1       2.562  -5.063  -1.523  1.00  0.00     0.240 C 
ATOM     21  H   UNL     1       1.521  -3.354  -1.803  1.00  0.00     0.164 HD
ATOM     22  O   UNL     1       3.696  -4.699  -1.838  1.00  0.00    -0.273 OA
BRANCH  20  23
ATOM     23  C   UNL     1       2.126  -6.523  -1.666  1.00  0.00     0.219 C 
BRANCH  23  24
ATOM     24  N   UNL     1       1.656  -7.144  -0.447  1.00  0.00    -0.312 N 
ATOM     25  C   UNL     1       0.349  -7.384  -0.140  1.00  0.00     0.407 C 
ATOM     26  H   UNL     1       2.333  -7.416   0.213  1.00  0.00     0.167 HD
ATOM     27  O   UNL     1       0.020  -7.728   0.983  1.00  0.00    -0.225 OA
BRANCH  25  28
ATOM     28  O   UNL     1      -0.482  -7.125  -1.178  1.00  0.00    -0.445 OA
BRANCH  28  29
ATOM     29  C   UNL     1      -1.893  -7.175  -0.920  1.00  0.00     0.270 C 
BRANCH  29  30
ATOM     30  C   UNL     1      -2.444  -8.570  -0.739  1.00  0.00    -0.011 A 
ATOM     31  C   UNL     1      -3.809  -8.734  -0.466  1.00  0.00     0.007 A 
ATOM     32  C   UNL     1      -1.625  -9.708  -0.772  1.00  0.00     0.007 A 
ATOM     33  C   UNL     1      -4.323  -9.999  -0.174  1.00  0.00     0.000 A 
ATOM     34  C   UNL     1      -2.131 -10.964  -0.450  1.00  0.00     0.000 A 
ATOM     35  C   UNL     1      -3.479 -11.108  -0.144  1.00  0.00     0.000 A 
ENDBRANCH  29  30
ENDBRANCH  28  29
ENDBRANCH  25  28
ENDBRANCH  23  24
ENDBRANCH  20  23
ENDBRANCH  17  19
ENDBRANCH  14  17
ENDBRANCH  12  13
BRANCH  12  36
ATOM     36  C   UNL     1      -0.861  -3.788   3.124  1.00  0.00     0.015 C 
ATOM     37  C   UNL     1      -1.382  -3.716   4.566  1.00  0.00     0.010 C 
ATOM     38  C   UNL     1      -1.093  -5.229   2.646  1.00  0.00     0.010 C 
ENDBRANCH  12  36
ENDBRANCH   9  12
ENDBRANCH   3   8
ENDBRANCH   1   3
BRANCH   1  39
ATOM     39  O   UNL     1       1.201   2.005   1.460  1.00  0.00    -0.462 OA
BRANCH  39  40
ATOM     40  C   UNL     1       2.169   3.039   1.254  1.00  0.00     0.261 C 
BRANCH  40  41
ATOM     41  C   UNL     1       2.906   3.509   2.515  1.00  0.00     0.202 C 
BRANCH  41  42
ATOM     42  O   UNL     1       3.419   2.561   3.439  1.00  0.00    -0.374 OA
BRANCH  42  43
ATOM     43  C   UNL     1       2.549   1.724   4.195  1.00  0.00     0.202 C 
BRANCH  43  44
ATOM     44  C   UNL     1       1.334   2.296   4.935  1.00  0.00     0.261 C 
BRANCH  44  45
ATOM     45  O   UNL     1       0.418   3.023   4.101  1.00  0.00    -0.460 OA
BRANCH  45  46
ATOM     46  C   UNL     1       0.343   4.345   4.394  1.00  0.00     0.338 C 
ATOM     47  O   UNL     1       0.974   4.948   5.247  1.00  0.00    -0.246 OA
BRANCH  46  48
ATOM     48  C   UNL     1      -0.497   5.045   3.414  1.00  0.00     0.060 A 
ATOM     49  C   UNL     1       0.115   5.981   2.570  1.00  0.00     0.016 A 
ATOM     50  C   UNL     1      -1.884   4.912   3.452  1.00  0.00     0.016 A 
ATOM     51  C   UNL     1      -0.665   6.826   1.790  1.00  0.00     0.010 A 
ATOM     52  C   UNL     1      -2.667   5.771   2.676  1.00  0.00     0.010 A 
ATOM     53  C   UNL     1      -2.060   6.757   1.876  1.00  0.00    -0.014 A 
BRANCH  53  54
ATOM     54  C   UNL     1      -2.876   7.821   1.249  1.00  0.00     0.031 A 
ATOM     55  C   UNL     1      -3.441   8.913   2.116  1.00  0.00     0.074 A 
ATOM     56  C   UNL     1      -3.074   7.829  -0.080  1.00  0.00     0.049 A 
ATOM     57  N   UNL     1      -4.221   9.909   1.788  1.00  0.00    -0.248 NA
ATOM     58  C   UNL     1      -3.079   8.876   3.543  1.00  0.00     0.031 C 
ATOM     59  C   UNL     1      -2.528   6.849  -1.019  1.00  0.00     0.029 A 
ATOM     60  N   UNL     1      -3.795   8.687  -0.869  1.00  0.00    -0.354 N 
ATOM     61  C   UNL     1      -4.455  10.610   2.966  1.00  0.00     0.074 A 
ATOM     62  C   UNL     1      -3.757   9.909   4.022  1.00  0.00     0.031 C 
ATOM     63  C   UNL     1      -2.946   7.154  -2.258  1.00  0.00     0.029 A 
ATOM     64  C   UNL     1      -3.820   8.324  -2.193  1.00  0.00     0.049 A 
ATOM     65  H   UNL     1      -4.251   9.487  -0.519  1.00  0.00     0.167 HD
ATOM     66  C   UNL     1      -5.182  11.738   3.146  1.00  0.00     0.037 A 
ATOM     67  C   UNL     1      -4.497   8.858  -3.228  1.00  0.00     0.037 A 
ATOM     68  C   UNL     1      -5.869  12.426   2.083  1.00  0.00     0.049 A 
ATOM     69  C   UNL     1      -5.358  10.071  -2.990  1.00  0.00     0.074 A 
ATOM     70  C   UNL     1      -6.620  13.586   2.153  1.00  0.00     0.029 A 
ATOM     71  N   UNL     1      -5.898  12.012   0.758  1.00  0.00    -0.354 N 
ATOM     72  N   UNL     1      -5.562  10.733  -1.875  1.00  0.00    -0.248 NA
ATOM     73  C   UNL     1      -6.079  10.612  -4.150  1.00  0.00     0.031 C 
ATOM     74  C   UNL     1      -7.152  13.839   0.885  1.00  0.00     0.029 A 
ATOM     75  C   UNL     1      -6.677  12.877   0.008  1.00  0.00     0.049 A 
ATOM     76  H   UNL     1      -5.432  11.220   0.404  1.00  0.00     0.167 HD
ATOM     77  C   UNL     1      -6.409  11.787  -2.207  1.00  0.00     0.074 A 
ATOM     78  C   UNL     1      -6.669  11.678  -3.628  1.00  0.00     0.031 C 
ATOM     79  C   UNL     1      -6.921  12.758  -1.409  1.00  0.00     0.037 A 
BRANCH  66  80
ATOM     80  C   UNL     1      -5.301  12.281   4.545  1.00  0.00     0.058 A 
ATOM     81  C   UNL     1      -4.214  12.868   5.211  1.00  0.00     0.135 A 
ATOM     82  C   UNL     1      -6.536  12.248   5.215  1.00  0.00     0.135 A 
ATOM     83  F   UNL     1      -3.006  12.912   4.627  1.00  0.00    -0.206 F 
ATOM     84  C   UNL     1      -4.340  13.380   6.500  1.00  0.00     0.059 A 
ATOM     85  C   UNL     1      -6.692  12.780   6.491  1.00  0.00     0.059 A 
ATOM     86  F   UNL     1      -7.609  11.695   4.627  1.00  0.00    -0.206 F 
ATOM     87  C   UNL     1      -5.584  13.333   7.131  1.00  0.00     0.060 A 
BRANCH  87  88
ATOM     88  S   UNL     1      -5.732  14.009   8.798  1.00  0.00     0.124 S 
ATOM     89  O   UNL     1      -4.989  13.025   9.579  1.00  0.00    -0.237 OA
ATOM     90  O   UNL     1      -5.099  15.317   8.659  1.00  0.00    -0.237 OA
ATOM     91  O   UNL     1      -7.173  14.034   9.029  1.00  0.00    -0.744 OA
ENDBRANCH  87  88
ENDBRANCH  66  80
BRANCH  67  92
ATOM     92  C   UNL     1      -4.399   8.239  -4.576  1.00  0.00     0.058 A 
ATOM     93  C   UNL     1      -3.765   8.902  -5.636  1.00  0.00     0.135 A 
ATOM     94  C   UNL     1      -4.933   6.965  -4.829  1.00  0.00     0.135 A 
ATOM     95  F   UNL     1      -3.247  10.125  -5.447  1.00  0.00    -0.206 F 
ATOM     96  C   UNL     1      -3.675   8.333  -6.902  1.00  0.00     0.059 A 
ATOM     97  C   UNL     1      -4.829   6.362  -6.078  1.00  0.00     0.059 A 
ATOM     98  F   UNL     1      -5.539   6.281  -3.845  1.00  0.00    -0.206 F 
ATOM     99  C   UNL     1      -4.207   7.059  -7.111  1.00  0.00     0.060 A 
BRANCH  99 100
ATOM    100  S   UNL     1      -4.039   6.310  -8.745  1.00  0.00     0.124 S 
ATOM    101  O   UNL     1      -4.967   7.112  -9.533  1.00  0.00    -0.237 OA
ATOM    102  O   UNL     1      -2.621   6.511  -9.027  1.00  0.00    -0.237 OA
ATOM    103  O   UNL     1      -4.435   4.923  -8.521  1.00  0.00    -0.744 OA
ENDBRANCH  99 100
ENDBRANCH  67  92
BRANCH  79 104
ATOM    104  C   UNL     1      -7.782  13.808  -2.059  1.00  0.00     0.058 A 
ATOM    105  C   UNL     1      -9.072  13.524  -2.533  1.00  0.00     0.135 A 
ATOM    106  C   UNL     1      -7.325  15.133  -2.160  1.00  0.00     0.135 A 
ATOM    107  F   UNL     1      -9.556  12.273  -2.467  1.00  0.00    -0.206 F 
ATOM    108  C   UNL     1      -9.868  14.509  -3.108  1.00  0.00     0.059 A 
ATOM    109  C   UNL     1      -8.117  16.141  -2.701  1.00  0.00     0.059 A 
ATOM    110  F   UNL     1      -6.104  15.464  -1.712  1.00  0.00    -0.206 F 
ATOM    111  C   UNL     1      -9.383  15.816  -3.185  1.00  0.00     0.060 A 
BRANCH 111 112
ATOM    112  S   UNL     1     -10.441  17.090  -3.905  1.00  0.00     0.124 S 
ATOM    113  O   UNL     1     -10.410  16.733  -5.319  1.00  0.00    -0.237 OA
ATOM    114  O   UNL     1     -11.710  16.863  -3.221  1.00  0.00    -0.237 OA
ATOM    115  O   UNL     1      -9.761  18.334  -3.556  1.00  0.00    -0.744 OA
ENDBRANCH 111 112
ENDBRANCH  79 104
ENDBRANCH  53  54
ENDBRANCH  46  48
ENDBRANCH  45  46
ENDBRANCH  44  45
ENDBRANCH  43  44
ENDBRANCH  42  43
ENDBRANCH  41  42
ENDBRANCH  40  41
ENDBRANCH  39  40
ENDBRANCH   1  39
TORSDOF 30
