REMARK SMILES NS(=O)(=O)c1ccc(-n2nc(C(=O)OCCOCCOC(=O)c3ccc(-c4c5nc(c(-c6c(F)cc(S(=O)(=O)[O-])cc6F)c6ccc([nH]6)c(-c6c(F)cc(S(=O)(=O)[O-])cc6F)c6nc(c(-c7c(F)cc(S(=O)(=O)[O-])cc7F)c7ccc4[nH]7)C=C6)C=C5)cc3)cc2-c2cc3ccccc3s2)cc1
REMARK SMILES IDX 17 1 16 2 15 3 14 4 12 5 13 6 11 7 9 8 10 9 90 10 89 11 8 12
REMARK SMILES IDX 5 13 6 14 101 15 7 16 100 17 2 18 3 19 4 20 1 21 91 24 92 25
REMARK SMILES IDX 99 26 93 27 98 28 94 29 97 30 95 31 96 32 18 33 19 34 20 35
REMARK SMILES IDX 21 36 22 37 23 38 24 39 88 40 25 41 87 42 26 43 27 44 28 45
REMARK SMILES IDX 81 46 29 47 86 48 80 49 82 50 30 51 85 52 79 53 78 54 31 56
REMARK SMILES IDX 65 57 44 58 64 59 45 60 48 61 63 62 83 63 46 64 47 65 62 67
REMARK SMILES IDX 84 68 49 69 32 70 33 71 42 72 34 73 35 74 41 75 43 76 36 77
REMARK SMILES IDX 37 78 38 79 39 80 40 81 66 82 67 83 76 84 68 85 69 86 75 87
REMARK SMILES IDX 77 88 70 89 71 90 72 91 73 92 74 93 50 94 51 95 60 96 52 97
REMARK SMILES IDX 53 98 59 99 61 100 54 101 55 102 56 103 57 104 58 105
REMARK H PARENT 1 22 1 23 82 55 48 66
REMARK Flexibility Score: inf
ROOT
ATOM      1  O   UNL     1       7.351 -10.293  -0.271  1.00  0.00    -0.374 OA
ENDROOT
BRANCH   1   2
ATOM      2  C   UNL     1       6.653 -11.434  -0.768  1.00  0.00     0.202 C 
BRANCH   2   3
ATOM      3  C   UNL     1       5.228 -11.680  -0.272  1.00  0.00     0.261 C 
BRANCH   3   4
ATOM      4  O   UNL     1       4.344 -10.634  -0.685  1.00  0.00    -0.458 OA
BRANCH   4   5
ATOM      5  C   UNL     1       4.007  -9.727   0.283  1.00  0.00     0.358 C 
ATOM      6  O   UNL     1       4.258  -9.858   1.475  1.00  0.00    -0.244 OA
BRANCH   5   7
ATOM      7  C   UNL     1       3.342  -8.555  -0.298  1.00  0.00     0.171 A 
ATOM      8  N   UNL     1       2.208  -6.756  -0.361  1.00  0.00    -0.231 N 
ATOM      9  N   UNL     1       3.200  -7.373   0.331  1.00  0.00    -0.160 NA
ATOM     10  C   UNL     1       1.734  -7.553  -1.374  1.00  0.00     0.085 A 
ATOM     11  C   UNL     1       2.724  -8.502  -1.564  1.00  0.00     0.068 A 
BRANCH   8  12
ATOM     12  C   UNL     1       1.799  -5.463  -0.000  1.00  0.00     0.065 A 
ATOM     13  C   UNL     1       1.060  -2.903   0.737  1.00  0.00     0.082 A 
ATOM     14  C   UNL     1       0.138  -3.951   0.851  1.00  0.00     0.024 A 
ATOM     15  C   UNL     1       2.351  -3.127   0.244  1.00  0.00     0.024 A 
ATOM     16  C   UNL     1       0.502  -5.240   0.465  1.00  0.00     0.030 A 
ATOM     17  C   UNL     1       2.731  -4.421  -0.103  1.00  0.00     0.030 A 
BRANCH  13  18
ATOM     18  S   UNL     1       0.591  -1.276   1.242  1.00  0.00     0.238 S 
ATOM     19  O   UNL     1       1.303  -0.946   2.449  1.00  0.00    -0.207 OA
ATOM     20  O   UNL     1      -0.848  -1.145   1.125  1.00  0.00    -0.207 OA
BRANCH  18  21
ATOM     21  N   UNL     1       1.220  -0.293   0.036  1.00  0.00    -0.225 NA
ATOM     22  H   UNL     1       0.997   0.681   0.241  1.00  0.00     0.137 HD
ATOM     23  H   UNL     1       0.812  -0.553  -0.862  1.00  0.00     0.137 HD
ENDBRANCH  18  21
ENDBRANCH  13  18
ENDBRANCH   8  12
BRANCH  10  24
ATOM     24  C   UNL     1       0.410  -7.640  -1.934  1.00  0.00     0.054 A 
ATOM     25  C   UNL     1       0.069  -7.599  -3.281  1.00  0.00     0.031 A 
ATOM     26  S   UNL     1      -0.560  -8.959  -1.296  1.00  0.00    -0.134 S 
ATOM     27  C   UNL     1       0.112  -8.978  -3.751  1.00  0.00    -0.007 A 
ATOM     28  C   UNL     1      -0.015  -9.870  -2.675  1.00  0.00     0.035 A 
ATOM     29  C   UNL     1       0.419  -9.510  -5.021  1.00  0.00     0.009 A 
ATOM     30  C   UNL     1       0.315 -11.229  -2.776  1.00  0.00     0.019 A 
ATOM     31  C   UNL     1       0.778 -10.859  -5.128  1.00  0.00     0.001 A 
ATOM     32  C   UNL     1       0.770 -11.692  -4.012  1.00  0.00     0.001 A 
ENDBRANCH  10  24
ENDBRANCH   5   7
ENDBRANCH   4   5
ENDBRANCH   3   4
ENDBRANCH   2   3
ENDBRANCH   1   2
BRANCH   1  33
ATOM     33  C   UNL     1       6.971  -8.976  -0.656  1.00  0.00     0.202 C 
BRANCH  33  34
ATOM     34  C   UNL     1       7.151  -8.536  -2.100  1.00  0.00     0.261 C 
BRANCH  34  35
ATOM     35  O   UNL     1       6.505  -9.400  -3.020  1.00  0.00    -0.460 OA
BRANCH  35  36
ATOM     36  C   UNL     1       7.357 -10.252  -3.637  1.00  0.00     0.338 C 
ATOM     37  O   UNL     1       8.464 -10.590  -3.254  1.00  0.00    -0.246 OA
BRANCH  36  38
ATOM     38  C   UNL     1       6.814 -10.571  -4.959  1.00  0.00     0.060 A 
ATOM     39  C   UNL     1       7.659 -11.293  -5.803  1.00  0.00     0.016 A 
ATOM     40  C   UNL     1       5.708  -9.853  -5.437  1.00  0.00     0.016 A 
ATOM     41  C   UNL     1       7.560 -11.066  -7.154  1.00  0.00     0.010 A 
ATOM     42  C   UNL     1       5.622  -9.616  -6.784  1.00  0.00     0.010 A 
ATOM     43  C   UNL     1       6.614 -10.139  -7.606  1.00  0.00    -0.014 A 
BRANCH  43  44
ATOM     44  C   UNL     1       6.589  -9.820  -9.012  1.00  0.00     0.031 A 
ATOM     45  C   UNL     1       5.966 -10.911  -9.787  1.00  0.00     0.074 A 
ATOM     46  C   UNL     1       6.985  -8.633  -9.505  1.00  0.00     0.049 A 
ATOM     47  N   UNL     1       6.573 -11.831 -10.458  1.00  0.00    -0.248 NA
ATOM     48  C   UNL     1       4.537 -11.182  -9.553  1.00  0.00     0.031 C 
ATOM     49  C   UNL     1       7.361  -7.415  -8.786  1.00  0.00     0.029 A 
ATOM     50  N   UNL     1       7.055  -8.249 -10.807  1.00  0.00    -0.354 N 
ATOM     51  C   UNL     1       5.555 -12.621 -10.972  1.00  0.00     0.074 A 
ATOM     52  C   UNL     1       4.401 -12.363 -10.156  1.00  0.00     0.031 C 
ATOM     53  C   UNL     1       7.393  -6.374  -9.654  1.00  0.00     0.029 A 
ATOM     54  C   UNL     1       7.178  -6.874 -11.000  1.00  0.00     0.049 A 
ATOM     55  H   UNL     1       7.021  -8.890 -11.553  1.00  0.00     0.167 HD
ATOM     56  C   UNL     1       5.653 -13.143 -12.224  1.00  0.00     0.037 A 
ATOM     57  C   UNL     1       7.024  -6.234 -12.191  1.00  0.00     0.037 A 
ATOM     58  C   UNL     1       7.021 -13.112 -12.687  1.00  0.00     0.049 A 
ATOM     59  C   UNL     1       7.232  -7.261 -13.255  1.00  0.00     0.074 A 
ATOM     60  C   UNL     1       8.214 -13.628 -12.215  1.00  0.00     0.029 A 
ATOM     61  N   UNL     1       7.369 -12.119 -13.574  1.00  0.00    -0.354 N 
ATOM     62  N   UNL     1       8.378  -7.858 -13.462  1.00  0.00    -0.248 NA
ATOM     63  C   UNL     1       6.060  -7.991 -13.719  1.00  0.00     0.031 C 
ATOM     64  C   UNL     1       9.183 -12.613 -12.466  1.00  0.00     0.029 A 
ATOM     65  C   UNL     1       8.555 -11.573 -13.152  1.00  0.00     0.049 A 
ATOM     66  H   UNL     1       6.856 -11.848 -14.370  1.00  0.00     0.167 HD
ATOM     67  C   UNL     1       8.054  -9.191 -13.679  1.00  0.00     0.074 A 
ATOM     68  C   UNL     1       6.604  -9.202 -13.876  1.00  0.00     0.031 C 
ATOM     69  C   UNL     1       8.934 -10.195 -13.382  1.00  0.00     0.037 A 
BRANCH  56  70
ATOM     70  C   UNL     1       4.478 -13.271 -13.166  1.00  0.00     0.058 A 
ATOM     71  C   UNL     1       4.665 -13.940 -14.391  1.00  0.00     0.135 A 
ATOM     72  C   UNL     1       3.268 -12.546 -13.050  1.00  0.00     0.135 A 
ATOM     73  F   UNL     1       5.779 -14.655 -14.616  1.00  0.00    -0.206 F 
ATOM     74  C   UNL     1       3.759 -13.832 -15.446  1.00  0.00     0.059 A 
ATOM     75  C   UNL     1       2.326 -12.474 -14.066  1.00  0.00     0.059 A 
ATOM     76  F   UNL     1       2.968 -11.788 -11.991  1.00  0.00    -0.206 F 
ATOM     77  C   UNL     1       2.597 -13.085 -15.274  1.00  0.00     0.060 A 
BRANCH  77  78
ATOM     78  S   UNL     1       1.465 -12.872 -16.654  1.00  0.00     0.124 S 
ATOM     79  O   UNL     1       2.261 -12.048 -17.556  1.00  0.00    -0.237 OA
ATOM     80  O   UNL     1       1.242 -14.252 -17.071  1.00  0.00    -0.237 OA
ATOM     81  O   UNL     1       0.314 -12.213 -16.044  1.00  0.00    -0.744 OA
ENDBRANCH  77  78
ENDBRANCH  56  70
BRANCH  57  82
ATOM     82  C   UNL     1       6.300  -4.954 -12.448  1.00  0.00     0.058 A 
ATOM     83  C   UNL     1       6.355  -4.315 -13.703  1.00  0.00     0.135 A 
ATOM     84  C   UNL     1       5.307  -4.484 -11.564  1.00  0.00     0.135 A 
ATOM     85  F   UNL     1       7.252  -4.710 -14.620  1.00  0.00    -0.206 F 
ATOM     86  C   UNL     1       5.452  -3.308 -14.074  1.00  0.00     0.059 A 
ATOM     87  C   UNL     1       4.403  -3.479 -11.909  1.00  0.00     0.059 A 
ATOM     88  F   UNL     1       5.122  -5.054 -10.365  1.00  0.00    -0.206 F 
ATOM     89  C   UNL     1       4.464  -2.910 -13.174  1.00  0.00     0.060 A 
BRANCH  89  90
ATOM     90  S   UNL     1       3.187  -1.737 -13.697  1.00  0.00     0.124 S 
ATOM     91  O   UNL     1       3.946  -0.497 -13.816  1.00  0.00    -0.237 OA
ATOM     92  O   UNL     1       2.721  -2.323 -14.949  1.00  0.00    -0.237 OA
ATOM     93  O   UNL     1       2.224  -1.775 -12.599  1.00  0.00    -0.744 OA
ENDBRANCH  89  90
ENDBRANCH  57  82
BRANCH  69  94
ATOM     94  C   UNL     1      10.367  -9.831 -13.080  1.00  0.00     0.058 A 
ATOM     95  C   UNL     1      10.789  -9.069 -11.975  1.00  0.00     0.135 A 
ATOM     96  C   UNL     1      11.367 -10.427 -13.862  1.00  0.00     0.135 A 
ATOM     97  F   UNL     1       9.900  -8.549 -11.116  1.00  0.00    -0.206 F 
ATOM     98  C   UNL     1      12.145  -8.878 -11.687  1.00  0.00     0.059 A 
ATOM     99  C   UNL     1      12.720 -10.278 -13.576  1.00  0.00     0.059 A 
ATOM    100  F   UNL     1      11.030 -11.217 -14.895  1.00  0.00    -0.206 F 
ATOM    101  C   UNL     1      13.104  -9.490 -12.495  1.00  0.00     0.060 A 
BRANCH 101 102
ATOM    102  S   UNL     1      14.855  -9.300 -12.093  1.00  0.00     0.124 S 
ATOM    103  O   UNL     1      15.090  -7.894 -12.405  1.00  0.00    -0.237 OA
ATOM    104  O   UNL     1      14.896  -9.651 -10.677  1.00  0.00    -0.237 OA
ATOM    105  O   UNL     1      15.515 -10.253 -12.982  1.00  0.00    -0.744 OA
ENDBRANCH 101 102
ENDBRANCH  69  94
ENDBRANCH  43  44
ENDBRANCH  36  38
ENDBRANCH  35  36
ENDBRANCH  34  35
ENDBRANCH  33  34
ENDBRANCH   1  33
TORSDOF 21
