REMARK SMILES O=C(OCCOCCOC(=O)c1cccc(Nc2ccc([N+](=O)[O-])cc2)c1)c1ccc(-c2c3nc(c(-c4c(F)cc(S(=O)(=O)[O-])cc4F)c4ccc([nH]4)c(-c4c(F)cc(S(=O)(=O)[O-])cc4F)c4nc(c(-c5c(F)cc(S(=O)(=O)[O-])cc5F)c5ccc2[nH]5)C=C4)C=C3)cc1
REMARK SMILES IDX 6 1 5 2 4 3 3 4 2 5 1 6 28 7 29 8 93 9 30 10 92 11 31 12
REMARK SMILES IDX 32 13 33 14 86 15 34 16 91 17 85 18 87 19 35 20 90 21 84 22
REMARK SMILES IDX 83 23 36 25 70 26 49 27 69 28 50 29 53 30 68 31 88 32 51 33
REMARK SMILES IDX 52 34 67 36 89 37 54 38 37 39 38 40 47 41 39 42 40 43 46 44
REMARK SMILES IDX 48 45 41 46 42 47 43 48 44 49 45 50 71 51 72 52 81 53 73 54
REMARK SMILES IDX 74 55 80 56 82 57 75 58 76 59 77 60 78 61 79 62 55 63 56 64
REMARK SMILES IDX 65 65 57 66 58 67 64 68 66 69 59 70 60 71 61 72 62 73 63 74
REMARK SMILES IDX 7 75 8 76 9 77 10 78 11 79 12 80 13 81 27 82 14 83 16 84
REMARK SMILES IDX 15 85 17 86 18 88 19 89 26 90 20 91 25 92 21 93 22 94 23 95
REMARK SMILES IDX 24 96
REMARK H PARENT 87 24 53 35 17 87
REMARK Flexibility Score: inf
ROOT
ATOM      1  O   UNL     1       4.073   0.219  -1.599  1.00  0.00    -0.374 OA
ENDROOT
BRANCH   1   2
ATOM      2  C   UNL     1       4.312  -1.123  -1.172  1.00  0.00     0.202 C 
BRANCH   2   3
ATOM      3  C   UNL     1       3.969  -1.394   0.295  1.00  0.00     0.261 C 
BRANCH   3   4
ATOM      4  O   UNL     1       2.584  -1.105   0.547  1.00  0.00    -0.460 OA
BRANCH   4   5
ATOM      5  C   UNL     1       2.049   0.002   1.115  1.00  0.00     0.338 C 
ATOM      6  O   UNL     1       0.827   0.062   1.238  1.00  0.00    -0.246 OA
BRANCH   5   7
ATOM      7  C   UNL     1       2.861   1.152   1.617  1.00  0.00     0.060 A 
ATOM      8  C   UNL     1       4.100   1.540   1.105  1.00  0.00     0.016 A 
ATOM      9  C   UNL     1       2.293   1.944   2.630  1.00  0.00     0.016 A 
ATOM     10  C   UNL     1       4.798   2.616   1.624  1.00  0.00     0.010 A 
ATOM     11  C   UNL     1       2.970   3.058   3.134  1.00  0.00     0.010 A 
ATOM     12  C   UNL     1       4.242   3.375   2.647  1.00  0.00    -0.014 A 
BRANCH  12  13
ATOM     13  C   UNL     1       5.106   4.391   3.268  1.00  0.00     0.031 A 
ATOM     14  C   UNL     1       5.749   4.055   4.578  1.00  0.00     0.074 A 
ATOM     15  C   UNL     1       5.433   5.494   2.571  1.00  0.00     0.049 A 
ATOM     16  N   UNL     1       6.566   4.765   5.304  1.00  0.00    -0.248 NA
ATOM     17  C   UNL     1       5.444   2.726   5.137  1.00  0.00     0.031 C 
ATOM     18  C   UNL     1       4.953   5.811   1.222  1.00  0.00     0.029 A 
ATOM     19  N   UNL     1       6.280   6.525   2.872  1.00  0.00    -0.354 N 
ATOM     20  C   UNL     1       6.844   3.987   6.422  1.00  0.00     0.074 A 
ATOM     21  C   UNL     1       6.113   2.749   6.279  1.00  0.00     0.031 C 
ATOM     22  C   UNL     1       5.543   6.941   0.800  1.00  0.00     0.029 A 
ATOM     23  C   UNL     1       6.386   7.460   1.870  1.00  0.00     0.049 A 
ATOM     24  H   UNL     1       6.768   6.590   3.725  1.00  0.00     0.167 HD
ATOM     25  C   UNL     1       7.632   4.296   7.476  1.00  0.00     0.037 A 
ATOM     26  C   UNL     1       7.074   8.617   1.844  1.00  0.00     0.037 A 
ATOM     27  C   UNL     1       8.347   5.540   7.575  1.00  0.00     0.049 A 
ATOM     28  C   UNL     1       7.879   8.975   3.064  1.00  0.00     0.074 A 
ATOM     29  C   UNL     1       9.126   6.012   8.613  1.00  0.00     0.029 A 
ATOM     30  N   UNL     1       8.366   6.511   6.580  1.00  0.00    -0.354 N 
ATOM     31  N   UNL     1       8.070   8.274   4.160  1.00  0.00    -0.248 NA
ATOM     32  C   UNL     1       8.550  10.279   3.058  1.00  0.00     0.031 C 
ATOM     33  C   UNL     1       9.579   7.290   8.264  1.00  0.00     0.029 A 
ATOM     34  C   UNL     1       9.130   7.590   6.985  1.00  0.00     0.049 A 
ATOM     35  H   UNL     1       7.903   6.442   5.714  1.00  0.00     0.167 HD
ATOM     36  C   UNL     1       8.905   9.040   4.963  1.00  0.00     0.074 A 
ATOM     37  C   UNL     1       9.188  10.254   4.220  1.00  0.00     0.031 C 
ATOM     38  C   UNL     1       9.395   8.771   6.199  1.00  0.00     0.037 A 
BRANCH  25  39
ATOM     39  C   UNL     1       7.666   3.318   8.616  1.00  0.00     0.058 A 
ATOM     40  C   UNL     1       8.304   2.071   8.521  1.00  0.00     0.135 A 
ATOM     41  C   UNL     1       6.988   3.614   9.810  1.00  0.00     0.135 A 
ATOM     42  F   UNL     1       8.938   1.719   7.390  1.00  0.00    -0.206 F 
ATOM     43  C   UNL     1       8.236   1.138   9.553  1.00  0.00     0.059 A 
ATOM     44  C   UNL     1       6.929   2.708  10.864  1.00  0.00     0.059 A 
ATOM     45  F   UNL     1       6.348   4.786   9.950  1.00  0.00    -0.206 F 
ATOM     46  C   UNL     1       7.538   1.463  10.717  1.00  0.00     0.060 A 
BRANCH  46  47
ATOM     47  S   UNL     1       7.419   0.231  12.032  1.00  0.00     0.124 S 
ATOM     48  O   UNL     1       6.466  -0.715  11.458  1.00  0.00    -0.237 OA
ATOM     49  O   UNL     1       8.794  -0.245  12.140  1.00  0.00    -0.237 OA
ATOM     50  O   UNL     1       6.931   0.997  13.174  1.00  0.00    -0.744 OA
ENDBRANCH  46  47
ENDBRANCH  25  39
BRANCH  26  51
ATOM     51  C   UNL     1       7.001   9.515   0.658  1.00  0.00     0.058 A 
ATOM     52  C   UNL     1       8.128   9.772  -0.137  1.00  0.00     0.135 A 
ATOM     53  C   UNL     1       5.794  10.133   0.289  1.00  0.00     0.135 A 
ATOM     54  F   UNL     1       9.308   9.214   0.173  1.00  0.00    -0.206 F 
ATOM     55  C   UNL     1       8.066  10.618  -1.242  1.00  0.00     0.059 A 
ATOM     56  C   UNL     1       5.700  10.959  -0.827  1.00  0.00     0.059 A 
ATOM     57  F   UNL     1       4.680   9.917   1.006  1.00  0.00    -0.206 F 
ATOM     58  C   UNL     1       6.846  11.206  -1.580  1.00  0.00     0.060 A 
BRANCH  58  59
ATOM     59  S   UNL     1       6.767  12.277  -3.033  1.00  0.00     0.124 S 
ATOM     60  O   UNL     1       7.476  13.462  -2.564  1.00  0.00    -0.237 OA
ATOM     61  O   UNL     1       7.456  11.478  -4.042  1.00  0.00    -0.237 OA
ATOM     62  O   UNL     1       5.333  12.444  -3.250  1.00  0.00    -0.744 OA
ENDBRANCH  58  59
ENDBRANCH  26  51
BRANCH  38  63
ATOM     63  C   UNL     1      10.329   9.785   6.791  1.00  0.00     0.058 A 
ATOM     64  C   UNL     1       9.869  11.014   7.287  1.00  0.00     0.135 A 
ATOM     65  C   UNL     1      11.697   9.492   6.909  1.00  0.00     0.135 A 
ATOM     66  F   UNL     1       8.570  11.340   7.191  1.00  0.00    -0.206 F 
ATOM     67  C   UNL     1      10.742  11.933   7.857  1.00  0.00     0.059 A 
ATOM     68  C   UNL     1      12.582  10.384   7.502  1.00  0.00     0.059 A 
ATOM     69  F   UNL     1      12.180   8.322   6.461  1.00  0.00    -0.206 F 
ATOM     70  C   UNL     1      12.096  11.608   7.960  1.00  0.00     0.060 A 
BRANCH  70  71
ATOM     71  S   UNL     1      13.215  12.795   8.730  1.00  0.00     0.124 S 
ATOM     72  O   UNL     1      13.363  13.787   7.671  1.00  0.00    -0.237 OA
ATOM     73  O   UNL     1      12.459  13.224   9.902  1.00  0.00    -0.237 OA
ATOM     74  O   UNL     1      14.406  12.000   9.018  1.00  0.00    -0.744 OA
ENDBRANCH  70  71
ENDBRANCH  38  63
ENDBRANCH  12  13
ENDBRANCH   5   7
ENDBRANCH   4   5
ENDBRANCH   3   4
ENDBRANCH   2   3
ENDBRANCH   1   2
BRANCH   1  75
ATOM     75  C   UNL     1       2.749   0.508  -2.062  1.00  0.00     0.202 C 
BRANCH  75  76
ATOM     76  C   UNL     1       2.821   1.136  -3.456  1.00  0.00     0.261 C 
BRANCH  76  77
ATOM     77  O   UNL     1       3.423   0.185  -4.347  1.00  0.00    -0.460 OA
BRANCH  77  78
ATOM     78  C   UNL     1       4.780   0.225  -4.378  1.00  0.00     0.338 C 
ATOM     79  O   UNL     1       5.508   1.154  -4.074  1.00  0.00    -0.246 OA
BRANCH  78  80
ATOM     80  C   UNL     1       5.257  -1.147  -4.638  1.00  0.00     0.062 A 
ATOM     81  C   UNL     1       6.357  -1.621  -3.918  1.00  0.00     0.016 A 
ATOM     82  C   UNL     1       4.579  -1.981  -5.531  1.00  0.00     0.041 A 
ATOM     83  C   UNL     1       6.744  -2.950  -4.054  1.00  0.00     0.003 A 
ATOM     84  C   UNL     1       5.009  -3.294  -5.733  1.00  0.00     0.039 A 
ATOM     85  C   UNL     1       6.072  -3.778  -4.956  1.00  0.00     0.026 A 
BRANCH  84  86
ATOM     86  N   UNL     1       4.356  -4.077  -6.709  1.00  0.00    -0.355 N 
ATOM     87  H   UNL     1       3.427  -3.841  -6.931  1.00  0.00     0.167 HD
BRANCH  86  88
ATOM     88  C   UNL     1       4.926  -5.165  -7.388  1.00  0.00     0.039 A 
ATOM     89  C   UNL     1       5.550  -4.951  -8.623  1.00  0.00     0.033 A 
ATOM     90  C   UNL     1       4.964  -6.435  -6.804  1.00  0.00     0.033 A 
ATOM     91  C   UNL     1       6.218  -5.991  -9.270  1.00  0.00     0.088 A 
ATOM     92  C   UNL     1       5.623  -7.487  -7.444  1.00  0.00     0.088 A 
ATOM     93  C   UNL     1       6.254  -7.257  -8.674  1.00  0.00     0.269 A 
BRANCH  93  94
ATOM     94  N   UNL     1       6.972  -8.350  -9.338  1.00  0.00     0.062 N 
ATOM     95  O   UNL     1       7.498  -8.112 -10.436  1.00  0.00    -0.258 OA
ATOM     96  O   UNL     1       7.009  -9.449  -8.767  1.00  0.00    -0.258 OA
ENDBRANCH  93  94
ENDBRANCH  86  88
ENDBRANCH  84  86
ENDBRANCH  78  80
ENDBRANCH  77  78
ENDBRANCH  76  77
ENDBRANCH  75  76
ENDBRANCH   1  75
TORSDOF 20
