REMARK SMILES CCC[C@H](C)C[N@H+]1[C@@H]2CC[C@H]1C[C@H](CC(=O)OCCOCCOC(=O)c1ccc(-c3c4nc(c(-c5c(F)cc(S(=O)(=O)[O-])cc5F)c5ccc([nH]5)c(-c5c(F)cc(S(=O)(=O)[O-])cc5F)c5nc(c(-c6c(F)cc(S(=O)(=O)[O-])cc6F)c6ccc3[nH]6)C=C5)C=C4)cc1)C2
REMARK SMILES IDX 19 1 18 2 17 3 15 4 16 5 14 6 13 7 7 8 8 9 11 10 9 12 92 13
REMARK SMILES IDX 10 14 12 15 6 16 4 17 5 18 3 19 2 20 1 21 20 22 21 23 22 24
REMARK SMILES IDX 23 25 24 26 25 27 26 28 27 29 91 30 28 31 90 32 29 33 30 34
REMARK SMILES IDX 31 35 84 36 32 37 89 38 83 39 85 40 33 41 88 42 82 43 81 44
REMARK SMILES IDX 34 46 68 47 47 48 67 49 48 50 51 51 66 52 86 53 49 54 50 55
REMARK SMILES IDX 65 57 87 58 52 59 35 60 36 61 45 62 37 63 38 64 44 65 46 66
REMARK SMILES IDX 39 67 40 68 41 69 42 70 43 71 69 72 70 73 79 74 71 75 72 76
REMARK SMILES IDX 78 77 80 78 73 79 74 80 75 81 76 82 77 83 53 84 54 85 63 86
REMARK SMILES IDX 55 87 56 88 62 89 64 90 57 91 58 92 59 93 60 94 61 95
REMARK H PARENT 7 11 85 45 51 56
REMARK Flexibility Score: inf
ROOT
ATOM      1  C   UNL     1       2.256  -1.324  -7.908  1.00  0.00     0.202 C 
ENDROOT
BRANCH   1   2
ATOM      2  C   UNL     1       0.844  -1.783  -7.531  1.00  0.00     0.261 C 
BRANCH   2   3
ATOM      3  O   UNL     1       0.875  -2.615  -6.356  1.00  0.00    -0.463 OA
BRANCH   3   4
ATOM      4  C   UNL     1       0.606  -3.932  -6.524  1.00  0.00     0.306 C 
ATOM      5  O   UNL     1       0.241  -4.452  -7.571  1.00  0.00    -0.252 OA
BRANCH   4   6
ATOM      6  C   UNL     1       0.757  -4.710  -5.233  1.00  0.00     0.126 C 
BRANCH   6   7
ATOM      7  C   UNL     1       2.070  -4.550  -4.429  1.00  0.00     0.012 C 
ATOM      8  N   UNL     1       2.422  -3.841  -1.562  1.00  0.00    -0.330 N 
ATOM      9  C   UNL     1       2.820  -5.193  -2.016  1.00  0.00     0.184 C 
ATOM     10  C   UNL     1       3.034  -2.993  -2.590  1.00  0.00     0.184 C 
ATOM     11  H   UNL     1       2.743  -3.568  -0.634  1.00  0.00     0.348 HD
ATOM     12  C   UNL     1       4.316  -5.021  -2.280  1.00  0.00     0.071 C 
ATOM     13  C   UNL     1       2.083  -5.617  -3.300  1.00  0.00     0.069 C 
ATOM     14  C   UNL     1       4.456  -3.562  -2.686  1.00  0.00     0.071 C 
ATOM     15  C   UNL     1       2.278  -3.104  -3.918  1.00  0.00     0.069 C 
BRANCH   8  16
ATOM     16  C   UNL     1       0.967  -3.721  -1.352  1.00  0.00     0.265 C 
BRANCH  16  17
ATOM     17  C   UNL     1       0.362  -2.432  -0.731  1.00  0.00     0.041 C 
ATOM     18  C   UNL     1       0.561  -1.145  -1.540  1.00  0.00     0.013 C 
BRANCH  17  19
ATOM     19  C   UNL     1      -1.177  -2.600  -0.575  1.00  0.00     0.009 C 
BRANCH  19  20
ATOM     20  C   UNL     1      -1.662  -3.736   0.325  1.00  0.00    -0.003 C 
ATOM     21  C   UNL     1      -1.179  -3.604   1.758  1.00  0.00     0.004 C 
ENDBRANCH  19  20
ENDBRANCH  17  19
ENDBRANCH  16  17
ENDBRANCH   8  16
ENDBRANCH   6   7
ENDBRANCH   4   6
ENDBRANCH   3   4
ENDBRANCH   2   3
ENDBRANCH   1   2
BRANCH   1  22
ATOM     22  O   UNL     1       3.093  -2.322  -8.497  1.00  0.00    -0.374 OA
BRANCH  22  23
ATOM     23  C   UNL     1       3.724  -3.236  -7.603  1.00  0.00     0.202 C 
BRANCH  23  24
ATOM     24  C   UNL     1       5.028  -2.758  -6.954  1.00  0.00     0.261 C 
BRANCH  24  25
ATOM     25  O   UNL     1       4.818  -1.634  -6.080  1.00  0.00    -0.460 OA
BRANCH  25  26
ATOM     26  C   UNL     1       5.214  -0.446  -6.591  1.00  0.00     0.338 C 
ATOM     27  O   UNL     1       5.806  -0.267  -7.650  1.00  0.00    -0.246 OA
BRANCH  26  28
ATOM     28  C   UNL     1       4.686   0.674  -5.787  1.00  0.00     0.060 A 
ATOM     29  C   UNL     1       4.129   1.749  -6.490  1.00  0.00     0.016 A 
ATOM     30  C   UNL     1       4.795   0.723  -4.394  1.00  0.00     0.016 A 
ATOM     31  C   UNL     1       3.756   2.909  -5.817  1.00  0.00     0.010 A 
ATOM     32  C   UNL     1       4.418   1.893  -3.718  1.00  0.00     0.010 A 
ATOM     33  C   UNL     1       3.945   3.009  -4.433  1.00  0.00    -0.014 A 
BRANCH  33  34
ATOM     34  C   UNL     1       3.807   4.339  -3.785  1.00  0.00     0.031 A 
ATOM     35  C   UNL     1       5.051   5.127  -3.464  1.00  0.00     0.074 A 
ATOM     36  C   UNL     1       2.594   4.875  -3.554  1.00  0.00     0.049 A 
ATOM     37  N   UNL     1       5.166   6.315  -2.927  1.00  0.00    -0.248 NA
ATOM     38  C   UNL     1       6.337   4.492  -3.796  1.00  0.00     0.031 C 
ATOM     39  C   UNL     1       1.316   4.233  -3.859  1.00  0.00     0.029 A 
ATOM     40  N   UNL     1       2.241   6.087  -3.015  1.00  0.00    -0.354 N 
ATOM     41  C   UNL     1       6.532   6.567  -2.851  1.00  0.00     0.074 A 
ATOM     42  C   UNL     1       7.206   5.394  -3.365  1.00  0.00     0.031 C 
ATOM     43  C   UNL     1       0.317   5.058  -3.499  1.00  0.00     0.029 A 
ATOM     44  C   UNL     1       0.882   6.273  -2.915  1.00  0.00     0.049 A 
ATOM     45  H   UNL     1       2.899   6.761  -2.728  1.00  0.00     0.167 HD
ATOM     46  C   UNL     1       7.167   7.678  -2.407  1.00  0.00     0.037 A 
ATOM     47  C   UNL     1       0.176   7.298  -2.397  1.00  0.00     0.037 A 
ATOM     48  C   UNL     1       6.494   8.847  -1.904  1.00  0.00     0.049 A 
ATOM     49  C   UNL     1       0.906   8.501  -1.854  1.00  0.00     0.074 A 
ATOM     50  C   UNL     1       7.050  10.029  -1.446  1.00  0.00     0.029 A 
ATOM     51  N   UNL     1       5.118   8.981  -1.787  1.00  0.00    -0.354 N 
ATOM     52  N   UNL     1       2.196   8.732  -1.809  1.00  0.00    -0.248 NA
ATOM     53  C   UNL     1       0.083   9.585  -1.299  1.00  0.00     0.031 C 
ATOM     54  C   UNL     1       6.013  10.858  -1.006  1.00  0.00     0.029 A 
ATOM     55  C   UNL     1       4.808  10.217  -1.243  1.00  0.00     0.049 A 
ATOM     56  H   UNL     1       4.460   8.299  -2.052  1.00  0.00     0.167 HD
ATOM     57  C   UNL     1       2.338   9.999  -1.251  1.00  0.00     0.074 A 
ATOM     58  C   UNL     1       1.001  10.487  -0.981  1.00  0.00     0.031 C 
ATOM     59  C   UNL     1       3.472  10.697  -0.989  1.00  0.00     0.037 A 
BRANCH  46  60
ATOM     60  C   UNL     1       8.672   7.674  -2.422  1.00  0.00     0.058 A 
ATOM     61  C   UNL     1       9.402   7.749  -3.619  1.00  0.00     0.135 A 
ATOM     62  C   UNL     1       9.393   7.630  -1.218  1.00  0.00     0.135 A 
ATOM     63  F   UNL     1       8.764   7.776  -4.800  1.00  0.00    -0.206 F 
ATOM     64  C   UNL     1      10.793   7.755  -3.623  1.00  0.00     0.059 A 
ATOM     65  C   UNL     1      10.785   7.663  -1.197  1.00  0.00     0.059 A 
ATOM     66  F   UNL     1       8.746   7.556  -0.044  1.00  0.00    -0.206 F 
ATOM     67  C   UNL     1      11.476   7.711  -2.406  1.00  0.00     0.060 A 
BRANCH  67  68
ATOM     68  S   UNL     1      13.281   7.723  -2.427  1.00  0.00     0.124 S 
ATOM     69  O   UNL     1      13.575   6.378  -2.914  1.00  0.00    -0.237 OA
ATOM     70  O   UNL     1      13.576   8.810  -3.355  1.00  0.00    -0.237 OA
ATOM     71  O   UNL     1      13.637   7.976  -1.035  1.00  0.00    -0.744 OA
ENDBRANCH  67  68
ENDBRANCH  46  60
BRANCH  47  72
ATOM     72  C   UNL     1      -1.310   7.231  -2.361  1.00  0.00     0.058 A 
ATOM     73  C   UNL     1      -2.097   8.070  -3.163  1.00  0.00     0.135 A 
ATOM     74  C   UNL     1      -1.971   6.323  -1.519  1.00  0.00     0.135 A 
ATOM     75  F   UNL     1      -1.513   8.964  -3.975  1.00  0.00    -0.206 F 
ATOM     76  C   UNL     1      -3.488   8.021  -3.124  1.00  0.00     0.059 A 
ATOM     77  C   UNL     1      -3.359   6.236  -1.482  1.00  0.00     0.059 A 
ATOM     78  F   UNL     1      -1.264   5.492  -0.738  1.00  0.00    -0.206 F 
ATOM     79  C   UNL     1      -4.109   7.097  -2.282  1.00  0.00     0.060 A 
BRANCH  79  80
ATOM     80  S   UNL     1      -5.913   7.003  -2.277  1.00  0.00     0.124 S 
ATOM     81  O   UNL     1      -6.269   8.222  -1.561  1.00  0.00    -0.237 OA
ATOM     82  O   UNL     1      -6.222   6.986  -3.704  1.00  0.00    -0.237 OA
ATOM     83  O   UNL     1      -6.182   5.754  -1.571  1.00  0.00    -0.744 OA
ENDBRANCH  79  80
ENDBRANCH  47  72
BRANCH  59  84
ATOM     84  C   UNL     1       3.324  12.083  -0.422  1.00  0.00     0.058 A 
ATOM     85  C   UNL     1       2.922  12.304   0.904  1.00  0.00     0.135 A 
ATOM     86  C   UNL     1       3.647  13.206  -1.204  1.00  0.00     0.135 A 
ATOM     87  F   UNL     1       2.598  11.268   1.693  1.00  0.00    -0.206 F 
ATOM     88  C   UNL     1       2.821  13.589   1.429  1.00  0.00     0.059 A 
ATOM     89  C   UNL     1       3.581  14.498  -0.691  1.00  0.00     0.059 A 
ATOM     90  F   UNL     1       4.049  13.051  -2.475  1.00  0.00    -0.206 F 
ATOM     91  C   UNL     1       3.155  14.680   0.623  1.00  0.00     0.060 A 
BRANCH  91  92
ATOM     92  S   UNL     1       3.051  16.340   1.326  1.00  0.00     0.124 S 
ATOM     93  O   UNL     1       1.608  16.552   1.370  1.00  0.00    -0.237 OA
ATOM     94  O   UNL     1       3.707  16.175   2.619  1.00  0.00    -0.237 OA
ATOM     95  O   UNL     1       3.776  17.163   0.363  1.00  0.00    -0.744 OA
ENDBRANCH  91  92
ENDBRANCH  59  84
ENDBRANCH  33  34
ENDBRANCH  26  28
ENDBRANCH  25  26
ENDBRANCH  24  25
ENDBRANCH  23  24
ENDBRANCH  22  23
ENDBRANCH   1  22
TORSDOF 22
