REMARK SMILES Cc1cc(Nc2ccc(C(=O)OCCOCCOC(=O)c3ccc(-c4c5nc(c(-c6c(F)cc(S(=O)(=O)[O-])cc6F)c6ccc([nH]6)c(-c6c(F)cc(S(=O)(=O)[O-])cc6F)c6nc(c(-c7c(F)cc(S(=O)(=O)[O-])cc7F)c7ccc4[nH]7)C=C6)C=C5)cc3)cc2)nc(-n2nc(C)cc2C)n1
REMARK SMILES IDX 15 1 14 2 13 3 12 4 10 5 11 6 9 7 6 8 7 9 88 10 8 11 87 12
REMARK SMILES IDX 5 13 4 15 1 16 2 17 3 18 98 19 90 20 89 21 91 22 92 23 96 24
REMARK SMILES IDX 93 25 95 26 97 27 94 28 16 29 17 30 18 31 19 32 20 33 21 34
REMARK SMILES IDX 22 35 86 36 23 37 85 38 24 39 25 40 26 41 79 42 27 43 84 44
REMARK SMILES IDX 78 45 80 46 28 47 83 48 77 49 76 50 29 52 63 53 42 54 62 55
REMARK SMILES IDX 43 56 46 57 61 58 81 59 44 60 45 61 60 63 82 64 47 65 30 66
REMARK SMILES IDX 31 67 40 68 32 69 33 70 39 71 41 72 34 73 35 74 36 75 37 76
REMARK SMILES IDX 38 77 64 78 65 79 74 80 66 81 67 82 73 83 75 84 68 85 69 86
REMARK SMILES IDX 70 87 71 88 72 89 48 90 49 91 58 92 50 93 51 94 57 95 59 96
REMARK SMILES IDX 52 97 53 98 54 99 55 100 56 101
REMARK H PARENT 5 14 80 51 46 62
REMARK Flexibility Score: inf
ROOT
ATOM      1  O   UNL     1       9.917  -3.374   0.135  1.00  0.00    -0.374 OA
ENDROOT
BRANCH   1   2
ATOM      2  C   UNL     1      10.259  -2.147   0.783  1.00  0.00     0.202 C 
BRANCH   2   3
ATOM      3  C   UNL     1       9.588  -0.886   0.230  1.00  0.00     0.261 C 
BRANCH   3   4
ATOM      4  O   UNL     1       8.164  -0.936   0.413  1.00  0.00    -0.460 OA
BRANCH   4   5
ATOM      5  C   UNL     1       7.451  -1.133  -0.720  1.00  0.00     0.338 C 
ATOM      6  O   UNL     1       7.881  -1.133  -1.867  1.00  0.00    -0.246 OA
BRANCH   5   7
ATOM      7  C   UNL     1       6.062  -1.526  -0.395  1.00  0.00     0.060 A 
ATOM      8  C   UNL     1       3.356  -2.169  -0.038  1.00  0.00     0.040 A 
ATOM      9  C   UNL     1       4.069  -2.710  -1.111  1.00  0.00     0.027 A 
ATOM     10  C   UNL     1       4.039  -1.378   0.903  1.00  0.00     0.027 A 
ATOM     11  C   UNL     1       5.412  -2.382  -1.294  1.00  0.00     0.018 A 
ATOM     12  C   UNL     1       5.390  -1.062   0.737  1.00  0.00     0.018 A 
BRANCH   8  13
ATOM     13  N   UNL     1       1.946  -2.240  -0.045  1.00  0.00    -0.340 N 
ATOM     14  H   UNL     1       1.524  -3.129  -0.056  1.00  0.00     0.168 HD
BRANCH  13  15
ATOM     15  C   UNL     1       1.113  -1.103  -0.037  1.00  0.00     0.136 A 
ATOM     16  C   UNL     1      -2.492  -0.142   0.286  1.00  0.00     0.067 C 
ATOM     17  C   UNL     1      -0.995  -0.095   0.240  1.00  0.00     0.045 A 
ATOM     18  C   UNL     1      -0.248  -1.252   0.125  1.00  0.00     0.070 A 
ATOM     19  N   UNL     1      -0.433   1.129   0.268  1.00  0.00    -0.216 NA
ATOM     20  C   UNL     1       0.898   1.189   0.044  1.00  0.00     0.252 A 
ATOM     21  N   UNL     1       1.672   0.110  -0.142  1.00  0.00    -0.194 NA
BRANCH  20  22
ATOM     22  N   UNL     1       1.537   2.475   0.024  1.00  0.00    -0.203 N 
ATOM     23  N   UNL     1       2.558   2.752  -0.840  1.00  0.00    -0.170 NA
ATOM     24  C   UNL     1       1.239   3.572   0.820  1.00  0.00     0.045 A 
ATOM     25  C   UNL     1       2.789   4.059  -0.690  1.00  0.00     0.060 A 
ATOM     26  C   UNL     1       2.013   4.611   0.349  1.00  0.00     0.049 A 
ATOM     27  C   UNL     1       0.336   3.504   1.994  1.00  0.00     0.067 C 
ATOM     28  C   UNL     1       3.775   4.749  -1.557  1.00  0.00     0.069 C 
ENDBRANCH  20  22
ENDBRANCH  13  15
ENDBRANCH   8  13
ENDBRANCH   5   7
ENDBRANCH   4   5
ENDBRANCH   3   4
ENDBRANCH   2   3
ENDBRANCH   1   2
BRANCH   1  29
ATOM     29  C   UNL     1       8.697  -3.998   0.537  1.00  0.00     0.202 C 
BRANCH  29  30
ATOM     30  C   UNL     1       8.749  -4.827   1.825  1.00  0.00     0.261 C 
BRANCH  30  31
ATOM     31  O   UNL     1       8.993  -4.006   2.979  1.00  0.00    -0.460 OA
BRANCH  31  32
ATOM     32  C   UNL     1      10.235  -4.133   3.502  1.00  0.00     0.338 C 
ATOM     33  O   UNL     1      11.098  -4.930   3.155  1.00  0.00    -0.246 OA
BRANCH  32  34
ATOM     34  C   UNL     1      10.505  -3.052   4.469  1.00  0.00     0.060 A 
ATOM     35  C   UNL     1      11.743  -2.406   4.366  1.00  0.00     0.016 A 
ATOM     36  C   UNL     1       9.622  -2.733   5.504  1.00  0.00     0.016 A 
ATOM     37  C   UNL     1      12.141  -1.504   5.347  1.00  0.00     0.010 A 
ATOM     38  C   UNL     1      10.025  -1.825   6.491  1.00  0.00     0.010 A 
ATOM     39  C   UNL     1      11.309  -1.251   6.445  1.00  0.00    -0.014 A 
BRANCH  39  40
ATOM     40  C   UNL     1      11.880  -0.548   7.621  1.00  0.00     0.031 A 
ATOM     41  C   UNL     1      12.370  -1.368   8.786  1.00  0.00     0.074 A 
ATOM     42  C   UNL     1      12.039   0.787   7.617  1.00  0.00     0.049 A 
ATOM     43  N   UNL     1      12.978  -0.980   9.877  1.00  0.00    -0.248 NA
ATOM     44  C   UNL     1      12.144  -2.821   8.709  1.00  0.00     0.031 C 
ATOM     45  C   UNL     1      11.638   1.683   6.534  1.00  0.00     0.029 A 
ATOM     46  N   UNL     1      12.598   1.619   8.554  1.00  0.00    -0.354 N 
ATOM     47  C   UNL     1      13.203  -2.136  10.617  1.00  0.00     0.074 A 
ATOM     48  C   UNL     1      12.634  -3.235   9.867  1.00  0.00     0.031 C 
ATOM     49  C   UNL     1      11.977   2.942   6.862  1.00  0.00     0.029 A 
ATOM     50  C   UNL     1      12.603   2.942   8.184  1.00  0.00     0.049 A 
ATOM     51  H   UNL     1      12.963   1.298   9.411  1.00  0.00     0.167 HD
ATOM     52  C   UNL     1      13.837  -2.274  11.806  1.00  0.00     0.037 A 
ATOM     53  C   UNL     1      13.063   4.027   8.837  1.00  0.00     0.037 A 
ATOM     54  C   UNL     1      14.411  -1.180  12.545  1.00  0.00     0.049 A 
ATOM     55  C   UNL     1      13.727   3.855  10.179  1.00  0.00     0.074 A 
ATOM     56  C   UNL     1      15.099  -1.217  13.745  1.00  0.00     0.029 A 
ATOM     57  N   UNL     1      14.357   0.151  12.156  1.00  0.00    -0.354 N 
ATOM     58  N   UNL     1      13.963   2.753  10.850  1.00  0.00    -0.248 NA
ATOM     59  C   UNL     1      14.196   5.077  10.847  1.00  0.00     0.031 C 
ATOM     60  C   UNL     1      15.423   0.097  14.104  1.00  0.00     0.029 A 
ATOM     61  C   UNL     1      14.979   0.947  13.104  1.00  0.00     0.049 A 
ATOM     62  H   UNL     1      13.939   0.480  11.328  1.00  0.00     0.167 HD
ATOM     63  C   UNL     1      14.641   3.144  12.001  1.00  0.00     0.074 A 
ATOM     64  C   UNL     1      14.778   4.585  11.932  1.00  0.00     0.031 C 
ATOM     65  C   UNL     1      15.114   2.380  13.018  1.00  0.00     0.037 A 
BRANCH  52  66
ATOM     66  C   UNL     1      13.910  -3.657  12.393  1.00  0.00     0.058 A 
ATOM     67  C   UNL     1      14.735  -4.653  11.846  1.00  0.00     0.135 A 
ATOM     68  C   UNL     1      13.143  -3.990  13.521  1.00  0.00     0.135 A 
ATOM     69  F   UNL     1      15.476  -4.395  10.757  1.00  0.00    -0.206 F 
ATOM     70  C   UNL     1      14.766  -5.941  12.372  1.00  0.00     0.059 A 
ATOM     71  C   UNL     1      13.178  -5.263  14.079  1.00  0.00     0.059 A 
ATOM     72  F   UNL     1      12.337  -3.075  14.083  1.00  0.00    -0.206 F 
ATOM     73  C   UNL     1      13.978  -6.239  13.485  1.00  0.00     0.060 A 
BRANCH  73  74
ATOM     74  S   UNL     1      14.008  -7.919  14.145  1.00  0.00     0.124 S 
ATOM     75  O   UNL     1      13.207  -8.633  13.156  1.00  0.00    -0.237 OA
ATOM     76  O   UNL     1      15.434  -8.229  14.150  1.00  0.00    -0.237 OA
ATOM     77  O   UNL     1      13.396  -7.777  15.463  1.00  0.00    -0.744 OA
ENDBRANCH  73  74
ENDBRANCH  52  66
BRANCH  53  78
ATOM     78  C   UNL     1      12.940   5.373   8.219  1.00  0.00     0.058 A 
ATOM     79  C   UNL     1      14.069   6.057   7.743  1.00  0.00     0.135 A 
ATOM     80  C   UNL     1      11.691   6.001   8.087  1.00  0.00     0.135 A 
ATOM     81  F   UNL     1      15.285   5.502   7.856  1.00  0.00    -0.206 F 
ATOM     82  C   UNL     1      13.967   7.319   7.168  1.00  0.00     0.059 A 
ATOM     83  C   UNL     1      11.562   7.253   7.495  1.00  0.00     0.059 A 
ATOM     84  F   UNL     1      10.580   5.385   8.518  1.00  0.00    -0.206 F 
ATOM     85  C   UNL     1      12.708   7.909   7.046  1.00  0.00     0.060 A 
BRANCH  85  86
ATOM     86  S   UNL     1      12.580   9.525   6.250  1.00  0.00     0.124 S 
ATOM     87  O   UNL     1      13.112  10.405   7.284  1.00  0.00    -0.237 OA
ATOM     88  O   UNL     1      13.416   9.351   5.066  1.00  0.00    -0.237 OA
ATOM     89  O   UNL     1      11.150   9.654   5.983  1.00  0.00    -0.744 OA
ENDBRANCH  85  86
ENDBRANCH  53  78
BRANCH  65  90
ATOM     90  C   UNL     1      15.864   3.082  14.116  1.00  0.00     0.058 A 
ATOM     91  C   UNL     1      15.213   3.888  15.062  1.00  0.00     0.135 A 
ATOM     92  C   UNL     1      17.254   2.919  14.240  1.00  0.00     0.135 A 
ATOM     93  F   UNL     1      13.886   4.080  14.988  1.00  0.00    -0.206 F 
ATOM     94  C   UNL     1      15.917   4.537  16.072  1.00  0.00     0.059 A 
ATOM     95  C   UNL     1      17.974   3.537  15.258  1.00  0.00     0.059 A 
ATOM     96  F   UNL     1      17.925   2.147  13.371  1.00  0.00    -0.206 F 
ATOM     97  C   UNL     1      17.299   4.358  16.159  1.00  0.00     0.060 A 
BRANCH  97  98
ATOM     98  S   UNL     1      18.203   5.197  17.478  1.00  0.00     0.124 S 
ATOM     99  O   UNL     1      18.262   6.563  16.969  1.00  0.00    -0.237 OA
ATOM    100  O   UNL     1      17.338   4.988  18.635  1.00  0.00    -0.237 OA
ATOM    101  O   UNL     1      19.478   4.486  17.520  1.00  0.00    -0.744 OA
ENDBRANCH  97  98
ENDBRANCH  65  90
ENDBRANCH  39  40
ENDBRANCH  32  34
ENDBRANCH  31  32
ENDBRANCH  30  31
ENDBRANCH  29  30
ENDBRANCH   1  29
TORSDOF 20
