REMARK SMILES O=C(/C=C/[C@@]12C=C(O)C(=O)C=C1C(=O)C1=Cc3cc(O)c(O)cc3O[C@@H](c3ccc(O)c(O)c3)[C@@H]12)OCCOCCOC(=O)c1ccc(-c2c3nc(c(-c4c(F)cc(S(=O)(=O)[O-])cc4F)c4ccc([nH]4)c(-c4c(F)cc(S(=O)(=O)[O-])cc4F)c4nc(c(-c5c(F)cc(S(=O)(=O)[O-])cc5F)c5ccc2[nH]5)C=C4)C=C3)cc1
REMARK SMILES IDX 37 1 36 2 2 3 1 4 3 5 4 6 5 7 6 8 12 9 35 10 7 11 11 12
REMARK SMILES IDX 13 13 15 14 9 16 14 17 16 18 10 19 8 20 17 22 18 23 24 24
REMARK SMILES IDX 19 25 23 26 21 27 25 28 26 29 27 31 28 32 34 33 29 34 32 35
REMARK SMILES IDX 30 36 33 37 31 39 20 41 22 43 38 45 39 46 40 47 41 48 42 49
REMARK SMILES IDX 43 50 44 51 45 52 46 53 110 54 47 55 109 56 48 57 49 58
REMARK SMILES IDX 50 59 103 60 51 61 108 62 102 63 104 64 52 65 107 66 101 67
REMARK SMILES IDX 100 68 53 70 87 71 66 72 86 73 67 74 70 75 85 76 105 77
REMARK SMILES IDX 68 78 69 79 84 81 106 82 71 83 54 84 55 85 64 86 56 87 57 88
REMARK SMILES IDX 63 89 65 90 58 91 59 92 60 93 61 94 62 95 88 96 89 97 98 98
REMARK SMILES IDX 90 99 91 100 97 101 99 102 92 103 93 104 94 105 95 106
REMARK SMILES IDX 96 107 72 108 73 109 82 110 74 111 75 112 81 113 83 114
REMARK SMILES IDX 76 115 77 116 78 117 79 118 80 119
REMARK H PARENT 8 21 33 38 31 40 20 42 22 44 104 69 70 80
REMARK Flexibility Score: 80.00
ROOT
ATOM      1  C   UNL     1       4.231  -1.061  -1.219  1.00  0.00     0.261 C 
ENDROOT
BRANCH   1   2
ATOM      2  O   UNL     1       2.931  -1.330  -0.693  1.00  0.00    -0.460 OA
BRANCH   2   3
ATOM      3  C   UNL     1       2.514  -1.085   0.559  1.00  0.00     0.330 C 
ATOM      4  O   UNL     1       1.350  -1.337   0.872  1.00  0.00    -0.247 OA
BRANCH   3   5
ATOM      5  C   UNL     1       3.351  -0.435   1.590  1.00  0.00     0.090 C 
ATOM      6  C   UNL     1       4.658  -0.123   1.739  1.00  0.00    -0.003 C 
BRANCH   6   7
ATOM      7  C   UNL     1       5.215   0.676   2.943  1.00  0.00     0.051 C 
ATOM      8  C   UNL     1       4.748   2.091   2.760  1.00  0.00     0.040 C 
ATOM      9  C   UNL     1       4.666   0.028   4.186  1.00  0.00     0.018 C 
ATOM     10  C   UNL     1       6.750   0.459   3.173  1.00  0.00     0.087 CG0
ATOM     11  C   UNL     1       3.768   2.629   3.496  1.00  0.00     0.160 C 
ATOM     12  C   UNL     1       3.712   0.529   4.976  1.00  0.00     0.065 C 
ATOM     13  C   UNL     1       5.459  -1.222   4.367  1.00  0.00     0.186 C 
ATOM     14  C   UNL     1       6.741  -0.987   3.632  1.00  0.00     0.009 C 
ATOM     15  G   UNL     1       7.497   1.216   4.327  1.00  0.00     0.000 G0
ATOM     16  C   UNL     1       3.159   1.869   4.639  1.00  0.00     0.220 C 
ATOM     17  O   UNL     1       5.156  -2.185   5.035  1.00  0.00    -0.289 OA
ATOM     18  C   UNL     1       7.785  -1.811   3.514  1.00  0.00     0.020 C 
ATOM     19  O   UNL     1       2.269   2.392   5.301  1.00  0.00    -0.286 OA
BRANCH  11  20
ATOM     20  O   UNL     1       3.315   3.909   3.243  1.00  0.00    -0.504 OA
ATOM     21  H   UNL     1       3.680   4.403   2.535  1.00  0.00     0.293 HD
ENDBRANCH  11  20
BRANCH  18  22
ATOM     22  C   UNL     1       9.084  -1.215   3.152  1.00  0.00     0.021 A 
ATOM     23  C   UNL     1       9.933  -1.850   2.230  1.00  0.00     0.062 A 
ATOM     24  C   UNL     1       9.534  -0.045   3.809  1.00  0.00     0.131 A 
ATOM     25  C   UNL     1      11.216  -1.344   2.020  1.00  0.00     0.158 A 
ATOM     26  C   UNL     1      10.849   0.395   3.651  1.00  0.00     0.097 A 
ATOM     27  C   UNL     1      11.674  -0.247   2.746  1.00  0.00     0.161 A 
BRANCH  24  28
ATOM     28  O   UNL     1       8.792   0.669   4.717  1.00  0.00    -0.484 OA
BRANCH  28  29
ATOM     29  C   UNL     1       7.497   1.216   4.327  1.00  0.00     0.213 CG0
ATOM     30  G   UNL     1       6.750   0.459   3.173  1.00  0.00     0.000 G0
BRANCH  29  31
ATOM     31  C   UNL     1       7.636   2.721   4.149  1.00  0.00    -0.003 A 
ATOM     32  C   UNL     1       6.660   3.576   4.690  1.00  0.00     0.011 A 
ATOM     33  C   UNL     1       8.715   3.306   3.469  1.00  0.00     0.057 A 
ATOM     34  C   UNL     1       6.671   4.947   4.431  1.00  0.00     0.050 A 
ATOM     35  C   UNL     1       8.778   4.689   3.297  1.00  0.00     0.157 A 
ATOM     36  C   UNL     1       7.729   5.495   3.722  1.00  0.00     0.157 A 
BRANCH  35  37
ATOM     37  O   UNL     1       9.863   5.259   2.694  1.00  0.00    -0.504 OA
ATOM     38  H   UNL     1       9.901   6.188   2.581  1.00  0.00     0.293 HD
ENDBRANCH  35  37
BRANCH  36  39
ATOM     39  O   UNL     1       7.732   6.831   3.451  1.00  0.00    -0.504 OA
ATOM     40  H   UNL     1       7.021   7.369   3.740  1.00  0.00     0.293 HD
ENDBRANCH  36  39
ENDBRANCH  29  31
ENDBRANCH  28  29
ENDBRANCH  24  28
BRANCH  25  41
ATOM     41  O   UNL     1      12.087  -1.901   1.124  1.00  0.00    -0.504 OA
ATOM     42  H   UNL     1      11.823  -2.640   0.612  1.00  0.00     0.293 HD
ENDBRANCH  25  41
BRANCH  27  43
ATOM     43  O   UNL     1      12.948   0.213   2.573  1.00  0.00    -0.504 OA
ATOM     44  H   UNL     1      13.520  -0.210   1.964  1.00  0.00     0.293 HD
ENDBRANCH  27  43
ENDBRANCH  18  22
ENDBRANCH   6   7
ENDBRANCH   3   5
ENDBRANCH   2   3
ENDBRANCH   1   2
BRANCH   1  45
ATOM     45  C   UNL     1       4.415   0.402  -1.616  1.00  0.00     0.202 C 
BRANCH  45  46
ATOM     46  O   UNL     1       4.146   1.364  -0.594  1.00  0.00    -0.374 OA
BRANCH  46  47
ATOM     47  C   UNL     1       2.884   2.035  -0.720  1.00  0.00     0.202 C 
BRANCH  47  48
ATOM     48  C   UNL     1       3.002   3.373  -1.458  1.00  0.00     0.261 C 
BRANCH  48  49
ATOM     49  O   UNL     1       3.376   3.144  -2.824  1.00  0.00    -0.460 OA
BRANCH  49  50
ATOM     50  C   UNL     1       4.707   3.202  -3.087  1.00  0.00     0.338 C 
ATOM     51  O   UNL     1       5.575   3.686  -2.381  1.00  0.00    -0.246 OA
BRANCH  50  52
ATOM     52  C   UNL     1       4.972   2.311  -4.243  1.00  0.00     0.060 A 
ATOM     53  C   UNL     1       4.010   2.095  -5.235  1.00  0.00     0.016 A 
ATOM     54  C   UNL     1       6.156   1.560  -4.235  1.00  0.00     0.016 A 
ATOM     55  C   UNL     1       4.231   1.125  -6.211  1.00  0.00     0.010 A 
ATOM     56  C   UNL     1       6.370   0.579  -5.202  1.00  0.00     0.010 A 
ATOM     57  C   UNL     1       5.416   0.370  -6.206  1.00  0.00    -0.014 A 
BRANCH  57  58
ATOM     58  C   UNL     1       5.757  -0.458  -7.382  1.00  0.00     0.031 A 
ATOM     59  C   UNL     1       5.558  -1.941  -7.408  1.00  0.00     0.074 A 
ATOM     60  C   UNL     1       6.255   0.197  -8.448  1.00  0.00     0.049 A 
ATOM     61  N   UNL     1       5.790  -2.777  -8.387  1.00  0.00    -0.248 NA
ATOM     62  C   UNL     1       5.032  -2.572  -6.189  1.00  0.00     0.031 C 
ATOM     63  C   UNL     1       6.479   1.646  -8.508  1.00  0.00     0.029 A 
ATOM     64  N   UNL     1       6.646  -0.253  -9.678  1.00  0.00    -0.354 N 
ATOM     65  C   UNL     1       5.409  -4.029  -7.923  1.00  0.00     0.074 A 
ATOM     66  C   UNL     1       4.975  -3.850  -6.551  1.00  0.00     0.031 C 
ATOM     67  C   UNL     1       6.940   1.968  -9.724  1.00  0.00     0.029 A 
ATOM     68  C   UNL     1       7.076   0.750 -10.513  1.00  0.00     0.049 A 
ATOM     69  H   UNL     1       6.622  -1.201  -9.940  1.00  0.00     0.167 HD
ATOM     70  C   UNL     1       5.407  -5.206  -8.594  1.00  0.00     0.037 A 
ATOM     71  C   UNL     1       7.529   0.693 -11.777  1.00  0.00     0.037 A 
ATOM     72  C   UNL     1       5.867  -5.363  -9.954  1.00  0.00     0.049 A 
ATOM     73  C   UNL     1       7.583  -0.641 -12.463  1.00  0.00     0.074 A 
ATOM     74  C   UNL     1       5.927  -6.518 -10.716  1.00  0.00     0.029 A 
ATOM     75  N   UNL     1       6.343  -4.336 -10.758  1.00  0.00    -0.354 N 
ATOM     76  N   UNL     1       7.213  -1.815 -12.011  1.00  0.00    -0.248 NA
ATOM     77  C   UNL     1       8.111  -0.656 -13.832  1.00  0.00     0.031 C 
ATOM     78  C   UNL     1       6.471  -6.197 -11.964  1.00  0.00     0.029 A 
ATOM     79  C   UNL     1       6.705  -4.832 -12.001  1.00  0.00     0.049 A 
ATOM     80  H   UNL     1       6.413  -3.392 -10.486  1.00  0.00     0.167 HD
ATOM     81  C   UNL     1       7.429  -2.705 -13.056  1.00  0.00     0.074 A 
ATOM     82  C   UNL     1       7.949  -1.929 -14.163  1.00  0.00     0.031 C 
ATOM     83  C   UNL     1       7.216  -4.044 -13.095  1.00  0.00     0.037 A 
BRANCH  70  84
ATOM     84  C   UNL     1       4.874  -6.427  -7.892  1.00  0.00     0.058 A 
ATOM     85  C   UNL     1       3.497  -6.595  -7.678  1.00  0.00     0.135 A 
ATOM     86  C   UNL     1       5.725  -7.487  -7.537  1.00  0.00     0.135 A 
ATOM     87  F   UNL     1       2.640  -5.609  -7.985  1.00  0.00    -0.206 F 
ATOM     88  C   UNL     1       2.982  -7.771  -7.139  1.00  0.00     0.059 A 
ATOM     89  C   UNL     1       5.230  -8.681  -7.018  1.00  0.00     0.059 A 
ATOM     90  F   UNL     1       7.050  -7.379  -7.719  1.00  0.00    -0.206 F 
ATOM     91  C   UNL     1       3.856  -8.812  -6.822  1.00  0.00     0.060 A 
BRANCH  91  92
ATOM     92  S   UNL     1       3.162 -10.347  -6.168  1.00  0.00     0.124 S 
ATOM     93  O   UNL     1       2.679  -9.914  -4.861  1.00  0.00    -0.237 OA
ATOM     94  O   UNL     1       2.132 -10.664  -7.152  1.00  0.00    -0.237 OA
ATOM     95  O   UNL     1       4.305 -11.254  -6.143  1.00  0.00    -0.744 OA
ENDBRANCH  91  92
ENDBRANCH  70  84
BRANCH  71  96
ATOM     96  C   UNL     1       7.936   1.936 -12.480  1.00  0.00     0.058 A 
ATOM     97  C   UNL     1       7.191   2.422 -13.563  1.00  0.00     0.135 A 
ATOM     98  C   UNL     1       9.073   2.659 -12.087  1.00  0.00     0.135 A 
ATOM     99  F   UNL     1       6.093   1.767 -13.970  1.00  0.00    -0.206 F 
ATOM    100  C   UNL     1       7.578   3.561 -14.258  1.00  0.00     0.059 A 
ATOM    101  C   UNL     1       9.463   3.818 -12.747  1.00  0.00     0.059 A 
ATOM    102  F   UNL     1       9.803   2.249 -11.038  1.00  0.00    -0.206 F 
ATOM    103  C   UNL     1       8.719   4.250 -13.844  1.00  0.00     0.060 A 
BRANCH 103 104
ATOM    104  S   UNL     1       9.212   5.728 -14.755  1.00  0.00     0.124 S 
ATOM    105  O   UNL     1       9.692   5.152 -16.006  1.00  0.00    -0.237 OA
ATOM    106  O   UNL     1       7.958   6.471 -14.831  1.00  0.00    -0.237 OA
ATOM    107  O   UNL     1      10.235   6.323 -13.900  1.00  0.00    -0.744 OA
ENDBRANCH 103 104
ENDBRANCH  71  96
BRANCH  83 108
ATOM    108  C   UNL     1       7.509  -4.741 -14.395  1.00  0.00     0.058 A 
ATOM    109  C   UNL     1       8.822  -4.924 -14.856  1.00  0.00     0.135 A 
ATOM    110  C   UNL     1       6.460  -5.239 -15.185  1.00  0.00     0.135 A 
ATOM    111  F   UNL     1       9.860  -4.460 -14.142  1.00  0.00    -0.206 F 
ATOM    112  C   UNL     1       9.084  -5.540 -16.074  1.00  0.00     0.059 A 
ATOM    113  C   UNL     1       6.701  -5.887 -16.392  1.00  0.00     0.059 A 
ATOM    114  F   UNL     1       5.186  -5.100 -14.786  1.00  0.00    -0.206 F 
ATOM    115  C   UNL     1       8.015  -6.016 -16.837  1.00  0.00     0.060 A 
BRANCH 115 116
ATOM    116  S   UNL     1       8.372  -6.816 -18.415  1.00  0.00     0.124 S 
ATOM    117  O   UNL     1       8.770  -5.678 -19.237  1.00  0.00    -0.237 OA
ATOM    118  O   UNL     1       9.440  -7.745 -18.059  1.00  0.00    -0.237 OA
ATOM    119  O   UNL     1       7.102  -7.438 -18.777  1.00  0.00    -0.744 OA
ENDBRANCH 115 116
ENDBRANCH  83 108
ENDBRANCH  57  58
ENDBRANCH  50  52
ENDBRANCH  49  50
ENDBRANCH  48  49
ENDBRANCH  47  48
ENDBRANCH  46  47
ENDBRANCH  45  46
ENDBRANCH   1  45
TORSDOF 24
