REMARK SMILES COc1ccc2c(c1)CCN=C2C[C@H]1CN(C(=O)c2ccco2)CC[C@H]1CC(=O)OCCOCCOC(=O)c1ccc(-c2c3nc(c(-c4c(F)cc(S(=O)(=O)[O-])cc4F)c4ccc([nH]4)c(-c4c(F)cc(S(=O)(=O)[O-])cc4F)c4nc(c(-c5c(F)cc(S(=O)(=O)[O-])cc5F)c5ccc2[nH]5)C=C4)C=C3)cc1
REMARK SMILES IDX 32 1 31 2 30 3 28 4 29 5 27 6 26 7 14 8 15 9 16 10 25 11
REMARK SMILES IDX 24 12 13 13 12 14 3 15 4 16 8 17 5 18 7 19 6 20 9 21 10 22
REMARK SMILES IDX 11 23 2 24 1 25 17 26 18 27 19 28 20 29 23 30 21 31 22 32
REMARK SMILES IDX 33 33 34 34 35 35 36 36 37 37 38 38 39 39 40 40 104 41 41 42
REMARK SMILES IDX 103 43 42 44 43 45 44 46 97 47 45 48 102 49 96 50 98 51
REMARK SMILES IDX 46 52 101 53 95 54 94 55 47 57 81 58 60 59 80 60 61 61 64 62
REMARK SMILES IDX 79 63 99 64 62 65 63 66 78 68 100 69 65 70 48 71 49 72 58 73
REMARK SMILES IDX 50 74 51 75 57 76 59 77 52 78 53 79 54 80 55 81 56 82 82 83
REMARK SMILES IDX 83 84 92 85 84 86 85 87 91 88 93 89 86 90 87 91 88 92 89 93
REMARK SMILES IDX 90 94 66 95 67 96 76 97 68 98 69 99 75 100 77 101 70 102
REMARK SMILES IDX 71 103 72 104 73 105 74 106
REMARK H PARENT 98 56 64 67
REMARK Flexibility Score: inf
ROOT
ATOM      1  C   UNL     1       6.016   9.923   4.277  1.00  0.00     0.202 C 
ENDROOT
BRANCH   1   2
ATOM      2  C   UNL     1       4.731   9.153   4.587  1.00  0.00     0.261 C 
BRANCH   2   3
ATOM      3  O   UNL     1       4.067   8.813   3.359  1.00  0.00    -0.463 OA
BRANCH   3   4
ATOM      4  C   UNL     1       2.796   9.255   3.218  1.00  0.00     0.306 C 
ATOM      5  O   UNL     1       2.127   9.763   4.111  1.00  0.00    -0.252 OA
BRANCH   4   6
ATOM      6  C   UNL     1       2.285   9.143   1.798  1.00  0.00     0.126 C 
BRANCH   6   7
ATOM      7  C   UNL     1       3.214   8.625   0.669  1.00  0.00     0.007 C 
ATOM      8  C   UNL     1       3.803   7.202   0.860  1.00  0.00     0.018 C 
ATOM      9  C   UNL     1       4.509   6.745  -0.424  1.00  0.00     0.124 C 
ATOM     10  N   UNL     1       3.601   6.739  -1.556  1.00  0.00    -0.336 N 
ATOM     11  C   UNL     1       2.511   8.842  -0.696  1.00  0.00     0.026 C 
ATOM     12  C   UNL     1       3.016   8.029  -1.890  1.00  0.00     0.120 C 
BRANCH   8  13
ATOM     13  C   UNL     1       2.886   6.120   1.475  1.00  0.00     0.062 C 
BRANCH  13  14
ATOM     14  C   UNL     1       1.627   5.753   0.693  1.00  0.00     0.043 C 
ATOM     15  C   UNL     1       0.715   1.724  -0.466  1.00  0.00     0.119 A 
ATOM     16  C   UNL     1       2.034   2.053  -0.154  1.00  0.00     0.047 A 
ATOM     17  C   UNL     1      -0.272   2.705  -0.442  1.00  0.00     0.050 A 
ATOM     18  C   UNL     1       2.361   3.358   0.230  1.00  0.00     0.014 A 
ATOM     19  C   UNL     1       0.050   4.013  -0.069  1.00  0.00    -0.033 A 
ATOM     20  C   UNL     1       1.371   4.339   0.283  1.00  0.00    -0.001 A 
ATOM     21  C   UNL     1      -1.012   5.071  -0.002  1.00  0.00     0.060 C 
ATOM     22  C   UNL     1      -0.402   6.420  -0.333  1.00  0.00     0.147 C 
ATOM     23  N   UNL     1       0.775   6.701   0.485  1.00  0.00    -0.289 NA
BRANCH  15  24
ATOM     24  O   UNL     1       0.309   0.478  -0.857  1.00  0.00    -0.497 OA
ATOM     25  C   UNL     1       0.874  -0.569  -0.070  1.00  0.00     0.278 C 
ENDBRANCH  15  24
ENDBRANCH  13  14
ENDBRANCH   8  13
BRANCH  10  26
ATOM     26  C   UNL     1       3.458   5.546  -2.281  1.00  0.00     0.289 C 
ATOM     27  O   UNL     1       4.188   4.583  -2.041  1.00  0.00    -0.265 OA
BRANCH  26  28
ATOM     28  C   UNL     1       2.393   5.436  -3.256  1.00  0.00     0.191 A 
ATOM     29  C   UNL     1       2.099   6.079  -4.444  1.00  0.00     0.056 A 
ATOM     30  O   UNL     1       1.467   4.447  -3.047  1.00  0.00    -0.459 OA
ATOM     31  C   UNL     1       0.925   5.470  -4.961  1.00  0.00     0.043 A 
ATOM     32  C   UNL     1       0.583   4.482  -4.071  1.00  0.00     0.196 A 
ENDBRANCH  26  28
ENDBRANCH  10  26
ENDBRANCH   6   7
ENDBRANCH   4   6
ENDBRANCH   3   4
ENDBRANCH   2   3
ENDBRANCH   1   2
BRANCH   1  33
ATOM     33  O   UNL     1       5.848  11.239   3.744  1.00  0.00    -0.374 OA
BRANCH  33  34
ATOM     34  C   UNL     1       5.420  11.355   2.389  1.00  0.00     0.202 C 
BRANCH  34  35
ATOM     35  C   UNL     1       6.477  11.127   1.300  1.00  0.00     0.261 C 
BRANCH  35  36
ATOM     36  O   UNL     1       7.062   9.813   1.347  1.00  0.00    -0.460 OA
BRANCH  36  37
ATOM     37  C   UNL     1       8.345   9.799   1.792  1.00  0.00     0.338 C 
ATOM     38  O   UNL     1       9.033  10.766   2.073  1.00  0.00    -0.246 OA
BRANCH  37  39
ATOM     39  C   UNL     1       8.789   8.419   2.070  1.00  0.00     0.060 A 
ATOM     40  C   UNL     1       9.340   8.174   3.333  1.00  0.00     0.016 A 
ATOM     41  C   UNL     1       8.773   7.418   1.096  1.00  0.00     0.016 A 
ATOM     42  C   UNL     1       9.936   6.946   3.609  1.00  0.00     0.010 A 
ATOM     43  C   UNL     1       9.378   6.185   1.375  1.00  0.00     0.010 A 
ATOM     44  C   UNL     1       9.998   5.958   2.618  1.00  0.00    -0.014 A 
BRANCH  44  45
ATOM     45  C   UNL     1      10.842   4.758   2.847  1.00  0.00     0.031 A 
ATOM     46  C   UNL     1      12.219   4.702   2.239  1.00  0.00     0.074 A 
ATOM     47  C   UNL     1      10.411   3.756   3.635  1.00  0.00     0.049 A 
ATOM     48  N   UNL     1      13.120   3.756   2.313  1.00  0.00    -0.248 NA
ATOM     49  C   UNL     1      12.638   5.868   1.443  1.00  0.00     0.031 C 
ATOM     50  C   UNL     1       9.115   3.710   4.309  1.00  0.00     0.029 A 
ATOM     51  N   UNL     1      11.020   2.580   3.997  1.00  0.00    -0.354 N 
ATOM     52  C   UNL     1      14.205   4.205   1.569  1.00  0.00     0.074 A 
ATOM     53  C   UNL     1      13.843   5.498   1.032  1.00  0.00     0.031 C 
ATOM     54  C   UNL     1       9.020   2.557   4.994  1.00  0.00     0.029 A 
ATOM     55  C   UNL     1      10.235   1.772   4.784  1.00  0.00     0.049 A 
ATOM     56  H   UNL     1      11.933   2.338   3.719  1.00  0.00     0.167 HD
ATOM     57  C   UNL     1      15.397   3.598   1.359  1.00  0.00     0.037 A 
ATOM     58  C   UNL     1      10.461   0.532   5.263  1.00  0.00     0.037 A 
ATOM     59  C   UNL     1      15.761   2.317   1.907  1.00  0.00     0.049 A 
ATOM     60  C   UNL     1      11.778  -0.143   4.976  1.00  0.00     0.074 A 
ATOM     61  C   UNL     1      16.959   1.635   1.778  1.00  0.00     0.029 A 
ATOM     62  N   UNL     1      14.930   1.520   2.681  1.00  0.00    -0.354 N 
ATOM     63  N   UNL     1      12.806   0.309   4.298  1.00  0.00    -0.248 NA
ATOM     64  C   UNL     1      11.968  -1.494   5.524  1.00  0.00     0.031 C 
ATOM     65  C   UNL     1      16.836   0.406   2.433  1.00  0.00     0.029 A 
ATOM     66  C   UNL     1      15.580   0.343   3.014  1.00  0.00     0.049 A 
ATOM     67  H   UNL     1      14.014   1.756   2.953  1.00  0.00     0.167 HD
ATOM     68  C   UNL     1      13.772  -0.691   4.359  1.00  0.00     0.074 A 
ATOM     69  C   UNL     1      13.211  -1.766   5.150  1.00  0.00     0.031 C 
ATOM     70  C   UNL     1      15.012  -0.717   3.810  1.00  0.00     0.037 A 
BRANCH  57  71
ATOM     71  C   UNL     1      16.397   4.298   0.482  1.00  0.00     0.058 A 
ATOM     72  C   UNL     1      17.104   5.428   0.921  1.00  0.00     0.135 A 
ATOM     73  C   UNL     1      16.693   3.796  -0.796  1.00  0.00     0.135 A 
ATOM     74  F   UNL     1      16.848   5.960   2.127  1.00  0.00    -0.206 F 
ATOM     75  C   UNL     1      18.059   6.045   0.118  1.00  0.00     0.059 A 
ATOM     76  C   UNL     1      17.661   4.381  -1.606  1.00  0.00     0.059 A 
ATOM     77  F   UNL     1      16.044   2.719  -1.265  1.00  0.00    -0.206 F 
ATOM     78  C   UNL     1      18.333   5.512  -1.143  1.00  0.00     0.060 A 
BRANCH  78  79
ATOM     79  S   UNL     1      19.591   6.309  -2.164  1.00  0.00     0.124 S 
ATOM     80  O   UNL     1      18.903   7.529  -2.575  1.00  0.00    -0.237 OA
ATOM     81  O   UNL     1      20.690   6.490  -1.221  1.00  0.00    -0.237 OA
ATOM     82  O   UNL     1      19.834   5.338  -3.226  1.00  0.00    -0.744 OA
ENDBRANCH  78  79
ENDBRANCH  57  71
BRANCH  58  83
ATOM     83  C   UNL     1       9.406  -0.167   6.045  1.00  0.00     0.058 A 
ATOM     84  C   UNL     1       9.561  -0.424   7.415  1.00  0.00     0.135 A 
ATOM     85  C   UNL     1       8.223  -0.602   5.428  1.00  0.00     0.135 A 
ATOM     86  F   UNL     1      10.679  -0.038   8.047  1.00  0.00    -0.206 F 
ATOM     87  C   UNL     1       8.589  -1.104   8.142  1.00  0.00     0.059 A 
ATOM     88  C   UNL     1       7.225  -1.260   6.139  1.00  0.00     0.059 A 
ATOM     89  F   UNL     1       8.020  -0.370   4.121  1.00  0.00    -0.206 F 
ATOM     90  C   UNL     1       7.423  -1.518   7.494  1.00  0.00     0.060 A 
BRANCH  90  91
ATOM     91  S   UNL     1       6.149  -2.365   8.453  1.00  0.00     0.124 S 
ATOM     92  O   UNL     1       6.742  -3.685   8.628  1.00  0.00    -0.237 OA
ATOM     93  O   UNL     1       6.065  -1.537   9.652  1.00  0.00    -0.237 OA
ATOM     94  O   UNL     1       4.980  -2.307   7.579  1.00  0.00    -0.744 OA
ENDBRANCH  90  91
ENDBRANCH  58  83
BRANCH  70  95
ATOM     95  C   UNL     1      15.865  -1.928   4.071  1.00  0.00     0.058 A 
ATOM     96  C   UNL     1      15.610  -3.159   3.449  1.00  0.00     0.135 A 
ATOM     97  C   UNL     1      16.986  -1.839   4.913  1.00  0.00     0.135 A 
ATOM     98  F   UNL     1      14.548  -3.300   2.639  1.00  0.00    -0.206 F 
ATOM     99  C   UNL     1      16.422  -4.268   3.670  1.00  0.00     0.059 A 
ATOM    100  C   UNL     1      17.827  -2.927   5.127  1.00  0.00     0.059 A 
ATOM    101  F   UNL     1      17.283  -0.681   5.524  1.00  0.00    -0.206 F 
ATOM    102  C   UNL     1      17.530  -4.141   4.510  1.00  0.00     0.060 A 
BRANCH 102 103
ATOM    103  S   UNL     1      18.595  -5.577   4.764  1.00  0.00     0.124 S 
ATOM    104  O   UNL     1      17.778  -6.394   5.655  1.00  0.00    -0.237 OA
ATOM    105  O   UNL     1      18.759  -6.090   3.407  1.00  0.00    -0.237 OA
ATOM    106  O   UNL     1      19.798  -5.006   5.361  1.00  0.00    -0.744 OA
ENDBRANCH 102 103
ENDBRANCH  70  95
ENDBRANCH  44  45
ENDBRANCH  37  39
ENDBRANCH  36  37
ENDBRANCH  35  36
ENDBRANCH  34  35
ENDBRANCH  33  34
ENDBRANCH   1  33
TORSDOF 23
