REMARK SMILES C[C@@H]1[C@H](C(=O)OCCOCCOC(=O)c2ccc(-c3c4nc(c(-c5c(F)cc(S(=O)(=O)[O-])cc5F)c5ccc([nH]5)c(-c5c(F)cc(S(=O)(=O)[O-])cc5F)c5nc(c(-c6c(F)cc(S(=O)(=O)[O-])cc6F)c6ccc3[nH]6)C=C5)C=C4)cc2)CC[N@@H+]1Cc1ccccc1[N+](=O)[O-]
REMARK SMILES IDX 9 1 8 2 7 3 6 4 4 5 5 6 3 7 1 8 2 9 83 10 81 11 82 12 84 14
REMARK SMILES IDX 85 15 86 16 90 17 87 18 89 19 88 20 91 21 92 22 93 23 10 24
REMARK SMILES IDX 11 25 12 26 13 27 14 28 15 29 16 30 80 31 17 32 79 33 18 34
REMARK SMILES IDX 19 35 20 36 73 37 21 38 78 39 72 40 74 41 22 42 77 43 71 44
REMARK SMILES IDX 70 45 23 47 57 48 36 49 56 50 37 51 40 52 55 53 75 54 38 55
REMARK SMILES IDX 39 56 54 58 76 59 41 60 24 61 25 62 34 63 26 64 27 65 33 66
REMARK SMILES IDX 35 67 28 68 29 69 30 70 31 71 32 72 58 73 59 74 68 75 60 76
REMARK SMILES IDX 61 77 67 78 69 79 62 80 63 81 64 82 65 83 66 84 42 85 43 86
REMARK SMILES IDX 52 87 44 88 45 89 51 90 53 91 46 92 47 93 48 94 49 95 50 96
REMARK H PARENT 83 13 74 46 40 57
REMARK Flexibility Score: inf
ROOT
ATOM      1  O   UNL     1       2.690   4.305  -1.059  1.00  0.00    -0.374 OA
ENDROOT
BRANCH   1   2
ATOM      2  C   UNL     1       2.634   4.337   0.369  1.00  0.00     0.202 C 
BRANCH   2   3
ATOM      3  C   UNL     1       1.240   4.217   0.989  1.00  0.00     0.261 C 
BRANCH   3   4
ATOM      4  O   UNL     1       0.760   2.872   0.831  1.00  0.00    -0.463 OA
BRANCH   4   5
ATOM      5  C   UNL     1      -0.176   2.680  -0.119  1.00  0.00     0.315 C 
ATOM      6  O   UNL     1      -0.808   3.580  -0.664  1.00  0.00    -0.252 OA
BRANCH   5   7
ATOM      7  C   UNL     1      -0.376   1.230  -0.501  1.00  0.00     0.162 C 
ATOM      8  C   UNL     1       1.774   0.339   0.753  1.00  0.00     0.076 C 
ATOM      9  C   UNL     1       0.632   0.086  -0.218  1.00  0.00     0.195 C 
ATOM     10  N   UNL     1      -0.229  -1.077   0.060  1.00  0.00    -0.328 N 
ATOM     11  C   UNL     1      -1.689   0.723   0.063  1.00  0.00     0.083 C 
ATOM     12  C   UNL     1      -1.613  -0.756  -0.238  1.00  0.00     0.263 C 
ATOM     13  H   UNL     1       0.177  -1.763  -0.576  1.00  0.00     0.348 HD
BRANCH  10  14
ATOM     14  C   UNL     1       0.063  -2.135   1.019  1.00  0.00     0.306 C 
BRANCH  14  15
ATOM     15  C   UNL     1       0.269  -1.724   2.467  1.00  0.00     0.084 A 
ATOM     16  C   UNL     1       1.566  -1.834   3.013  1.00  0.00     0.017 A 
ATOM     17  C   UNL     1      -0.720  -1.172   3.301  1.00  0.00     0.278 A 
ATOM     18  C   UNL     1       1.884  -1.289   4.261  1.00  0.00     0.001 A 
ATOM     19  C   UNL     1      -0.404  -0.602   4.546  1.00  0.00     0.086 A 
ATOM     20  C   UNL     1       0.907  -0.643   5.012  1.00  0.00     0.007 A 
BRANCH  17  21
ATOM     21  N   UNL     1      -2.133  -1.251   2.964  1.00  0.00     0.063 N 
ATOM     22  O   UNL     1      -2.819  -0.231   3.118  1.00  0.00    -0.258 OA
ATOM     23  O   UNL     1      -2.568  -2.348   2.584  1.00  0.00    -0.258 OA
ENDBRANCH  17  21
ENDBRANCH  14  15
ENDBRANCH  10  14
ENDBRANCH   5   7
ENDBRANCH   4   5
ENDBRANCH   3   4
ENDBRANCH   2   3
ENDBRANCH   1   2
BRANCH   1  24
ATOM     24  C   UNL     1       2.759   3.025  -1.687  1.00  0.00     0.202 C 
BRANCH  24  25
ATOM     25  C   UNL     1       4.130   2.328  -1.704  1.00  0.00     0.261 C 
BRANCH  25  26
ATOM     26  O   UNL     1       4.592   1.970  -0.388  1.00  0.00    -0.460 OA
BRANCH  26  27
ATOM     27  C   UNL     1       5.525   2.807   0.133  1.00  0.00     0.338 C 
ATOM     28  O   UNL     1       6.065   3.735  -0.438  1.00  0.00    -0.246 OA
BRANCH  27  29
ATOM     29  C   UNL     1       5.663   2.576   1.590  1.00  0.00     0.060 A 
ATOM     30  C   UNL     1       5.686   3.712   2.410  1.00  0.00     0.016 A 
ATOM     31  C   UNL     1       5.815   1.305   2.148  1.00  0.00     0.016 A 
ATOM     32  C   UNL     1       5.938   3.590   3.775  1.00  0.00     0.010 A 
ATOM     33  C   UNL     1       6.071   1.183   3.522  1.00  0.00     0.010 A 
ATOM     34  C   UNL     1       6.180   2.329   4.334  1.00  0.00    -0.014 A 
BRANCH  34  35
ATOM     35  C   UNL     1       6.710   2.242   5.721  1.00  0.00     0.031 A 
ATOM     36  C   UNL     1       8.179   1.976   5.926  1.00  0.00     0.074 A 
ATOM     37  C   UNL     1       5.914   2.463   6.785  1.00  0.00     0.049 A 
ATOM     38  N   UNL     1       8.856   1.866   7.041  1.00  0.00    -0.248 NA
ATOM     39  C   UNL     1       8.995   1.812   4.712  1.00  0.00     0.031 C 
ATOM     40  C   UNL     1       4.488   2.777   6.722  1.00  0.00     0.029 A 
ATOM     41  N   UNL     1       6.199   2.460   8.129  1.00  0.00    -0.354 N 
ATOM     42  C   UNL     1      10.171   1.615   6.664  1.00  0.00     0.074 A 
ATOM     43  C   UNL     1      10.190   1.551   5.219  1.00  0.00     0.031 C 
ATOM     44  C   UNL     1       4.021   2.936   7.973  1.00  0.00     0.029 A 
ATOM     45  C   UNL     1       5.106   2.701   8.926  1.00  0.00     0.049 A 
ATOM     46  H   UNL     1       7.102   2.301   8.487  1.00  0.00     0.167 HD
ATOM     47  C   UNL     1      11.266   1.464   7.448  1.00  0.00     0.037 A 
ATOM     48  C   UNL     1       4.988   2.713  10.270  1.00  0.00     0.037 A 
ATOM     49  C   UNL     1      11.247   1.536   8.887  1.00  0.00     0.049 A 
ATOM     50  C   UNL     1       6.207   2.472  11.125  1.00  0.00     0.074 A 
ATOM     51  C   UNL     1      12.308   1.416   9.767  1.00  0.00     0.029 A 
ATOM     52  N   UNL     1      10.112   1.741   9.658  1.00  0.00    -0.354 N 
ATOM     53  N   UNL     1       7.447   2.256  10.753  1.00  0.00    -0.248 NA
ATOM     54  C   UNL     1       6.012   2.480  12.582  1.00  0.00     0.031 C 
ATOM     55  C   UNL     1      11.807   1.486  11.071  1.00  0.00     0.029 A 
ATOM     56  C   UNL     1      10.443   1.718  11.003  1.00  0.00     0.049 A 
ATOM     57  H   UNL     1       9.205   1.881   9.302  1.00  0.00     0.167 HD
ATOM     58  C   UNL     1       8.183   2.136  11.929  1.00  0.00     0.074 A 
ATOM     59  C   UNL     1       7.251   2.314  13.023  1.00  0.00     0.031 C 
ATOM     60  C   UNL     1       9.510   1.903  12.088  1.00  0.00     0.037 A 
BRANCH  47  61
ATOM     61  C   UNL     1      12.579   1.179   6.770  1.00  0.00     0.058 A 
ATOM     62  C   UNL     1      13.252   2.151   6.013  1.00  0.00     0.135 A 
ATOM     63  C   UNL     1      13.194  -0.076   6.917  1.00  0.00     0.135 A 
ATOM     64  F   UNL     1      12.704   3.361   5.825  1.00  0.00    -0.206 F 
ATOM     65  C   UNL     1      14.474   1.881   5.404  1.00  0.00     0.059 A 
ATOM     66  C   UNL     1      14.430  -0.358   6.343  1.00  0.00     0.059 A 
ATOM     67  F   UNL     1      12.595  -1.044   7.628  1.00  0.00    -0.206 F 
ATOM     68  C   UNL     1      15.056   0.624   5.576  1.00  0.00     0.060 A 
BRANCH  68  69
ATOM     69  S   UNL     1      16.644   0.293   4.784  1.00  0.00     0.124 S 
ATOM     70  O   UNL     1      16.259   0.226   3.378  1.00  0.00    -0.237 OA
ATOM     71  O   UNL     1      17.433   1.458   5.171  1.00  0.00    -0.237 OA
ATOM     72  O   UNL     1      17.065  -0.972   5.379  1.00  0.00    -0.744 OA
ENDBRANCH  68  69
ENDBRANCH  47  61
BRANCH  48  73
ATOM     73  C   UNL     1       3.658   2.947  10.898  1.00  0.00     0.058 A 
ATOM     74  C   UNL     1       3.396   4.108  11.641  1.00  0.00     0.135 A 
ATOM     75  C   UNL     1       2.624   2.005  10.774  1.00  0.00     0.135 A 
ATOM     76  F   UNL     1       4.355   5.033  11.801  1.00  0.00    -0.206 F 
ATOM     77  C   UNL     1       2.164   4.320  12.252  1.00  0.00     0.059 A 
ATOM     78  C   UNL     1       1.375   2.208  11.350  1.00  0.00     0.059 A 
ATOM     79  F   UNL     1       2.818   0.882  10.064  1.00  0.00    -0.206 F 
ATOM     80  C   UNL     1       1.158   3.365  12.097  1.00  0.00     0.060 A 
BRANCH  80  81
ATOM     81  S   UNL     1      -0.454   3.672  12.852  1.00  0.00     0.124 S 
ATOM     82  O   UNL     1      -0.154   3.492  14.267  1.00  0.00    -0.237 OA
ATOM     83  O   UNL     1      -0.733   5.040  12.425  1.00  0.00    -0.237 OA
ATOM     84  O   UNL     1      -1.305   2.650  12.251  1.00  0.00    -0.744 OA
ENDBRANCH  80  81
ENDBRANCH  48  73
BRANCH  60  85
ATOM     85  C   UNL     1      10.053   1.866  13.493  1.00  0.00     0.058 A 
ATOM     86  C   UNL     1       9.769   0.808  14.372  1.00  0.00     0.135 A 
ATOM     87  C   UNL     1      10.915   2.878  13.947  1.00  0.00     0.135 A 
ATOM     88  F   UNL     1       8.948  -0.184  13.993  1.00  0.00    -0.206 F 
ATOM     89  C   UNL     1      10.299   0.769  15.658  1.00  0.00     0.059 A 
ATOM     90  C   UNL     1      11.482   2.843  15.218  1.00  0.00     0.059 A 
ATOM     91  F   UNL     1      11.231   3.908  13.146  1.00  0.00    -0.206 F 
ATOM     92  C   UNL     1      11.157   1.790  16.071  1.00  0.00     0.060 A 
BRANCH  92  93
ATOM     93  S   UNL     1      11.862   1.710  17.732  1.00  0.00     0.124 S 
ATOM     94  O   UNL     1      10.700   2.018  18.560  1.00  0.00    -0.237 OA
ATOM     95  O   UNL     1      12.342   0.334  17.800  1.00  0.00    -0.237 OA
ATOM     96  O   UNL     1      12.905   2.732  17.710  1.00  0.00    -0.744 OA
ENDBRANCH  92  93
ENDBRANCH  60  85
ENDBRANCH  34  35
ENDBRANCH  27  29
ENDBRANCH  26  27
ENDBRANCH  25  26
ENDBRANCH  24  25
ENDBRANCH   1  24
TORSDOF 20
