REMARK SMILES COc1cc([C@@H]2CC(=O)Nc3c(C(=O)OCCOCCOC(=O)c4ccc(-c5c6nc(c(-c7c(F)cc(S(=O)(=O)[O-])cc7F)c7ccc([nH]7)c(-c7c(F)cc(S(=O)(=O)[O-])cc7F)c7nc(c(-c8c(F)cc(S(=O)(=O)[O-])cc8F)c8ccc5[nH]8)C=C7)C=C6)cc4)cn(-c4ccc(F)cc4)c32)c(OC)c2c1OCO2
REMARK SMILES IDX 19 1 18 2 17 3 16 4 15 5 13 6 14 7 12 8 6 9 7 10 99 11 8 12
REMARK SMILES IDX 11 13 91 14 9 15 10 16 90 17 5 19 3 20 4 21 104 22 103 23
REMARK SMILES IDX 105 24 100 25 107 26 106 27 2 28 1 29 101 30 102 31 92 32
REMARK SMILES IDX 93 33 98 34 94 35 97 36 95 37 96 38 20 39 21 40 22 41 23 42
REMARK SMILES IDX 24 43 25 44 89 45 26 46 88 47 27 48 28 49 29 50 82 51 30 52
REMARK SMILES IDX 87 53 81 54 83 55 31 56 86 57 80 58 79 59 32 61 66 62 45 63
REMARK SMILES IDX 65 64 46 65 49 66 64 67 84 68 47 69 48 70 63 72 85 73 50 74
REMARK SMILES IDX 33 75 34 76 43 77 35 78 36 79 42 80 44 81 37 82 38 83 39 84
REMARK SMILES IDX 40 85 41 86 67 87 68 88 77 89 69 90 70 91 76 92 78 93 71 94
REMARK SMILES IDX 72 95 73 96 74 97 75 98 51 99 52 100 61 101 53 102 54 103
REMARK SMILES IDX 60 104 62 105 55 106 56 107 57 108 58 109 59 110
REMARK H PARENT 10 18 83 60 49 71
REMARK Flexibility Score: inf
ROOT
ATOM      1  C   UNL     1      -4.076  11.472   1.606  1.00  0.00     0.202 C 
ENDROOT
BRANCH   1   2
ATOM      2  O   UNL     1      -3.528  12.630   2.226  1.00  0.00    -0.374 OA
BRANCH   2   3
ATOM      3  C   UNL     1      -2.247  13.114   1.827  1.00  0.00     0.202 C 
BRANCH   3   4
ATOM      4  C   UNL     1      -1.008  12.339   2.284  1.00  0.00     0.261 C 
BRANCH   4   5
ATOM      5  O   UNL     1      -0.917  11.024   1.710  1.00  0.00    -0.460 OA
BRANCH   5   6
ATOM      6  C   UNL     1      -1.300  10.011   2.543  1.00  0.00     0.341 C 
ATOM      7  O   UNL     1      -1.634  10.159   3.711  1.00  0.00    -0.246 OA
BRANCH   6   8
ATOM      8  C   UNL     1      -1.396   8.728   1.864  1.00  0.00     0.102 A 
ATOM      9  C   UNL     1      -0.576   6.009  -0.535  1.00  0.00     0.082 C 
ATOM     10  C   UNL     1       0.035   6.890  -1.646  1.00  0.00     0.115 C 
ATOM     11  C   UNL     1      -1.076   6.887   0.573  1.00  0.00     0.055 A 
ATOM     12  C   UNL     1       0.763   8.138  -1.156  1.00  0.00     0.225 C 
ATOM     13  C   UNL     1      -0.691   8.198   0.760  1.00  0.00     0.078 A 
ATOM     14  N   UNL     1      -2.108   6.627   1.450  1.00  0.00    -0.317 N 
ATOM     15  O   UNL     1       1.696   8.635  -1.787  1.00  0.00    -0.275 OA
ATOM     16  N   UNL     1       0.258   8.773  -0.048  1.00  0.00    -0.324 N 
ATOM     17  C   UNL     1      -2.332   7.760   2.199  1.00  0.00     0.109 A 
ATOM     18  H   UNL     1       0.590   9.673   0.174  1.00  0.00     0.170 HD
BRANCH   9  19
ATOM     19  C   UNL     1       0.382   4.871  -0.160  1.00  0.00     0.012 A 
ATOM     20  C   UNL     1       0.832   2.450  -0.371  1.00  0.00     0.165 A 
ATOM     21  C   UNL     1      -0.019   3.550  -0.505  1.00  0.00     0.059 A 
ATOM     22  C   UNL     1       2.120   2.698   0.054  1.00  0.00     0.211 A 
ATOM     23  C   UNL     1       2.531   3.971   0.415  1.00  0.00     0.211 A 
ATOM     24  O   UNL     1       3.136   1.791   0.140  1.00  0.00    -0.449 OA
ATOM     25  C   UNL     1       1.681   5.073   0.355  1.00  0.00     0.168 A 
ATOM     26  O   UNL     1       3.845   3.974   0.793  1.00  0.00    -0.449 OA
ATOM     27  C   UNL     1       4.249   2.647   0.430  1.00  0.00     0.468 C 
BRANCH  20  28
ATOM     28  O   UNL     1       0.305   1.253  -0.759  1.00  0.00    -0.493 OA
ATOM     29  C   UNL     1       0.808   0.106  -0.085  1.00  0.00     0.278 C 
ENDBRANCH  20  28
BRANCH  25  30
ATOM     30  O   UNL     1       1.989   6.341   0.745  1.00  0.00    -0.492 OA
ATOM     31  C   UNL     1       3.359   6.687   0.892  1.00  0.00     0.278 C 
ENDBRANCH  25  30
ENDBRANCH   9  19
BRANCH  14  32
ATOM     32  C   UNL     1      -2.834   5.430   1.600  1.00  0.00     0.046 A 
ATOM     33  C   UNL     1      -2.156   4.271   1.986  1.00  0.00     0.029 A 
ATOM     34  C   UNL     1      -4.221   5.426   1.404  1.00  0.00     0.029 A 
ATOM     35  C   UNL     1      -2.866   3.082   2.136  1.00  0.00     0.041 A 
ATOM     36  C   UNL     1      -4.919   4.225   1.535  1.00  0.00     0.041 A 
ATOM     37  C   UNL     1      -4.236   3.066   1.897  1.00  0.00     0.123 A 
ATOM     38  F   UNL     1      -4.911   1.916   2.027  1.00  0.00    -0.207 F 
ENDBRANCH  14  32
ENDBRANCH   6   8
ENDBRANCH   5   6
ENDBRANCH   4   5
ENDBRANCH   3   4
ENDBRANCH   2   3
ENDBRANCH   1   2
BRANCH   1  39
ATOM     39  C   UNL     1      -4.519  11.560   0.154  1.00  0.00     0.261 C 
BRANCH  39  40
ATOM     40  O   UNL     1      -3.442  11.890  -0.705  1.00  0.00    -0.460 OA
BRANCH  40  41
ATOM     41  C   UNL     1      -3.448  13.180  -1.123  1.00  0.00     0.338 C 
ATOM     42  O   UNL     1      -4.054  14.109  -0.631  1.00  0.00    -0.246 OA
BRANCH  41  43
ATOM     43  C   UNL     1      -2.719  13.241  -2.394  1.00  0.00     0.060 A 
ATOM     44  C   UNL     1      -2.799  14.453  -3.081  1.00  0.00     0.016 A 
ATOM     45  C   UNL     1      -2.312  12.050  -3.013  1.00  0.00     0.016 A 
ATOM     46  C   UNL     1      -2.739  14.414  -4.452  1.00  0.00     0.010 A 
ATOM     47  C   UNL     1      -2.274  12.010  -4.381  1.00  0.00     0.010 A 
ATOM     48  C   UNL     1      -2.591  13.171  -5.077  1.00  0.00    -0.014 A 
BRANCH  48  49
ATOM     49  C   UNL     1      -2.658  13.119  -6.516  1.00  0.00     0.031 A 
ATOM     50  C   UNL     1      -1.422  13.637  -7.132  1.00  0.00     0.074 A 
ATOM     51  C   UNL     1      -3.692  12.567  -7.178  1.00  0.00     0.049 A 
ATOM     52  N   UNL     1      -1.258  14.794  -7.679  1.00  0.00    -0.248 NA
ATOM     53  C   UNL     1      -0.169  12.907  -6.879  1.00  0.00     0.031 C 
ATOM     54  C   UNL     1      -4.829  11.812  -6.650  1.00  0.00     0.029 A 
ATOM     55  N   UNL     1      -3.885  12.505  -8.520  1.00  0.00    -0.354 N 
ATOM     56  C   UNL     1       0.070  14.816  -8.079  1.00  0.00     0.074 A 
ATOM     57  C   UNL     1       0.731  13.775  -7.341  1.00  0.00     0.031 C 
ATOM     58  C   UNL     1      -5.455  11.178  -7.670  1.00  0.00     0.029 A 
ATOM     59  C   UNL     1      -4.848  11.586  -8.925  1.00  0.00     0.049 A 
ATOM     60  H   UNL     1      -3.383  13.066  -9.156  1.00  0.00     0.167 HD
ATOM     61  C   UNL     1       0.446  15.484  -9.203  1.00  0.00     0.037 A 
ATOM     62  C   UNL     1      -5.034  11.161 -10.204  1.00  0.00     0.037 A 
ATOM     63  C   UNL     1      -0.582  16.404  -9.626  1.00  0.00     0.049 A 
ATOM     64  C   UNL     1      -4.424  12.200 -11.089  1.00  0.00     0.074 A 
ATOM     65  C   UNL     1      -1.211  17.483  -9.034  1.00  0.00     0.029 A 
ATOM     66  N   UNL     1      -1.402  16.009 -10.659  1.00  0.00    -0.354 N 
ATOM     67  N   UNL     1      -4.897  13.414 -11.197  1.00  0.00    -0.248 NA
ATOM     68  C   UNL     1      -3.013  12.053 -11.427  1.00  0.00     0.031 C 
ATOM     69  C   UNL     1      -2.578  17.373  -9.421  1.00  0.00     0.029 A 
ATOM     70  C   UNL     1      -2.695  16.290 -10.293  1.00  0.00     0.049 A 
ATOM     71  H   UNL     1      -1.113  15.600 -11.506  1.00  0.00     0.167 HD
ATOM     72  C   UNL     1      -3.779  14.238 -11.195  1.00  0.00     0.074 A 
ATOM     73  C   UNL     1      -2.643  13.338 -11.392  1.00  0.00     0.031 C 
ATOM     74  C   UNL     1      -3.841  15.524 -10.734  1.00  0.00     0.037 A 
BRANCH  61  75
ATOM     75  C   UNL     1       1.546  15.017 -10.120  1.00  0.00     0.058 A 
ATOM     76  C   UNL     1       1.978  15.869 -11.154  1.00  0.00     0.135 A 
ATOM     77  C   UNL     1       2.003  13.681 -10.198  1.00  0.00     0.135 A 
ATOM     78  F   UNL     1       1.592  17.155 -11.186  1.00  0.00    -0.206 F 
ATOM     79  C   UNL     1       2.750  15.411 -12.220  1.00  0.00     0.059 A 
ATOM     80  C   UNL     1       2.823  13.220 -11.218  1.00  0.00     0.059 A 
ATOM     81  F   UNL     1       1.601  12.728  -9.350  1.00  0.00    -0.206 F 
ATOM     82  C   UNL     1       3.158  14.081 -12.247  1.00  0.00     0.060 A 
BRANCH  82  83
ATOM     83  S   UNL     1       4.079  13.464 -13.663  1.00  0.00     0.124 S 
ATOM     84  O   UNL     1       3.069  13.521 -14.713  1.00  0.00    -0.237 OA
ATOM     85  O   UNL     1       5.163  14.436 -13.761  1.00  0.00    -0.237 OA
ATOM     86  O   UNL     1       4.481  12.124 -13.245  1.00  0.00    -0.744 OA
ENDBRANCH  82  83
ENDBRANCH  61  75
BRANCH  62  87
ATOM     87  C   UNL     1      -5.334   9.778 -10.673  1.00  0.00     0.058 A 
ATOM     88  C   UNL     1      -5.673   9.511 -12.014  1.00  0.00     0.135 A 
ATOM     89  C   UNL     1      -5.022   8.651  -9.885  1.00  0.00     0.135 A 
ATOM     90  F   UNL     1      -5.965  10.521 -12.848  1.00  0.00    -0.206 F 
ATOM     91  C   UNL     1      -5.656   8.215 -12.550  1.00  0.00     0.059 A 
ATOM     92  C   UNL     1      -5.005   7.352 -10.394  1.00  0.00     0.059 A 
ATOM     93  F   UNL     1      -4.630   8.784  -8.609  1.00  0.00    -0.206 F 
ATOM     94  C   UNL     1      -5.298   7.142 -11.735  1.00  0.00     0.060 A 
BRANCH  94  95
ATOM     95  S   UNL     1      -5.095   5.493 -12.454  1.00  0.00     0.124 S 
ATOM     96  O   UNL     1      -6.472   5.128 -12.770  1.00  0.00    -0.237 OA
ATOM     97  O   UNL     1      -4.227   5.757 -13.596  1.00  0.00    -0.237 OA
ATOM     98  O   UNL     1      -4.480   4.725 -11.373  1.00  0.00    -0.744 OA
ENDBRANCH  94  95
ENDBRANCH  62  87
BRANCH  74  99
ATOM     99  C   UNL     1      -5.197  16.128 -10.462  1.00  0.00     0.058 A 
ATOM    100  C   UNL     1      -6.094  15.670  -9.479  1.00  0.00     0.135 A 
ATOM    101  C   UNL     1      -5.520  17.328 -11.111  1.00  0.00     0.135 A 
ATOM    102  F   UNL     1      -5.810  14.591  -8.737  1.00  0.00    -0.206 F 
ATOM    103  C   UNL     1      -7.277  16.354  -9.186  1.00  0.00     0.059 A 
ATOM    104  C   UNL     1      -6.676  18.044 -10.813  1.00  0.00     0.059 A 
ATOM    105  F   UNL     1      -4.674  17.854 -12.012  1.00  0.00    -0.206 F 
ATOM    106  C   UNL     1      -7.559  17.543  -9.859  1.00  0.00     0.060 A 
BRANCH 106 107
ATOM    107  S   UNL     1      -9.055  18.465  -9.440  1.00  0.00     0.124 S 
ATOM    108  O   UNL     1     -10.104  17.611  -9.986  1.00  0.00    -0.237 OA
ATOM    109  O   UNL     1      -8.987  18.535  -7.983  1.00  0.00    -0.237 OA
ATOM    110  O   UNL     1      -8.871  19.743 -10.124  1.00  0.00    -0.744 OA
ENDBRANCH 106 107
ENDBRANCH  74  99
ENDBRANCH  48  49
ENDBRANCH  41  43
ENDBRANCH  40  41
ENDBRANCH  39  40
ENDBRANCH   1  39
TORSDOF 21
