REMARK SMILES Cc1ccc(Oc2ccc(NC(=O)CCCC(=O)OCCOCCOC(=O)c3ccc(-c4c5nc(c(-c6c(F)cc(S(=O)(=O)[O-])cc6F)c6ccc([nH]6)c(-c6c(F)cc(S(=O)(=O)[O-])cc6F)c6nc(c(-c7c(F)cc(S(=O)(=O)[O-])cc7F)c7ccc4[nH]7)C=C6)C=C5)cc3)cc2)cc1C
REMARK SMILES IDX 20 1 19 2 17 3 18 4 16 5 15 6 14 7 12 8 11 9 13 11 10 12
REMARK SMILES IDX 7 13 8 14 95 15 9 16 94 17 6 18 5 19 1 20 2 21 3 22 97 23
REMARK SMILES IDX 4 24 96 25 98 26 21 27 22 28 23 29 24 30 25 31 26 32 27 33
REMARK SMILES IDX 28 34 29 35 93 36 30 37 92 38 31 39 32 40 33 41 86 42 34 43
REMARK SMILES IDX 91 44 85 45 87 46 35 47 90 48 84 49 83 50 36 52 70 53 49 54
REMARK SMILES IDX 69 55 50 56 53 57 68 58 88 59 51 60 52 61 67 63 89 64 54 65
REMARK SMILES IDX 37 66 38 67 47 68 39 69 40 70 46 71 48 72 41 73 42 74 43 75
REMARK SMILES IDX 44 76 45 77 71 78 72 79 81 80 73 81 74 82 80 83 82 84 75 85
REMARK SMILES IDX 76 86 77 87 78 88 79 89 55 90 56 91 65 92 57 93 58 94 64 95
REMARK SMILES IDX 66 96 59 97 60 98 61 99 62 100 63 101
REMARK H PARENT 11 10 87 51 53 62
REMARK Flexibility Score: inf
ROOT
ATOM      1  C   UNL     1      -5.159  -0.464   2.994  1.00  0.00     0.261 C 
ENDROOT
BRANCH   1   2
ATOM      2  O   UNL     1      -6.319  -0.989   2.319  1.00  0.00    -0.463 OA
BRANCH   2   3
ATOM      3  C   UNL     1      -6.152  -1.643   1.146  1.00  0.00     0.305 C 
ATOM      4  O   UNL     1      -5.085  -2.079   0.736  1.00  0.00    -0.252 OA
BRANCH   3   5
ATOM      5  C   UNL     1      -7.450  -1.793   0.378  1.00  0.00     0.123 C 
BRANCH   5   6
ATOM      6  C   UNL     1      -8.687  -1.090   0.946  1.00  0.00     0.022 C 
BRANCH   6   7
ATOM      7  C   UNL     1      -8.633   0.440   1.071  1.00  0.00     0.101 C 
BRANCH   7   8
ATOM      8  C   UNL     1      -8.944   1.184  -0.214  1.00  0.00     0.224 C 
ATOM      9  N   UNL     1      -8.023   1.415  -1.191  1.00  0.00    -0.326 N 
ATOM     10  H   UNL     1      -8.403   1.836  -1.995  1.00  0.00     0.169 HD
ATOM     11  O   UNL     1     -10.112   1.514  -0.452  1.00  0.00    -0.275 OA
BRANCH   9  12
ATOM     12  C   UNL     1      -6.646   1.177  -1.285  1.00  0.00     0.041 A 
ATOM     13  C   UNL     1      -3.989   0.324  -1.610  1.00  0.00     0.127 A 
ATOM     14  C   UNL     1      -4.445   0.760  -0.370  1.00  0.00     0.049 A 
ATOM     15  C   UNL     1      -4.835   0.407  -2.711  1.00  0.00     0.049 A 
ATOM     16  C   UNL     1      -5.764   1.205  -0.211  1.00  0.00     0.030 A 
ATOM     17  C   UNL     1      -6.148   0.861  -2.555  1.00  0.00     0.030 A 
BRANCH  13  18
ATOM     18  O   UNL     1      -2.780  -0.299  -1.801  1.00  0.00    -0.457 OA
BRANCH  18  19
ATOM     19  C   UNL     1      -1.655   0.156  -1.153  1.00  0.00     0.127 A 
ATOM     20  C   UNL     1       2.160   1.431   0.406  1.00  0.00     0.044 C 
ATOM     21  C   UNL     1       0.826   0.939  -0.084  1.00  0.00    -0.048 A 
ATOM     22  C   UNL     1      -0.195   1.878  -0.306  1.00  0.00     0.007 A 
ATOM     23  C   UNL     1       0.591  -0.418  -0.379  1.00  0.00    -0.045 A 
ATOM     24  C   UNL     1      -1.418   1.494  -0.854  1.00  0.00     0.047 A 
ATOM     25  C   UNL     1      -0.661  -0.795  -0.900  1.00  0.00     0.050 A 
ATOM     26  C   UNL     1       1.615  -1.492  -0.128  1.00  0.00     0.045 C 
ENDBRANCH  18  19
ENDBRANCH  13  18
ENDBRANCH   9  12
ENDBRANCH   7   8
ENDBRANCH   6   7
ENDBRANCH   5   6
ENDBRANCH   3   5
ENDBRANCH   2   3
ENDBRANCH   1   2
BRANCH   1  27
ATOM     27  C   UNL     1      -4.119  -1.469   3.494  1.00  0.00     0.202 C 
BRANCH  27  28
ATOM     28  O   UNL     1      -4.556  -2.326   4.545  1.00  0.00    -0.374 OA
BRANCH  28  29
ATOM     29  C   UNL     1      -5.614  -3.213   4.206  1.00  0.00     0.202 C 
BRANCH  29  30
ATOM     30  C   UNL     1      -6.909  -2.892   4.968  1.00  0.00     0.261 C 
BRANCH  30  31
ATOM     31  O   UNL     1      -7.127  -1.484   5.164  1.00  0.00    -0.460 OA
BRANCH  31  32
ATOM     32  C   UNL     1      -6.482  -0.976   6.247  1.00  0.00     0.338 C 
ATOM     33  O   UNL     1      -5.827  -1.595   7.069  1.00  0.00    -0.246 OA
BRANCH  32  34
ATOM     34  C   UNL     1      -6.612   0.495   6.292  1.00  0.00     0.060 A 
ATOM     35  C   UNL     1      -5.455   1.250   6.522  1.00  0.00     0.016 A 
ATOM     36  C   UNL     1      -7.863   1.116   6.241  1.00  0.00     0.016 A 
ATOM     37  C   UNL     1      -5.555   2.613   6.798  1.00  0.00     0.010 A 
ATOM     38  C   UNL     1      -7.963   2.483   6.524  1.00  0.00     0.010 A 
ATOM     39  C   UNL     1      -6.816   3.222   6.867  1.00  0.00    -0.014 A 
BRANCH  39  40
ATOM     40  C   UNL     1      -6.935   4.553   7.518  1.00  0.00     0.031 A 
ATOM     41  C   UNL     1      -7.327   4.614   8.972  1.00  0.00     0.074 A 
ATOM     42  C   UNL     1      -6.642   5.687   6.856  1.00  0.00     0.049 A 
ATOM     43  N   UNL     1      -7.422   5.650   9.766  1.00  0.00    -0.248 NA
ATOM     44  C   UNL     1      -7.658   3.333   9.616  1.00  0.00     0.031 C 
ATOM     45  C   UNL     1      -6.239   5.765   5.455  1.00  0.00     0.029 A 
ATOM     46  N   UNL     1      -6.639   6.991   7.285  1.00  0.00    -0.354 N 
ATOM     47  C   UNL     1      -7.821   5.147  10.999  1.00  0.00     0.074 A 
ATOM     48  C   UNL     1      -7.992   3.720  10.837  1.00  0.00     0.031 C 
ATOM     49  C   UNL     1      -6.032   7.055   5.135  1.00  0.00     0.029 A 
ATOM     50  C   UNL     1      -6.300   7.892   6.305  1.00  0.00     0.049 A 
ATOM     51  H   UNL     1      -6.859   7.256   8.207  1.00  0.00     0.167 HD
ATOM     52  C   UNL     1      -8.014   5.808  12.167  1.00  0.00     0.037 A 
ATOM     53  C   UNL     1      -6.217   9.237   6.345  1.00  0.00     0.037 A 
ATOM     54  C   UNL     1      -7.849   7.228  12.328  1.00  0.00     0.049 A 
ATOM     55  C   UNL     1      -6.462   9.962   7.642  1.00  0.00     0.074 A 
ATOM     56  C   UNL     1      -7.992   7.987  13.476  1.00  0.00     0.029 A 
ATOM     57  N   UNL     1      -7.519   8.107  11.307  1.00  0.00    -0.354 N 
ATOM     58  N   UNL     1      -6.786   9.467   8.814  1.00  0.00    -0.248 NA
ATOM     59  C   UNL     1      -6.315  11.424   7.628  1.00  0.00     0.031 C 
ATOM     60  C   UNL     1      -7.794   9.331  13.139  1.00  0.00     0.029 A 
ATOM     61  C   UNL     1      -7.479   9.405  11.791  1.00  0.00     0.049 A 
ATOM     62  H   UNL     1      -7.340   7.848  10.374  1.00  0.00     0.167 HD
ATOM     63  C   UNL     1      -6.862  10.554   9.680  1.00  0.00     0.074 A 
ATOM     64  C   UNL     1      -6.541  11.731   8.899  1.00  0.00     0.031 C 
ATOM     65  C   UNL     1      -7.163  10.572  11.004  1.00  0.00     0.037 A 
BRANCH  52  66
ATOM     66  C   UNL     1      -8.458   4.991  13.350  1.00  0.00     0.058 A 
ATOM     67  C   UNL     1      -7.597   4.082  13.987  1.00  0.00     0.135 A 
ATOM     68  C   UNL     1      -9.768   5.106  13.842  1.00  0.00     0.135 A 
ATOM     69  F   UNL     1      -6.338   3.921  13.549  1.00  0.00    -0.206 F 
ATOM     70  C   UNL     1      -8.035   3.279  15.037  1.00  0.00     0.059 A 
ATOM     71  C   UNL     1     -10.218   4.334  14.909  1.00  0.00     0.059 A 
ATOM     72  F   UNL     1     -10.631   5.962  13.273  1.00  0.00    -0.206 F 
ATOM     73  C   UNL     1      -9.351   3.405  15.483  1.00  0.00     0.060 A 
BRANCH  73  74
ATOM     74  S   UNL     1      -9.922   2.329  16.816  1.00  0.00     0.124 S 
ATOM     75  O   UNL     1     -10.093   1.062  16.111  1.00  0.00    -0.237 OA
ATOM     76  O   UNL     1      -8.812   2.383  17.762  1.00  0.00    -0.237 OA
ATOM     77  O   UNL     1     -11.154   2.969  17.265  1.00  0.00    -0.744 OA
ENDBRANCH  73  74
ENDBRANCH  52  66
BRANCH  53  78
ATOM     78  C   UNL     1      -5.868   9.977   5.104  1.00  0.00     0.058 A 
ATOM     79  C   UNL     1      -4.602  10.555   4.930  1.00  0.00     0.135 A 
ATOM     80  C   UNL     1      -6.780  10.065   4.040  1.00  0.00     0.135 A 
ATOM     81  F   UNL     1      -3.702  10.509   5.924  1.00  0.00    -0.206 F 
ATOM     82  C   UNL     1      -4.246  11.181   3.740  1.00  0.00     0.059 A 
ATOM     83  C   UNL     1      -6.440  10.666   2.833  1.00  0.00     0.059 A 
ATOM     84  F   UNL     1      -8.001   9.521   4.156  1.00  0.00    -0.206 F 
ATOM     85  C   UNL     1      -5.168  11.219   2.691  1.00  0.00     0.060 A 
BRANCH  85  86
ATOM     86  S   UNL     1      -4.656  11.930   1.111  1.00  0.00     0.124 S 
ATOM     87  O   UNL     1      -4.652  13.356   1.416  1.00  0.00    -0.237 OA
ATOM     88  O   UNL     1      -3.346  11.316   0.910  1.00  0.00    -0.237 OA
ATOM     89  O   UNL     1      -5.695  11.482   0.190  1.00  0.00    -0.744 OA
ENDBRANCH  85  86
ENDBRANCH  53  78
BRANCH  65  90
ATOM     90  C   UNL     1      -7.141  11.902  11.706  1.00  0.00     0.058 A 
ATOM     91  C   UNL     1      -8.150  12.858  11.511  1.00  0.00     0.135 A 
ATOM     92  C   UNL     1      -6.128  12.201  12.633  1.00  0.00     0.135 A 
ATOM     93  F   UNL     1      -9.141  12.626  10.635  1.00  0.00    -0.206 F 
ATOM     94  C   UNL     1      -8.145  14.071  12.194  1.00  0.00     0.059 A 
ATOM     95  C   UNL     1      -6.116  13.397  13.344  1.00  0.00     0.059 A 
ATOM     96  F   UNL     1      -5.144  11.317  12.867  1.00  0.00    -0.206 F 
ATOM     97  C   UNL     1      -7.123  14.332  13.109  1.00  0.00     0.060 A 
BRANCH  97  98
ATOM     98  S   UNL     1      -7.142  15.896  14.011  1.00  0.00     0.124 S 
ATOM     99  O   UNL     1      -6.700  16.833  12.983  1.00  0.00    -0.237 OA
ATOM    100  O   UNL     1      -8.540  16.010  14.413  1.00  0.00    -0.237 OA
ATOM    101  O   UNL     1      -6.199  15.671  15.102  1.00  0.00    -0.744 OA
ENDBRANCH  97  98
ENDBRANCH  65  90
ENDBRANCH  39  40
ENDBRANCH  32  34
ENDBRANCH  31  32
ENDBRANCH  30  31
ENDBRANCH  29  30
ENDBRANCH  28  29
ENDBRANCH  27  28
ENDBRANCH   1  27
TORSDOF 23
