REMARK SMILES O=C1NC(=S)S/C1=C\c1ccc(OCc2cn(-c3ccc(C(=O)OCCOCCOC(=O)c4ccc(-c5c6nc(c(-c7c(F)cc(S(=O)(=O)[O-])cc7F)c7ccc([nH]7)c(-c7c(F)cc(S(=O)(=O)[O-])cc7F)c7nc(c(-c8c(F)cc(S(=O)(=O)[O-])cc8F)c8ccc5[nH]8)C=C7)C=C6)cc4)cc3)nn2)cc1
REMARK SMILES IDX 26 1 25 2 24 3 22 4 23 5 21 6 18 7 19 8 100 9 20 10 99 11
REMARK SMILES IDX 17 12 15 13 16 14 102 15 101 16 14 17 13 18 12 19 9 20 10 21
REMARK SMILES IDX 104 22 11 23 103 24 8 25 1 26 2 27 3 28 7 29 4 30 6 32 5 33
REMARK SMILES IDX 27 34 28 35 29 36 30 37 31 38 32 39 33 40 34 41 98 42 35 43
REMARK SMILES IDX 97 44 36 45 37 46 38 47 91 48 39 49 96 50 90 51 92 52 40 53
REMARK SMILES IDX 95 54 89 55 88 56 41 58 75 59 54 60 74 61 55 62 58 63 73 64
REMARK SMILES IDX 93 65 56 66 57 67 72 69 94 70 59 71 42 72 43 73 52 74 44 75
REMARK SMILES IDX 45 76 51 77 53 78 46 79 47 80 48 81 49 82 50 83 76 84 77 85
REMARK SMILES IDX 86 86 78 87 79 88 85 89 87 90 80 91 81 92 82 93 83 94 84 95
REMARK SMILES IDX 60 96 61 97 70 98 62 99 63 100 69 101 71 102 64 103 65 104
REMARK SMILES IDX 66 105 67 106 68 107
REMARK H PARENT 3 31 92 57 58 68
REMARK Flexibility Score: inf
ROOT
ATOM      1  C   UNL     1       9.308   9.985  -0.788  1.00  0.00     0.202 C 
ENDROOT
BRANCH   1   2
ATOM      2  C   UNL     1       8.170  10.990  -0.968  1.00  0.00     0.261 C 
BRANCH   2   3
ATOM      3  O   UNL     1       6.881  10.421  -0.690  1.00  0.00    -0.460 OA
BRANCH   3   4
ATOM      4  C   UNL     1       6.115  10.227  -1.785  1.00  0.00     0.338 C 
ATOM      5  O   UNL     1       6.385  10.529  -2.942  1.00  0.00    -0.246 OA
BRANCH   4   6
ATOM      6  C   UNL     1       4.925   9.428  -1.447  1.00  0.00     0.060 A 
ATOM      7  C   UNL     1       2.513   8.083  -1.130  1.00  0.00     0.066 A 
ATOM      8  C   UNL     1       3.406   7.682  -2.135  1.00  0.00     0.029 A 
ATOM      9  C   UNL     1       2.878   9.083  -0.217  1.00  0.00     0.029 A 
ATOM     10  C   UNL     1       4.595   8.379  -2.312  1.00  0.00     0.018 A 
ATOM     11  C   UNL     1       4.102   9.744  -0.363  1.00  0.00     0.018 A 
BRANCH   7  12
ATOM     12  N   UNL     1       1.207   7.541  -1.144  1.00  0.00    -0.220 N 
ATOM     13  C   UNL     1      -0.964   7.308  -1.164  1.00  0.00     0.120 A 
ATOM     14  C   UNL     1       0.046   8.100  -0.656  1.00  0.00     0.144 A 
ATOM     15  N   UNL     1      -0.400   6.296  -1.893  1.00  0.00    -0.131 NA
ATOM     16  N   UNL     1       0.911   6.441  -1.871  1.00  0.00    -0.062 NA
BRANCH  13  17
ATOM     17  C   UNL     1      -2.446   7.476  -1.130  1.00  0.00     0.289 C 
BRANCH  17  18
ATOM     18  O   UNL     1      -3.130   6.734  -0.109  1.00  0.00    -0.487 OA
BRANCH  18  19
ATOM     19  C   UNL     1      -3.126   5.369  -0.193  1.00  0.00     0.119 A 
ATOM     20  C   UNL     1      -2.906   2.575  -0.019  1.00  0.00    -0.024 A 
ATOM     21  C   UNL     1      -3.367   3.311   1.075  1.00  0.00     0.012 A 
ATOM     22  C   UNL     1      -2.647   3.233  -1.224  1.00  0.00     0.012 A 
ATOM     23  C   UNL     1      -3.473   4.703   0.985  1.00  0.00     0.047 A 
ATOM     24  C   UNL     1      -2.780   4.619  -1.316  1.00  0.00     0.047 A 
BRANCH  20  25
ATOM     25  C   UNL     1      -2.671   1.134   0.093  1.00  0.00     0.029 C 
ATOM     26  O   UNL     1      -2.197  -1.738   0.130  1.00  0.00    -0.268 OA
ATOM     27  C   UNL     1      -1.291  -0.919   0.128  1.00  0.00     0.263 C 
ATOM     28  N   UNL     1       0.040  -1.230   0.102  1.00  0.00    -0.307 N 
ATOM     29  C   UNL     1      -1.461   0.557   0.085  1.00  0.00     0.080 C 
ATOM     30  C   UNL     1       0.936  -0.208   0.016  1.00  0.00     0.145 C 
ATOM     31  H   UNL     1       0.342  -2.166   0.145  1.00  0.00     0.171 HD
ATOM     32  S   UNL     1       0.088   1.319  -0.002  1.00  0.00    -0.055 SA
ATOM     33  S   UNL     1       2.572  -0.434  -0.095  1.00  0.00    -0.052 S 
ENDBRANCH  20  25
ENDBRANCH  18  19
ENDBRANCH  17  18
ENDBRANCH  13  17
ENDBRANCH   7  12
ENDBRANCH   4   6
ENDBRANCH   3   4
ENDBRANCH   2   3
ENDBRANCH   1   2
BRANCH   1  34
ATOM     34  O   UNL     1       9.355   8.847  -1.649  1.00  0.00    -0.374 OA
BRANCH  34  35
ATOM     35  C   UNL     1       8.389   7.809  -1.517  1.00  0.00     0.202 C 
BRANCH  35  36
ATOM     36  C   UNL     1       8.437   6.908  -0.293  1.00  0.00     0.261 C 
BRANCH  36  37
ATOM     37  O   UNL     1       8.293   7.644   0.909  1.00  0.00    -0.460 OA
BRANCH  37  38
ATOM     38  C   UNL     1       9.455   7.875   1.549  1.00  0.00     0.338 C 
ATOM     39  O   UNL     1      10.592   7.750   1.092  1.00  0.00    -0.246 OA
BRANCH  38  40
ATOM     40  C   UNL     1       9.167   8.165   2.949  1.00  0.00     0.060 A 
ATOM     41  C   UNL     1      10.275   8.198   3.797  1.00  0.00     0.016 A 
ATOM     42  C   UNL     1       7.854   8.023   3.426  1.00  0.00     0.016 A 
ATOM     43  C   UNL     1      10.095   7.800   5.096  1.00  0.00     0.010 A 
ATOM     44  C   UNL     1       7.680   7.606   4.718  1.00  0.00     0.010 A 
ATOM     45  C   UNL     1       8.816   7.405   5.497  1.00  0.00    -0.014 A 
BRANCH  45  46
ATOM     46  C   UNL     1       8.677   6.847   6.819  1.00  0.00     0.031 A 
ATOM     47  C   UNL     1       8.758   7.890   7.861  1.00  0.00     0.074 A 
ATOM     48  C   UNL     1       8.402   5.544   7.011  1.00  0.00     0.049 A 
ATOM     49  N   UNL     1       9.708   8.086   8.713  1.00  0.00    -0.248 NA
ATOM     50  C   UNL     1       7.778   8.989   7.788  1.00  0.00     0.031 C 
ATOM     51  C   UNL     1       8.040   4.536   6.010  1.00  0.00     0.029 A 
ATOM     52  N   UNL     1       8.280   4.867   8.180  1.00  0.00    -0.354 N 
ATOM     53  C   UNL     1       9.297   9.185   9.457  1.00  0.00     0.074 A 
ATOM     54  C   UNL     1       8.268   9.835   8.693  1.00  0.00     0.031 C 
ATOM     55  C   UNL     1       7.511   3.460   6.637  1.00  0.00     0.029 A 
ATOM     56  C   UNL     1       7.609   3.654   8.073  1.00  0.00     0.049 A 
ATOM     57  H   UNL     1       8.636   5.206   9.033  1.00  0.00     0.167 HD
ATOM     58  C   UNL     1       9.601   9.283  10.778  1.00  0.00     0.037 A 
ATOM     59  C   UNL     1       7.087   2.950   9.111  1.00  0.00     0.037 A 
ATOM     60  C   UNL     1      10.715   8.433  11.120  1.00  0.00     0.049 A 
ATOM     61  C   UNL     1       7.762   3.443  10.348  1.00  0.00     0.074 A 
ATOM     62  C   UNL     1      12.021   8.332  10.678  1.00  0.00     0.029 A 
ATOM     63  N   UNL     1      10.442   7.250  11.763  1.00  0.00    -0.354 N 
ATOM     64  N   UNL     1       9.032   3.270  10.600  1.00  0.00    -0.248 NA
ATOM     65  C   UNL     1       7.135   4.547  11.063  1.00  0.00     0.031 C 
ATOM     66  C   UNL     1      12.300   6.935  10.662  1.00  0.00     0.029 A 
ATOM     67  C   UNL     1      11.180   6.265  11.156  1.00  0.00     0.049 A 
ATOM     68  H   UNL     1       9.828   7.130  12.523  1.00  0.00     0.167 HD
ATOM     69  C   UNL     1       9.456   4.468  11.161  1.00  0.00     0.074 A 
ATOM     70  C   UNL     1       8.228   5.190  11.484  1.00  0.00     0.031 C 
ATOM     71  C   UNL     1      10.752   4.887  11.044  1.00  0.00     0.037 A 
BRANCH  58  72
ATOM     72  C   UNL     1       8.632   9.819  11.804  1.00  0.00     0.058 A 
ATOM     73  C   UNL     1       9.080  10.025  13.122  1.00  0.00     0.135 A 
ATOM     74  C   UNL     1       7.229   9.875  11.623  1.00  0.00     0.135 A 
ATOM     75  F   UNL     1      10.391   9.984  13.412  1.00  0.00    -0.206 F 
ATOM     76  C   UNL     1       8.199  10.198  14.189  1.00  0.00     0.059 A 
ATOM     77  C   UNL     1       6.338  10.105  12.660  1.00  0.00     0.059 A 
ATOM     78  F   UNL     1       6.636   9.609  10.454  1.00  0.00    -0.206 F 
ATOM     79  C   UNL     1       6.828  10.221  13.947  1.00  0.00     0.060 A 
BRANCH  79  80
ATOM     80  S   UNL     1       5.681  10.336  15.327  1.00  0.00     0.124 S 
ATOM     81  O   UNL     1       5.863   9.036  15.961  1.00  0.00    -0.237 OA
ATOM     82  O   UNL     1       6.203  11.487  16.056  1.00  0.00    -0.237 OA
ATOM     83  O   UNL     1       4.392  10.547  14.674  1.00  0.00    -0.744 OA
ENDBRANCH  79  80
ENDBRANCH  58  72
BRANCH  59  84
ATOM     84  C   UNL     1       5.794   2.211   9.142  1.00  0.00     0.058 A 
ATOM     85  C   UNL     1       5.464   1.360  10.213  1.00  0.00     0.135 A 
ATOM     86  C   UNL     1       4.737   2.531   8.264  1.00  0.00     0.135 A 
ATOM     87  F   UNL     1       6.398   1.020  11.114  1.00  0.00    -0.206 F 
ATOM     88  C   UNL     1       4.160   0.894  10.426  1.00  0.00     0.059 A 
ATOM     89  C   UNL     1       3.435   2.069   8.447  1.00  0.00     0.059 A 
ATOM     90  F   UNL     1       4.914   3.385   7.245  1.00  0.00    -0.206 F 
ATOM     91  C   UNL     1       3.146   1.271   9.545  1.00  0.00     0.060 A 
BRANCH  91  92
ATOM     92  S   UNL     1       1.431   0.819   9.904  1.00  0.00     0.124 S 
ATOM     93  O   UNL     1       1.445  -0.622   9.679  1.00  0.00    -0.237 OA
ATOM     94  O   UNL     1       1.283   1.248  11.291  1.00  0.00    -0.237 OA
ATOM     95  O   UNL     1       0.666   1.595   8.931  1.00  0.00    -0.744 OA
ENDBRANCH  91  92
ENDBRANCH  59  84
BRANCH  71  96
ATOM     96  C   UNL     1      11.781   3.901  10.554  1.00  0.00     0.058 A 
ATOM     97  C   UNL     1      11.793   3.330   9.268  1.00  0.00     0.135 A 
ATOM     98  C   UNL     1      12.893   3.652  11.373  1.00  0.00     0.135 A 
ATOM     99  F   UNL     1      10.821   3.602   8.385  1.00  0.00    -0.206 F 
ATOM    100  C   UNL     1      12.843   2.517   8.834  1.00  0.00     0.059 A 
ATOM    101  C   UNL     1      13.964   2.872  10.950  1.00  0.00     0.059 A 
ATOM    102  F   UNL     1      12.972   4.220  12.588  1.00  0.00    -0.206 F 
ATOM    103  C   UNL     1      13.927   2.296   9.683  1.00  0.00     0.060 A 
BRANCH 103 104
ATOM    104  S   UNL     1      15.321   1.306   9.099  1.00  0.00     0.124 S 
ATOM    105  O   UNL     1      14.754  -0.038   9.073  1.00  0.00    -0.237 OA
ATOM    106  O   UNL     1      15.608   1.899   7.796  1.00  0.00    -0.237 OA
ATOM    107  O   UNL     1      16.348   1.530  10.115  1.00  0.00    -0.744 OA
ENDBRANCH 103 104
ENDBRANCH  71  96
ENDBRANCH  45  46
ENDBRANCH  38  40
ENDBRANCH  37  38
ENDBRANCH  36  37
ENDBRANCH  35  36
ENDBRANCH  34  35
ENDBRANCH   1  34
TORSDOF 22
