REMARK SMILES COc1cc(OC)cc(C(=O)C[C@H](C)CC(=O)OCCOCCOC(=O)c2ccc(-c3c4nc(c(-c5c(F)cc(S(=O)(=O)[O-])cc5F)c5ccc([nH]5)c(-c5c(F)cc(S(=O)(=O)[O-])cc5F)c5nc(c(-c6c(F)cc(S(=O)(=O)[O-])cc6F)c6ccc3[nH]6)C=C5)C=C4)cc2)c1
REMARK SMILES IDX 20 1 19 2 18 3 16 4 17 5 15 6 13 7 14 8 12 9 10 10 11 11
REMARK SMILES IDX 9 12 3 13 4 14 93 15 5 16 8 17 2 18 1 19 6 20 7 21 21 22
REMARK SMILES IDX 22 23 23 24 24 25 25 26 26 27 27 28 28 29 92 30 29 31 91 32
REMARK SMILES IDX 30 33 31 34 32 35 85 36 33 37 90 38 84 39 86 40 34 41 89 42
REMARK SMILES IDX 83 43 82 44 35 46 69 47 48 48 68 49 49 50 52 51 67 52 87 53
REMARK SMILES IDX 50 54 51 55 66 57 88 58 53 59 36 60 37 61 46 62 38 63 39 64
REMARK SMILES IDX 45 65 47 66 40 67 41 68 42 69 43 70 44 71 70 72 71 73 80 74
REMARK SMILES IDX 72 75 73 76 79 77 81 78 74 79 75 80 76 81 77 82 78 83 54 84
REMARK SMILES IDX 55 85 64 86 56 87 57 88 63 89 65 90 58 91 59 92 60 93 61 94
REMARK SMILES IDX 62 95
REMARK H PARENT 86 45 52 56
REMARK Flexibility Score: inf
ROOT
ATOM      1  C   UNL     1       9.173  -3.698  -3.403  1.00  0.00     0.202 C 
ENDROOT
BRANCH   1   2
ATOM      2  C   UNL     1       9.203  -2.872  -2.118  1.00  0.00     0.261 C 
BRANCH   2   3
ATOM      3  O   UNL     1       7.880  -2.668  -1.596  1.00  0.00    -0.463 OA
BRANCH   3   4
ATOM      4  C   UNL     1       7.376  -1.430  -1.789  1.00  0.00     0.306 C 
ATOM      5  O   UNL     1       7.972  -0.494  -2.311  1.00  0.00    -0.252 OA
BRANCH   4   6
ATOM      6  C   UNL     1       5.998  -1.272  -1.205  1.00  0.00     0.126 C 
BRANCH   6   7
ATOM      7  C   UNL     1       4.814  -2.152  -1.628  1.00  0.00     0.005 C 
ATOM      8  C   UNL     1       4.951  -3.580  -1.077  1.00  0.00     0.009 C 
BRANCH   7   9
ATOM      9  C   UNL     1       3.448  -1.598  -1.120  1.00  0.00     0.085 C 
BRANCH   9  10
ATOM     10  C   UNL     1       3.147  -0.123  -1.382  1.00  0.00     0.163 C 
ATOM     11  O   UNL     1       2.396   0.215  -2.296  1.00  0.00    -0.294 OA
BRANCH  10  12
ATOM     12  C   UNL     1       3.823   0.937  -0.561  1.00  0.00     0.025 A 
ATOM     13  C   UNL     1       5.413   1.545   1.148  1.00  0.00     0.123 A 
ATOM     14  C   UNL     1       5.548   2.810   0.588  1.00  0.00     0.092 A 
ATOM     15  C   UNL     1       4.490   0.636   0.633  1.00  0.00     0.058 A 
ATOM     16  C   UNL     1       4.780   3.166  -0.520  1.00  0.00     0.123 A 
ATOM     17  C   UNL     1       3.945   2.220  -1.119  1.00  0.00     0.058 A 
BRANCH  13  18
ATOM     18  O   UNL     1       6.205   1.226   2.218  1.00  0.00    -0.497 OA
ATOM     19  C   UNL     1       7.197   0.257   1.864  1.00  0.00     0.278 C 
ENDBRANCH  13  18
BRANCH  16  20
ATOM     20  O   UNL     1       4.973   4.439  -0.983  1.00  0.00    -0.497 OA
ATOM     21  C   UNL     1       3.841   5.021  -1.622  1.00  0.00     0.278 C 
ENDBRANCH  16  20
ENDBRANCH  10  12
ENDBRANCH   9  10
ENDBRANCH   7   9
ENDBRANCH   6   7
ENDBRANCH   4   6
ENDBRANCH   3   4
ENDBRANCH   2   3
ENDBRANCH   1   2
BRANCH   1  22
ATOM     22  O   UNL     1       8.613  -3.074  -4.558  1.00  0.00    -0.374 OA
BRANCH  22  23
ATOM     23  C   UNL     1       7.193  -2.982  -4.652  1.00  0.00     0.202 C 
BRANCH  23  24
ATOM     24  C   UNL     1       6.428  -4.262  -5.000  1.00  0.00     0.261 C 
BRANCH  24  25
ATOM     25  O   UNL     1       6.524  -5.254  -3.962  1.00  0.00    -0.460 OA
BRANCH  25  26
ATOM     26  C   UNL     1       7.249  -6.345  -4.303  1.00  0.00     0.338 C 
ATOM     27  O   UNL     1       7.736  -6.587  -5.403  1.00  0.00    -0.246 OA
BRANCH  26  28
ATOM     28  C   UNL     1       7.568  -7.160  -3.118  1.00  0.00     0.060 A 
ATOM     29  C   UNL     1       8.914  -7.495  -2.928  1.00  0.00     0.016 A 
ATOM     30  C   UNL     1       6.582  -7.678  -2.275  1.00  0.00     0.016 A 
ATOM     31  C   UNL     1       9.272  -8.413  -1.947  1.00  0.00     0.010 A 
ATOM     32  C   UNL     1       6.945  -8.608  -1.290  1.00  0.00     0.010 A 
ATOM     33  C   UNL     1       8.284  -9.017  -1.159  1.00  0.00    -0.014 A 
BRANCH  33  34
ATOM     34  C   UNL     1       8.669 -10.189  -0.332  1.00  0.00     0.031 A 
ATOM     35  C   UNL     1       8.393 -11.576  -0.855  1.00  0.00     0.074 A 
ATOM     36  C   UNL     1       9.343 -10.021   0.820  1.00  0.00     0.049 A 
ATOM     37  N   UNL     1       8.727 -12.733  -0.346  1.00  0.00    -0.248 NA
ATOM     38  C   UNL     1       7.646 -11.672  -2.121  1.00  0.00     0.031 C 
ATOM     39  C   UNL     1       9.683  -8.731   1.420  1.00  0.00     0.029 A 
ATOM     40  N   UNL     1       9.873 -10.943   1.687  1.00  0.00    -0.354 N 
ATOM     41  C   UNL     1       8.229 -13.693  -1.221  1.00  0.00     0.074 A 
ATOM     42  C   UNL     1       7.545 -12.985  -2.281  1.00  0.00     0.031 C 
ATOM     43  C   UNL     1      10.361  -8.944   2.561  1.00  0.00     0.029 A 
ATOM     44  C   UNL     1      10.492 -10.384   2.779  1.00  0.00     0.049 A 
ATOM     45  H   UNL     1       9.814 -11.915   1.541  1.00  0.00     0.167 HD
ATOM     46  C   UNL     1       8.341 -15.040  -1.153  1.00  0.00     0.037 A 
ATOM     47  C   UNL     1      11.091 -10.967   3.836  1.00  0.00     0.037 A 
ATOM     48  C   UNL     1       9.046 -15.742  -0.112  1.00  0.00     0.049 A 
ATOM     49  C   UNL     1      11.195 -12.470   3.888  1.00  0.00     0.074 A 
ATOM     50  C   UNL     1       9.258 -17.105   0.014  1.00  0.00     0.029 A 
ATOM     51  N   UNL     1       9.650 -15.142   0.981  1.00  0.00    -0.354 N 
ATOM     52  N   UNL     1      10.764 -13.358   3.023  1.00  0.00    -0.248 NA
ATOM     53  C   UNL     1      11.881 -13.049   5.051  1.00  0.00     0.031 C 
ATOM     54  C   UNL     1       9.950 -17.331   1.208  1.00  0.00     0.029 A 
ATOM     55  C   UNL     1      10.212 -16.107   1.800  1.00  0.00     0.049 A 
ATOM     56  H   UNL     1       9.676 -14.172   1.150  1.00  0.00     0.167 HD
ATOM     57  C   UNL     1      11.147 -14.597   3.529  1.00  0.00     0.074 A 
ATOM     58  C   UNL     1      11.864 -14.341   4.760  1.00  0.00     0.031 C 
ATOM     59  C   UNL     1      10.924 -15.836   3.022  1.00  0.00     0.037 A 
BRANCH  46  60
ATOM     60  C   UNL     1       7.679 -15.861  -2.224  1.00  0.00     0.058 A 
ATOM     61  C   UNL     1       8.216 -15.961  -3.517  1.00  0.00     0.135 A 
ATOM     62  C   UNL     1       6.541 -16.626  -1.925  1.00  0.00     0.135 A 
ATOM     63  F   UNL     1       9.291 -15.234  -3.862  1.00  0.00    -0.206 F 
ATOM     64  C   UNL     1       7.646 -16.793  -4.476  1.00  0.00     0.059 A 
ATOM     65  C   UNL     1       5.968 -17.481  -2.861  1.00  0.00     0.059 A 
ATOM     66  F   UNL     1       5.985 -16.560  -0.705  1.00  0.00    -0.206 F 
ATOM     67  C   UNL     1       6.528 -17.556  -4.136  1.00  0.00     0.060 A 
BRANCH  67  68
ATOM     68  S   UNL     1       5.835 -18.675  -5.372  1.00  0.00     0.124 S 
ATOM     69  O   UNL     1       5.196 -17.736  -6.289  1.00  0.00    -0.237 OA
ATOM     70  O   UNL     1       7.024 -19.350  -5.883  1.00  0.00    -0.237 OA
ATOM     71  O   UNL     1       4.924 -19.514  -4.600  1.00  0.00    -0.744 OA
ENDBRANCH  67  68
ENDBRANCH  46  60
BRANCH  47  72
ATOM     72  C   UNL     1      11.624 -10.136   4.949  1.00  0.00     0.058 A 
ATOM     73  C   UNL     1      13.000 -10.045   5.204  1.00  0.00     0.135 A 
ATOM     74  C   UNL     1      10.754  -9.445   5.806  1.00  0.00     0.135 A 
ATOM     75  F   UNL     1      13.873 -10.693   4.417  1.00  0.00    -0.206 F 
ATOM     76  C   UNL     1      13.494  -9.329   6.290  1.00  0.00     0.059 A 
ATOM     77  C   UNL     1      11.225  -8.700   6.881  1.00  0.00     0.059 A 
ATOM     78  F   UNL     1       9.429  -9.485   5.596  1.00  0.00    -0.206 F 
ATOM     79  C   UNL     1      12.597  -8.664   7.127  1.00  0.00     0.060 A 
BRANCH  79  80
ATOM     80  S   UNL     1      13.241  -7.723   8.527  1.00  0.00     0.124 S 
ATOM     81  O   UNL     1      13.557  -8.786   9.473  1.00  0.00    -0.237 OA
ATOM     82  O   UNL     1      14.382  -7.032   7.936  1.00  0.00    -0.237 OA
ATOM     83  O   UNL     1      12.120  -6.862   8.893  1.00  0.00    -0.744 OA
ENDBRANCH  79  80
ENDBRANCH  47  72
BRANCH  59  84
ATOM     84  C   UNL     1      11.488 -17.002   3.787  1.00  0.00     0.058 A 
ATOM     85  C   UNL     1      10.947 -17.407   5.018  1.00  0.00     0.135 A 
ATOM     86  C   UNL     1      12.577 -17.728   3.279  1.00  0.00     0.135 A 
ATOM     87  F   UNL     1       9.906 -16.746   5.549  1.00  0.00    -0.206 F 
ATOM     88  C   UNL     1      11.496 -18.461   5.741  1.00  0.00     0.059 A 
ATOM     89  C   UNL     1      13.123 -18.804   3.970  1.00  0.00     0.059 A 
ATOM     90  F   UNL     1      13.121 -17.394   2.098  1.00  0.00    -0.206 F 
ATOM     91  C   UNL     1      12.591 -19.148   5.212  1.00  0.00     0.060 A 
BRANCH  91  92
ATOM     92  S   UNL     1      13.307 -20.504   6.164  1.00  0.00     0.124 S 
ATOM     93  O   UNL     1      14.071 -19.780   7.174  1.00  0.00    -0.237 OA
ATOM     94  O   UNL     1      12.125 -21.210   6.648  1.00  0.00    -0.237 OA
ATOM     95  O   UNL     1      14.101 -21.229   5.176  1.00  0.00    -0.744 OA
ENDBRANCH  91  92
ENDBRANCH  59  84
ENDBRANCH  33  34
ENDBRANCH  26  28
ENDBRANCH  25  26
ENDBRANCH  24  25
ENDBRANCH  23  24
ENDBRANCH  22  23
ENDBRANCH   1  22
TORSDOF 23
