REMARK SMILES O=C(COc1ccc(Br)cc1/C=C1\NC(=O)N(Cc2ccc(F)cc2)C1=O)OCCOCCOC(=O)c1ccc(-c2c3nc(c(-c4c(F)cc(S(=O)(=O)[O-])cc4F)c4ccc([nH]4)c(-c4c(F)cc(S(=O)(=O)[O-])cc4F)c4nc(c(-c5c(F)cc(S(=O)(=O)[O-])cc5F)c5ccc2[nH]5)C=C4)C=C3)cc1
REMARK SMILES IDX 30 1 29 2 28 3 2 4 1 5 3 6 4 7 5 8 6 9 11 10 7 11 10 12 8 13
REMARK SMILES IDX 9 14 12 15 13 16 14 17 26 18 15 19 17 21 27 22 16 23 18 24
REMARK SMILES IDX 19 25 20 26 25 27 21 28 24 29 22 30 23 31 31 32 32 33 33 34
REMARK SMILES IDX 34 35 35 36 36 37 37 38 38 39 102 40 39 41 101 42 40 43
REMARK SMILES IDX 41 44 42 45 95 46 43 47 100 48 94 49 96 50 44 51 99 52 93 53
REMARK SMILES IDX 92 54 45 56 79 57 58 58 78 59 59 60 62 61 77 62 97 63 60 64
REMARK SMILES IDX 61 65 76 67 98 68 63 69 46 70 47 71 56 72 48 73 49 74 55 75
REMARK SMILES IDX 57 76 50 77 51 78 52 79 53 80 54 81 80 82 81 83 90 84 82 85
REMARK SMILES IDX 83 86 89 87 91 88 84 89 85 90 86 91 87 92 88 93 64 94 65 95
REMARK SMILES IDX 74 96 66 97 67 98 73 99 75 100 68 101 69 102 70 103 71 104
REMARK SMILES IDX 72 105
REMARK H PARENT 14 20 96 55 62 66
REMARK Flexibility Score: inf
ROOT
ATOM      1  C   UNL     1       4.883  -0.123  -1.114  1.00  0.00     0.202 C 
ENDROOT
BRANCH   1   2
ATOM      2  C   UNL     1       4.246  -0.780   0.110  1.00  0.00     0.261 C 
BRANCH   2   3
ATOM      3  O   UNL     1       2.818  -0.918   0.033  1.00  0.00    -0.461 OA
BRANCH   3   4
ATOM      4  C   UNL     1       1.937   0.034   0.418  1.00  0.00     0.344 C 
ATOM      5  O   UNL     1       0.728  -0.152   0.281  1.00  0.00    -0.248 OA
BRANCH   4   6
ATOM      6  C   UNL     1       2.454   1.361   0.952  1.00  0.00     0.351 C 
BRANCH   6   7
ATOM      7  O   UNL     1       3.507   1.331   1.895  1.00  0.00    -0.481 OA
BRANCH   7   8
ATOM      8  C   UNL     1       3.077   1.178   3.182  1.00  0.00     0.127 A 
ATOM      9  C   UNL     1       2.250   0.119   3.565  1.00  0.00     0.048 A 
ATOM     10  C   UNL     1       3.560   2.093   4.128  1.00  0.00     0.020 A 
ATOM     11  C   UNL     1       1.817   0.021   4.882  1.00  0.00     0.019 A 
ATOM     12  C   UNL     1       3.121   1.988   5.451  1.00  0.00     0.027 A 
ATOM     13  C   UNL     1       2.236   0.968   5.813  1.00  0.00     0.018 A 
ATOM     14  Br  UNL     1       1.611   0.854   7.593  1.00  0.00    -0.051 Br
BRANCH  10  15
ATOM     15  C   UNL     1       4.575   3.091   3.765  1.00  0.00     0.044 C 
ATOM     16  C   UNL     1       4.428   4.085   2.885  1.00  0.00     0.109 C 
ATOM     17  N   UNL     1       3.317   4.480   2.203  1.00  0.00    -0.303 N 
ATOM     18  C   UNL     1       5.523   5.019   2.495  1.00  0.00     0.278 C 
ATOM     19  C   UNL     1       3.595   5.625   1.471  1.00  0.00     0.329 C 
ATOM     20  H   UNL     1       2.446   4.021   2.227  1.00  0.00     0.172 HD
ATOM     21  N   UNL     1       4.913   5.956   1.700  1.00  0.00    -0.254 N 
ATOM     22  O   UNL     1       6.693   4.930   2.830  1.00  0.00    -0.267 OA
ATOM     23  O   UNL     1       2.789   6.217   0.771  1.00  0.00    -0.248 OA
BRANCH  21  24
ATOM     24  C   UNL     1       5.558   7.158   1.221  1.00  0.00     0.166 C 
BRANCH  24  25
ATOM     25  C   UNL     1       5.649   8.188   2.333  1.00  0.00    -0.028 A 
ATOM     26  C   UNL     1       6.602   8.036   3.357  1.00  0.00     0.008 A 
ATOM     27  C   UNL     1       4.740   9.254   2.409  1.00  0.00     0.008 A 
ATOM     28  C   UNL     1       6.621   8.899   4.451  1.00  0.00     0.039 A 
ATOM     29  C   UNL     1       4.778  10.134   3.494  1.00  0.00     0.039 A 
ATOM     30  C   UNL     1       5.708   9.941   4.510  1.00  0.00     0.123 A 
ATOM     31  F   UNL     1       5.718  10.766   5.565  1.00  0.00    -0.207 F 
ENDBRANCH  24  25
ENDBRANCH  21  24
ENDBRANCH  10  15
ENDBRANCH   7   8
ENDBRANCH   6   7
ENDBRANCH   4   6
ENDBRANCH   3   4
ENDBRANCH   2   3
ENDBRANCH   1   2
BRANCH   1  32
ATOM     32  O   UNL     1       4.327   1.088  -1.612  1.00  0.00    -0.374 OA
BRANCH  32  33
ATOM     33  C   UNL     1       3.139   1.026  -2.407  1.00  0.00     0.202 C 
BRANCH  33  34
ATOM     34  C   UNL     1       3.187   0.418  -3.811  1.00  0.00     0.261 C 
BRANCH  34  35
ATOM     35  O   UNL     1       3.505  -0.978  -3.797  1.00  0.00    -0.460 OA
BRANCH  35  36
ATOM     36  C   UNL     1       4.770  -1.265  -4.188  1.00  0.00     0.338 C 
ATOM     37  O   UNL     1       5.618  -0.478  -4.572  1.00  0.00    -0.246 OA
BRANCH  36  38
ATOM     38  C   UNL     1       5.066  -2.670  -3.859  1.00  0.00     0.060 A 
ATOM     39  C   UNL     1       6.249  -2.938  -3.156  1.00  0.00     0.016 A 
ATOM     40  C   UNL     1       4.223  -3.704  -4.267  1.00  0.00     0.016 A 
ATOM     41  C   UNL     1       6.631  -4.253  -2.920  1.00  0.00     0.010 A 
ATOM     42  C   UNL     1       4.612  -5.023  -4.039  1.00  0.00     0.010 A 
ATOM     43  C   UNL     1       5.838  -5.298  -3.408  1.00  0.00    -0.014 A 
BRANCH  43  44
ATOM     44  C   UNL     1       6.377  -6.674  -3.424  1.00  0.00     0.031 A 
ATOM     45  C   UNL     1       6.932  -7.205  -4.716  1.00  0.00     0.074 A 
ATOM     46  C   UNL     1       6.387  -7.417  -2.304  1.00  0.00     0.049 A 
ATOM     47  N   UNL     1       7.385  -8.398  -4.992  1.00  0.00    -0.248 NA
ATOM     48  C   UNL     1       6.978  -6.266  -5.851  1.00  0.00     0.031 C 
ATOM     49  C   UNL     1       5.917  -6.971  -0.993  1.00  0.00     0.029 A 
ATOM     50  N   UNL     1       6.802  -8.706  -2.096  1.00  0.00    -0.354 N 
ATOM     51  C   UNL     1       7.761  -8.357  -6.329  1.00  0.00     0.074 A 
ATOM     52  C   UNL     1       7.454  -7.034  -6.821  1.00  0.00     0.031 C 
ATOM     53  C   UNL     1       6.062  -7.978  -0.115  1.00  0.00     0.029 A 
ATOM     54  C   UNL     1       6.596  -9.147  -0.811  1.00  0.00     0.049 A 
ATOM     55  H   UNL     1       7.209  -9.262  -2.799  1.00  0.00     0.167 HD
ATOM     56  C   UNL     1       8.323  -9.338  -7.072  1.00  0.00     0.037 A 
ATOM     57  C   UNL     1       6.793 -10.366  -0.271  1.00  0.00     0.037 A 
ATOM     58  C   UNL     1       8.630 -10.647  -6.560  1.00  0.00     0.049 A 
ATOM     59  C   UNL     1       7.351 -11.464  -1.139  1.00  0.00     0.074 A 
ATOM     60  C   UNL     1       9.213 -11.712  -7.221  1.00  0.00     0.029 A 
ATOM     61  N   UNL     1       8.377 -11.069  -5.262  1.00  0.00    -0.354 N 
ATOM     62  N   UNL     1       7.710 -11.414  -2.401  1.00  0.00    -0.248 NA
ATOM     63  C   UNL     1       7.529 -12.781  -0.516  1.00  0.00     0.031 C 
ATOM     64  C   UNL     1       9.261 -12.796  -6.341  1.00  0.00     0.029 A 
ATOM     65  C   UNL     1       8.767 -12.388  -5.111  1.00  0.00     0.049 A 
ATOM     66  H   UNL     1       7.978 -10.513  -4.554  1.00  0.00     0.167 HD
ATOM     67  C   UNL     1       8.179 -12.685  -2.715  1.00  0.00     0.074 A 
ATOM     68  C   UNL     1       8.071 -13.477  -1.507  1.00  0.00     0.031 C 
ATOM     69  C   UNL     1       8.656 -13.155  -3.895  1.00  0.00     0.037 A 
BRANCH  56  70
ATOM     70  C   UNL     1       8.638  -9.046  -8.513  1.00  0.00     0.058 A 
ATOM     71  C   UNL     1       7.928  -9.690  -9.539  1.00  0.00     0.135 A 
ATOM     72  C   UNL     1       9.692  -8.194  -8.881  1.00  0.00     0.135 A 
ATOM     73  F   UNL     1       6.903 -10.504  -9.245  1.00  0.00    -0.206 F 
ATOM     74  C   UNL     1       8.272  -9.524 -10.877  1.00  0.00     0.059 A 
ATOM     75  C   UNL     1      10.035  -7.992 -10.214  1.00  0.00     0.059 A 
ATOM     76  F   UNL     1      10.384  -7.532  -7.940  1.00  0.00    -0.206 F 
ATOM     77  C   UNL     1       9.331  -8.677 -11.204  1.00  0.00     0.060 A 
BRANCH  77  78
ATOM     78  S   UNL     1       9.764  -8.476 -12.945  1.00  0.00     0.124 S 
ATOM     79  O   UNL     1      10.274  -9.800 -13.283  1.00  0.00    -0.237 OA
ATOM     80  O   UNL     1       8.479  -8.117 -13.538  1.00  0.00    -0.237 OA
ATOM     81  O   UNL     1      10.757  -7.406 -12.926  1.00  0.00    -0.744 OA
ENDBRANCH  77  78
ENDBRANCH  56  70
BRANCH  57  82
ATOM     82  C   UNL     1       6.458 -10.604   1.158  1.00  0.00     0.058 A 
ATOM     83  C   UNL     1       5.129 -10.571   1.610  1.00  0.00     0.135 A 
ATOM     84  C   UNL     1       7.463 -10.843   2.106  1.00  0.00     0.135 A 
ATOM     85  F   UNL     1       4.128 -10.339   0.746  1.00  0.00    -0.206 F 
ATOM     86  C   UNL     1       4.811 -10.738   2.953  1.00  0.00     0.059 A 
ATOM     87  C   UNL     1       7.168 -11.042   3.452  1.00  0.00     0.059 A 
ATOM     88  F   UNL     1       8.748 -10.897   1.721  1.00  0.00    -0.206 F 
ATOM     89  C   UNL     1       5.839 -10.971   3.868  1.00  0.00     0.060 A 
BRANCH  89  90
ATOM     90  S   UNL     1       5.404 -11.174   5.608  1.00  0.00     0.124 S 
ATOM     91  O   UNL     1       4.945  -9.832   5.952  1.00  0.00    -0.237 OA
ATOM     92  O   UNL     1       4.372 -12.204   5.546  1.00  0.00    -0.237 OA
ATOM     93  O   UNL     1       6.662 -11.584   6.225  1.00  0.00    -0.744 OA
ENDBRANCH  89  90
ENDBRANCH  57  82
BRANCH  69  94
ATOM     94  C   UNL     1       9.122 -14.585  -3.942  1.00  0.00     0.058 A 
ATOM     95  C   UNL     1      10.485 -14.882  -4.108  1.00  0.00     0.135 A 
ATOM     96  C   UNL     1       8.215 -15.655  -3.921  1.00  0.00     0.135 A 
ATOM     97  F   UNL     1      11.394 -13.894  -4.144  1.00  0.00    -0.206 F 
ATOM     98  C   UNL     1      10.929 -16.188  -4.275  1.00  0.00     0.059 A 
ATOM     99  C   UNL     1       8.641 -16.973  -4.055  1.00  0.00     0.059 A 
ATOM    100  F   UNL     1       6.902 -15.425  -3.756  1.00  0.00    -0.206 F 
ATOM    101  C   UNL     1       9.998 -17.227  -4.250  1.00  0.00     0.060 A 
BRANCH 101 102
ATOM    102  S   UNL     1      10.595 -18.917  -4.464  1.00  0.00     0.124 S 
ATOM    103  O   UNL     1      11.015 -18.912  -5.861  1.00  0.00    -0.237 OA
ATOM    104  O   UNL     1      11.668 -18.990  -3.478  1.00  0.00    -0.237 OA
ATOM    105  O   UNL     1       9.421 -19.732  -4.164  1.00  0.00    -0.744 OA
ENDBRANCH 101 102
ENDBRANCH  69  94
ENDBRANCH  43  44
ENDBRANCH  36  38
ENDBRANCH  35  36
ENDBRANCH  34  35
ENDBRANCH  33  34
ENDBRANCH  32  33
ENDBRANCH   1  32
TORSDOF 22
