REMARK SMILES C[C@H]1[NH2+]CC[C@H]1C(=O)N1CC(C(=O)OCCOCCOC(=O)c2ccc(-c3c4nc(c(-c5c(F)cc(S(=O)(=O)[O-])cc5F)c5ccc([nH]5)c(-c5c(F)cc(S(=O)(=O)[O-])cc5F)c5nc(c(-c6c(F)cc(S(=O)(=O)[O-])cc6F)c6ccc3[nH]6)C=C5)C=C4)cc2)C1
REMARK SMILES IDX 18 1 17 2 16 3 15 4 14 5 12 6 13 7 11 8 7 9 8 10 9 11 10 12
REMARK SMILES IDX 89 13 6 14 1 15 2 16 3 17 4 18 5 21 19 22 20 23 21 24 22 25
REMARK SMILES IDX 23 26 24 27 88 28 25 29 87 30 26 31 27 32 28 33 81 34 29 35
REMARK SMILES IDX 86 36 80 37 82 38 30 39 85 40 79 41 78 42 31 44 65 45 44 46
REMARK SMILES IDX 64 47 45 48 48 49 63 50 83 51 46 52 47 53 62 55 84 56 49 57
REMARK SMILES IDX 32 58 33 59 42 60 34 61 35 62 41 63 43 64 36 65 37 66 38 67
REMARK SMILES IDX 39 68 40 69 66 70 67 71 76 72 68 73 69 74 75 75 77 76 70 77
REMARK SMILES IDX 71 78 72 79 73 80 74 81 50 82 51 83 60 84 52 85 53 86 59 87
REMARK SMILES IDX 61 88 54 89 55 90 56 91 57 92 58 93
REMARK H PARENT 3 19 3 20 82 43 48 54
REMARK Flexibility Score: inf
ROOT
ATOM      1  C   UNL     1       5.432   2.352   4.108  1.00  0.00     0.202 C 
ENDROOT
BRANCH   1   2
ATOM      2  O   UNL     1       5.537   2.933   5.408  1.00  0.00    -0.374 OA
BRANCH   2   3
ATOM      3  C   UNL     1       4.441   2.727   6.303  1.00  0.00     0.202 C 
BRANCH   3   4
ATOM      4  C   UNL     1       3.240   3.652   6.085  1.00  0.00     0.261 C 
BRANCH   4   5
ATOM      5  O   UNL     1       2.617   3.356   4.823  1.00  0.00    -0.463 OA
BRANCH   5   6
ATOM      6  C   UNL     1       2.479   4.387   3.938  1.00  0.00     0.312 C 
ATOM      7  O   UNL     1       2.669   5.565   4.235  1.00  0.00    -0.252 OA
BRANCH   6   8
ATOM      8  C   UNL     1       2.137   3.902   2.521  1.00  0.00     0.138 C 
ATOM      9  C   UNL     1       0.894   2.350   0.098  1.00  0.00     0.231 C 
ATOM     10  O   UNL     1       1.533   3.043  -0.691  1.00  0.00    -0.274 OA
ATOM     11  N   UNL     1       0.982   2.507   1.467  1.00  0.00    -0.340 N 
ATOM     12  C   UNL     1       0.665   3.780   2.145  1.00  0.00     0.136 C 
ATOM     13  C   UNL     1       2.271   2.422   2.172  1.00  0.00     0.136 C 
BRANCH   9  14
ATOM     14  C   UNL     1       0.030   1.187  -0.359  1.00  0.00     0.142 C 
ATOM     15  C   UNL     1       1.796  -0.502   0.527  1.00  0.00     0.076 C 
ATOM     16  C   UNL     1       0.774  -0.135  -0.547  1.00  0.00     0.192 C 
ATOM     17  N   UNL     1      -0.305  -1.139  -0.589  1.00  0.00    -0.343 N 
ATOM     18  C   UNL     1      -1.453  -0.622   0.160  1.00  0.00     0.261 C 
ATOM     19  H   UNL     1       0.019  -2.008  -0.165  1.00  0.00     0.346 HD
ATOM     20  H   UNL     1      -0.573  -1.322  -1.556  1.00  0.00     0.346 HD
ATOM     21  C   UNL     1      -1.129   0.811   0.551  1.00  0.00     0.081 C 
ENDBRANCH   9  14
ENDBRANCH   6   8
ENDBRANCH   5   6
ENDBRANCH   4   5
ENDBRANCH   3   4
ENDBRANCH   2   3
ENDBRANCH   1   2
BRANCH   1  22
ATOM     22  C   UNL     1       5.750   0.855   4.005  1.00  0.00     0.261 C 
BRANCH  22  23
ATOM     23  O   UNL     1       4.791   0.043   4.707  1.00  0.00    -0.460 OA
BRANCH  23  24
ATOM     24  C   UNL     1       5.269  -0.530   5.837  1.00  0.00     0.338 C 
ATOM     25  O   UNL     1       6.421  -0.474   6.256  1.00  0.00    -0.246 OA
BRANCH  24  26
ATOM     26  C   UNL     1       4.179  -1.127   6.631  1.00  0.00     0.060 A 
ATOM     27  C   UNL     1       4.163  -0.845   8.002  1.00  0.00     0.016 A 
ATOM     28  C   UNL     1       3.257  -2.023   6.082  1.00  0.00     0.016 A 
ATOM     29  C   UNL     1       3.281  -1.517   8.844  1.00  0.00     0.010 A 
ATOM     30  C   UNL     1       2.372  -2.700   6.931  1.00  0.00     0.010 A 
ATOM     31  C   UNL     1       2.417  -2.488   8.321  1.00  0.00    -0.014 A 
BRANCH  31  32
ATOM     32  C   UNL     1       1.720  -3.403   9.260  1.00  0.00     0.031 A 
ATOM     33  C   UNL     1       2.317  -4.762   9.524  1.00  0.00     0.074 A 
ATOM     34  C   UNL     1       0.619  -3.009   9.925  1.00  0.00     0.049 A 
ATOM     35  N   UNL     1       1.907  -5.708  10.328  1.00  0.00    -0.248 NA
ATOM     36  C   UNL     1       3.543  -5.096   8.779  1.00  0.00     0.031 C 
ATOM     37  C   UNL     1      -0.034  -1.709   9.785  1.00  0.00     0.029 A 
ATOM     38  N   UNL     1      -0.139  -3.668  10.860  1.00  0.00    -0.354 N 
ATOM     39  C   UNL     1       2.821  -6.747  10.188  1.00  0.00     0.074 A 
ATOM     40  C   UNL     1       3.786  -6.330   9.194  1.00  0.00     0.031 C 
ATOM     41  C   UNL     1      -1.098  -1.665  10.606  1.00  0.00     0.029 A 
ATOM     42  C   UNL     1      -1.210  -2.938  11.316  1.00  0.00     0.049 A 
ATOM     43  H   UNL     1       0.065  -4.578  11.175  1.00  0.00     0.167 HD
ATOM     44  C   UNL     1       2.864  -7.935  10.838  1.00  0.00     0.037 A 
ATOM     45  C   UNL     1      -2.173  -3.263  12.202  1.00  0.00     0.037 A 
ATOM     46  C   UNL     1       1.906  -8.348  11.830  1.00  0.00     0.049 A 
ATOM     47  C   UNL     1      -2.125  -4.604  12.887  1.00  0.00     0.074 A 
ATOM     48  C   UNL     1       1.858  -9.535  12.541  1.00  0.00     0.029 A 
ATOM     49  N   UNL     1       0.829  -7.585  12.255  1.00  0.00    -0.354 N 
ATOM     50  N   UNL     1      -1.251  -5.573  12.748  1.00  0.00    -0.248 NA
ATOM     51  C   UNL     1      -3.188  -4.890  13.862  1.00  0.00     0.031 C 
ATOM     52  C   UNL     1       0.733  -9.501  13.373  1.00  0.00     0.029 A 
ATOM     53  C   UNL     1       0.106  -8.276  13.212  1.00  0.00     0.049 A 
ATOM     54  H   UNL     1       0.611  -6.683  11.924  1.00  0.00     0.167 HD
ATOM     55  C   UNL     1      -1.637  -6.566  13.644  1.00  0.00     0.074 A 
ATOM     56  C   UNL     1      -2.821  -6.078  14.322  1.00  0.00     0.031 C 
ATOM     57  C   UNL     1      -1.062  -7.769  13.889  1.00  0.00     0.037 A 
BRANCH  44  58
ATOM     58  C   UNL     1       3.976  -8.879  10.478  1.00  0.00     0.058 A 
ATOM     59  C   UNL     1       5.303  -8.639  10.870  1.00  0.00     0.135 A 
ATOM     60  C   UNL     1       3.711 -10.045   9.742  1.00  0.00     0.135 A 
ATOM     61  F   UNL     1       5.615  -7.529  11.557  1.00  0.00    -0.206 F 
ATOM     62  C   UNL     1       6.333  -9.508  10.521  1.00  0.00     0.059 A 
ATOM     63  C   UNL     1       4.722 -10.941   9.403  1.00  0.00     0.059 A 
ATOM     64  F   UNL     1       2.461 -10.321   9.339  1.00  0.00    -0.206 F 
ATOM     65  C   UNL     1       6.032 -10.654   9.784  1.00  0.00     0.060 A 
BRANCH  65  66
ATOM     66  S   UNL     1       7.378 -11.770   9.331  1.00  0.00     0.124 S 
ATOM     67  O   UNL     1       8.026 -11.021   8.259  1.00  0.00    -0.237 OA
ATOM     68  O   UNL     1       8.132 -11.875  10.576  1.00  0.00    -0.237 OA
ATOM     69  O   UNL     1       6.685 -12.986   8.917  1.00  0.00    -0.744 OA
ENDBRANCH  65  66
ENDBRANCH  44  58
BRANCH  45  70
ATOM     70  C   UNL     1      -3.261  -2.297  12.505  1.00  0.00     0.058 A 
ATOM     71  C   UNL     1      -3.336  -1.652  13.748  1.00  0.00     0.135 A 
ATOM     72  C   UNL     1      -4.255  -2.006  11.557  1.00  0.00     0.135 A 
ATOM     73  F   UNL     1      -2.415  -1.905  14.691  1.00  0.00    -0.206 F 
ATOM     74  C   UNL     1      -4.366  -0.767  14.050  1.00  0.00     0.059 A 
ATOM     75  C   UNL     1      -5.281  -1.107  11.826  1.00  0.00     0.059 A 
ATOM     76  F   UNL     1      -4.221  -2.588  10.348  1.00  0.00    -0.206 F 
ATOM     77  C   UNL     1      -5.335  -0.501  13.080  1.00  0.00     0.060 A 
BRANCH  77  78
ATOM     78  S   UNL     1      -6.643   0.685  13.461  1.00  0.00     0.124 S 
ATOM     79  O   UNL     1      -7.501  -0.098  14.342  1.00  0.00    -0.237 OA
ATOM     80  O   UNL     1      -5.900   1.772  14.091  1.00  0.00    -0.237 OA
ATOM     81  O   UNL     1      -7.201   0.998  12.149  1.00  0.00    -0.744 OA
ENDBRANCH  77  78
ENDBRANCH  45  70
BRANCH  57  82
ATOM     82  C   UNL     1      -1.670  -8.618  14.971  1.00  0.00     0.058 A 
ATOM     83  C   UNL     1      -2.896  -9.277  14.798  1.00  0.00     0.135 A 
ATOM     84  C   UNL     1      -0.999  -8.790  16.194  1.00  0.00     0.135 A 
ATOM     85  F   UNL     1      -3.578  -9.145  13.649  1.00  0.00    -0.206 F 
ATOM     86  C   UNL     1      -3.457 -10.046  15.814  1.00  0.00     0.059 A 
ATOM     87  C   UNL     1      -1.529  -9.575  17.213  1.00  0.00     0.059 A 
ATOM     88  F   UNL     1       0.185  -8.194  16.406  1.00  0.00    -0.206 F 
ATOM     89  C   UNL     1      -2.768 -10.183  17.021  1.00  0.00     0.060 A 
BRANCH  89  90
ATOM     90  S   UNL     1      -3.503 -11.181  18.334  1.00  0.00     0.124 S 
ATOM     91  O   UNL     1      -4.513 -10.271  18.863  1.00  0.00    -0.237 OA
ATOM     92  O   UNL     1      -4.013 -12.338  17.604  1.00  0.00    -0.237 OA
ATOM     93  O   UNL     1      -2.376 -11.455  19.221  1.00  0.00    -0.744 OA
ENDBRANCH  89  90
ENDBRANCH  57  82
ENDBRANCH  31  32
ENDBRANCH  24  26
ENDBRANCH  23  24
ENDBRANCH  22  23
ENDBRANCH   1  22
TORSDOF 18
