REMARK SMILES C[C@H](C(=O)OCCOCCOC(=O)c1ccc(-c2c3nc(c(-c4c(F)cc(S(=O)(=O)[O-])cc4F)c4ccc([nH]4)c(-c4c(F)cc(S(=O)(=O)[O-])cc4F)c4nc(c(-c5c(F)cc(S(=O)(=O)[O-])cc5F)c5ccc2[nH]5)C=C4)C=C3)cc1)N1C(=O)C[C@@H](N2C(=O)/C(=C/c3ccccc3)SC2=S)C1=O
REMARK SMILES IDX 8 1 7 2 6 3 5 4 3 5 4 6 2 7 1 8 80 9 81 10 99 11 82 12 83 13
REMARK SMILES IDX 84 14 100 15 85 16 86 17 97 18 87 19 88 20 96 21 98 22 89 23
REMARK SMILES IDX 90 24 91 25 95 26 92 27 94 28 93 29 9 30 10 31 11 32 12 33
REMARK SMILES IDX 13 34 14 35 15 36 79 37 16 38 78 39 17 40 18 41 19 42 72 43
REMARK SMILES IDX 20 44 77 45 71 46 73 47 21 48 76 49 70 50 69 51 22 53 56 54
REMARK SMILES IDX 35 55 55 56 36 57 39 58 54 59 74 60 37 61 38 62 53 64 75 65
REMARK SMILES IDX 40 66 23 67 24 68 33 69 25 70 26 71 32 72 34 73 27 74 28 75
REMARK SMILES IDX 29 76 30 77 31 78 57 79 58 80 67 81 59 82 60 83 66 84 68 85
REMARK SMILES IDX 61 86 62 87 63 88 64 89 65 90 41 91 42 92 51 93 43 94 44 95
REMARK SMILES IDX 50 96 52 97 45 98 46 99 47 100 48 101 49 102
REMARK H PARENT 73 52 39 63
REMARK Flexibility Score: inf
ROOT
ATOM      1  O   UNL     1       1.251  -1.842   1.988  1.00  0.00    -0.374 OA
ENDROOT
BRANCH   1   2
ATOM      2  C   UNL     1       1.265  -0.539   2.569  1.00  0.00     0.202 C 
BRANCH   2   3
ATOM      3  C   UNL     1       1.663   0.625   1.655  1.00  0.00     0.261 C 
BRANCH   3   4
ATOM      4  O   UNL     1       0.845   0.713   0.472  1.00  0.00    -0.462 OA
BRANCH   4   5
ATOM      5  C   UNL     1       1.535   0.757  -0.702  1.00  0.00     0.329 C 
ATOM      6  O   UNL     1       2.759   0.824  -0.784  1.00  0.00    -0.250 OA
BRANCH   5   7
ATOM      7  C   UNL     1       0.646   0.703  -1.951  1.00  0.00     0.200 C 
ATOM      8  C   UNL     1       1.203  -0.349  -2.921  1.00  0.00     0.044 C 
BRANCH   7   9
ATOM      9  N   UNL     1      -0.802   0.597  -1.735  1.00  0.00    -0.267 N 
ATOM     10  C   UNL     1      -1.577   1.715  -1.610  1.00  0.00     0.232 C 
ATOM     11  C   UNL     1      -1.543  -0.549  -1.685  1.00  0.00     0.253 C 
ATOM     12  O   UNL     1      -1.175   2.867  -1.541  1.00  0.00    -0.274 OA
ATOM     13  C   UNL     1      -3.027   1.337  -1.550  1.00  0.00     0.136 C 
ATOM     14  C   UNL     1      -3.016  -0.178  -1.656  1.00  0.00     0.191 C 
ATOM     15  O   UNL     1      -1.138  -1.703  -1.745  1.00  0.00    -0.272 OA
BRANCH  14  16
ATOM     16  N   UNL     1      -3.686  -0.737  -2.848  1.00  0.00    -0.280 N 
ATOM     17  C   UNL     1      -3.252  -0.359  -4.109  1.00  0.00     0.266 C 
ATOM     18  C   UNL     1      -4.723  -1.647  -2.816  1.00  0.00     0.149 C 
ATOM     19  O   UNL     1      -2.341   0.423  -4.340  1.00  0.00    -0.268 OA
ATOM     20  C   UNL     1      -4.040  -1.039  -5.169  1.00  0.00     0.081 C 
ATOM     21  S   UNL     1      -5.222  -2.053  -4.457  1.00  0.00    -0.054 SA
ATOM     22  S   UNL     1      -5.485  -2.296  -1.483  1.00  0.00    -0.052 S 
ATOM     23  C   UNL     1      -3.782  -0.838  -6.469  1.00  0.00     0.029 C 
BRANCH  23  24
ATOM     24  C   UNL     1      -4.506  -1.405  -7.613  1.00  0.00    -0.024 A 
ATOM     25  C   UNL     1      -3.819  -2.184  -8.551  1.00  0.00     0.008 A 
ATOM     26  C   UNL     1      -5.858  -1.112  -7.830  1.00  0.00     0.008 A 
ATOM     27  C   UNL     1      -4.479  -2.677  -9.680  1.00  0.00     0.001 A 
ATOM     28  C   UNL     1      -6.516  -1.604  -8.959  1.00  0.00     0.001 A 
ATOM     29  C   UNL     1      -5.827  -2.386  -9.884  1.00  0.00     0.000 A 
ENDBRANCH  23  24
ENDBRANCH  14  16
ENDBRANCH   7   9
ENDBRANCH   5   7
ENDBRANCH   4   5
ENDBRANCH   3   4
ENDBRANCH   2   3
ENDBRANCH   1   2
BRANCH   1  30
ATOM     30  C   UNL     1       0.201  -2.136   1.066  1.00  0.00     0.202 C 
BRANCH  30  31
ATOM     31  C   UNL     1      -1.215  -2.281   1.643  1.00  0.00     0.261 C 
BRANCH  31  32
ATOM     32  O   UNL     1      -1.723  -1.051   2.203  1.00  0.00    -0.460 OA
BRANCH  32  33
ATOM     33  C   UNL     1      -2.012  -1.121   3.526  1.00  0.00     0.338 C 
ATOM     34  O   UNL     1      -1.977  -2.125   4.234  1.00  0.00    -0.246 OA
BRANCH  33  35
ATOM     35  C   UNL     1      -2.215   0.220   4.103  1.00  0.00     0.060 A 
ATOM     36  C   UNL     1      -1.418   0.573   5.201  1.00  0.00     0.016 A 
ATOM     37  C   UNL     1      -3.234   1.068   3.667  1.00  0.00     0.016 A 
ATOM     38  C   UNL     1      -1.674   1.750   5.903  1.00  0.00     0.010 A 
ATOM     39  C   UNL     1      -3.493   2.248   4.379  1.00  0.00     0.010 A 
ATOM     40  C   UNL     1      -2.741   2.573   5.523  1.00  0.00    -0.014 A 
BRANCH  40  41
ATOM     41  C   UNL     1      -3.154   3.684   6.419  1.00  0.00     0.031 A 
ATOM     42  C   UNL     1      -4.318   3.478   7.353  1.00  0.00     0.074 A 
ATOM     43  C   UNL     1      -2.469   4.842   6.441  1.00  0.00     0.049 A 
ATOM     44  N   UNL     1      -4.845   4.306   8.218  1.00  0.00    -0.248 NA
ATOM     45  C   UNL     1      -4.976   2.162   7.304  1.00  0.00     0.031 C 
ATOM     46  C   UNL     1      -1.301   5.147   5.616  1.00  0.00     0.029 A 
ATOM     47  N   UNL     1      -2.659   5.978   7.187  1.00  0.00    -0.354 N 
ATOM     48  C   UNL     1      -5.897   3.618   8.811  1.00  0.00     0.074 A 
ATOM     49  C   UNL     1      -5.952   2.312   8.188  1.00  0.00     0.031 C 
ATOM     50  C   UNL     1      -0.879   6.391   5.899  1.00  0.00     0.029 A 
ATOM     51  C   UNL     1      -1.763   6.981   6.904  1.00  0.00     0.049 A 
ATOM     52  H   UNL     1      -3.371   6.067   7.862  1.00  0.00     0.167 HD
ATOM     53  C   UNL     1      -6.736   4.031   9.791  1.00  0.00     0.037 A 
ATOM     54  C   UNL     1      -1.675   8.236   7.388  1.00  0.00     0.037 A 
ATOM     55  C   UNL     1      -6.673   5.327  10.415  1.00  0.00     0.049 A 
ATOM     56  C   UNL     1      -2.656   8.694   8.437  1.00  0.00     0.074 A 
ATOM     57  C   UNL     1      -7.462   5.831  11.435  1.00  0.00     0.029 A 
ATOM     58  N   UNL     1      -5.773   6.327  10.076  1.00  0.00    -0.354 N 
ATOM     59  N   UNL     1      -3.631   8.023   9.004  1.00  0.00    -0.248 NA
ATOM     60  C   UNL     1      -2.523  10.079   8.913  1.00  0.00     0.031 C 
ATOM     61  C   UNL     1      -7.069   7.151  11.681  1.00  0.00     0.029 A 
ATOM     62  C   UNL     1      -6.004   7.454  10.847  1.00  0.00     0.049 A 
ATOM     63  H   UNL     1      -5.073   6.247   9.388  1.00  0.00     0.167 HD
ATOM     64  C   UNL     1      -4.209   8.895   9.921  1.00  0.00     0.074 A 
ATOM     65  C   UNL     1      -3.470  10.138   9.840  1.00  0.00     0.031 C 
ATOM     66  C   UNL     1      -5.256   8.683  10.758  1.00  0.00     0.037 A 
BRANCH  53  67
ATOM     67  C   UNL     1      -7.816   3.081  10.231  1.00  0.00     0.058 A 
ATOM     68  C   UNL     1      -7.531   1.943  11.002  1.00  0.00     0.135 A 
ATOM     69  C   UNL     1      -9.158   3.331   9.904  1.00  0.00     0.135 A 
ATOM     70  F   UNL     1      -6.263   1.647  11.329  1.00  0.00    -0.206 F 
ATOM     71  C   UNL     1      -8.537   1.071  11.410  1.00  0.00     0.059 A 
ATOM     72  C   UNL     1     -10.182   2.487  10.322  1.00  0.00     0.059 A 
ATOM     73  F   UNL     1      -9.485   4.405   9.167  1.00  0.00    -0.206 F 
ATOM     74  C   UNL     1      -9.860   1.351  11.063  1.00  0.00     0.060 A 
BRANCH  74  75
ATOM     75  S   UNL     1     -11.154   0.212  11.598  1.00  0.00     0.124 S 
ATOM     76  O   UNL     1     -10.937  -0.917  10.700  1.00  0.00    -0.237 OA
ATOM     77  O   UNL     1     -10.811  -0.017  12.998  1.00  0.00    -0.237 OA
ATOM     78  O   UNL     1     -12.384   0.965  11.373  1.00  0.00    -0.744 OA
ENDBRANCH  74  75
ENDBRANCH  53  67
BRANCH  54  79
ATOM     79  C   UNL     1      -0.621   9.155   6.882  1.00  0.00     0.058 A 
ATOM     80  C   UNL     1       0.454   9.544   7.694  1.00  0.00     0.135 A 
ATOM     81  C   UNL     1      -0.668   9.661   5.573  1.00  0.00     0.135 A 
ATOM     82  F   UNL     1       0.536   9.097   8.957  1.00  0.00    -0.206 F 
ATOM     83  C   UNL     1       1.440  10.410   7.232  1.00  0.00     0.059 A 
ATOM     84  C   UNL     1       0.318  10.509   5.081  1.00  0.00     0.059 A 
ATOM     85  F   UNL     1      -1.673   9.313   4.754  1.00  0.00    -0.206 F 
ATOM     86  C   UNL     1       1.364  10.885   5.922  1.00  0.00     0.060 A 
BRANCH  86  87
ATOM     87  S   UNL     1       2.676  11.968   5.314  1.00  0.00     0.124 S 
ATOM     88  O   UNL     1       2.360  13.220   5.990  1.00  0.00    -0.237 OA
ATOM     89  O   UNL     1       3.879  11.280   5.773  1.00  0.00    -0.237 OA
ATOM     90  O   UNL     1       2.473  11.960   3.868  1.00  0.00    -0.744 OA
ENDBRANCH  86  87
ENDBRANCH  54  79
BRANCH  66  91
ATOM     91  C   UNL     1      -5.647   9.807  11.678  1.00  0.00     0.058 A 
ATOM     92  C   UNL     1      -6.319  10.945  11.207  1.00  0.00     0.135 A 
ATOM     93  C   UNL     1      -5.395   9.717  13.057  1.00  0.00     0.135 A 
ATOM     94  F   UNL     1      -6.580  11.082   9.897  1.00  0.00    -0.206 F 
ATOM     95  C   UNL     1      -6.710  11.966  12.068  1.00  0.00     0.059 A 
ATOM     96  C   UNL     1      -5.798  10.715  13.939  1.00  0.00     0.059 A 
ATOM     97  F   UNL     1      -4.766   8.644  13.561  1.00  0.00    -0.206 F 
ATOM     98  C   UNL     1      -6.445  11.842  13.433  1.00  0.00     0.060 A 
BRANCH  98  99
ATOM     99  S   UNL     1      -6.986  13.157  14.546  1.00  0.00     0.124 S 
ATOM    100  O   UNL     1      -5.998  14.196  14.274  1.00  0.00    -0.237 OA
ATOM    101  O   UNL     1      -8.340  13.431  14.074  1.00  0.00    -0.237 OA
ATOM    102  O   UNL     1      -6.903  12.540  15.867  1.00  0.00    -0.744 OA
ENDBRANCH  98  99
ENDBRANCH  66  91
ENDBRANCH  40  41
ENDBRANCH  33  35
ENDBRANCH  32  33
ENDBRANCH  31  32
ENDBRANCH  30  31
ENDBRANCH   1  30
TORSDOF 20
