REMARK SMILES O=C(CSc1nc(O)cc(=O)[nH]1)Nc1cccc(C(=O)OCCOCCOC(=O)c2ccc(-c3c4nc(c(-c5c(F)cc(S(=O)(=O)[O-])cc5F)c5ccc([nH]5)c(-c5c(F)cc(S(=O)(=O)[O-])cc5F)c5nc(c(-c6c(F)cc(S(=O)(=O)[O-])cc6F)c6ccc3[nH]6)C=C5)C=C4)cc2)c1
REMARK SMILES IDX 23 1 22 2 21 3 19 4 20 5 18 6 14 7 15 8 96 9 16 10 17 11
REMARK SMILES IDX 13 12 1 13 2 14 3 16 4 17 5 18 6 19 12 20 7 21 10 22 9 24
REMARK SMILES IDX 11 25 8 26 24 28 25 29 26 30 27 31 28 32 29 33 30 34 31 35
REMARK SMILES IDX 95 36 32 37 94 38 33 39 34 40 35 41 88 42 36 43 93 44 87 45
REMARK SMILES IDX 89 46 37 47 92 48 86 49 85 50 38 52 72 53 51 54 71 55 52 56
REMARK SMILES IDX 55 57 70 58 90 59 53 60 54 61 69 63 91 64 56 65 39 66 40 67
REMARK SMILES IDX 49 68 41 69 42 70 48 71 50 72 43 73 44 74 45 75 46 76 47 77
REMARK SMILES IDX 73 78 74 79 83 80 75 81 76 82 82 83 84 84 77 85 78 86 79 87
REMARK SMILES IDX 80 88 81 89 57 90 58 91 67 92 59 93 60 94 66 95 68 96 61 97
REMARK SMILES IDX 62 98 63 99 64 100 65 101
REMARK H PARENT 13 15 12 23 8 27 89 51 55 62
REMARK Flexibility Score: inf
ROOT
ATOM      1  C   UNL     1      -2.037   5.941   0.422  1.00  0.00     0.202 C 
ENDROOT
BRANCH   1   2
ATOM      2  C   UNL     1      -2.504   4.595  -0.146  1.00  0.00     0.261 C 
BRANCH   2   3
ATOM      3  O   UNL     1      -1.385   3.774  -0.521  1.00  0.00    -0.460 OA
BRANCH   3   4
ATOM      4  C   UNL     1      -1.230   3.560  -1.848  1.00  0.00     0.338 C 
ATOM      5  O   UNL     1      -1.996   3.886  -2.745  1.00  0.00    -0.246 OA
BRANCH   4   6
ATOM      6  C   UNL     1       0.133   3.049  -2.110  1.00  0.00     0.062 A 
ATOM      7  C   UNL     1       2.039   1.657  -1.570  1.00  0.00     0.042 A 
ATOM      8  C   UNL     1       2.736   2.224  -2.646  1.00  0.00     0.026 A 
ATOM      9  C   UNL     1       0.744   2.098  -1.284  1.00  0.00     0.041 A 
ATOM     10  C   UNL     1       2.127   3.174  -3.469  1.00  0.00     0.003 A 
ATOM     11  C   UNL     1       0.820   3.574  -3.211  1.00  0.00     0.016 A 
BRANCH   7  12
ATOM     12  N   UNL     1       2.692   0.633  -0.855  1.00  0.00    -0.325 N 
ATOM     13  O   UNL     1       0.910  -0.313   0.302  1.00  0.00    -0.274 OA
ATOM     14  C   UNL     1       2.099  -0.288  -0.008  1.00  0.00     0.234 C 
ATOM     15  H   UNL     1       3.667   0.566  -0.969  1.00  0.00     0.169 HD
BRANCH  14  16
ATOM     16  C   UNL     1       3.061  -1.299   0.595  1.00  0.00     0.178 C 
BRANCH  16  17
ATOM     17  S   UNL     1       4.252  -1.995  -0.589  1.00  0.00    -0.078 SA
BRANCH  17  18
ATOM     18  C   UNL     1       3.162  -2.718  -1.730  1.00  0.00     0.172 A 
ATOM     19  N   UNL     1       2.403  -1.998  -2.481  1.00  0.00    -0.189 NA
ATOM     20  N   UNL     1       3.247  -4.071  -1.782  1.00  0.00    -0.301 N 
ATOM     21  C   UNL     1       1.617  -2.678  -3.364  1.00  0.00     0.218 A 
ATOM     22  C   UNL     1       2.518  -4.790  -2.679  1.00  0.00     0.255 A 
ATOM     23  H   UNL     1       3.847  -4.541  -1.159  1.00  0.00     0.172 HD
ATOM     24  C   UNL     1       1.614  -4.002  -3.526  1.00  0.00     0.139 A 
ATOM     25  O   UNL     1       2.613  -6.006  -2.793  1.00  0.00    -0.269 OA
BRANCH  21  26
ATOM     26  O   UNL     1       0.781  -1.902  -4.123  1.00  0.00    -0.493 OA
ATOM     27  H   UNL     1       0.778  -0.972  -4.014  1.00  0.00     0.295 HD
ENDBRANCH  21  26
ENDBRANCH  17  18
ENDBRANCH  16  17
ENDBRANCH  14  16
ENDBRANCH   7  12
ENDBRANCH   4   6
ENDBRANCH   3   4
ENDBRANCH   2   3
ENDBRANCH   1   2
BRANCH   1  28
ATOM     28  O   UNL     1      -1.374   6.813  -0.497  1.00  0.00    -0.374 OA
BRANCH  28  29
ATOM     29  C   UNL     1       0.008   6.554  -0.746  1.00  0.00     0.202 C 
BRANCH  29  30
ATOM     30  C   UNL     1       1.003   7.093   0.287  1.00  0.00     0.261 C 
BRANCH  30  31
ATOM     31  O   UNL     1       0.842   6.471   1.572  1.00  0.00    -0.460 OA
BRANCH  31  32
ATOM     32  C   UNL     1       0.271   7.265   2.508  1.00  0.00     0.338 C 
ATOM     33  O   UNL     1      -0.024   8.445   2.390  1.00  0.00    -0.246 OA
BRANCH  32  34
ATOM     34  C   UNL     1      -0.120   6.471   3.688  1.00  0.00     0.060 A 
ATOM     35  C   UNL     1      -1.423   6.644   4.169  1.00  0.00     0.016 A 
ATOM     36  C   UNL     1       0.782   5.644   4.364  1.00  0.00     0.016 A 
ATOM     37  C   UNL     1      -1.808   6.051   5.368  1.00  0.00     0.010 A 
ATOM     38  C   UNL     1       0.393   5.050   5.570  1.00  0.00     0.010 A 
ATOM     39  C   UNL     1      -0.887   5.290   6.101  1.00  0.00    -0.014 A 
BRANCH  39  40
ATOM     40  C   UNL     1      -1.231   4.889   7.487  1.00  0.00     0.031 A 
ATOM     41  C   UNL     1      -0.669   5.680   8.638  1.00  0.00     0.074 A 
ATOM     42  C   UNL     1      -2.079   3.870   7.717  1.00  0.00     0.049 A 
ATOM     43  N   UNL     1      -0.865   5.530   9.923  1.00  0.00    -0.248 NA
ATOM     44  C   UNL     1       0.239   6.787   8.295  1.00  0.00     0.031 C 
ATOM     45  C   UNL     1      -2.701   3.042   6.686  1.00  0.00     0.029 A 
ATOM     46  N   UNL     1      -2.561   3.360   8.896  1.00  0.00    -0.354 N 
ATOM     47  C   UNL     1      -0.101   6.514  10.541  1.00  0.00     0.074 A 
ATOM     48  C   UNL     1       0.587   7.235   9.492  1.00  0.00     0.031 C 
ATOM     49  C   UNL     1      -3.480   2.121   7.278  1.00  0.00     0.029 A 
ATOM     50  C   UNL     1      -3.394   2.280   8.729  1.00  0.00     0.049 A 
ATOM     51  H   UNL     1      -2.332   3.732   9.778  1.00  0.00     0.167 HD
ATOM     52  C   UNL     1       0.007   6.799  11.861  1.00  0.00     0.037 A 
ATOM     53  C   UNL     1      -4.008   1.502   9.643  1.00  0.00     0.037 A 
ATOM     54  C   UNL     1      -0.690   6.085  12.900  1.00  0.00     0.049 A 
ATOM     55  C   UNL     1      -3.854   1.821  11.107  1.00  0.00     0.074 A 
ATOM     56  C   UNL     1      -0.677   6.321  14.264  1.00  0.00     0.029 A 
ATOM     57  N   UNL     1      -1.516   4.990  12.692  1.00  0.00    -0.354 N 
ATOM     58  N   UNL     1      -3.164   2.782  11.674  1.00  0.00    -0.248 NA
ATOM     59  C   UNL     1      -4.574   0.958  12.054  1.00  0.00     0.031 C 
ATOM     60  C   UNL     1      -1.455   5.337  14.885  1.00  0.00     0.029 A 
ATOM     61  C   UNL     1      -1.998   4.522  13.905  1.00  0.00     0.049 A 
ATOM     62  H   UNL     1      -1.730   4.602  11.813  1.00  0.00     0.167 HD
ATOM     63  C   UNL     1      -3.385   2.654  13.042  1.00  0.00     0.074 A 
ATOM     64  C   UNL     1      -4.284   1.531  13.214  1.00  0.00     0.031 C 
ATOM     65  C   UNL     1      -2.891   3.400  14.062  1.00  0.00     0.037 A 
BRANCH  52  66
ATOM     66  C   UNL     1       0.936   7.914  12.258  1.00  0.00     0.058 A 
ATOM     67  C   UNL     1       0.637   9.260  11.996  1.00  0.00     0.135 A 
ATOM     68  C   UNL     1       2.135   7.630  12.932  1.00  0.00     0.135 A 
ATOM     69  F   UNL     1      -0.487   9.588  11.340  1.00  0.00    -0.206 F 
ATOM     70  C   UNL     1       1.508  10.283  12.358  1.00  0.00     0.059 A 
ATOM     71  C   UNL     1       3.008   8.639  13.329  1.00  0.00     0.059 A 
ATOM     72  F   UNL     1       2.471   6.360  13.208  1.00  0.00    -0.206 F 
ATOM     73  C   UNL     1       2.693   9.961  13.023  1.00  0.00     0.060 A 
BRANCH  73  74
ATOM     74  S   UNL     1       3.818  11.297  13.481  1.00  0.00     0.124 S 
ATOM     75  O   UNL     1       4.381  11.661  12.184  1.00  0.00    -0.237 OA
ATOM     76  O   UNL     1       2.915  12.277  14.076  1.00  0.00    -0.237 OA
ATOM     77  O   UNL     1       4.745  10.658  14.410  1.00  0.00    -0.744 OA
ENDBRANCH  73  74
ENDBRANCH  52  66
BRANCH  53  78
ATOM     78  C   UNL     1      -4.822   0.342   9.192  1.00  0.00     0.058 A 
ATOM     79  C   UNL     1      -6.220   0.342   9.308  1.00  0.00     0.135 A 
ATOM     80  C   UNL     1      -4.213  -0.785   8.618  1.00  0.00     0.135 A 
ATOM     81  F   UNL     1      -6.847   1.391   9.860  1.00  0.00    -0.206 F 
ATOM     82  C   UNL     1      -6.985  -0.738   8.879  1.00  0.00     0.059 A 
ATOM     83  C   UNL     1      -4.958  -1.865   8.158  1.00  0.00     0.059 A 
ATOM     84  F   UNL     1      -2.879  -0.829   8.476  1.00  0.00    -0.206 F 
ATOM     85  C   UNL     1      -6.345  -1.835   8.300  1.00  0.00     0.060 A 
BRANCH  85  86
ATOM     86  S   UNL     1      -7.352  -3.205   7.689  1.00  0.00     0.124 S 
ATOM     87  O   UNL     1      -7.772  -3.838   8.933  1.00  0.00    -0.237 OA
ATOM     88  O   UNL     1      -8.395  -2.508   6.942  1.00  0.00    -0.237 OA
ATOM     89  O   UNL     1      -6.414  -3.972   6.874  1.00  0.00    -0.744 OA
ENDBRANCH  85  86
ENDBRANCH  53  78
BRANCH  65  90
ATOM     90  C   UNL     1      -3.335   3.047  15.457  1.00  0.00     0.058 A 
ATOM     91  C   UNL     1      -2.885   1.887  16.106  1.00  0.00     0.135 A 
ATOM     92  C   UNL     1      -4.194   3.903  16.166  1.00  0.00     0.135 A 
ATOM     93  F   UNL     1      -2.065   1.033  15.473  1.00  0.00    -0.206 F 
ATOM     94  C   UNL     1      -3.297   1.570  17.397  1.00  0.00     0.059 A 
ATOM     95  C   UNL     1      -4.595   3.621  17.469  1.00  0.00     0.059 A 
ATOM     96  F   UNL     1      -4.644   5.034  15.599  1.00  0.00    -0.206 F 
ATOM     97  C   UNL     1      -4.154   2.443  18.070  1.00  0.00     0.060 A 
BRANCH  97  98
ATOM     98  S   UNL     1      -4.671   2.028  19.749  1.00  0.00     0.124 S 
ATOM     99  O   UNL     1      -5.641   0.965  19.504  1.00  0.00    -0.237 OA
ATOM    100  O   UNL     1      -3.418   1.612  20.370  1.00  0.00    -0.237 OA
ATOM    101  O   UNL     1      -5.227   3.281  20.253  1.00  0.00    -0.744 OA
ENDBRANCH  97  98
ENDBRANCH  65  90
ENDBRANCH  39  40
ENDBRANCH  32  34
ENDBRANCH  31  32
ENDBRANCH  30  31
ENDBRANCH  29  30
ENDBRANCH  28  29
ENDBRANCH   1  28
TORSDOF 22
