REMARK SMILES COc1ccc2c(c1)c(CC(=O)OCCOCCOC(=O)c1ccc(-c3c4nc(c(-c5c(F)cc(S(=O)(=O)[O-])cc5F)c5ccc([nH]5)c(-c5c(F)cc(S(=O)(=O)[O-])cc5F)c5nc(c(-c6c(F)cc(S(=O)(=O)[O-])cc6F)c6ccc3[nH]6)C=C5)C=C4)cc1)c(C)n2C(=O)c1ccc(Cl)cc1
REMARK SMILES IDX 16 1 15 2 14 3 13 4 11 5 12 6 10 7 9 8 3 9 4 10 8 11 5 12
REMARK SMILES IDX 7 13 6 14 90 15 88 16 89 17 2 18 1 19 91 20 92 21 93 22
REMARK SMILES IDX 94 23 99 24 95 25 98 26 96 27 97 28 17 29 18 30 19 31 20 32
REMARK SMILES IDX 21 33 22 34 23 35 87 36 24 37 86 38 25 39 26 40 27 41 80 42
REMARK SMILES IDX 28 43 85 44 79 45 81 46 29 47 84 48 78 49 77 50 30 52 64 53
REMARK SMILES IDX 43 54 63 55 44 56 47 57 62 58 82 59 45 60 46 61 61 63 83 64
REMARK SMILES IDX 48 65 31 66 32 67 41 68 33 69 34 70 40 71 42 72 35 73 36 74
REMARK SMILES IDX 37 75 38 76 39 77 65 78 66 79 75 80 67 81 68 82 74 83 76 84
REMARK SMILES IDX 69 85 70 86 71 87 72 88 73 89 49 90 50 91 59 92 51 93 52 94
REMARK SMILES IDX 58 95 60 96 53 97 54 98 55 99 56 100 57 101
REMARK H PARENT 81 51 47 62
REMARK Flexibility Score: inf
ROOT
ATOM      1  O   UNL     1      -2.578  -3.155   3.622  1.00  0.00    -0.374 OA
ENDROOT
BRANCH   1   2
ATOM      2  C   UNL     1      -2.598  -4.355   4.384  1.00  0.00     0.202 C 
BRANCH   2   3
ATOM      3  C   UNL     1      -2.794  -5.727   3.718  1.00  0.00     0.261 C 
BRANCH   3   4
ATOM      4  O   UNL     1      -2.076  -5.921   2.487  1.00  0.00    -0.463 OA
BRANCH   4   5
ATOM      5  C   UNL     1      -2.852  -5.839   1.374  1.00  0.00     0.310 C 
ATOM      6  O   UNL     1      -4.064  -5.630   1.391  1.00  0.00    -0.252 OA
BRANCH   5   7
ATOM      7  C   UNL     1      -2.135  -6.042   0.060  1.00  0.00     0.160 C 
BRANCH   7   8
ATOM      8  C   UNL     1      -0.634  -5.890  -0.009  1.00  0.00    -0.008 A 
ATOM      9  C   UNL     1       0.630  -2.280  -0.278  1.00  0.00     0.119 A 
ATOM     10  C   UNL     1       1.973  -2.596  -0.341  1.00  0.00     0.048 A 
ATOM     11  C   UNL     1      -0.309  -3.317  -0.265  1.00  0.00     0.057 A 
ATOM     12  C   UNL     1       2.389  -3.933  -0.371  1.00  0.00     0.031 A 
ATOM     13  C   UNL     1       0.089  -4.674  -0.177  1.00  0.00     0.008 A 
ATOM     14  C   UNL     1       1.451  -4.983  -0.249  1.00  0.00     0.057 A 
ATOM     15  N   UNL     1       1.583  -6.388  -0.224  1.00  0.00    -0.280 N 
ATOM     16  C   UNL     1       0.295  -6.925  -0.051  1.00  0.00     0.028 A 
ATOM     17  C   UNL     1      -0.039  -8.384   0.043  1.00  0.00     0.065 C 
BRANCH   9  18
ATOM     18  O   UNL     1       0.100  -1.028  -0.139  1.00  0.00    -0.497 OA
ATOM     19  C   UNL     1       0.976   0.084  -0.267  1.00  0.00     0.278 C 
ENDBRANCH   9  18
BRANCH  15  20
ATOM     20  C   UNL     1       2.796  -7.121  -0.408  1.00  0.00     0.262 C 
ATOM     21  O   UNL     1       2.756  -8.342  -0.546  1.00  0.00    -0.268 OA
BRANCH  20  22
ATOM     22  C   UNL     1       4.141  -6.537  -0.534  1.00  0.00     0.040 A 
ATOM     23  C   UNL     1       4.785  -5.971   0.572  1.00  0.00     0.015 A 
ATOM     24  C   UNL     1       4.756  -6.551  -1.792  1.00  0.00     0.015 A 
ATOM     25  C   UNL     1       6.014  -5.331   0.391  1.00  0.00     0.021 A 
ATOM     26  C   UNL     1       5.989  -5.921  -1.963  1.00  0.00     0.021 A 
ATOM     27  C   UNL     1       6.602  -5.296  -0.876  1.00  0.00     0.041 A 
ATOM     28  Cl  UNL     1       8.085  -4.454  -1.107  1.00  0.00    -0.084 Cl
ENDBRANCH  20  22
ENDBRANCH  15  20
ENDBRANCH   7   8
ENDBRANCH   5   7
ENDBRANCH   4   5
ENDBRANCH   3   4
ENDBRANCH   2   3
ENDBRANCH   1   2
BRANCH   1  29
ATOM     29  C   UNL     1      -1.512  -2.987   2.695  1.00  0.00     0.202 C 
BRANCH  29  30
ATOM     30  C   UNL     1      -0.062  -2.897   3.203  1.00  0.00     0.261 C 
BRANCH  30  31
ATOM     31  O   UNL     1       0.337  -4.046   3.948  1.00  0.00    -0.460 OA
BRANCH  31  32
ATOM     32  C   UNL     1       1.135  -3.764   5.010  1.00  0.00     0.338 C 
ATOM     33  O   UNL     1       1.924  -2.838   5.130  1.00  0.00    -0.246 OA
BRANCH  32  34
ATOM     34  C   UNL     1       0.531  -4.522   6.111  1.00  0.00     0.060 A 
ATOM     35  C   UNL     1       0.334  -5.900   5.972  1.00  0.00     0.016 A 
ATOM     36  C   UNL     1      -0.178  -3.761   7.054  1.00  0.00     0.016 A 
ATOM     37  C   UNL     1      -0.665  -6.499   6.723  1.00  0.00     0.010 A 
ATOM     38  C   UNL     1      -1.194  -4.362   7.780  1.00  0.00     0.010 A 
ATOM     39  C   UNL     1      -1.460  -5.719   7.583  1.00  0.00    -0.014 A 
BRANCH  39  40
ATOM     40  C   UNL     1      -2.379  -6.426   8.473  1.00  0.00     0.031 A 
ATOM     41  C   UNL     1      -1.618  -7.217   9.475  1.00  0.00     0.074 A 
ATOM     42  C   UNL     1      -3.719  -6.283   8.524  1.00  0.00     0.049 A 
ATOM     43  N   UNL     1      -1.532  -8.501   9.577  1.00  0.00    -0.248 NA
ATOM     44  C   UNL     1      -0.664  -6.482  10.328  1.00  0.00     0.031 C 
ATOM     45  C   UNL     1      -4.540  -5.305   7.810  1.00  0.00     0.029 A 
ATOM     46  N   UNL     1      -4.634  -6.919   9.318  1.00  0.00    -0.354 N 
ATOM     47  C   UNL     1      -0.702  -8.720  10.674  1.00  0.00     0.074 A 
ATOM     48  C   UNL     1      -0.025  -7.480  10.936  1.00  0.00     0.031 C 
ATOM     49  C   UNL     1      -5.772  -5.255   8.366  1.00  0.00     0.029 A 
ATOM     50  C   UNL     1      -5.868  -6.275   9.395  1.00  0.00     0.049 A 
ATOM     51  H   UNL     1      -4.439  -7.758   9.793  1.00  0.00     0.167 HD
ATOM     52  C   UNL     1      -0.876  -9.801  11.479  1.00  0.00     0.037 A 
ATOM     53  C   UNL     1      -6.859  -6.519  10.290  1.00  0.00     0.037 A 
ATOM     54  C   UNL     1      -1.720 -10.783  10.856  1.00  0.00     0.049 A 
ATOM     55  C   UNL     1      -6.664  -7.899  10.799  1.00  0.00     0.074 A 
ATOM     56  C   UNL     1      -1.594 -11.736   9.871  1.00  0.00     0.029 A 
ATOM     57  N   UNL     1      -3.058 -10.549  11.031  1.00  0.00    -0.354 N 
ATOM     58  N   UNL     1      -6.770  -8.965  10.055  1.00  0.00    -0.248 NA
ATOM     59  C   UNL     1      -6.016  -8.103  12.091  1.00  0.00     0.031 C 
ATOM     60  C   UNL     1      -2.904 -11.942   9.344  1.00  0.00     0.029 A 
ATOM     61  C   UNL     1      -3.800 -11.136  10.042  1.00  0.00     0.049 A 
ATOM     62  H   UNL     1      -3.437 -10.025  11.773  1.00  0.00     0.167 HD
ATOM     63  C   UNL     1      -5.843  -9.842  10.580  1.00  0.00     0.074 A 
ATOM     64  C   UNL     1      -5.549  -9.341  11.916  1.00  0.00     0.031 C 
ATOM     65  C   UNL     1      -5.153 -10.696   9.771  1.00  0.00     0.037 A 
BRANCH  52  66
ATOM     66  C   UNL     1      -0.701  -9.752  12.981  1.00  0.00     0.058 A 
ATOM     67  C   UNL     1      -0.682 -10.950  13.720  1.00  0.00     0.135 A 
ATOM     68  C   UNL     1      -0.830  -8.569  13.746  1.00  0.00     0.135 A 
ATOM     69  F   UNL     1      -0.607 -12.136  13.094  1.00  0.00    -0.206 F 
ATOM     70  C   UNL     1      -0.802 -10.970  15.113  1.00  0.00     0.059 A 
ATOM     71  C   UNL     1      -0.889  -8.562  15.134  1.00  0.00     0.059 A 
ATOM     72  F   UNL     1      -1.007  -7.368  13.181  1.00  0.00    -0.206 F 
ATOM     73  C   UNL     1      -0.905  -9.769  15.809  1.00  0.00     0.060 A 
BRANCH  73  74
ATOM     74  S   UNL     1      -1.110  -9.789  17.598  1.00  0.00     0.124 S 
ATOM     75  O   UNL     1      -2.442 -10.365  17.735  1.00  0.00    -0.237 OA
ATOM     76  O   UNL     1       0.001 -10.636  18.018  1.00  0.00    -0.237 OA
ATOM     77  O   UNL     1      -0.989  -8.381  17.966  1.00  0.00    -0.744 OA
ENDBRANCH  73  74
ENDBRANCH  52  66
BRANCH  53  78
ATOM     78  C   UNL     1      -7.727  -5.538  11.006  1.00  0.00     0.058 A 
ATOM     79  C   UNL     1      -8.786  -5.982  11.825  1.00  0.00     0.135 A 
ATOM     80  C   UNL     1      -7.340  -4.195  11.174  1.00  0.00     0.135 A 
ATOM     81  F   UNL     1      -9.230  -7.244  11.729  1.00  0.00    -0.206 F 
ATOM     82  C   UNL     1      -9.348  -5.178  12.822  1.00  0.00     0.059 A 
ATOM     83  C   UNL     1      -7.895  -3.370  12.153  1.00  0.00     0.059 A 
ATOM     84  F   UNL     1      -6.334  -3.667  10.462  1.00  0.00    -0.206 F 
ATOM     85  C   UNL     1      -8.868  -3.882  13.002  1.00  0.00     0.060 A 
BRANCH  85  86
ATOM     86  S   UNL     1      -9.411  -2.926  14.439  1.00  0.00     0.124 S 
ATOM     87  O   UNL     1     -10.809  -2.664  14.117  1.00  0.00    -0.237 OA
ATOM     88  O   UNL     1      -9.173  -3.860  15.534  1.00  0.00    -0.237 OA
ATOM     89  O   UNL     1      -8.535  -1.758  14.418  1.00  0.00    -0.744 OA
ENDBRANCH  85  86
ENDBRANCH  53  78
BRANCH  65  90
ATOM     90  C   UNL     1      -5.793 -11.087   8.472  1.00  0.00     0.058 A 
ATOM     91  C   UNL     1      -6.049 -10.217   7.398  1.00  0.00     0.135 A 
ATOM     92  C   UNL     1      -6.124 -12.439   8.297  1.00  0.00     0.135 A 
ATOM     93  F   UNL     1      -5.683  -8.928   7.452  1.00  0.00    -0.206 F 
ATOM     94  C   UNL     1      -6.658 -10.666   6.224  1.00  0.00     0.059 A 
ATOM     95  C   UNL     1      -6.698 -12.914   7.124  1.00  0.00     0.059 A 
ATOM     96  F   UNL     1      -5.862 -13.328   9.270  1.00  0.00    -0.206 F 
ATOM     97  C   UNL     1      -6.981 -12.018   6.098  1.00  0.00     0.060 A 
BRANCH  97  98
ATOM     98  S   UNL     1      -7.739 -12.607   4.569  1.00  0.00     0.124 S 
ATOM     99  O   UNL     1      -9.050 -11.970   4.610  1.00  0.00    -0.237 OA
ATOM    100  O   UNL     1      -6.819 -12.106   3.551  1.00  0.00    -0.237 OA
ATOM    101  O   UNL     1      -7.747 -14.059   4.729  1.00  0.00    -0.744 OA
ENDBRANCH  97  98
ENDBRANCH  65  90
ENDBRANCH  39  40
ENDBRANCH  32  34
ENDBRANCH  31  32
ENDBRANCH  30  31
ENDBRANCH  29  30
ENDBRANCH   1  29
TORSDOF 21
