REMARK SMILES C=CC[N@@H+](CC(=O)OCCOCCOC(=O)c1ccc(-c2c3nc(c(-c4c(F)cc(S(=O)(=O)[O-])cc4F)c4ccc([nH]4)c(-c4c(F)cc(S(=O)(=O)[O-])cc4F)c4nc(c(-c5c(F)cc(S(=O)(=O)[O-])cc5F)c5ccc2[nH]5)C=C4)C=C3)cc1)C[C@H]1C[N@@H+](C(C)C)CCO1
REMARK SMILES IDX 10 1 9 2 8 3 6 4 7 5 5 6 4 7 3 9 2 10 1 11 83 12 84 13 85 14
REMARK SMILES IDX 92 15 86 16 91 17 90 18 87 20 88 21 89 22 11 23 12 24 13 25
REMARK SMILES IDX 14 26 15 27 16 28 17 29 18 30 82 31 19 32 81 33 20 34 21 35
REMARK SMILES IDX 22 36 75 37 23 38 80 39 74 40 76 41 24 42 79 43 73 44 72 45
REMARK SMILES IDX 25 47 59 48 38 49 58 50 39 51 42 52 57 53 77 54 40 55 41 56
REMARK SMILES IDX 56 58 78 59 43 60 26 61 27 62 36 63 28 64 29 65 35 66 37 67
REMARK SMILES IDX 30 68 31 69 32 70 33 71 34 72 60 73 61 74 70 75 62 76 63 77
REMARK SMILES IDX 69 78 71 79 64 80 65 81 66 82 67 83 68 84 44 85 45 86 54 87
REMARK SMILES IDX 46 88 47 89 53 90 55 91 48 92 49 93 50 94 51 95 52 96
REMARK H PARENT 4 8 86 19 76 46 42 57
REMARK Flexibility Score: inf
ROOT
ATOM      1  C   UNL     1      -2.869   0.516   4.943  1.00  0.00     0.202 C 
ENDROOT
BRANCH   1   2
ATOM      2  C   UNL     1      -2.919   1.734   4.023  1.00  0.00     0.261 C 
BRANCH   2   3
ATOM      3  O   UNL     1      -2.758   1.381   2.631  1.00  0.00    -0.459 OA
BRANCH   3   4
ATOM      4  C   UNL     1      -1.609   1.790   2.034  1.00  0.00     0.361 C 
ATOM      5  O   UNL     1      -0.644   2.249   2.639  1.00  0.00    -0.245 OA
BRANCH   4   6
ATOM      6  C   UNL     1      -1.668   1.784   0.511  1.00  0.00     0.386 C 
BRANCH   6   7
ATOM      7  N   UNL     1      -2.425   0.722  -0.169  1.00  0.00    -0.320 N 
ATOM      8  H   UNL     1      -2.349   0.938  -1.163  1.00  0.00     0.348 HD
BRANCH   7   9
ATOM      9  C   UNL     1      -3.873   0.822  -0.074  1.00  0.00     0.290 C 
BRANCH   9  10
ATOM     10  C   UNL     1      -4.579   0.203  -1.250  1.00  0.00     0.025 C 
ATOM     11  C   UNL     1      -5.738  -0.466  -1.162  1.00  0.00     0.010 C 
ENDBRANCH   9  10
ENDBRANCH   7   9
BRANCH   7  12
ATOM     12  C   UNL     1      -1.774  -0.587  -0.253  1.00  0.00     0.301 C 
BRANCH  12  13
ATOM     13  C   UNL     1      -1.977  -1.675   0.833  1.00  0.00     0.228 C 
ATOM     14  C   UNL     1      -3.305  -2.435   0.733  1.00  0.00     0.300 C 
ATOM     15  O   UNL     1      -0.815  -2.531   0.783  1.00  0.00    -0.361 OA
ATOM     16  N   UNL     1      -3.275  -3.750   0.091  1.00  0.00    -0.329 N 
ATOM     17  C   UNL     1      -0.975  -3.903   1.152  1.00  0.00     0.222 C 
ATOM     18  C   UNL     1      -2.315  -4.578   0.811  1.00  0.00     0.291 C 
ATOM     19  H   UNL     1      -4.186  -4.202   0.170  1.00  0.00     0.348 HD
BRANCH  16  20
ATOM     20  C   UNL     1      -3.141  -3.704  -1.373  1.00  0.00     0.177 C 
ATOM     21  C   UNL     1      -1.736  -3.850  -1.971  1.00  0.00     0.075 C 
ATOM     22  C   UNL     1      -4.042  -4.802  -1.951  1.00  0.00     0.075 C 
ENDBRANCH  16  20
ENDBRANCH  12  13
ENDBRANCH   7  12
ENDBRANCH   6   7
ENDBRANCH   4   6
ENDBRANCH   3   4
ENDBRANCH   2   3
ENDBRANCH   1   2
BRANCH   1  23
ATOM     23  O   UNL     1      -1.548   0.125   5.321  1.00  0.00    -0.374 OA
BRANCH  23  24
ATOM     24  C   UNL     1      -0.893  -0.790   4.442  1.00  0.00     0.202 C 
BRANCH  24  25
ATOM     25  C   UNL     1      -1.352  -2.242   4.634  1.00  0.00     0.261 C 
BRANCH  25  26
ATOM     26  O   UNL     1      -2.707  -2.419   4.170  1.00  0.00    -0.460 OA
BRANCH  26  27
ATOM     27  C   UNL     1      -3.511  -3.124   5.005  1.00  0.00     0.338 C 
ATOM     28  O   UNL     1      -3.160  -3.802   5.954  1.00  0.00    -0.246 OA
BRANCH  27  29
ATOM     29  C   UNL     1      -4.927  -2.791   4.735  1.00  0.00     0.060 A 
ATOM     30  C   UNL     1      -5.630  -2.114   5.736  1.00  0.00     0.016 A 
ATOM     31  C   UNL     1      -5.584  -3.193   3.570  1.00  0.00     0.016 A 
ATOM     32  C   UNL     1      -7.002  -1.887   5.596  1.00  0.00     0.010 A 
ATOM     33  C   UNL     1      -6.952  -2.923   3.412  1.00  0.00     0.010 A 
ATOM     34  C   UNL     1      -7.686  -2.319   4.448  1.00  0.00    -0.014 A 
BRANCH  34  35
ATOM     35  C   UNL     1      -9.178  -2.282   4.431  1.00  0.00     0.031 A 
ATOM     36  C   UNL     1      -9.955  -3.570   4.565  1.00  0.00     0.074 A 
ATOM     37  C   UNL     1      -9.848  -1.114   4.381  1.00  0.00     0.049 A 
ATOM     38  N   UNL     1     -11.247  -3.749   4.692  1.00  0.00    -0.248 NA
ATOM     39  C   UNL     1      -9.180  -4.821   4.552  1.00  0.00     0.031 C 
ATOM     40  C   UNL     1      -9.239   0.208   4.245  1.00  0.00     0.029 A 
ATOM     41  N   UNL     1     -11.197  -0.853   4.456  1.00  0.00    -0.354 N 
ATOM     42  C   UNL     1     -11.435  -5.124   4.780  1.00  0.00     0.074 A 
ATOM     43  C   UNL     1     -10.133  -5.736   4.635  1.00  0.00     0.031 C 
ATOM     44  C   UNL     1     -10.207   1.141   4.267  1.00  0.00     0.029 A 
ATOM     45  C   UNL     1     -11.508   0.486   4.405  1.00  0.00     0.049 A 
ATOM     46  H   UNL     1     -11.877  -1.560   4.538  1.00  0.00     0.167 HD
ATOM     47  C   UNL     1     -12.578  -5.820   4.993  1.00  0.00     0.037 A 
ATOM     48  C   UNL     1     -12.699   1.116   4.469  1.00  0.00     0.037 A 
ATOM     49  C   UNL     1     -13.878  -5.226   5.158  1.00  0.00     0.049 A 
ATOM     50  C   UNL     1     -13.964   0.320   4.670  1.00  0.00     0.074 A 
ATOM     51  C   UNL     1     -15.081  -5.857   5.424  1.00  0.00     0.029 A 
ATOM     52  N   UNL     1     -14.149  -3.871   5.068  1.00  0.00    -0.354 N 
ATOM     53  N   UNL     1     -14.110  -0.974   4.821  1.00  0.00    -0.248 NA
ATOM     54  C   UNL     1     -15.226   1.074   4.721  1.00  0.00     0.031 C 
ATOM     55  C   UNL     1     -16.088  -4.886   5.449  1.00  0.00     0.029 A 
ATOM     56  C   UNL     1     -15.505  -3.647   5.246  1.00  0.00     0.049 A 
ATOM     57  H   UNL     1     -13.477  -3.170   4.901  1.00  0.00     0.167 HD
ATOM     58  C   UNL     1     -15.473  -1.185   5.012  1.00  0.00     0.074 A 
ATOM     59  C   UNL     1     -16.108   0.114   4.967  1.00  0.00     0.031 C 
ATOM     60  C   UNL     1     -16.135  -2.352   5.210  1.00  0.00     0.037 A 
BRANCH  47  61
ATOM     61  C   UNL     1     -12.472  -7.318   5.063  1.00  0.00     0.058 A 
ATOM     62  C   UNL     1     -11.892  -7.963   6.167  1.00  0.00     0.135 A 
ATOM     63  C   UNL     1     -12.989  -8.119   4.032  1.00  0.00     0.135 A 
ATOM     64  F   UNL     1     -11.370  -7.242   7.173  1.00  0.00    -0.206 F 
ATOM     65  C   UNL     1     -11.802  -9.349   6.234  1.00  0.00     0.059 A 
ATOM     66  C   UNL     1     -12.933  -9.508   4.091  1.00  0.00     0.059 A 
ATOM     67  F   UNL     1     -13.555  -7.553   2.955  1.00  0.00    -0.206 F 
ATOM     68  C   UNL     1     -12.324 -10.113   5.189  1.00  0.00     0.060 A 
BRANCH  68  69
ATOM     69  S   UNL     1     -12.200 -11.911   5.291  1.00  0.00     0.124 S 
ATOM     70  O   UNL     1     -10.783 -12.120   5.011  1.00  0.00    -0.237 OA
ATOM     71  O   UNL     1     -12.621 -12.177   6.663  1.00  0.00    -0.237 OA
ATOM     72  O   UNL     1     -13.119 -12.374   4.256  1.00  0.00    -0.744 OA
ENDBRANCH  68  69
ENDBRANCH  47  61
BRANCH  48  73
ATOM     73  C   UNL     1     -12.760   2.599   4.359  1.00  0.00     0.058 A 
ATOM     74  C   UNL     1     -13.087   3.397   5.465  1.00  0.00     0.135 A 
ATOM     75  C   UNL     1     -12.506   3.244   3.139  1.00  0.00     0.135 A 
ATOM     76  F   UNL     1     -13.352   2.826   6.650  1.00  0.00    -0.206 F 
ATOM     77  C   UNL     1     -13.173   4.782   5.364  1.00  0.00     0.059 A 
ATOM     78  C   UNL     1     -12.563   4.628   3.018  1.00  0.00     0.059 A 
ATOM     79  F   UNL     1     -12.181   2.524   2.053  1.00  0.00    -0.206 F 
ATOM     80  C   UNL     1     -12.907   5.389   4.134  1.00  0.00     0.060 A 
BRANCH  80  81
ATOM     81  S   UNL     1     -12.972   7.190   4.022  1.00  0.00     0.124 S 
ATOM     82  O   UNL     1     -14.409   7.434   4.038  1.00  0.00    -0.237 OA
ATOM     83  O   UNL     1     -12.241   7.598   5.218  1.00  0.00    -0.237 OA
ATOM     84  O   UNL     1     -12.295   7.470   2.759  1.00  0.00    -0.744 OA
ENDBRANCH  80  81
ENDBRANCH  48  73
BRANCH  60  85
ATOM     85  C   UNL     1     -17.623  -2.290   5.425  1.00  0.00     0.058 A 
ATOM     86  C   UNL     1     -18.511  -2.023   4.372  1.00  0.00     0.135 A 
ATOM     87  C   UNL     1     -18.173  -2.569   6.688  1.00  0.00     0.135 A 
ATOM     88  F   UNL     1     -18.040  -1.746   3.146  1.00  0.00    -0.206 F 
ATOM     89  C   UNL     1     -19.890  -2.018   4.565  1.00  0.00     0.059 A 
ATOM     90  C   UNL     1     -19.549  -2.593   6.899  1.00  0.00     0.059 A 
ATOM     91  F   UNL     1     -17.370  -2.842   7.729  1.00  0.00    -0.206 F 
ATOM     92  C   UNL     1     -20.399  -2.307   5.833  1.00  0.00     0.060 A 
BRANCH  92  93
ATOM     93  S   UNL     1     -22.191  -2.338   6.062  1.00  0.00     0.124 S 
ATOM     94  O   UNL     1     -22.513  -0.915   6.055  1.00  0.00    -0.237 OA
ATOM     95  O   UNL     1     -22.643  -3.095   4.898  1.00  0.00    -0.237 OA
ATOM     96  O   UNL     1     -22.358  -3.014   7.345  1.00  0.00    -0.744 OA
ENDBRANCH  92  93
ENDBRANCH  60  85
ENDBRANCH  34  35
ENDBRANCH  27  29
ENDBRANCH  26  27
ENDBRANCH  25  26
ENDBRANCH  24  25
ENDBRANCH  23  24
ENDBRANCH   1  23
TORSDOF 23
