REMARK SMILES CCc1ccc(C(=O)NCc2ccc(C(=O)OCCOCCOC(=O)c3ccc(-c4c5nc(c(-c6c(F)cc(S(=O)(=O)[O-])cc6F)c6ccc([nH]6)c(-c6c(F)cc(S(=O)(=O)[O-])cc6F)c6nc(c(-c7c(F)cc(S(=O)(=O)[O-])cc7F)c7ccc4[nH]7)C=C6)C=C5)cc3)cc2)cc1
REMARK SMILES IDX 19 1 18 2 17 3 15 4 16 5 14 6 11 7 12 8 93 9 13 10 92 11
REMARK SMILES IDX 10 12 9 13 7 14 8 15 6 17 3 18 4 19 95 20 5 21 94 22 2 23
REMARK SMILES IDX 1 24 20 25 21 26 22 27 23 28 24 29 25 30 26 31 27 32 91 33
REMARK SMILES IDX 28 34 90 35 29 36 30 37 31 38 84 39 32 40 89 41 83 42 85 43
REMARK SMILES IDX 33 44 88 45 82 46 81 47 34 49 68 50 47 51 67 52 48 53 51 54
REMARK SMILES IDX 66 55 86 56 49 57 50 58 65 60 87 61 52 62 35 63 36 64 45 65
REMARK SMILES IDX 37 66 38 67 44 68 46 69 39 70 40 71 41 72 42 73 43 74 69 75
REMARK SMILES IDX 70 76 79 77 71 78 72 79 78 80 80 81 73 82 74 83 75 84 76 85
REMARK SMILES IDX 77 86 53 87 54 88 63 89 55 90 56 91 62 92 64 93 57 94 58 95
REMARK SMILES IDX 59 96 60 97 61 98
REMARK H PARENT 9 16 85 48 51 59
REMARK Flexibility Score: inf
ROOT
ATOM      1  C   UNL     1      -6.426  10.322   2.598  1.00  0.00     0.202 C 
ENDROOT
BRANCH   1   2
ATOM      2  C   UNL     1      -6.167   9.697   1.223  1.00  0.00     0.261 C 
BRANCH   2   3
ATOM      3  O   UNL     1      -4.983   8.884   1.234  1.00  0.00    -0.460 OA
BRANCH   3   4
ATOM      4  C   UNL     1      -3.929   9.407   0.564  1.00  0.00     0.338 C 
ATOM      5  O   UNL     1      -3.937  10.395  -0.159  1.00  0.00    -0.246 OA
BRANCH   4   6
ATOM      6  C   UNL     1      -2.676   8.706   0.927  1.00  0.00     0.060 A 
ATOM      7  C   UNL     1      -0.198   7.479   1.475  1.00  0.00    -0.029 A 
ATOM      8  C   UNL     1      -0.264   8.838   1.141  1.00  0.00     0.006 A 
ATOM      9  C   UNL     1      -1.403   6.766   1.606  1.00  0.00     0.006 A 
ATOM     10  C   UNL     1      -1.490   9.445   0.868  1.00  0.00     0.016 A 
ATOM     11  C   UNL     1      -2.636   7.368   1.325  1.00  0.00     0.016 A 
BRANCH   7  12
ATOM     12  C   UNL     1       1.151   6.817   1.631  1.00  0.00     0.152 C 
BRANCH  12  13
ATOM     13  N   UNL     1       1.412   6.409   2.990  1.00  0.00    -0.348 N 
ATOM     14  C   UNL     1       1.682   5.204   3.579  1.00  0.00     0.251 C 
ATOM     15  O   UNL     1       2.137   5.247   4.725  1.00  0.00    -0.269 OA
ATOM     16  H   UNL     1       1.392   7.157   3.629  1.00  0.00     0.164 HD
BRANCH  14  17
ATOM     17  C   UNL     1       1.453   3.868   2.947  1.00  0.00     0.039 A 
ATOM     18  C   UNL     1       0.977   1.228   2.017  1.00  0.00    -0.048 A 
ATOM     19  C   UNL     1       1.775   1.450   3.142  1.00  0.00     0.004 A 
ATOM     20  C   UNL     1       0.417   2.332   1.368  1.00  0.00     0.004 A 
ATOM     21  C   UNL     1       2.010   2.754   3.598  1.00  0.00     0.014 A 
ATOM     22  C   UNL     1       0.651   3.631   1.831  1.00  0.00     0.014 A 
BRANCH  18  23
ATOM     23  C   UNL     1       0.681  -0.170   1.537  1.00  0.00     0.032 C 
ATOM     24  C   UNL     1       1.187  -0.425   0.123  1.00  0.00     0.009 C 
ENDBRANCH  18  23
ENDBRANCH  14  17
ENDBRANCH  12  13
ENDBRANCH   7  12
ENDBRANCH   4   6
ENDBRANCH   3   4
ENDBRANCH   2   3
ENDBRANCH   1   2
BRANCH   1  25
ATOM     25  O   UNL     1      -5.378  11.137   3.125  1.00  0.00    -0.374 OA
BRANCH  25  26
ATOM     26  C   UNL     1      -4.314  10.460   3.799  1.00  0.00     0.202 C 
BRANCH  26  27
ATOM     27  C   UNL     1      -4.598  10.006   5.236  1.00  0.00     0.261 C 
BRANCH  27  28
ATOM     28  O   UNL     1      -5.544   8.921   5.275  1.00  0.00    -0.460 OA
BRANCH  28  29
ATOM     29  C   UNL     1      -6.753   9.236   5.793  1.00  0.00     0.338 C 
ATOM     30  O   UNL     1      -7.084  10.301   6.301  1.00  0.00    -0.246 OA
BRANCH  29  31
ATOM     31  C   UNL     1      -7.723   8.165   5.496  1.00  0.00     0.060 A 
ATOM     32  C   UNL     1      -8.939   8.539   4.908  1.00  0.00     0.016 A 
ATOM     33  C   UNL     1      -7.479   6.831   5.833  1.00  0.00     0.016 A 
ATOM     34  C   UNL     1      -9.937   7.590   4.703  1.00  0.00     0.010 A 
ATOM     35  C   UNL     1      -8.486   5.881   5.633  1.00  0.00     0.010 A 
ATOM     36  C   UNL     1      -9.731   6.263   5.101  1.00  0.00    -0.014 A 
BRANCH  36  37
ATOM     37  C   UNL     1     -10.870   5.312   5.093  1.00  0.00     0.031 A 
ATOM     38  C   UNL     1     -11.599   5.037   6.380  1.00  0.00     0.074 A 
ATOM     39  C   UNL     1     -11.267   4.724   3.951  1.00  0.00     0.049 A 
ATOM     40  N   UNL     1     -12.603   4.232   6.609  1.00  0.00    -0.248 NA
ATOM     41  C   UNL     1     -11.129   5.768   7.568  1.00  0.00     0.031 C 
ATOM     42  C   UNL     1     -10.664   4.939   2.637  1.00  0.00     0.029 A 
ATOM     43  N   UNL     1     -12.273   3.821   3.716  1.00  0.00    -0.354 N 
ATOM     44  C   UNL     1     -12.882   4.352   7.966  1.00  0.00     0.074 A 
ATOM     45  C   UNL     1     -11.922   5.286   8.514  1.00  0.00     0.031 C 
ATOM     46  C   UNL     1     -11.308   4.181   1.733  1.00  0.00     0.029 A 
ATOM     47  C   UNL     1     -12.347   3.406   2.409  1.00  0.00     0.049 A 
ATOM     48  H   UNL     1     -12.883   3.499   4.419  1.00  0.00     0.167 HD
ATOM     49  C   UNL     1     -13.855   3.745   8.687  1.00  0.00     0.037 A 
ATOM     50  C   UNL     1     -13.151   2.493   1.828  1.00  0.00     0.037 A 
ATOM     51  C   UNL     1     -14.808   2.817   8.136  1.00  0.00     0.049 A 
ATOM     52  C   UNL     1     -14.186   1.783   2.661  1.00  0.00     0.074 A 
ATOM     53  C   UNL     1     -15.847   2.167   8.778  1.00  0.00     0.029 A 
ATOM     54  N   UNL     1     -14.831   2.398   6.814  1.00  0.00    -0.354 N 
ATOM     55  N   UNL     1     -14.456   1.925   3.937  1.00  0.00    -0.248 NA
ATOM     56  C   UNL     1     -15.026   0.791   1.976  1.00  0.00     0.031 C 
ATOM     57  C   UNL     1     -16.468   1.318   7.855  1.00  0.00     0.029 A 
ATOM     58  C   UNL     1     -15.848   1.477   6.625  1.00  0.00     0.049 A 
ATOM     59  H   UNL     1     -14.214   2.709   6.112  1.00  0.00     0.167 HD
ATOM     60  C   UNL     1     -15.513   1.060   4.202  1.00  0.00     0.074 A 
ATOM     61  C   UNL     1     -15.838   0.405   2.951  1.00  0.00     0.031 C 
ATOM     62  C   UNL     1     -16.159   0.832   5.373  1.00  0.00     0.037 A 
BRANCH  49  63
ATOM     63  C   UNL     1     -13.914   4.047  10.159  1.00  0.00     0.058 A 
ATOM     64  C   UNL     1     -14.340   5.294  10.643  1.00  0.00     0.135 A 
ATOM     65  C   UNL     1     -13.545   3.071  11.099  1.00  0.00     0.135 A 
ATOM     66  F   UNL     1     -14.688   6.269   9.788  1.00  0.00    -0.206 F 
ATOM     67  C   UNL     1     -14.365   5.575  12.006  1.00  0.00     0.059 A 
ATOM     68  C   UNL     1     -13.588   3.321  12.468  1.00  0.00     0.059 A 
ATOM     69  F   UNL     1     -13.129   1.862  10.691  1.00  0.00    -0.206 F 
ATOM     70  C   UNL     1     -13.981   4.583  12.910  1.00  0.00     0.060 A 
BRANCH  70  71
ATOM     71  S   UNL     1     -14.001   4.967  14.675  1.00  0.00     0.124 S 
ATOM     72  O   UNL     1     -12.825   5.823  14.798  1.00  0.00    -0.237 OA
ATOM     73  O   UNL     1     -15.290   5.633  14.836  1.00  0.00    -0.237 OA
ATOM     74  O   UNL     1     -13.893   3.656  15.308  1.00  0.00    -0.744 OA
ENDBRANCH  70  71
ENDBRANCH  49  63
BRANCH  50  75
ATOM     75  C   UNL     1     -13.004   2.198   0.378  1.00  0.00     0.058 A 
ATOM     76  C   UNL     1     -13.977   2.606  -0.546  1.00  0.00     0.135 A 
ATOM     77  C   UNL     1     -11.877   1.522  -0.114  1.00  0.00     0.135 A 
ATOM     78  F   UNL     1     -15.078   3.244  -0.122  1.00  0.00    -0.206 F 
ATOM     79  C   UNL     1     -13.840   2.353  -1.907  1.00  0.00     0.059 A 
ATOM     80  C   UNL     1     -11.706   1.277  -1.472  1.00  0.00     0.059 A 
ATOM     81  F   UNL     1     -10.913   1.119   0.729  1.00  0.00    -0.206 F 
ATOM     82  C   UNL     1     -12.697   1.693  -2.361  1.00  0.00     0.060 A 
BRANCH  82  83
ATOM     83  S   UNL     1     -12.494   1.432  -4.137  1.00  0.00     0.124 S 
ATOM     84  O   UNL     1     -13.459   0.369  -4.391  1.00  0.00    -0.237 OA
ATOM     85  O   UNL     1     -12.831   2.745  -4.679  1.00  0.00    -0.237 OA
ATOM     86  O   UNL     1     -11.089   1.054  -4.261  1.00  0.00    -0.744 OA
ENDBRANCH  82  83
ENDBRANCH  50  75
BRANCH  62  87
ATOM     87  C   UNL     1     -17.303  -0.145   5.356  1.00  0.00     0.058 A 
ATOM     88  C   UNL     1     -17.090  -1.529   5.256  1.00  0.00     0.135 A 
ATOM     89  C   UNL     1     -18.625   0.306   5.497  1.00  0.00     0.135 A 
ATOM     90  F   UNL     1     -15.845  -2.012   5.112  1.00  0.00    -0.206 F 
ATOM     91  C   UNL     1     -18.149  -2.430   5.275  1.00  0.00     0.059 A 
ATOM     92  C   UNL     1     -19.698  -0.579   5.545  1.00  0.00     0.059 A 
ATOM     93  F   UNL     1     -18.884   1.618   5.608  1.00  0.00    -0.206 F 
ATOM     94  C   UNL     1     -19.451  -1.946   5.421  1.00  0.00     0.060 A 
BRANCH  94  95
ATOM     95  S   UNL     1     -20.815  -3.127   5.479  1.00  0.00     0.124 S 
ATOM     96  O   UNL     1     -20.922  -3.521   4.077  1.00  0.00    -0.237 OA
ATOM     97  O   UNL     1     -20.306  -4.150   6.387  1.00  0.00    -0.237 OA
ATOM     98  O   UNL     1     -21.928  -2.337   5.996  1.00  0.00    -0.744 OA
ENDBRANCH  94  95
ENDBRANCH  62  87
ENDBRANCH  36  37
ENDBRANCH  29  31
ENDBRANCH  28  29
ENDBRANCH  27  28
ENDBRANCH  26  27
ENDBRANCH  25  26
ENDBRANCH   1  25
TORSDOF 21
