REMARK SMILES Nc1c(Cl)ccc2c1C=C(C(=O)OCCOCCOC(=O)c1ccc(-c3c4nc(c(-c5c(F)cc(S(=O)(=O)[O-])cc5F)c5ccc([nH]5)c(-c5c(F)cc(S(=O)(=O)[O-])cc5F)c5nc(c(-c6c(F)cc(S(=O)(=O)[O-])cc6F)c6ccc3[nH]6)C=C5)C=C4)cc1)[C@@H](C(F)(F)F)O2
REMARK SMILES IDX 17 1 16 2 15 3 14 4 13 5 11 6 12 7 10 8 2 9 3 10 8 11 4 12
REMARK SMILES IDX 5 13 7 14 9 15 6 16 93 17 88 18 1 19 89 22 90 23 91 24 92 25
REMARK SMILES IDX 18 26 19 27 20 28 21 29 22 30 23 31 87 32 24 33 86 34 25 35
REMARK SMILES IDX 26 36 27 37 80 38 28 39 85 40 79 41 81 42 29 43 84 44 78 45
REMARK SMILES IDX 77 46 30 48 64 49 43 50 63 51 44 52 47 53 62 54 82 55 45 56
REMARK SMILES IDX 46 57 61 59 83 60 48 61 31 62 32 63 41 64 33 65 34 66 40 67
REMARK SMILES IDX 42 68 35 69 36 70 37 71 38 72 39 73 65 74 66 75 75 76 67 77
REMARK SMILES IDX 68 78 74 79 76 80 69 81 70 82 71 83 72 84 73 85 49 86 50 87
REMARK SMILES IDX 59 88 51 89 52 90 58 91 60 92 53 93 54 94 55 95 56 96 57 97
REMARK H PARENT 1 20 1 21 81 47 47 58
REMARK Flexibility Score: inf
ROOT
ATOM      1  C   UNL     1      -3.231  -3.360   0.342  1.00  0.00     0.202 C 
ENDROOT
BRANCH   1   2
ATOM      2  O   UNL     1      -2.970  -4.585   1.032  1.00  0.00    -0.374 OA
BRANCH   2   3
ATOM      3  C   UNL     1      -3.706  -4.838   2.227  1.00  0.00     0.202 C 
BRANCH   3   4
ATOM      4  C   UNL     1      -3.202  -4.149   3.499  1.00  0.00     0.261 C 
BRANCH   4   5
ATOM      5  O   UNL     1      -3.098  -2.727   3.328  1.00  0.00    -0.460 OA
BRANCH   5   6
ATOM      6  C   UNL     1      -1.831  -2.252   3.318  1.00  0.00     0.338 C 
ATOM      7  O   UNL     1      -0.810  -2.879   3.556  1.00  0.00    -0.246 OA
BRANCH   6   8
ATOM      8  C   UNL     1      -1.824  -0.861   2.825  1.00  0.00     0.088 C 
ATOM      9  C   UNL     1       0.329   1.202   0.615  1.00  0.00     0.061 A 
ATOM     10  C   UNL     1       0.512   2.583   0.385  1.00  0.00     0.064 A 
ATOM     11  C   UNL     1      -0.711   0.807   1.490  1.00  0.00     0.042 A 
ATOM     12  Cl  UNL     1       1.829   3.148  -0.590  1.00  0.00    -0.082 Cl
ATOM     13  C   UNL     1      -0.361   3.531   0.918  1.00  0.00     0.026 A 
ATOM     14  C   UNL     1      -1.609   1.762   1.988  1.00  0.00     0.130 A 
ATOM     15  C   UNL     1      -0.852  -0.568   1.953  1.00  0.00     0.029 C 
ATOM     16  C   UNL     1      -1.438   3.116   1.697  1.00  0.00     0.049 A 
ATOM     17  O   UNL     1      -2.694   1.467   2.765  1.00  0.00    -0.475 OA
ATOM     18  C   UNL     1      -2.840   0.128   3.314  1.00  0.00     0.316 C 
BRANCH   9  19
ATOM     19  N   UNL     1       1.240   0.277   0.086  1.00  0.00    -0.397 N 
ATOM     20  H   UNL     1       1.953   0.579  -0.520  1.00  0.00     0.156 HD
ATOM     21  H   UNL     1       1.165  -0.677   0.322  1.00  0.00     0.156 HD
ENDBRANCH   9  19
BRANCH  18  22
ATOM     22  C   UNL     1      -2.867   0.239   4.846  1.00  0.00     0.430 C 
ATOM     23  F   UNL     1      -3.760   1.174   5.251  1.00  0.00    -0.167 F 
ATOM     24  F   UNL     1      -3.228  -0.927   5.428  1.00  0.00    -0.167 F 
ATOM     25  F   UNL     1      -1.659   0.587   5.345  1.00  0.00    -0.167 F 
ENDBRANCH  18  22
ENDBRANCH   6   8
ENDBRANCH   5   6
ENDBRANCH   4   5
ENDBRANCH   3   4
ENDBRANCH   2   3
ENDBRANCH   1   2
BRANCH   1  26
ATOM     26  C   UNL     1      -4.585  -3.229  -0.364  1.00  0.00     0.261 C 
BRANCH  26  27
ATOM     27  O   UNL     1      -5.662  -3.043   0.574  1.00  0.00    -0.460 OA
BRANCH  27  28
ATOM     28  C   UNL     1      -6.605  -4.016   0.559  1.00  0.00     0.338 C 
ATOM     29  O   UNL     1      -6.658  -4.982  -0.186  1.00  0.00    -0.246 OA
BRANCH  28  30
ATOM     30  C   UNL     1      -7.505  -3.855   1.712  1.00  0.00     0.060 A 
ATOM     31  C   UNL     1      -7.527  -4.872   2.675  1.00  0.00     0.016 A 
ATOM     32  C   UNL     1      -8.395  -2.783   1.783  1.00  0.00     0.016 A 
ATOM     33  C   UNL     1      -8.473  -4.841   3.695  1.00  0.00     0.010 A 
ATOM     34  C   UNL     1      -9.357  -2.764   2.796  1.00  0.00     0.010 A 
ATOM     35  C   UNL     1      -9.423  -3.812   3.732  1.00  0.00    -0.014 A 
BRANCH  35  36
ATOM     36  C   UNL     1     -10.591  -3.935   4.633  1.00  0.00     0.031 A 
ATOM     37  C   UNL     1     -11.847  -4.569   4.103  1.00  0.00     0.074 A 
ATOM     38  C   UNL     1     -10.521  -3.526   5.911  1.00  0.00     0.049 A 
ATOM     39  N   UNL     1     -12.988  -4.777   4.705  1.00  0.00    -0.248 NA
ATOM     40  C   UNL     1     -11.806  -5.036   2.708  1.00  0.00     0.031 C 
ATOM     41  C   UNL     1      -9.338  -2.955   6.550  1.00  0.00     0.029 A 
ATOM     42  N   UNL     1     -11.470  -3.536   6.900  1.00  0.00    -0.354 N 
ATOM     43  C   UNL     1     -13.795  -5.416   3.772  1.00  0.00     0.074 A 
ATOM     44  C   UNL     1     -13.028  -5.522   2.549  1.00  0.00     0.031 C 
ATOM     45  C   UNL     1      -9.632  -2.668   7.830  1.00  0.00     0.029 A 
ATOM     46  C   UNL     1     -11.030  -3.009   8.089  1.00  0.00     0.049 A 
ATOM     47  H   UNL     1     -12.381  -3.887   6.771  1.00  0.00     0.167 HD
ATOM     48  C   UNL     1     -15.056  -5.885   3.923  1.00  0.00     0.037 A 
ATOM     49  C   UNL     1     -11.687  -2.815   9.250  1.00  0.00     0.037 A 
ATOM     50  C   UNL     1     -15.826  -5.747   5.131  1.00  0.00     0.049 A 
ATOM     51  C   UNL     1     -13.130  -3.230   9.360  1.00  0.00     0.074 A 
ATOM     52  C   UNL     1     -17.121  -6.163   5.380  1.00  0.00     0.029 A 
ATOM     53  N   UNL     1     -15.374  -5.131   6.289  1.00  0.00    -0.354 N 
ATOM     54  N   UNL     1     -13.886  -3.827   8.469  1.00  0.00    -0.248 NA
ATOM     55  C   UNL     1     -13.811  -2.940  10.629  1.00  0.00     0.031 C 
ATOM     56  C   UNL     1     -17.467  -5.761   6.675  1.00  0.00     0.029 A 
ATOM     57  C   UNL     1     -16.372  -5.134   7.249  1.00  0.00     0.049 A 
ATOM     58  H   UNL     1     -14.475  -4.748   6.411  1.00  0.00     0.167 HD
ATOM     59  C   UNL     1     -15.125  -4.003   9.076  1.00  0.00     0.074 A 
ATOM     60  C   UNL     1     -15.015  -3.454  10.412  1.00  0.00     0.031 C 
ATOM     61  C   UNL     1     -16.249  -4.574   8.573  1.00  0.00     0.037 A 
BRANCH  48  62
ATOM     62  C   UNL     1     -15.679  -6.569   2.739  1.00  0.00     0.058 A 
ATOM     63  C   UNL     1     -15.256  -7.842   2.322  1.00  0.00     0.135 A 
ATOM     64  C   UNL     1     -16.700  -5.946   2.005  1.00  0.00     0.135 A 
ATOM     65  F   UNL     1     -14.268  -8.474   2.977  1.00  0.00    -0.206 F 
ATOM     66  C   UNL     1     -15.799  -8.457   1.200  1.00  0.00     0.059 A 
ATOM     67  C   UNL     1     -17.275  -6.553   0.893  1.00  0.00     0.059 A 
ATOM     68  F   UNL     1     -17.139  -4.727   2.358  1.00  0.00    -0.206 F 
ATOM     69  C   UNL     1     -16.804  -7.801   0.487  1.00  0.00     0.060 A 
BRANCH  69  70
ATOM     70  S   UNL     1     -17.476  -8.600  -0.986  1.00  0.00     0.124 S 
ATOM     71  O   UNL     1     -16.370  -8.451  -1.927  1.00  0.00    -0.237 OA
ATOM     72  O   UNL     1     -17.731  -9.958  -0.517  1.00  0.00    -0.237 OA
ATOM     73  O   UNL     1     -18.666  -7.810  -1.288  1.00  0.00    -0.744 OA
ENDBRANCH  69  70
ENDBRANCH  48  62
BRANCH  49  74
ATOM     74  C   UNL     1     -10.971  -2.211  10.403  1.00  0.00     0.058 A 
ATOM     75  C   UNL     1     -10.604  -2.993  11.507  1.00  0.00     0.135 A 
ATOM     76  C   UNL     1     -10.595  -0.859  10.402  1.00  0.00     0.135 A 
ATOM     77  F   UNL     1     -10.954  -4.287  11.559  1.00  0.00    -0.206 F 
ATOM     78  C   UNL     1      -9.878  -2.459  12.567  1.00  0.00     0.059 A 
ATOM     79  C   UNL     1      -9.852  -0.307  11.441  1.00  0.00     0.059 A 
ATOM     80  F   UNL     1     -10.919  -0.072   9.364  1.00  0.00    -0.206 F 
ATOM     81  C   UNL     1      -9.496  -1.117  12.518  1.00  0.00     0.060 A 
BRANCH  81  82
ATOM     82  S   UNL     1      -8.476  -0.463  13.857  1.00  0.00     0.124 S 
ATOM     83  O   UNL     1      -9.421  -0.444  14.967  1.00  0.00    -0.237 OA
ATOM     84  O   UNL     1      -7.412  -1.458  13.941  1.00  0.00    -0.237 OA
ATOM     85  O   UNL     1      -8.063   0.846  13.358  1.00  0.00    -0.744 OA
ENDBRANCH  81  82
ENDBRANCH  49  74
BRANCH  61  86
ATOM     86  C   UNL     1     -17.454  -4.645   9.469  1.00  0.00     0.058 A 
ATOM     87  C   UNL     1     -18.233  -3.510   9.743  1.00  0.00     0.135 A 
ATOM     88  C   UNL     1     -17.880  -5.876   9.995  1.00  0.00     0.135 A 
ATOM     89  F   UNL     1     -17.866  -2.309   9.270  1.00  0.00    -0.206 F 
ATOM     90  C   UNL     1     -19.387  -3.591  10.515  1.00  0.00     0.059 A 
ATOM     91  C   UNL     1     -19.044  -5.984  10.749  1.00  0.00     0.059 A 
ATOM     92  F   UNL     1     -17.176  -6.993   9.754  1.00  0.00    -0.206 F 
ATOM     93  C   UNL     1     -19.788  -4.834  11.009  1.00  0.00     0.060 A 
BRANCH  93  94
ATOM     94  S   UNL     1     -21.317  -4.931  11.965  1.00  0.00     0.124 S 
ATOM     95  O   UNL     1     -20.922  -4.295  13.217  1.00  0.00    -0.237 OA
ATOM     96  O   UNL     1     -22.251  -4.174  11.136  1.00  0.00    -0.237 OA
ATOM     97  O   UNL     1     -21.580  -6.365  12.044  1.00  0.00    -0.744 OA
ENDBRANCH  93  94
ENDBRANCH  61  86
ENDBRANCH  35  36
ENDBRANCH  28  30
ENDBRANCH  27  28
ENDBRANCH  26  27
ENDBRANCH   1  26
TORSDOF 19
