REMARK SMILES CS(=O)(=O)c1ccc(/C=C(/C(=O)OCCOCCOC(=O)c2ccc(-c3c4nc(c(-c5c(F)cc(S(=O)(=O)[O-])cc5F)c5ccc([nH]5)c(-c5c(F)cc(S(=O)(=O)[O-])cc5F)c5nc(c(-c6c(F)cc(S(=O)(=O)[O-])cc6F)c6ccc3[nH]6)C=C5)C=C4)cc2)c2ccccc2)cc1
REMARK SMILES IDX 17 1 16 2 15 3 14 4 13 5 11 6 12 7 10 8 9 9 8 10 5 11 6 12
REMARK SMILES IDX 95 13 7 14 94 15 2 16 1 17 3 18 4 19 88 20 89 21 93 22 90 23
REMARK SMILES IDX 92 24 91 25 18 26 19 27 20 28 21 29 22 30 23 31 87 32 24 33
REMARK SMILES IDX 86 34 25 35 26 36 27 37 80 38 28 39 85 40 79 41 81 42 29 43
REMARK SMILES IDX 84 44 78 45 77 46 30 48 64 49 43 50 63 51 44 52 47 53 62 54
REMARK SMILES IDX 82 55 45 56 46 57 61 59 83 60 48 61 31 62 32 63 41 64 33 65
REMARK SMILES IDX 34 66 40 67 42 68 35 69 36 70 37 71 38 72 39 73 65 74 66 75
REMARK SMILES IDX 75 76 67 77 68 78 74 79 76 80 69 81 70 82 71 83 72 84 73 85
REMARK SMILES IDX 49 86 50 87 59 88 51 89 52 90 58 91 60 92 53 93 54 94 55 95
REMARK SMILES IDX 56 96 57 97
REMARK H PARENT 81 47 47 58
REMARK Flexibility Score: inf
ROOT
ATOM      1  C   UNL     1       0.466  -3.857   9.759  1.00  0.00     0.202 C 
ENDROOT
BRANCH   1   2
ATOM      2  O   UNL     1       1.445  -4.220  10.727  1.00  0.00    -0.374 OA
BRANCH   2   3
ATOM      3  C   UNL     1       2.379  -3.216  11.130  1.00  0.00     0.202 C 
BRANCH   3   4
ATOM      4  C   UNL     1       3.467  -2.836  10.121  1.00  0.00     0.261 C 
BRANCH   4   5
ATOM      5  O   UNL     1       2.905  -2.230   8.942  1.00  0.00    -0.460 OA
BRANCH   5   6
ATOM      6  C   UNL     1       3.168  -2.884   7.781  1.00  0.00     0.338 C 
ATOM      7  O   UNL     1       3.949  -3.817   7.650  1.00  0.00    -0.246 OA
BRANCH   6   8
ATOM      8  C   UNL     1       2.288  -2.416   6.661  1.00  0.00     0.067 C 
ATOM      9  C   UNL     1       1.954  -1.108   6.545  1.00  0.00     0.024 C 
BRANCH   9  10
ATOM     10  C   UNL     1       1.312  -0.440   5.385  1.00  0.00    -0.025 A 
ATOM     11  C   UNL     1       0.520   0.755   2.970  1.00  0.00     0.067 A 
ATOM     12  C   UNL     1      -0.038  -0.462   3.353  1.00  0.00     0.021 A 
ATOM     13  C   UNL     1       1.370   1.444   3.833  1.00  0.00     0.021 A 
ATOM     14  C   UNL     1       0.338  -1.036   4.570  1.00  0.00     0.009 A 
ATOM     15  C   UNL     1       1.762   0.844   5.035  1.00  0.00     0.009 A 
BRANCH  11  16
ATOM     16  S   UNL     1       0.171   1.383   1.347  1.00  0.00     0.175 S 
ATOM     17  C   UNL     1       0.968   0.213   0.272  1.00  0.00     0.163 C 
ATOM     18  O   UNL     1       0.869   2.651   1.197  1.00  0.00    -0.224 OA
ATOM     19  O   UNL     1      -1.258   1.288   1.142  1.00  0.00    -0.224 OA
ENDBRANCH  11  16
ENDBRANCH   9  10
BRANCH   8  20
ATOM     20  C   UNL     1       1.897  -3.442   5.674  1.00  0.00    -0.011 A 
ATOM     21  C   UNL     1       0.785  -4.260   5.931  1.00  0.00     0.009 A 
ATOM     22  C   UNL     1       2.583  -3.578   4.463  1.00  0.00     0.009 A 
ATOM     23  C   UNL     1       0.345  -5.176   4.977  1.00  0.00     0.001 A 
ATOM     24  C   UNL     1       2.140  -4.496   3.510  1.00  0.00     0.001 A 
ATOM     25  C   UNL     1       1.019  -5.288   3.763  1.00  0.00     0.000 A 
ENDBRANCH   8  20
ENDBRANCH   6   8
ENDBRANCH   5   6
ENDBRANCH   4   5
ENDBRANCH   3   4
ENDBRANCH   2   3
ENDBRANCH   1   2
BRANCH   1  26
ATOM     26  C   UNL     1      -0.746  -3.045  10.230  1.00  0.00     0.261 C 
BRANCH  26  27
ATOM     27  O   UNL     1      -0.382  -1.837  10.911  1.00  0.00    -0.460 OA
BRANCH  27  28
ATOM     28  C   UNL     1      -0.516  -1.912  12.258  1.00  0.00     0.338 C 
ATOM     29  O   UNL     1      -0.985  -2.841  12.898  1.00  0.00    -0.246 OA
BRANCH  28  30
ATOM     30  C   UNL     1       0.147  -0.766  12.906  1.00  0.00     0.060 A 
ATOM     31  C   UNL     1       1.010  -1.055  13.969  1.00  0.00     0.016 A 
ATOM     32  C   UNL     1      -0.127   0.557  12.549  1.00  0.00     0.016 A 
ATOM     33  C   UNL     1       1.539  -0.022  14.735  1.00  0.00     0.010 A 
ATOM     34  C   UNL     1       0.405   1.595  13.323  1.00  0.00     0.010 A 
ATOM     35  C   UNL     1       1.195   1.306  14.449  1.00  0.00    -0.014 A 
BRANCH  35  36
ATOM     36  C   UNL     1       1.518   2.349  15.453  1.00  0.00     0.031 A 
ATOM     37  C   UNL     1       0.442   2.789  16.411  1.00  0.00     0.074 A 
ATOM     38  C   UNL     1       2.769   2.828  15.568  1.00  0.00     0.049 A 
ATOM     39  N   UNL     1       0.515   3.627  17.412  1.00  0.00    -0.248 NA
ATOM     40  C   UNL     1      -0.895   2.203  16.215  1.00  0.00     0.031 C 
ATOM     41  C   UNL     1       3.898   2.454  14.717  1.00  0.00     0.029 A 
ATOM     42  N   UNL     1       3.300   3.726  16.457  1.00  0.00    -0.354 N 
ATOM     43  C   UNL     1      -0.760   3.668  17.965  1.00  0.00     0.074 A 
ATOM     44  C   UNL     1      -1.598   2.803  17.164  1.00  0.00     0.031 C 
ATOM     45  C   UNL     1       4.992   3.117  15.130  1.00  0.00     0.029 A 
ATOM     46  C   UNL     1       4.637   3.973  16.260  1.00  0.00     0.049 A 
ATOM     47  H   UNL     1       2.773   4.154  17.170  1.00  0.00     0.167 HD
ATOM     48  C   UNL     1      -1.192   4.352  19.052  1.00  0.00     0.037 A 
ATOM     49  C   UNL     1       5.476   4.797  16.917  1.00  0.00     0.037 A 
ATOM     50  C   UNL     1      -0.354   5.210  19.848  1.00  0.00     0.049 A 
ATOM     51  C   UNL     1       4.964   5.577  18.100  1.00  0.00     0.074 A 
ATOM     52  C   UNL     1      -0.690   5.938  20.976  1.00  0.00     0.029 A 
ATOM     53  N   UNL     1       0.989   5.457  19.599  1.00  0.00    -0.354 N 
ATOM     54  N   UNL     1       3.761   5.588  18.625  1.00  0.00    -0.248 NA
ATOM     55  C   UNL     1       5.928   6.448  18.787  1.00  0.00     0.031 C 
ATOM     56  C   UNL     1       0.439   6.660  21.383  1.00  0.00     0.029 A 
ATOM     57  C   UNL     1       1.491   6.341  20.540  1.00  0.00     0.049 A 
ATOM     58  H   UNL     1       1.508   5.062  18.861  1.00  0.00     0.167 HD
ATOM     59  C   UNL     1       3.831   6.445  19.720  1.00  0.00     0.074 A 
ATOM     60  C   UNL     1       5.199   6.919  19.789  1.00  0.00     0.031 C 
ATOM     61  C   UNL     1       2.855   6.806  20.590  1.00  0.00     0.037 A 
BRANCH  48  62
ATOM     62  C   UNL     1      -2.642   4.215  19.427  1.00  0.00     0.058 A 
ATOM     63  C   UNL     1      -3.154   3.029  19.979  1.00  0.00     0.135 A 
ATOM     64  C   UNL     1      -3.528   5.289  19.249  1.00  0.00     0.135 A 
ATOM     65  F   UNL     1      -2.356   1.963  20.151  1.00  0.00    -0.206 F 
ATOM     66  C   UNL     1      -4.498   2.905  20.316  1.00  0.00     0.059 A 
ATOM     67  C   UNL     1      -4.871   5.196  19.604  1.00  0.00     0.059 A 
ATOM     68  F   UNL     1      -3.093   6.444  18.722  1.00  0.00    -0.206 F 
ATOM     69  C   UNL     1      -5.350   3.994  20.124  1.00  0.00     0.060 A 
BRANCH  69  70
ATOM     70  S   UNL     1      -7.091   3.819  20.567  1.00  0.00     0.124 S 
ATOM     71  O   UNL     1      -7.581   2.966  19.489  1.00  0.00    -0.237 OA
ATOM     72  O   UNL     1      -7.018   3.197  21.885  1.00  0.00    -0.237 OA
ATOM     73  O   UNL     1      -7.585   5.193  20.553  1.00  0.00    -0.744 OA
ENDBRANCH  69  70
ENDBRANCH  48  62
BRANCH  49  74
ATOM     74  C   UNL     1       6.891   4.923  16.476  1.00  0.00     0.058 A 
ATOM     75  C   UNL     1       7.944   4.423  17.255  1.00  0.00     0.135 A 
ATOM     76  C   UNL     1       7.215   5.549  15.262  1.00  0.00     0.135 A 
ATOM     77  F   UNL     1       7.686   3.824  18.427  1.00  0.00    -0.206 F 
ATOM     78  C   UNL     1       9.271   4.552  16.855  1.00  0.00     0.059 A 
ATOM     79  C   UNL     1       8.531   5.668  14.829  1.00  0.00     0.059 A 
ATOM     80  F   UNL     1       6.242   6.034  14.475  1.00  0.00    -0.206 F 
ATOM     81  C   UNL     1       9.554   5.176  15.639  1.00  0.00     0.060 A 
BRANCH  81  82
ATOM     82  S   UNL     1      11.274   5.295  15.103  1.00  0.00     0.124 S 
ATOM     83  O   UNL     1      11.783   6.342  15.981  1.00  0.00    -0.237 OA
ATOM     84  O   UNL     1      11.770   3.946  15.362  1.00  0.00    -0.237 OA
ATOM     85  O   UNL     1      11.162   5.651  13.692  1.00  0.00    -0.744 OA
ENDBRANCH  81  82
ENDBRANCH  49  74
BRANCH  61  86
ATOM     86  C   UNL     1       3.243   7.736  21.708  1.00  0.00     0.058 A 
ATOM     87  C   UNL     1       3.538   9.088  21.477  1.00  0.00     0.135 A 
ATOM     88  C   UNL     1       3.307   7.268  23.031  1.00  0.00     0.135 A 
ATOM     89  F   UNL     1       3.492   9.586  20.231  1.00  0.00    -0.206 F 
ATOM     90  C   UNL     1       3.928   9.934  22.510  1.00  0.00     0.059 A 
ATOM     91  C   UNL     1       3.666   8.104  24.084  1.00  0.00     0.059 A 
ATOM     92  F   UNL     1       3.019   5.987  23.312  1.00  0.00    -0.206 F 
ATOM     93  C   UNL     1       3.996   9.430  23.810  1.00  0.00     0.060 A 
BRANCH  93  94
ATOM     94  S   UNL     1       4.514  10.532  25.143  1.00  0.00     0.124 S 
ATOM     95  O   UNL     1       5.955  10.601  24.923  1.00  0.00    -0.237 OA
ATOM     96  O   UNL     1       3.769  11.753  24.850  1.00  0.00    -0.237 OA
ATOM     97  O   UNL     1       4.095   9.825  26.350  1.00  0.00    -0.744 OA
ENDBRANCH  93  94
ENDBRANCH  61  86
ENDBRANCH  35  36
ENDBRANCH  28  30
ENDBRANCH  27  28
ENDBRANCH  26  27
ENDBRANCH   1  26
TORSDOF 20
