REMARK SMILES O=C(OCCOCCOC(=O)[C@H]1CCCCN1c1cc(-c2ccccc2)nc(-c2cccc(Cl)c2)n1)c1ccc(-c2c3nc(c(-c4c(F)cc(S(=O)(=O)[O-])cc4F)c4ccc([nH]4)c(-c4c(F)cc(S(=O)(=O)[O-])cc4F)c4nc(c(-c5c(F)cc(S(=O)(=O)[O-])cc5F)c5ccc2[nH]5)C=C4)C=C3)cc1
REMARK SMILES IDX 5 1 4 2 3 3 2 4 1 5 37 6 38 7 102 8 39 9 101 10 40 11 41 12
REMARK SMILES IDX 42 13 95 14 43 15 100 16 94 17 96 18 44 19 99 20 93 21 92 22
REMARK SMILES IDX 45 24 79 25 58 26 78 27 59 28 62 29 77 30 97 31 60 32 61 33
REMARK SMILES IDX 76 35 98 36 63 37 46 38 47 39 56 40 48 41 49 42 55 43 57 44
REMARK SMILES IDX 50 45 51 46 52 47 53 48 54 49 80 50 81 51 90 52 82 53 83 54
REMARK SMILES IDX 89 55 91 56 84 57 85 58 86 59 87 60 88 61 64 62 65 63 74 64
REMARK SMILES IDX 66 65 67 66 73 67 75 68 68 69 69 70 70 71 71 72 72 73 6 74
REMARK SMILES IDX 7 75 8 76 9 77 10 78 11 79 12 80 13 81 17 82 14 83 16 84
REMARK SMILES IDX 15 85 18 86 19 87 36 88 20 89 28 90 27 91 21 92 22 93 26 94
REMARK SMILES IDX 23 95 25 96 24 97 29 98 30 99 35 100 31 101 33 102 32 103
REMARK SMILES IDX 34 104
REMARK H PARENT 96 23 62 34
REMARK Flexibility Score: inf
ROOT
ATOM      1  C   UNL     1       7.407  -3.523  -0.791  1.00  0.00     0.202 C 
ENDROOT
BRANCH   1   2
ATOM      2  C   UNL     1       8.319  -3.554   0.438  1.00  0.00     0.261 C 
BRANCH   2   3
ATOM      3  O   UNL     1       9.015  -2.299   0.582  1.00  0.00    -0.460 OA
BRANCH   3   4
ATOM      4  C   UNL     1      10.313  -2.061   0.240  1.00  0.00     0.338 C 
ATOM      5  O   UNL     1      10.805  -0.954   0.386  1.00  0.00    -0.246 OA
BRANCH   4   6
ATOM      6  C   UNL     1      11.151  -3.189  -0.230  1.00  0.00     0.060 A 
ATOM      7  C   UNL     1      10.686  -4.070  -1.193  1.00  0.00     0.016 A 
ATOM      8  C   UNL     1      12.423  -3.389   0.302  1.00  0.00     0.016 A 
ATOM      9  C   UNL     1      11.301  -5.268  -1.431  1.00  0.00     0.010 A 
ATOM     10  C   UNL     1      13.161  -4.508  -0.097  1.00  0.00     0.010 A 
ATOM     11  C   UNL     1      12.578  -5.468  -0.941  1.00  0.00    -0.014 A 
BRANCH  11  12
ATOM     12  C   UNL     1      13.232  -6.727  -1.322  1.00  0.00     0.031 A 
ATOM     13  C   UNL     1      13.562  -7.703  -0.245  1.00  0.00     0.074 A 
ATOM     14  C   UNL     1      13.378  -7.014  -2.632  1.00  0.00     0.049 A 
ATOM     15  N   UNL     1      14.281  -8.785  -0.315  1.00  0.00    -0.248 NA
ATOM     16  C   UNL     1      13.017  -7.422   1.095  1.00  0.00     0.031 C 
ATOM     17  C   UNL     1      12.923  -6.167  -3.747  1.00  0.00     0.029 A 
ATOM     18  N   UNL     1      13.906  -8.108  -3.256  1.00  0.00    -0.354 N 
ATOM     19  C   UNL     1      14.341  -9.274   0.982  1.00  0.00     0.074 A 
ATOM     20  C   UNL     1      13.570  -8.383   1.818  1.00  0.00     0.031 C 
ATOM     21  C   UNL     1      13.146  -6.798  -4.907  1.00  0.00     0.029 A 
ATOM     22  C   UNL     1      13.885  -8.016  -4.629  1.00  0.00     0.049 A 
ATOM     23  H   UNL     1      14.267  -8.886  -2.772  1.00  0.00     0.167 HD
ATOM     24  C   UNL     1      15.012 -10.364   1.415  1.00  0.00     0.037 A 
ATOM     25  C   UNL     1      14.472  -8.796  -5.553  1.00  0.00     0.037 A 
ATOM     26  C   UNL     1      15.743 -11.219   0.519  1.00  0.00     0.049 A 
ATOM     27  C   UNL     1      15.283  -9.950  -5.042  1.00  0.00     0.074 A 
ATOM     28  C   UNL     1      16.527 -12.316   0.812  1.00  0.00     0.029 A 
ATOM     29  N   UNL     1      15.762 -11.065  -0.865  1.00  0.00    -0.354 N 
ATOM     30  N   UNL     1      15.451 -10.346  -3.800  1.00  0.00    -0.248 NA
ATOM     31  C   UNL     1      16.006 -10.744  -6.037  1.00  0.00     0.031 C 
ATOM     32  C   UNL     1      17.055 -12.799  -0.391  1.00  0.00     0.029 A 
ATOM     33  C   UNL     1      16.553 -12.039  -1.441  1.00  0.00     0.049 A 
ATOM     34  H   UNL     1      15.280 -10.364  -1.361  1.00  0.00     0.167 HD
ATOM     35  C   UNL     1      16.292 -11.446  -3.861  1.00  0.00     0.074 A 
ATOM     36  C   UNL     1      16.580 -11.661  -5.269  1.00  0.00     0.031 C 
ATOM     37  C   UNL     1      16.789 -12.208  -2.856  1.00  0.00     0.037 A 
BRANCH  24  38
ATOM     38  C   UNL     1      15.053 -10.602   2.897  1.00  0.00     0.058 A 
ATOM     39  C   UNL     1      13.924 -11.008   3.626  1.00  0.00     0.135 A 
ATOM     40  C   UNL     1      16.239 -10.362   3.611  1.00  0.00     0.135 A 
ATOM     41  F   UNL     1      12.753 -11.213   3.002  1.00  0.00    -0.206 F 
ATOM     42  C   UNL     1      13.961 -11.136   5.013  1.00  0.00     0.059 A 
ATOM     43  C   UNL     1      16.306 -10.510   4.993  1.00  0.00     0.059 A 
ATOM     44  F   UNL     1      17.343  -9.951   2.967  1.00  0.00    -0.206 F 
ATOM     45  C   UNL     1      15.157 -10.880   5.687  1.00  0.00     0.060 A 
BRANCH  45  46
ATOM     46  S   UNL     1      15.183 -11.027   7.486  1.00  0.00     0.124 S 
ATOM     47  O   UNL     1      14.419  -9.848   7.886  1.00  0.00    -0.237 OA
ATOM     48  O   UNL     1      14.526 -12.311   7.703  1.00  0.00    -0.237 OA
ATOM     49  O   UNL     1      16.606 -10.991   7.810  1.00  0.00    -0.744 OA
ENDBRANCH  45  46
ENDBRANCH  24  38
BRANCH  25  50
ATOM     50  C   UNL     1      14.385  -8.453  -7.000  1.00  0.00     0.058 A 
ATOM     51  C   UNL     1      13.730  -9.293  -7.910  1.00  0.00     0.135 A 
ATOM     52  C   UNL     1      14.934  -7.258  -7.502  1.00  0.00     0.135 A 
ATOM     53  F   UNL     1      13.188 -10.445  -7.487  1.00  0.00    -0.206 F 
ATOM     54  C   UNL     1      13.634  -8.973  -9.262  1.00  0.00     0.059 A 
ATOM     55  C   UNL     1      14.823  -6.901  -8.841  1.00  0.00     0.059 A 
ATOM     56  F   UNL     1      15.561  -6.405  -6.676  1.00  0.00    -0.206 F 
ATOM     57  C   UNL     1      14.182  -7.772  -9.718  1.00  0.00     0.060 A 
BRANCH  57  58
ATOM     58  S   UNL     1      14.027  -7.354 -11.468  1.00  0.00     0.124 S 
ATOM     59  O   UNL     1      14.956  -8.299 -12.078  1.00  0.00    -0.237 OA
ATOM     60  O   UNL     1      12.610  -7.599 -11.718  1.00  0.00    -0.237 OA
ATOM     61  O   UNL     1      14.431  -5.952 -11.516  1.00  0.00    -0.744 OA
ENDBRANCH  57  58
ENDBRANCH  25  50
BRANCH  37  62
ATOM     62  C   UNL     1      17.647 -13.367  -3.260  1.00  0.00     0.058 A 
ATOM     63  C   UNL     1      18.962 -13.187  -3.710  1.00  0.00     0.135 A 
ATOM     64  C   UNL     1      17.159 -14.676  -3.130  1.00  0.00     0.135 A 
ATOM     65  F   UNL     1      19.463 -11.950  -3.861  1.00  0.00    -0.206 F 
ATOM     66  C   UNL     1      19.765 -14.272  -4.035  1.00  0.00     0.059 A 
ATOM     67  C   UNL     1      17.954 -15.776  -3.418  1.00  0.00     0.059 A 
ATOM     68  F   UNL     1      15.907 -14.892  -2.694  1.00  0.00    -0.206 F 
ATOM     69  C   UNL     1      19.253 -15.562  -3.878  1.00  0.00     0.060 A 
BRANCH  69  70
ATOM     70  S   UNL     1      20.323 -16.964  -4.250  1.00  0.00     0.124 S 
ATOM     71  O   UNL     1      20.349 -16.934  -5.708  1.00  0.00    -0.237 OA
ATOM     72  O   UNL     1      21.568 -16.590  -3.585  1.00  0.00    -0.237 OA
ATOM     73  O   UNL     1      19.618 -18.096  -3.656  1.00  0.00    -0.744 OA
ENDBRANCH  69  70
ENDBRANCH  37  62
ENDBRANCH  11  12
ENDBRANCH   4   6
ENDBRANCH   3   4
ENDBRANCH   2   3
ENDBRANCH   1   2
BRANCH   1  74
ATOM     74  O   UNL     1       8.006  -3.188  -2.035  1.00  0.00    -0.374 OA
BRANCH  74  75
ATOM     75  C   UNL     1       8.042  -1.799  -2.348  1.00  0.00     0.202 C 
BRANCH  75  76
ATOM     76  C   UNL     1       6.919  -1.465  -3.323  1.00  0.00     0.261 C 
BRANCH  76  77
ATOM     77  O   UNL     1       5.652  -1.795  -2.717  1.00  0.00    -0.462 OA
BRANCH  77  78
ATOM     78  C   UNL     1       5.193  -3.053  -3.005  1.00  0.00     0.328 C 
ATOM     79  O   UNL     1       5.680  -3.780  -3.865  1.00  0.00    -0.250 OA
BRANCH  78  80
ATOM     80  C   UNL     1       3.960  -3.420  -2.149  1.00  0.00     0.193 C 
ATOM     81  C   UNL     1       3.264  -4.630  -2.773  1.00  0.00     0.037 C 
ATOM     82  N   UNL     1       4.266  -3.640  -0.701  1.00  0.00    -0.343 N 
ATOM     83  C   UNL     1       3.985  -5.922  -2.421  1.00  0.00     0.005 C 
ATOM     84  C   UNL     1       4.420  -4.970  -0.099  1.00  0.00     0.119 C 
ATOM     85  C   UNL     1       3.893  -6.135  -0.925  1.00  0.00     0.022 C 
BRANCH  82  86
ATOM     86  C   UNL     1       3.823  -2.662   0.184  1.00  0.00     0.134 A 
ATOM     87  C   UNL     1       4.576  -2.248   1.273  1.00  0.00     0.076 A 
ATOM     88  N   UNL     1       2.595  -2.189  -0.016  1.00  0.00    -0.211 NA
ATOM     89  C   UNL     1       4.019  -1.308   2.125  1.00  0.00     0.076 A 
ATOM     90  C   UNL     1       2.119  -1.307   0.870  1.00  0.00     0.162 A 
ATOM     91  N   UNL     1       2.773  -0.832   1.937  1.00  0.00    -0.228 NA
BRANCH  89  92
ATOM     92  C   UNL     1       4.727  -0.755   3.295  1.00  0.00     0.000 A 
ATOM     93  C   UNL     1       4.111  -0.743   4.561  1.00  0.00     0.010 A 
ATOM     94  C   UNL     1       6.002  -0.173   3.185  1.00  0.00     0.010 A 
ATOM     95  C   UNL     1       4.737  -0.165   5.670  1.00  0.00     0.001 A 
ATOM     96  C   UNL     1       6.624   0.417   4.292  1.00  0.00     0.001 A 
ATOM     97  C   UNL     1       5.990   0.423   5.533  1.00  0.00     0.000 A 
ENDBRANCH  89  92
BRANCH  90  98
ATOM     98  C   UNL     1       0.767  -0.842   0.611  1.00  0.00     0.021 A 
ATOM     99  C   UNL     1      -0.282  -1.768   0.454  1.00  0.00     0.012 A 
ATOM    100  C   UNL     1       0.503   0.520   0.419  1.00  0.00     0.032 A 
ATOM    101  C   UNL     1      -1.561  -1.346   0.102  1.00  0.00     0.002 A 
ATOM    102  C   UNL     1      -0.772   0.935   0.047  1.00  0.00     0.041 A 
ATOM    103  C   UNL     1      -1.804   0.009  -0.112  1.00  0.00     0.020 A 
ATOM    104  Cl  UNL     1      -1.070   2.603  -0.251  1.00  0.00    -0.084 Cl
ENDBRANCH  90  98
ENDBRANCH  82  86
ENDBRANCH  78  80
ENDBRANCH  77  78
ENDBRANCH  76  77
ENDBRANCH  75  76
ENDBRANCH  74  75
ENDBRANCH   1  74
TORSDOF 20
