REMARK SMILES O=C(OCCOCCOC(=O)[C@@H]1[C@H](C(=O)Nc2ccc(Cn3cncn3)cc2)[C@@H]2C=C[C@H]1CC2)c1ccc(-c2c3nc(c(-c4c(F)cc(S(=O)(=O)[O-])cc4F)c4ccc([nH]4)c(-c4c(F)cc(S(=O)(=O)[O-])cc4F)c4nc(c(-c5c(F)cc(S(=O)(=O)[O-])cc5F)c5ccc2[nH]5)C=C4)C=C3)cc1
REMARK SMILES IDX 7 1 6 2 5 3 4 4 3 5 2 6 1 7 35 8 36 9 100 10 37 11 99 12
REMARK SMILES IDX 38 13 39 14 40 15 93 16 41 17 98 18 92 19 94 20 42 21 97 22
REMARK SMILES IDX 91 23 90 24 43 26 77 27 56 28 76 29 57 30 60 31 75 32 95 33
REMARK SMILES IDX 58 34 59 35 74 37 96 38 61 39 44 40 45 41 54 42 46 43 47 44
REMARK SMILES IDX 53 45 55 46 48 47 49 48 50 49 51 50 52 51 78 52 79 53 88 54
REMARK SMILES IDX 80 55 81 56 87 57 89 58 82 59 83 60 84 61 85 62 86 63 62 64
REMARK SMILES IDX 63 65 72 66 64 67 65 68 71 69 73 70 66 71 67 72 68 73 69 74
REMARK SMILES IDX 70 75 8 76 9 77 10 78 11 79 12 80 13 81 32 82 29 83 31 84
REMARK SMILES IDX 33 85 30 86 34 87 14 88 15 89 16 90 17 92 18 93 28 94 19 95
REMARK SMILES IDX 27 96 20 97 21 98 22 99 23 100 26 101 24 102 25 103
REMARK H PARENT 94 25 60 36 16 91
REMARK Flexibility Score: inf
ROOT
ATOM      1  C   UNL     1       3.853  -1.675  -1.352  1.00  0.00     0.202 C 
ENDROOT
BRANCH   1   2
ATOM      2  O   UNL     1       4.616  -0.545  -0.895  1.00  0.00    -0.374 OA
BRANCH   2   3
ATOM      3  C   UNL     1       4.958  -0.573   0.488  1.00  0.00     0.202 C 
BRANCH   3   4
ATOM      4  C   UNL     1       4.674   0.732   1.222  1.00  0.00     0.261 C 
BRANCH   4   5
ATOM      5  O   UNL     1       3.270   0.980   1.433  1.00  0.00    -0.460 OA
BRANCH   5   6
ATOM      6  C   UNL     1       2.410   0.741   0.408  1.00  0.00     0.338 C 
ATOM      7  O   UNL     1       1.645  -0.192   0.367  1.00  0.00    -0.246 OA
BRANCH   6   8
ATOM      8  C   UNL     1       2.233   1.903  -0.468  1.00  0.00     0.060 A 
ATOM      9  C   UNL     1       3.317   2.622  -0.954  1.00  0.00     0.016 A 
ATOM     10  C   UNL     1       0.917   2.267  -0.785  1.00  0.00     0.016 A 
ATOM     11  C   UNL     1       3.086   3.796  -1.628  1.00  0.00     0.010 A 
ATOM     12  C   UNL     1       0.684   3.420  -1.514  1.00  0.00     0.010 A 
ATOM     13  C   UNL     1       1.772   4.204  -1.886  1.00  0.00    -0.014 A 
BRANCH  13  14
ATOM     14  C   UNL     1       1.651   5.451  -2.614  1.00  0.00     0.031 A 
ATOM     15  C   UNL     1       2.357   5.493  -3.920  1.00  0.00     0.074 A 
ATOM     16  C   UNL     1       0.996   6.528  -2.155  1.00  0.00     0.049 A 
ATOM     17  N   UNL     1       3.415   6.170  -4.226  1.00  0.00    -0.248 NA
ATOM     18  C   UNL     1       1.895   4.576  -4.968  1.00  0.00     0.031 C 
ATOM     19  C   UNL     1       0.038   6.621  -1.055  1.00  0.00     0.029 A 
ATOM     20  N   UNL     1       1.017   7.785  -2.671  1.00  0.00    -0.354 N 
ATOM     21  C   UNL     1       3.656   5.909  -5.570  1.00  0.00     0.074 A 
ATOM     22  C   UNL     1       2.768   4.835  -5.943  1.00  0.00     0.031 C 
ATOM     23  C   UNL     1      -0.590   7.816  -1.128  1.00  0.00     0.029 A 
ATOM     24  C   UNL     1       0.021   8.608  -2.183  1.00  0.00     0.049 A 
ATOM     25  H   UNL     1       1.683   8.082  -3.333  1.00  0.00     0.167 HD
ATOM     26  C   UNL     1       4.448   6.710  -6.332  1.00  0.00     0.037 A 
ATOM     27  C   UNL     1      -0.323   9.817  -2.684  1.00  0.00     0.037 A 
ATOM     28  C   UNL     1       5.296   7.556  -5.534  1.00  0.00     0.049 A 
ATOM     29  C   UNL     1       0.845  10.350  -3.436  1.00  0.00     0.074 A 
ATOM     30  C   UNL     1       6.278   7.329  -4.589  1.00  0.00     0.029 A 
ATOM     31  N   UNL     1       4.971   8.885  -5.418  1.00  0.00    -0.354 N 
ATOM     32  N   UNL     1       1.961  10.742  -2.884  1.00  0.00    -0.248 NA
ATOM     33  C   UNL     1       0.922  10.092  -4.867  1.00  0.00     0.031 C 
ATOM     34  C   UNL     1       6.151   8.395  -3.651  1.00  0.00     0.029 A 
ATOM     35  C   UNL     1       5.112   9.215  -4.093  1.00  0.00     0.049 A 
ATOM     36  H   UNL     1       4.692   9.487  -6.145  1.00  0.00     0.167 HD
ATOM     37  C   UNL     1       2.954  10.393  -3.789  1.00  0.00     0.074 A 
ATOM     38  C   UNL     1       2.247  10.103  -5.031  1.00  0.00     0.031 C 
ATOM     39  C   UNL     1       4.227  10.113  -3.382  1.00  0.00     0.037 A 
BRANCH  26  40
ATOM     40  C   UNL     1       4.227   6.940  -7.803  1.00  0.00     0.058 A 
ATOM     41  C   UNL     1       5.229   7.558  -8.577  1.00  0.00     0.135 A 
ATOM     42  C   UNL     1       2.958   6.827  -8.414  1.00  0.00     0.135 A 
ATOM     43  F   UNL     1       6.466   7.729  -8.083  1.00  0.00    -0.206 F 
ATOM     44  C   UNL     1       4.971   8.084  -9.843  1.00  0.00     0.059 A 
ATOM     45  C   UNL     1       2.694   7.294  -9.694  1.00  0.00     0.059 A 
ATOM     46  F   UNL     1       1.895   6.349  -7.755  1.00  0.00    -0.206 F 
ATOM     47  C   UNL     1       3.692   7.965 -10.382  1.00  0.00     0.060 A 
BRANCH  47  48
ATOM     48  S   UNL     1       3.312   8.761 -11.952  1.00  0.00     0.124 S 
ATOM     49  O   UNL     1       3.237  10.162 -11.552  1.00  0.00    -0.237 OA
ATOM     50  O   UNL     1       4.461   8.391 -12.772  1.00  0.00    -0.237 OA
ATOM     51  O   UNL     1       2.048   8.144 -12.342  1.00  0.00    -0.744 OA
ENDBRANCH  47  48
ENDBRANCH  26  40
BRANCH  27  52
ATOM     52  C   UNL     1      -1.694  10.365  -2.812  1.00  0.00     0.058 A 
ATOM     53  C   UNL     1      -1.903  11.716  -3.129  1.00  0.00     0.135 A 
ATOM     54  C   UNL     1      -2.823   9.523  -2.885  1.00  0.00     0.135 A 
ATOM     55  F   UNL     1      -0.877  12.581  -3.115  1.00  0.00    -0.206 F 
ATOM     56  C   UNL     1      -3.151  12.197  -3.536  1.00  0.00     0.059 A 
ATOM     57  C   UNL     1      -4.079   9.982  -3.268  1.00  0.00     0.059 A 
ATOM     58  F   UNL     1      -2.724   8.201  -2.678  1.00  0.00    -0.206 F 
ATOM     59  C   UNL     1      -4.229  11.316  -3.619  1.00  0.00     0.060 A 
BRANCH  59  60
ATOM     60  S   UNL     1      -5.794  11.892  -4.312  1.00  0.00     0.124 S 
ATOM     61  O   UNL     1      -6.280  12.779  -3.260  1.00  0.00    -0.237 OA
ATOM     62  O   UNL     1      -5.364  12.540  -5.546  1.00  0.00    -0.237 OA
ATOM     63  O   UNL     1      -6.559  10.661  -4.493  1.00  0.00    -0.744 OA
ENDBRANCH  59  60
ENDBRANCH  27  52
BRANCH  39  64
ATOM     64  C   UNL     1       4.645  10.524  -1.995  1.00  0.00     0.058 A 
ATOM     65  C   UNL     1       4.057  10.035  -0.815  1.00  0.00     0.135 A 
ATOM     66  C   UNL     1       5.781  11.337  -1.854  1.00  0.00     0.135 A 
ATOM     67  F   UNL     1       3.041   9.160  -0.862  1.00  0.00    -0.206 F 
ATOM     68  C   UNL     1       4.544  10.383   0.446  1.00  0.00     0.059 A 
ATOM     69  C   UNL     1       6.304  11.671  -0.607  1.00  0.00     0.059 A 
ATOM     70  F   UNL     1       6.431  11.782  -2.943  1.00  0.00    -0.206 F 
ATOM     71  C   UNL     1       5.668  11.203   0.541  1.00  0.00     0.060 A 
BRANCH  71  72
ATOM     72  S   UNL     1       6.345  11.583   2.173  1.00  0.00     0.124 S 
ATOM     73  O   UNL     1       5.397  12.571   2.675  1.00  0.00    -0.237 OA
ATOM     74  O   UNL     1       6.321  10.284   2.840  1.00  0.00    -0.237 OA
ATOM     75  O   UNL     1       7.682  12.093   1.877  1.00  0.00    -0.744 OA
ENDBRANCH  71  72
ENDBRANCH  39  64
ENDBRANCH  13  14
ENDBRANCH   6   8
ENDBRANCH   5   6
ENDBRANCH   4   5
ENDBRANCH   3   4
ENDBRANCH   2   3
ENDBRANCH   1   2
BRANCH   1  76
ATOM     76  C   UNL     1       4.544  -3.041  -1.257  1.00  0.00     0.261 C 
BRANCH  76  77
ATOM     77  O   UNL     1       4.401  -3.605   0.070  1.00  0.00    -0.463 OA
BRANCH  77  78
ATOM     78  C   UNL     1       5.478  -3.580   0.879  1.00  0.00     0.310 C 
ATOM     79  O   UNL     1       6.580  -3.153   0.545  1.00  0.00    -0.252 OA
BRANCH  78  80
ATOM     80  C   UNL     1       5.222  -4.073   2.290  1.00  0.00     0.119 C 
ATOM     81  C   UNL     1       4.473  -5.395   2.511  1.00  0.00     0.100 C 
ATOM     82  C   UNL     1       4.861  -3.047   3.424  1.00  0.00     0.026 C 
ATOM     83  C   UNL     1       3.983  -5.445   3.987  1.00  0.00     0.025 C 
ATOM     84  C   UNL     1       3.418  -3.128   3.900  1.00  0.00    -0.027 C 
ATOM     85  C   UNL     1       5.599  -3.557   4.689  1.00  0.00     0.009 C 
ATOM     86  C   UNL     1       2.969  -4.360   4.196  1.00  0.00    -0.027 C 
ATOM     87  C   UNL     1       5.180  -5.045   4.928  1.00  0.00     0.009 C 
BRANCH  81  88
ATOM     88  C   UNL     1       3.564  -5.992   1.419  1.00  0.00     0.228 C 
ATOM     89  O   UNL     1       4.036  -6.942   0.765  1.00  0.00    -0.274 OA
ATOM     90  N   UNL     1       2.267  -5.714   1.126  1.00  0.00    -0.326 N 
ATOM     91  H   UNL     1       1.857  -6.438   0.599  1.00  0.00     0.169 HD
BRANCH  90  92
ATOM     92  C   UNL     1       1.352  -4.680   1.367  1.00  0.00     0.041 A 
ATOM     93  C   UNL     1      -0.015  -4.984   1.333  1.00  0.00     0.026 A 
ATOM     94  C   UNL     1       1.698  -3.362   1.575  1.00  0.00     0.026 A 
ATOM     95  C   UNL     1      -0.988  -4.015   1.641  1.00  0.00     0.008 A 
ATOM     96  C   UNL     1       0.744  -2.405   1.930  1.00  0.00     0.008 A 
ATOM     97  C   UNL     1      -0.611  -2.712   1.976  1.00  0.00    -0.026 A 
BRANCH  97  98
ATOM     98  C   UNL     1      -1.590  -1.637   2.374  1.00  0.00     0.181 C 
BRANCH  98  99
ATOM     99  N   UNL     1      -2.127  -0.902   1.243  1.00  0.00    -0.249 N 
ATOM    100  C   UNL     1      -2.950  -1.372   0.266  1.00  0.00     0.220 A 
ATOM    101  N   UNL     1      -2.020   0.442   1.168  1.00  0.00    -0.160 NA
ATOM    102  N   UNL     1      -3.354  -0.379  -0.491  1.00  0.00    -0.224 NA
ATOM    103  C   UNL     1      -2.753   0.705   0.083  1.00  0.00     0.246 A 
ENDBRANCH  98  99
ENDBRANCH  97  98
ENDBRANCH  90  92
ENDBRANCH  81  88
ENDBRANCH  78  80
ENDBRANCH  77  78
ENDBRANCH  76  77
ENDBRANCH   1  76
TORSDOF 21
