REMARK SMILES O=C(OCCOCCOC(=O)c1ccc(-c2c3nc(c(-c4c(F)cc(S(=O)(=O)[O-])cc4F)c4ccc([nH]4)c(-c4c(F)cc(S(=O)(=O)[O-])cc4F)c4nc(c(-c5c(F)cc(S(=O)(=O)[O-])cc5F)c5ccc2[nH]5)C=C4)C=C3)cc1)C1=Cc2cc(S(F)(F)(F)(F)F)ccc2O[C@@H]1C(F)(F)F
REMARK SMILES IDX 7 1 6 2 5 3 4 4 3 5 2 6 1 7 78 8 79 9 93 10 80 11 92 12
REMARK SMILES IDX 81 13 91 14 82 15 90 16 89 17 94 18 95 19 96 20 97 21 83 22
REMARK SMILES IDX 84 23 85 24 86 25 87 26 88 27 8 28 9 29 10 30 11 31 12 32
REMARK SMILES IDX 13 33 77 34 14 35 76 36 15 37 16 38 17 39 70 40 18 41 75 42
REMARK SMILES IDX 69 43 71 44 19 45 74 46 68 47 67 48 20 50 54 51 33 52 53 53
REMARK SMILES IDX 34 54 37 55 52 56 72 57 35 58 36 59 51 61 73 62 38 63 21 64
REMARK SMILES IDX 22 65 31 66 23 67 24 68 30 69 32 70 25 71 26 72 27 73 28 74
REMARK SMILES IDX 29 75 55 76 56 77 65 78 57 79 58 80 64 81 66 82 59 83 60 84
REMARK SMILES IDX 61 85 62 86 63 87 39 88 40 89 49 90 41 91 42 92 48 93 50 94
REMARK SMILES IDX 43 95 44 96 45 97 46 98 47 99
REMARK H PARENT 71 49 37 60
REMARK Flexibility Score: inf
ROOT
ATOM      1  C   UNL     1       3.008  -1.354  -0.374  1.00  0.00     0.202 C 
ENDROOT
BRANCH   1   2
ATOM      2  O   UNL     1       4.428  -1.354  -0.374  1.00  0.00    -0.374 OA
BRANCH   2   3
ATOM      3  C   UNL     1       4.901  -0.892   0.883  1.00  0.00     0.202 C 
BRANCH   3   4
ATOM      4  C   UNL     1       4.395   0.520   1.127  1.00  0.00     0.261 C 
BRANCH   4   5
ATOM      5  O   UNL     1       2.975   0.520   1.127  1.00  0.00    -0.460 OA
BRANCH   5   6
ATOM      6  C   UNL     1       2.265   0.096  -0.027  1.00  0.00     0.338 C 
ATOM      7  O   UNL     1       0.994   0.096  -0.027  1.00  0.00    -0.246 OA
BRANCH   6   8
ATOM      8  C   UNL     1       3.025  -0.358  -1.262  1.00  0.00     0.087 C 
ATOM      9  C   UNL     1       4.385  -0.358  -1.262  1.00  0.00     0.027 C 
ATOM     10  C   UNL     1       2.265  -0.812  -2.498  1.00  0.00     0.316 C 
ATOM     11  C   UNL     1       5.145   0.096  -0.027  1.00  0.00     0.019 A 
ATOM     12  O   UNL     1       3.506  -1.026   1.277  1.00  0.00    -0.475 OA
ATOM     13  C   UNL     1       6.270   0.894  -0.156  1.00  0.00     0.036 A 
ATOM     14  C   UNL     1       4.747  -0.347   1.160  1.00  0.00     0.128 A 
ATOM     15  C   UNL     1       7.080   0.934   1.003  1.00  0.00     0.107 A 
ATOM     16  C   UNL     1       5.526  -0.154   2.275  1.00  0.00     0.048 A 
ATOM     17  C   UNL     1       6.680   0.575   2.210  1.00  0.00     0.028 A 
BRANCH  10  18
ATOM     18  C   UNL     1       2.632  -2.252  -2.818  1.00  0.00     0.430 C 
ATOM     19  F   UNL     1       2.311  -3.031  -1.789  1.00  0.00    -0.167 F 
ATOM     20  F   UNL     1       1.967  -2.649  -3.899  1.00  0.00    -0.167 F 
ATOM     21  F   UNL     1       3.939  -2.336  -3.046  1.00  0.00    -0.167 F 
ENDBRANCH  10  18
BRANCH  15  22
ATOM     22  S   UNL     1       8.784   1.518   0.820  1.00  0.00     0.310 S 
ATOM     23  F   UNL     1       9.017   1.524   2.389  1.00  0.00    -0.094 F 
ATOM     24  F   UNL     1       8.260   2.997   0.961  1.00  0.00    -0.094 F 
ATOM     25  F   UNL     1      10.246   2.021   0.662  1.00  0.00    -0.094 F 
ATOM     26  F   UNL     1       9.306   0.027   0.822  1.00  0.00    -0.094 F 
ATOM     27  F   UNL     1       7.319   0.990   1.093  1.00  0.00    -0.094 F 
ENDBRANCH  15  22
ENDBRANCH   6   8
ENDBRANCH   5   6
ENDBRANCH   4   5
ENDBRANCH   3   4
ENDBRANCH   2   3
ENDBRANCH   1   2
BRANCH   1  28
ATOM     28  C   UNL     1       2.501  -2.271   0.727  1.00  0.00     0.261 C 
BRANCH  28  29
ATOM     29  O   UNL     1       2.975  -1.810   1.984  1.00  0.00    -0.460 OA
BRANCH  29  30
ATOM     30  C   UNL     1       4.371  -1.720   2.227  1.00  0.00     0.338 C 
ATOM     31  O   UNL     1       5.197  -2.053   1.320  1.00  0.00    -0.246 OA
BRANCH  30  32
ATOM     32  C   UNL     1       4.878  -1.226   3.572  1.00  0.00     0.060 A 
ATOM     33  C   UNL     1       5.978  -0.387   3.635  1.00  0.00     0.016 A 
ATOM     34  C   UNL     1       4.310  -1.700   4.675  1.00  0.00     0.016 A 
ATOM     35  C   UNL     1       6.589  -0.337   4.910  1.00  0.00     0.010 A 
ATOM     36  C   UNL     1       4.890  -1.497   5.903  1.00  0.00     0.010 A 
ATOM     37  C   UNL     1       6.013  -0.728   6.032  1.00  0.00    -0.014 A 
BRANCH  37  38
ATOM     38  C   UNL     1       6.569  -0.343   7.394  1.00  0.00     0.031 A 
ATOM     39  C   UNL     1       6.951  -1.381   8.245  1.00  0.00     0.074 A 
ATOM     40  C   UNL     1       6.734   1.000   7.687  1.00  0.00     0.049 A 
ATOM     41  N   UNL     1       7.551  -1.280   9.432  1.00  0.00    -0.248 NA
ATOM     42  C   UNL     1       6.745  -2.807   7.950  1.00  0.00     0.031 C 
ATOM     43  C   UNL     1       6.359   2.052   6.830  1.00  0.00     0.029 A 
ATOM     44  N   UNL     1       7.274   1.556   8.826  1.00  0.00    -0.354 N 
ATOM     45  C   UNL     1       7.776  -2.494   9.940  1.00  0.00     0.074 A 
ATOM     46  C   UNL     1       7.255  -3.493   8.997  1.00  0.00     0.031 C 
ATOM     47  C   UNL     1       6.657   3.225   7.447  1.00  0.00     0.029 A 
ATOM     48  C   UNL     1       7.225   2.926   8.700  1.00  0.00     0.049 A 
ATOM     49  H   UNL     1       7.633   1.059   9.596  1.00  0.00     0.167 HD
ATOM     50  C   UNL     1       8.396  -2.807  11.150  1.00  0.00     0.037 A 
ATOM     51  C   UNL     1       7.644   3.878   9.616  1.00  0.00     0.037 A 
ATOM     52  C   UNL     1       8.855  -1.855  12.047  1.00  0.00     0.049 A 
ATOM     53  C   UNL     1       8.212   3.566  10.854  1.00  0.00     0.074 A 
ATOM     54  C   UNL     1       9.489  -2.154  13.268  1.00  0.00     0.029 A 
ATOM     55  N   UNL     1       8.783  -0.484  11.932  1.00  0.00    -0.354 N 
ATOM     56  N   UNL     1       8.472   2.352  11.343  1.00  0.00    -0.248 NA
ATOM     57  C   UNL     1       8.630   4.565  11.846  1.00  0.00     0.031 C 
ATOM     58  C   UNL     1       9.788  -0.980  13.886  1.00  0.00     0.029 A 
ATOM     59  C   UNL     1       9.344   0.071  13.061  1.00  0.00     0.049 A 
ATOM     60  H   UNL     1       8.398   0.012  11.175  1.00  0.00     0.167 HD
ATOM     61  C   UNL     1       9.035   2.454  12.549  1.00  0.00     0.074 A 
ATOM     62  C   UNL     1       9.138   3.879  12.893  1.00  0.00     0.031 C 
ATOM     63  C   UNL     1       9.470   1.416  13.375  1.00  0.00     0.037 A 
BRANCH  50  64
ATOM     64  C   UNL     1       8.579  -4.274  11.505  1.00  0.00     0.058 A 
ATOM     65  C   UNL     1       9.273  -5.113  10.649  1.00  0.00     0.135 A 
ATOM     66  C   UNL     1       8.013  -4.736  12.614  1.00  0.00     0.135 A 
ATOM     67  F   UNL     1      10.061  -4.665   9.675  1.00  0.00    -0.206 F 
ATOM     68  C   UNL     1       9.069  -6.489  10.905  1.00  0.00     0.059 A 
ATOM     69  C   UNL     1       7.969  -6.085  12.866  1.00  0.00     0.059 A 
ATOM     70  F   UNL     1       7.485  -3.884  13.488  1.00  0.00    -0.206 F 
ATOM     71  C   UNL     1       8.583  -6.978  12.032  1.00  0.00     0.060 A 
BRANCH  71  72
ATOM     72  S   UNL     1       8.724  -8.733  12.450  1.00  0.00     0.124 S 
ATOM     73  O   UNL     1       8.018  -9.570  11.380  1.00  0.00    -0.237 OA
ATOM     74  O   UNL     1      10.201  -9.126  12.513  1.00  0.00    -0.237 OA
ATOM     75  O   UNL     1       7.993  -9.018  13.969  1.00  0.00    -0.744 OA
ENDBRANCH  71  72
ENDBRANCH  50  64
BRANCH  51  76
ATOM     76  C   UNL     1       7.476   5.345   9.254  1.00  0.00     0.058 A 
ATOM     77  C   UNL     1       8.629   6.109   9.179  1.00  0.00     0.135 A 
ATOM     78  C   UNL     1       6.284   5.870   9.000  1.00  0.00     0.135 A 
ATOM     79  F   UNL     1       9.850   5.582   9.175  1.00  0.00    -0.206 F 
ATOM     80  C   UNL     1       8.390   7.502   9.108  1.00  0.00     0.059 A 
ATOM     81  C   UNL     1       6.143   7.223   8.805  1.00  0.00     0.059 A 
ATOM     82  F   UNL     1       5.216   5.080   8.932  1.00  0.00    -0.206 F 
ATOM     83  C   UNL     1       7.233   8.047   8.778  1.00  0.00     0.060 A 
BRANCH  83  84
ATOM     84  S   UNL     1       7.099   9.791   8.314  1.00  0.00     0.124 S 
ATOM     85  O   UNL     1       7.573  10.666   9.477  1.00  0.00    -0.237 OA
ATOM     86  O   UNL     1       7.970  10.061   7.085  1.00  0.00    -0.237 OA
ATOM     87  O   UNL     1       5.470  10.161   7.950  1.00  0.00    -0.744 OA
ENDBRANCH  83  84
ENDBRANCH  51  76
BRANCH  63  88
ATOM     88  C   UNL     1      10.122   1.782  14.698  1.00  0.00     0.058 A 
ATOM     89  C   UNL     1       9.435   2.562  15.613  1.00  0.00     0.135 A 
ATOM     90  C   UNL     1      11.371   1.392  14.925  1.00  0.00     0.135 A 
ATOM     91  F   UNL     1       8.121   2.764  15.553  1.00  0.00    -0.206 F 
ATOM     92  C   UNL     1      10.257   3.125  16.618  1.00  0.00     0.059 A 
ATOM     93  C   UNL     1      12.070   1.878  16.004  1.00  0.00     0.059 A 
ATOM     94  F   UNL     1      11.950   0.523  14.102  1.00  0.00    -0.206 F 
ATOM     95  C   UNL     1      11.471   2.701  16.917  1.00  0.00     0.060 A 
BRANCH  95  96
ATOM     96  S   UNL     1      12.298   3.183  18.453  1.00  0.00     0.124 S 
ATOM     97  O   UNL     1      12.445   4.706  18.497  1.00  0.00    -0.237 OA
ATOM     98  O   UNL     1      11.466   2.716  19.649  1.00  0.00    -0.237 OA
ATOM     99  O   UNL     1      13.847   2.460  18.518  1.00  0.00    -0.744 OA
ENDBRANCH  95  96
ENDBRANCH  63  88
ENDBRANCH  37  38
ENDBRANCH  30  32
ENDBRANCH  29  30
ENDBRANCH  28  29
ENDBRANCH   1  28
TORSDOF 19
