REMARK SMILES CC1=C[C@H](C)[C@H](CN2C[C@@]34C=C[C@@H](O3)[C@H](C(=O)OCCOCCOC(=O)c3ccc(-c5c6nc(c(-c7c(F)cc(S(=O)(=O)[O-])cc7F)c7ccc([nH]7)c(-c7c(F)cc(S(=O)(=O)[O-])cc7F)c7nc(c(-c8c(F)cc(S(=O)(=O)[O-])cc8F)c8ccc5[nH]8)C=C7)C=C6)cc3)[C@@H]4C2=O)[C@H](C)C1
REMARK SMILES IDX 22 1 21 2 20 3 19 4 18 5 16 6 17 7 15 8 8 9 9 10 94 11 10 12
REMARK SMILES IDX 93 13 95 14 11 15 14 16 12 17 13 18 7 19 6 20 1 21 2 22 3 23
REMARK SMILES IDX 98 24 4 25 96 26 5 27 97 28 23 29 24 30 25 31 26 32 27 33
REMARK SMILES IDX 28 34 92 35 29 36 91 37 30 38 31 39 32 40 85 41 33 42 90 43
REMARK SMILES IDX 84 44 86 45 34 46 89 47 83 48 82 49 35 51 69 52 48 53 68 54
REMARK SMILES IDX 49 55 52 56 67 57 87 58 50 59 51 60 66 62 88 63 53 64 36 65
REMARK SMILES IDX 37 66 46 67 38 68 39 69 45 70 47 71 40 72 41 73 42 74 43 75
REMARK SMILES IDX 44 76 70 77 71 78 80 79 72 80 73 81 79 82 81 83 74 84 75 85
REMARK SMILES IDX 76 86 77 87 78 88 54 89 55 90 64 91 56 92 57 93 63 94 65 95
REMARK SMILES IDX 58 96 59 97 60 98 61 99 62 100
REMARK H PARENT 86 50 52 61
REMARK Flexibility Score: inf
ROOT
ATOM      1  C   UNL     1      -7.428  -0.186   9.506  1.00  0.00     0.202 C 
ENDROOT
BRANCH   1   2
ATOM      2  O   UNL     1      -8.467  -0.376   8.548  1.00  0.00    -0.374 OA
BRANCH   2   3
ATOM      3  C   UNL     1      -8.651  -1.674   7.991  1.00  0.00     0.202 C 
BRANCH   3   4
ATOM      4  C   UNL     1      -7.533  -2.255   7.112  1.00  0.00     0.261 C 
BRANCH   4   5
ATOM      5  O   UNL     1      -6.213  -1.951   7.594  1.00  0.00    -0.463 OA
BRANCH   5   6
ATOM      6  C   UNL     1      -5.569  -1.027   6.851  1.00  0.00     0.312 C 
ATOM      7  O   UNL     1      -5.980  -0.560   5.790  1.00  0.00    -0.252 OA
BRANCH   6   8
ATOM      8  C   UNL     1      -4.304  -0.497   7.441  1.00  0.00     0.148 C 
ATOM      9  N   UNL     1      -1.455  -1.938   5.469  1.00  0.00    -0.339 N 
ATOM     10  C   UNL     1      -0.841  -1.480   6.753  1.00  0.00     0.160 C 
ATOM     11  C   UNL     1      -2.873  -2.081   5.723  1.00  0.00     0.230 C 
ATOM     12  C   UNL     1      -2.048  -1.301   7.689  1.00  0.00     0.117 C 
ATOM     13  C   UNL     1      -3.113  -0.951   6.660  1.00  0.00     0.133 C 
ATOM     14  O   UNL     1      -3.690  -2.742   5.105  1.00  0.00    -0.274 OA
ATOM     15  C   UNL     1      -2.456  -2.430   8.601  1.00  0.00     0.009 C 
ATOM     16  O   UNL     1      -2.305  -0.193   8.569  1.00  0.00    -0.360 OA
ATOM     17  C   UNL     1      -3.495  -1.981   9.316  1.00  0.00     0.004 C 
ATOM     18  C   UNL     1      -3.739  -0.584   8.858  1.00  0.00     0.157 C 
BRANCH   9  19
ATOM     19  C   UNL     1      -1.325  -1.117   4.277  1.00  0.00     0.124 C 
BRANCH  19  20
ATOM     20  C   UNL     1      -0.018  -0.880   3.524  1.00  0.00     0.018 C 
ATOM     21  C   UNL     1       1.445   0.027  -0.613  1.00  0.00     0.039 C 
ATOM     22  C   UNL     1       1.012  -0.315   0.783  1.00  0.00    -0.077 C 
ATOM     23  C   UNL     1       0.821  -1.583   1.172  1.00  0.00    -0.025 C 
ATOM     24  C   UNL     1       0.839   0.838   1.715  1.00  0.00     0.034 C 
ATOM     25  C   UNL     1       0.368  -2.028   2.538  1.00  0.00     0.014 C 
ATOM     26  C   UNL     1      -0.090   0.581   2.905  1.00  0.00    -0.005 C 
ATOM     27  C   UNL     1      -0.684  -3.131   2.341  1.00  0.00     0.012 C 
ATOM     28  C   UNL     1      -1.510   1.104   2.558  1.00  0.00     0.008 C 
ENDBRANCH  19  20
ENDBRANCH   9  19
ENDBRANCH   6   8
ENDBRANCH   5   6
ENDBRANCH   4   5
ENDBRANCH   3   4
ENDBRANCH   2   3
ENDBRANCH   1   2
BRANCH   1  29
ATOM     29  C   UNL     1      -7.319  -1.154  10.694  1.00  0.00     0.261 C 
BRANCH  29  30
ATOM     30  O   UNL     1      -7.114  -2.525  10.301  1.00  0.00    -0.460 OA
BRANCH  30  31
ATOM     31  C   UNL     1      -7.935  -3.408  10.926  1.00  0.00     0.338 C 
ATOM     32  O   UNL     1      -8.715  -3.163  11.832  1.00  0.00    -0.246 OA
BRANCH  31  33
ATOM     33  C   UNL     1      -7.905  -4.725  10.266  1.00  0.00     0.060 A 
ATOM     34  C   UNL     1      -9.059  -5.139   9.588  1.00  0.00     0.016 A 
ATOM     35  C   UNL     1      -6.845  -5.610  10.469  1.00  0.00     0.016 A 
ATOM     36  C   UNL     1      -9.179  -6.460   9.157  1.00  0.00     0.010 A 
ATOM     37  C   UNL     1      -6.974  -6.940  10.045  1.00  0.00     0.010 A 
ATOM     38  C   UNL     1      -8.158  -7.380   9.427  1.00  0.00    -0.014 A 
BRANCH  38  39
ATOM     39  C   UNL     1      -8.411  -8.826   9.198  1.00  0.00     0.031 A 
ATOM     40  C   UNL     1      -8.856  -9.686  10.353  1.00  0.00     0.074 A 
ATOM     41  C   UNL     1      -8.291  -9.357   7.969  1.00  0.00     0.049 A 
ATOM     42  N   UNL     1      -9.145 -10.961  10.373  1.00  0.00    -0.248 NA
ATOM     43  C   UNL     1      -8.995  -9.018  11.658  1.00  0.00     0.031 C 
ATOM     44  C   UNL     1      -7.892  -8.625   6.768  1.00  0.00     0.029 A 
ATOM     45  N   UNL     1      -8.492 -10.642   7.529  1.00  0.00    -0.354 N 
ATOM     46  C   UNL     1      -9.492 -11.253  11.687  1.00  0.00     0.074 A 
ATOM     47  C   UNL     1      -9.359 -10.024  12.441  1.00  0.00     0.031 C 
ATOM     48  C   UNL     1      -7.861  -9.477   5.729  1.00  0.00     0.029 A 
ATOM     49  C   UNL     1      -8.220 -10.816   6.193  1.00  0.00     0.049 A 
ATOM     50  H   UNL     1      -8.801 -11.370   8.115  1.00  0.00     0.167 HD
ATOM     51  C   UNL     1      -9.892 -12.434  12.216  1.00  0.00     0.037 A 
ATOM     52  C   UNL     1      -8.241 -11.931   5.436  1.00  0.00     0.037 A 
ATOM     53  C   UNL     1     -10.036 -13.653  11.464  1.00  0.00     0.049 A 
ATOM     54  C   UNL     1      -8.658 -13.239   6.054  1.00  0.00     0.074 A 
ATOM     55  C   UNL     1     -10.474 -14.890  11.904  1.00  0.00     0.029 A 
ATOM     56  N   UNL     1      -9.738 -13.791  10.117  1.00  0.00    -0.354 N 
ATOM     57  N   UNL     1      -9.024 -13.489   7.290  1.00  0.00    -0.248 NA
ATOM     58  C   UNL     1      -8.671 -14.418   5.175  1.00  0.00     0.031 C 
ATOM     59  C   UNL     1     -10.402 -15.787  10.832  1.00  0.00     0.029 A 
ATOM     60  C   UNL     1      -9.958 -15.098   9.715  1.00  0.00     0.049 A 
ATOM     61  H   UNL     1      -9.417 -13.067   9.532  1.00  0.00     0.167 HD
ATOM     62  C   UNL     1      -9.327 -14.846   7.331  1.00  0.00     0.074 A 
ATOM     63  C   UNL     1      -9.115 -15.362   5.994  1.00  0.00     0.031 C 
ATOM     64  C   UNL     1      -9.743 -15.597   8.380  1.00  0.00     0.037 A 
BRANCH  51  65
ATOM     65  C   UNL     1     -10.184 -12.475  13.690  1.00  0.00     0.058 A 
ATOM     66  C   UNL     1     -11.357 -11.920  14.226  1.00  0.00     0.135 A 
ATOM     67  C   UNL     1      -9.300 -13.118  14.571  1.00  0.00     0.135 A 
ATOM     68  F   UNL     1     -12.227 -11.280  13.429  1.00  0.00    -0.206 F 
ATOM     69  C   UNL     1     -11.635 -11.986  15.588  1.00  0.00     0.059 A 
ATOM     70  C   UNL     1      -9.568 -13.213  15.933  1.00  0.00     0.059 A 
ATOM     71  F   UNL     1      -8.163 -13.662  14.109  1.00  0.00    -0.206 F 
ATOM     72  C   UNL     1     -10.733 -12.634  16.434  1.00  0.00     0.060 A 
BRANCH  72  73
ATOM     73  S   UNL     1     -11.110 -12.723  18.198  1.00  0.00     0.124 S 
ATOM     74  O   UNL     1     -10.813 -11.360  18.628  1.00  0.00    -0.237 OA
ATOM     75  O   UNL     1     -12.522 -13.094  18.199  1.00  0.00    -0.237 OA
ATOM     76  O   UNL     1     -10.196 -13.749  18.689  1.00  0.00    -0.744 OA
ENDBRANCH  72  73
ENDBRANCH  51  65
BRANCH  52  77
ATOM     77  C   UNL     1      -7.834 -11.863   4.008  1.00  0.00     0.058 A 
ATOM     78  C   UNL     1      -8.771 -12.001   2.975  1.00  0.00     0.135 A 
ATOM     79  C   UNL     1      -6.491 -11.660   3.652  1.00  0.00     0.135 A 
ATOM     80  F   UNL     1     -10.065 -12.208   3.266  1.00  0.00    -0.206 F 
ATOM     81  C   UNL     1      -8.391 -11.956   1.637  1.00  0.00     0.059 A 
ATOM     82  C   UNL     1      -6.090 -11.588   2.323  1.00  0.00     0.059 A 
ATOM     83  F   UNL     1      -5.558 -11.513   4.606  1.00  0.00    -0.206 F 
ATOM     84  C   UNL     1      -7.047 -11.748   1.321  1.00  0.00     0.060 A 
BRANCH  84  85
ATOM     85  S   UNL     1      -6.566 -11.649  -0.417  1.00  0.00     0.124 S 
ATOM     86  O   UNL     1      -6.582 -13.054  -0.805  1.00  0.00    -0.237 OA
ATOM     87  O   UNL     1      -7.623 -10.818  -0.984  1.00  0.00    -0.237 OA
ATOM     88  O   UNL     1      -5.248 -11.023  -0.363  1.00  0.00    -0.744 OA
ENDBRANCH  84  85
ENDBRANCH  52  77
BRANCH  64  89
ATOM     89  C   UNL     1     -10.017 -17.052   8.123  1.00  0.00     0.058 A 
ATOM     90  C   UNL     1      -8.975 -17.977   7.956  1.00  0.00     0.135 A 
ATOM     91  C   UNL     1     -11.335 -17.535   8.089  1.00  0.00     0.135 A 
ATOM     92  F   UNL     1      -7.697 -17.566   7.976  1.00  0.00    -0.206 F 
ATOM     93  C   UNL     1      -9.230 -19.328   7.741  1.00  0.00     0.059 A 
ATOM     94  C   UNL     1     -11.613 -18.885   7.898  1.00  0.00     0.059 A 
ATOM     95  F   UNL     1     -12.367 -16.693   8.255  1.00  0.00    -0.206 F 
ATOM     96  C   UNL     1     -10.553 -19.772   7.712  1.00  0.00     0.060 A 
BRANCH  96  97
ATOM     97  S   UNL     1     -10.875 -21.531   7.460  1.00  0.00     0.124 S 
ATOM     98  O   UNL     1     -10.668 -21.664   6.021  1.00  0.00    -0.237 OA
ATOM     99  O   UNL     1      -9.867 -22.162   8.306  1.00  0.00    -0.237 OA
ATOM    100  O   UNL     1     -12.253 -21.691   7.914  1.00  0.00    -0.744 OA
ENDBRANCH  96  97
ENDBRANCH  64  89
ENDBRANCH  38  39
ENDBRANCH  31  33
ENDBRANCH  30  31
ENDBRANCH  29  30
ENDBRANCH   1  29
TORSDOF 19
