REMARK SMILES C[C@H](NC(=O)c1ccc(N)cc1)C(=O)OCCOCCOC(=O)c1ccc(-c2c3nc(c(-c4c(F)cc(S(=O)(=O)[O-])cc4F)c4ccc([nH]4)c(-c4c(F)cc(S(=O)(=O)[O-])cc4F)c4nc(c(-c5c(F)cc(S(=O)(=O)[O-])cc5F)c5ccc2[nH]5)C=C4)C=C3)cc1
REMARK SMILES IDX 18 1 17 2 16 3 15 4 13 5 14 6 2 7 1 8 3 9 4 10 5 12 6 13
REMARK SMILES IDX 7 14 12 15 8 16 11 17 9 18 10 19 19 22 20 23 21 24 22 25
REMARK SMILES IDX 23 26 24 27 25 28 89 29 26 30 88 31 27 32 28 33 29 34 82 35
REMARK SMILES IDX 30 36 87 37 81 38 83 39 31 40 86 41 80 42 79 43 32 45 66 46
REMARK SMILES IDX 45 47 65 48 46 49 49 50 64 51 84 52 47 53 48 54 63 56 85 57
REMARK SMILES IDX 50 58 33 59 34 60 43 61 35 62 36 63 42 64 44 65 37 66 38 67
REMARK SMILES IDX 39 68 40 69 41 70 67 71 68 72 77 73 69 74 70 75 76 76 78 77
REMARK SMILES IDX 71 78 72 79 73 80 74 81 75 82 51 83 52 84 61 85 53 86 54 87
REMARK SMILES IDX 60 88 62 89 55 90 56 91 57 92 58 93 59 94
REMARK H PARENT 3 11 10 20 10 21 83 44 49 55
REMARK Flexibility Score: inf
ROOT
ATOM      1  O   UNL     1      -3.263  -1.711  -0.666  1.00  0.00    -0.374 OA
ENDROOT
BRANCH   1   2
ATOM      2  C   UNL     1      -3.771  -0.821   0.328  1.00  0.00     0.202 C 
BRANCH   2   3
ATOM      3  C   UNL     1      -3.055  -0.828   1.683  1.00  0.00     0.261 C 
BRANCH   3   4
ATOM      4  O   UNL     1      -1.649  -0.575   1.540  1.00  0.00    -0.462 OA
BRANCH   4   5
ATOM      5  C   UNL     1      -0.836  -1.434   2.215  1.00  0.00     0.328 C 
ATOM      6  O   UNL     1      -1.213  -2.246   3.053  1.00  0.00    -0.250 OA
BRANCH   5   7
ATOM      7  C   UNL     1       0.640  -1.283   1.820  1.00  0.00     0.189 C 
ATOM      8  C   UNL     1       1.420  -0.777   3.025  1.00  0.00     0.043 C 
BRANCH   7   9
ATOM      9  N   UNL     1       0.902  -0.419   0.660  1.00  0.00    -0.339 N 
ATOM     10  C   UNL     1       1.883  -0.564  -0.292  1.00  0.00     0.251 C 
ATOM     11  H   UNL     1       0.304   0.356   0.552  1.00  0.00     0.164 HD
ATOM     12  O   UNL     1       2.089   0.292  -1.143  1.00  0.00    -0.269 OA
BRANCH  10  13
ATOM     13  C   UNL     1       2.694  -1.796  -0.281  1.00  0.00     0.039 A 
ATOM     14  C   UNL     1       2.112  -3.012  -0.647  1.00  0.00     0.016 A 
ATOM     15  C   UNL     1       4.027  -1.743   0.123  1.00  0.00     0.016 A 
ATOM     16  C   UNL     1       2.847  -4.192  -0.521  1.00  0.00     0.026 A 
ATOM     17  C   UNL     1       4.755  -2.932   0.238  1.00  0.00     0.026 A 
ATOM     18  C   UNL     1       4.155  -4.168  -0.027  1.00  0.00     0.031 A 
BRANCH  18  19
ATOM     19  N   UNL     1       4.885  -5.342   0.075  1.00  0.00    -0.399 N 
ATOM     20  H   UNL     1       4.454  -6.207  -0.114  1.00  0.00     0.156 HD
ATOM     21  H   UNL     1       5.833  -5.311   0.337  1.00  0.00     0.156 HD
ENDBRANCH  18  19
ENDBRANCH  10  13
ENDBRANCH   7   9
ENDBRANCH   5   7
ENDBRANCH   4   5
ENDBRANCH   3   4
ENDBRANCH   2   3
ENDBRANCH   1   2
BRANCH   1  22
ATOM     22  C   UNL     1      -2.026  -1.370  -1.292  1.00  0.00     0.202 C 
BRANCH  22  23
ATOM     23  C   UNL     1      -2.018  -0.168  -2.249  1.00  0.00     0.261 C 
BRANCH  23  24
ATOM     24  O   UNL     1      -2.354   1.076  -1.607  1.00  0.00    -0.460 OA
BRANCH  24  25
ATOM     25  C   UNL     1      -3.494   1.654  -2.062  1.00  0.00     0.338 C 
ATOM     26  O   UNL     1      -4.215   1.249  -2.965  1.00  0.00    -0.246 OA
BRANCH  25  27
ATOM     27  C   UNL     1      -3.887   2.782  -1.197  1.00  0.00     0.060 A 
ATOM     28  C   UNL     1      -5.165   2.740  -0.625  1.00  0.00     0.016 A 
ATOM     29  C   UNL     1      -3.072   3.902  -1.026  1.00  0.00     0.016 A 
ATOM     30  C   UNL     1      -5.648   3.837   0.086  1.00  0.00     0.010 A 
ATOM     31  C   UNL     1      -3.564   5.008  -0.319  1.00  0.00     0.010 A 
ATOM     32  C   UNL     1      -4.866   4.993   0.215  1.00  0.00    -0.014 A 
BRANCH  32  33
ATOM     33  C   UNL     1      -5.470   6.211   0.812  1.00  0.00     0.031 A 
ATOM     34  C   UNL     1      -6.007   7.290  -0.091  1.00  0.00     0.074 A 
ATOM     35  C   UNL     1      -5.593   6.325   2.147  1.00  0.00     0.049 A 
ATOM     36  N   UNL     1      -6.600   8.413   0.224  1.00  0.00    -0.248 NA
ATOM     37  C   UNL     1      -5.861   7.073  -1.539  1.00  0.00     0.031 C 
ATOM     38  C   UNL     1      -5.135   5.338   3.124  1.00  0.00     0.029 A 
ATOM     39  N   UNL     1      -6.145   7.323   2.912  1.00  0.00    -0.354 N 
ATOM     40  C   UNL     1      -6.907   9.032  -0.982  1.00  0.00     0.074 A 
ATOM     41  C   UNL     1      -6.403   8.177  -2.035  1.00  0.00     0.031 C 
ATOM     42  C   UNL     1      -5.418   5.784   4.361  1.00  0.00     0.029 A 
ATOM     43  C   UNL     1      -6.059   7.094   4.264  1.00  0.00     0.049 A 
ATOM     44  H   UNL     1      -6.563   8.127   2.527  1.00  0.00     0.167 HD
ATOM     45  C   UNL     1      -7.562  10.199  -1.194  1.00  0.00     0.037 A 
ATOM     46  C   UNL     1      -6.442   7.859   5.305  1.00  0.00     0.037 A 
ATOM     47  C   UNL     1      -8.060  11.053  -0.145  1.00  0.00     0.049 A 
ATOM     48  C   UNL     1      -7.122   9.178   5.043  1.00  0.00     0.074 A 
ATOM     49  C   UNL     1      -8.741  12.253  -0.262  1.00  0.00     0.029 A 
ATOM     50  N   UNL     1      -7.931  10.799   1.212  1.00  0.00    -0.354 N 
ATOM     51  N   UNL     1      -7.423   9.738   3.895  1.00  0.00    -0.248 NA
ATOM     52  C   UNL     1      -7.520   9.966   6.218  1.00  0.00     0.031 C 
ATOM     53  C   UNL     1      -8.990  12.743   1.025  1.00  0.00     0.029 A 
ATOM     54  C   UNL     1      -8.504  11.828   1.943  1.00  0.00     0.049 A 
ATOM     55  H   UNL     1      -7.497  10.005   1.599  1.00  0.00     0.167 HD
ATOM     56  C   UNL     1      -8.063  10.932   4.212  1.00  0.00     0.074 A 
ATOM     57  C   UNL     1      -8.124  11.004   5.657  1.00  0.00     0.031 C 
ATOM     58  C   UNL     1      -8.555  11.886   3.382  1.00  0.00     0.037 A 
BRANCH  45  59
ATOM     59  C   UNL     1      -7.780  10.630  -2.617  1.00  0.00     0.058 A 
ATOM     60  C   UNL     1      -8.737  10.008  -3.433  1.00  0.00     0.135 A 
ATOM     61  C   UNL     1      -7.068  11.716  -3.153  1.00  0.00     0.135 A 
ATOM     62  F   UNL     1      -9.433   8.954  -2.975  1.00  0.00    -0.206 F 
ATOM     63  C   UNL     1      -8.975  10.439  -4.734  1.00  0.00     0.059 A 
ATOM     64  C   UNL     1      -7.304  12.178  -4.444  1.00  0.00     0.059 A 
ATOM     65  F   UNL     1      -6.138  12.344  -2.416  1.00  0.00    -0.206 F 
ATOM     66  C   UNL     1      -8.255  11.527  -5.230  1.00  0.00     0.060 A 
BRANCH  66  67
ATOM     67  S   UNL     1      -8.597  12.094  -6.910  1.00  0.00     0.124 S 
ATOM     68  O   UNL     1      -7.977  11.039  -7.705  1.00  0.00    -0.237 OA
ATOM     69  O   UNL     1     -10.056  12.133  -6.936  1.00  0.00    -0.237 OA
ATOM     70  O   UNL     1      -7.938  13.395  -6.971  1.00  0.00    -0.744 OA
ENDBRANCH  66  67
ENDBRANCH  45  59
BRANCH  46  71
ATOM     71  C   UNL     1      -6.177   7.412   6.699  1.00  0.00     0.058 A 
ATOM     72  C   UNL     1      -7.222   7.039   7.556  1.00  0.00     0.135 A 
ATOM     73  C   UNL     1      -4.870   7.378   7.207  1.00  0.00     0.135 A 
ATOM     74  F   UNL     1      -8.490   7.065   7.119  1.00  0.00    -0.206 F 
ATOM     75  C   UNL     1      -6.984   6.673   8.878  1.00  0.00     0.059 A 
ATOM     76  C   UNL     1      -4.604   6.991   8.516  1.00  0.00     0.059 A 
ATOM     77  F   UNL     1      -3.833   7.714   6.423  1.00  0.00    -0.206 F 
ATOM     78  C   UNL     1      -5.670   6.655   9.349  1.00  0.00     0.060 A 
BRANCH  78  79
ATOM     79  S   UNL     1      -5.363   6.153  11.056  1.00  0.00     0.124 S 
ATOM     80  O   UNL     1      -5.756   7.351  11.789  1.00  0.00    -0.237 OA
ATOM     81  O   UNL     1      -6.242   4.997  11.202  1.00  0.00    -0.237 OA
ATOM     82  O   UNL     1      -3.936   5.847  11.062  1.00  0.00    -0.744 OA
ENDBRANCH  78  79
ENDBRANCH  46  71
BRANCH  58  83
ATOM     83  C   UNL     1      -9.219  13.075   4.019  1.00  0.00     0.058 A 
ATOM     84  C   UNL     1      -8.476  14.066   4.679  1.00  0.00     0.135 A 
ATOM     85  C   UNL     1     -10.613  13.235   3.952  1.00  0.00     0.135 A 
ATOM     86  F   UNL     1      -7.141  13.959   4.774  1.00  0.00    -0.206 F 
ATOM     87  C   UNL     1      -9.094  15.156   5.284  1.00  0.00     0.059 A 
ATOM     88  C   UNL     1     -11.249  14.331   4.527  1.00  0.00     0.059 A 
ATOM     89  F   UNL     1     -11.369  12.323   3.321  1.00  0.00    -0.206 F 
ATOM     90  C   UNL     1     -10.483  15.277   5.207  1.00  0.00     0.060 A 
BRANCH  90  91
ATOM     91  S   UNL     1     -11.277  16.696   5.993  1.00  0.00     0.124 S 
ATOM     92  O   UNL     1     -11.245  16.307   7.399  1.00  0.00    -0.237 OA
ATOM     93  O   UNL     1     -10.395  17.797   5.620  1.00  0.00    -0.237 OA
ATOM     94  O   UNL     1     -12.601  16.726   5.378  1.00  0.00    -0.744 OA
ENDBRANCH  90  91
ENDBRANCH  58  83
ENDBRANCH  32  33
ENDBRANCH  25  27
ENDBRANCH  24  25
ENDBRANCH  23  24
ENDBRANCH  22  23
ENDBRANCH   1  22
TORSDOF 20
