REMARK SMILES CC[NH+]1CC[NH+]([C@@H]2CC(=O)N(c3ccc(C(=O)OCCOCCOC(=O)c4ccc(-c5c6nc(c(-c7c(F)cc(S(=O)(=O)[O-])cc7F)c7ccc([nH]7)c(-c7c(F)cc(S(=O)(=O)[O-])cc7F)c7nc(c(-c8c(F)cc(S(=O)(=O)[O-])cc8F)c8ccc5[nH]8)C=C7)C=C6)cc4)cc3)C2=O)CC1
REMARK SMILES IDX 21 1 20 2 19 3 18 4 16 5 17 6 15 7 12 8 13 9 94 10 14 11
REMARK SMILES IDX 93 12 11 13 7 14 8 15 95 16 9 17 96 18 10 19 6 20 3 21 4 22
REMARK SMILES IDX 98 23 5 25 97 26 2 28 1 29 22 30 23 31 24 32 25 33 26 34
REMARK SMILES IDX 27 35 28 36 92 37 29 38 91 39 30 40 31 41 32 42 85 43 33 44
REMARK SMILES IDX 90 45 84 46 86 47 34 48 89 49 83 50 82 51 35 53 69 54 48 55
REMARK SMILES IDX 68 56 49 57 52 58 67 59 87 60 50 61 51 62 66 64 88 65 53 66
REMARK SMILES IDX 36 67 37 68 46 69 38 70 39 71 45 72 47 73 40 74 41 75 42 76
REMARK SMILES IDX 43 77 44 78 70 79 71 80 80 81 72 82 73 83 79 84 81 85 74 86
REMARK SMILES IDX 75 87 76 88 77 89 78 90 54 91 55 92 64 93 56 94 57 95 63 96
REMARK SMILES IDX 65 97 58 98 59 99 60 100 61 101 62 102
REMARK H PARENT 3 24 6 27 86 52 52 63
REMARK Flexibility Score: inf
ROOT
ATOM      1  O   UNL     1       8.511  -5.855   5.822  1.00  0.00    -0.374 OA
ENDROOT
BRANCH   1   2
ATOM      2  C   UNL     1       9.693  -5.709   5.032  1.00  0.00     0.202 C 
BRANCH   2   3
ATOM      3  C   UNL     1       9.497  -5.302   3.568  1.00  0.00     0.261 C 
BRANCH   3   4
ATOM      4  O   UNL     1       8.928  -3.987   3.460  1.00  0.00    -0.460 OA
BRANCH   4   5
ATOM      5  C   UNL     1       7.637  -3.954   3.061  1.00  0.00     0.338 C 
ATOM      6  O   UNL     1       6.954  -4.896   2.682  1.00  0.00    -0.246 OA
BRANCH   5   7
ATOM      7  C   UNL     1       7.066  -2.617   3.329  1.00  0.00     0.060 A 
ATOM      8  C   UNL     1       5.818  -0.140   3.780  1.00  0.00     0.052 A 
ATOM      9  C   UNL     1       5.154  -1.338   4.080  1.00  0.00     0.028 A 
ATOM     10  C   UNL     1       7.140  -0.202   3.313  1.00  0.00     0.028 A 
ATOM     11  C   UNL     1       5.759  -2.567   3.823  1.00  0.00     0.018 A 
ATOM     12  C   UNL     1       7.776  -1.435   3.116  1.00  0.00     0.018 A 
BRANCH   8  13
ATOM     13  N   UNL     1       5.100   1.081   3.826  1.00  0.00    -0.245 N 
ATOM     14  C   UNL     1       3.263   2.510   4.193  1.00  0.00     0.285 C 
ATOM     15  C   UNL     1       4.130   3.073   3.073  1.00  0.00     0.176 C 
ATOM     16  C   UNL     1       4.104   1.358   4.735  1.00  0.00     0.292 C 
ATOM     17  C   UNL     1       5.216   2.061   2.871  1.00  0.00     0.240 C 
ATOM     18  O   UNL     1       3.878   0.775   5.790  1.00  0.00    -0.267 OA
ATOM     19  O   UNL     1       6.011   2.133   1.944  1.00  0.00    -0.274 OA
BRANCH  14  20
ATOM     20  N   UNL     1       1.866   2.081   3.934  1.00  0.00    -0.315 N 
ATOM     21  N   UNL     1       1.151   1.586   1.040  1.00  0.00    -0.326 N 
ATOM     22  C   UNL     1       0.957   2.910   1.663  1.00  0.00     0.324 C 
ATOM     23  C   UNL     1       1.972   0.678   1.858  1.00  0.00     0.324 C 
ATOM     24  H   UNL     1       1.679   1.784   0.189  1.00  0.00     0.348 HD
ATOM     25  C   UNL     1       1.018   3.039   3.213  1.00  0.00     0.325 C 
ATOM     26  C   UNL     1       1.667   0.746   3.361  1.00  0.00     0.325 C 
ATOM     27  H   UNL     1       1.552   2.039   4.904  1.00  0.00     0.349 HD
BRANCH  21  28
ATOM     28  C   UNL     1      -0.091   0.943   0.606  1.00  0.00     0.259 C 
ATOM     29  C   UNL     1       0.185  -0.047  -0.531  1.00  0.00     0.071 C 
ENDBRANCH  21  28
ENDBRANCH  14  20
ENDBRANCH   8  13
ENDBRANCH   5   7
ENDBRANCH   4   5
ENDBRANCH   3   4
ENDBRANCH   2   3
ENDBRANCH   1   2
BRANCH   1  30
ATOM     30  C   UNL     1       7.928  -4.664   6.350  1.00  0.00     0.202 C 
BRANCH  30  31
ATOM     31  C   UNL     1       8.591  -4.047   7.588  1.00  0.00     0.261 C 
BRANCH  31  32
ATOM     32  O   UNL     1       9.910  -3.547   7.311  1.00  0.00    -0.460 OA
BRANCH  32  33
ATOM     33  C   UNL     1      10.917  -4.295   7.822  1.00  0.00     0.338 C 
ATOM     34  O   UNL     1      10.812  -5.287   8.531  1.00  0.00    -0.246 OA
BRANCH  33  35
ATOM     35  C   UNL     1      12.205  -3.861   7.253  1.00  0.00     0.060 A 
ATOM     36  C   UNL     1      13.015  -4.840   6.663  1.00  0.00     0.016 A 
ATOM     37  C   UNL     1      12.644  -2.539   7.350  1.00  0.00     0.016 A 
ATOM     38  C   UNL     1      14.291  -4.510   6.212  1.00  0.00     0.010 A 
ATOM     39  C   UNL     1      13.929  -2.212   6.902  1.00  0.00     0.010 A 
ATOM     40  C   UNL     1      14.771  -3.203   6.364  1.00  0.00    -0.014 A 
BRANCH  40  41
ATOM     41  C   UNL     1      16.198  -2.906   6.086  1.00  0.00     0.031 A 
ATOM     42  C   UNL     1      17.153  -2.769   7.241  1.00  0.00     0.074 A 
ATOM     43  C   UNL     1      16.640  -2.782   4.822  1.00  0.00     0.049 A 
ATOM     44  N   UNL     1      18.426  -2.468   7.233  1.00  0.00    -0.248 NA
ATOM     45  C   UNL     1      16.598  -3.001   8.585  1.00  0.00     0.031 C 
ATOM     46  C   UNL     1      15.818  -2.929   3.622  1.00  0.00     0.029 A 
ATOM     47  N   UNL     1      17.892  -2.494   4.339  1.00  0.00    -0.354 N 
ATOM     48  C   UNL     1      18.822  -2.463   8.566  1.00  0.00     0.074 A 
ATOM     49  C   UNL     1      17.647  -2.760   9.357  1.00  0.00     0.031 C 
ATOM     50  C   UNL     1      16.585  -2.719   2.539  1.00  0.00     0.029 A 
ATOM     51  C   UNL     1      17.943  -2.389   2.969  1.00  0.00     0.049 A 
ATOM     52  H   UNL     1      18.679  -2.374   4.918  1.00  0.00     0.167 HD
ATOM     53  C   UNL     1      20.054  -2.239   9.082  1.00  0.00     0.037 A 
ATOM     54  C   UNL     1      18.962  -2.042   2.158  1.00  0.00     0.037 A 
ATOM     55  C   UNL     1      21.219  -1.947   8.286  1.00  0.00     0.049 A 
ATOM     56  C   UNL     1      20.310  -1.734   2.759  1.00  0.00     0.074 A 
ATOM     57  C   UNL     1      22.518  -1.727   8.711  1.00  0.00     0.029 A 
ATOM     58  N   UNL     1      21.226  -1.826   6.904  1.00  0.00    -0.354 N 
ATOM     59  N   UNL     1      20.677  -1.756   4.019  1.00  0.00    -0.248 NA
ATOM     60  C   UNL     1      21.384  -1.359   1.828  1.00  0.00     0.031 C 
ATOM     61  C   UNL     1      23.298  -1.419   7.592  1.00  0.00     0.029 A 
ATOM     62  C   UNL     1      22.500  -1.507   6.463  1.00  0.00     0.049 A 
ATOM     63  H   UNL     1      20.441  -1.949   6.322  1.00  0.00     0.167 HD
ATOM     64  C   UNL     1      22.030  -1.428   4.028  1.00  0.00     0.074 A 
ATOM     65  C   UNL     1      22.417  -1.222   2.648  1.00  0.00     0.031 C 
ATOM     66  C   UNL     1      22.875  -1.312   5.083  1.00  0.00     0.037 A 
BRANCH  53  67
ATOM     67  C   UNL     1      20.203  -2.275  10.579  1.00  0.00     0.058 A 
ATOM     68  C   UNL     1      20.115  -3.473  11.305  1.00  0.00     0.135 A 
ATOM     69  C   UNL     1      20.473  -1.096  11.294  1.00  0.00     0.135 A 
ATOM     70  F   UNL     1      19.841  -4.627  10.676  1.00  0.00    -0.206 F 
ATOM     71  C   UNL     1      20.262  -3.498  12.689  1.00  0.00     0.059 A 
ATOM     72  C   UNL     1      20.653  -1.102  12.674  1.00  0.00     0.059 A 
ATOM     73  F   UNL     1      20.566   0.078  10.651  1.00  0.00    -0.206 F 
ATOM     74  C   UNL     1      20.531  -2.307  13.364  1.00  0.00     0.060 A 
BRANCH  74  75
ATOM     75  S   UNL     1      20.725  -2.357  15.159  1.00  0.00     0.124 S 
ATOM     76  O   UNL     1      19.351  -2.592  15.593  1.00  0.00    -0.237 OA
ATOM     77  O   UNL     1      21.646  -3.474  15.341  1.00  0.00    -0.237 OA
ATOM     78  O   UNL     1      21.267  -1.041  15.480  1.00  0.00    -0.744 OA
ENDBRANCH  74  75
ENDBRANCH  53  67
BRANCH  54  79
ATOM     79  C   UNL     1      18.745  -1.955   0.689  1.00  0.00     0.058 A 
ATOM     80  C   UNL     1      19.346  -2.869  -0.189  1.00  0.00     0.135 A 
ATOM     81  C   UNL     1      17.930  -0.956   0.134  1.00  0.00     0.135 A 
ATOM     82  F   UNL     1      20.143  -3.836   0.291  1.00  0.00    -0.206 F 
ATOM     83  C   UNL     1      19.159  -2.789  -1.565  1.00  0.00     0.059 A 
ATOM     84  C   UNL     1      17.705  -0.872  -1.236  1.00  0.00     0.059 A 
ATOM     85  F   UNL     1      17.324  -0.062   0.931  1.00  0.00    -0.206 F 
ATOM     86  C   UNL     1      18.332  -1.788  -2.079  1.00  0.00     0.060 A 
BRANCH  86  87
ATOM     87  S   UNL     1      18.056  -1.724  -3.863  1.00  0.00     0.124 S 
ATOM     88  O   UNL     1      19.345  -1.240  -4.343  1.00  0.00    -0.237 OA
ATOM     89  O   UNL     1      17.739  -3.115  -4.172  1.00  0.00    -0.237 OA
ATOM     90  O   UNL     1      16.942  -0.791  -3.996  1.00  0.00    -0.744 OA
ENDBRANCH  86  87
ENDBRANCH  54  79
BRANCH  66  91
ATOM     91  C   UNL     1      24.315  -0.984   4.790  1.00  0.00     0.058 A 
ATOM     92  C   UNL     1      24.713   0.290   4.357  1.00  0.00     0.135 A 
ATOM     93  C   UNL     1      25.317  -1.946   5.001  1.00  0.00     0.135 A 
ATOM     94  F   UNL     1      23.796   1.245   4.134  1.00  0.00    -0.206 F 
ATOM     95  C   UNL     1      26.050   0.592   4.119  1.00  0.00     0.059 A 
ATOM     96  C   UNL     1      26.663  -1.657   4.799  1.00  0.00     0.059 A 
ATOM     97  F   UNL     1      24.994  -3.178   5.426  1.00  0.00    -0.206 F 
ATOM     98  C   UNL     1      27.019  -0.388   4.346  1.00  0.00     0.060 A 
BRANCH  98  99
ATOM     99  S   UNL     1      28.753   0.028   4.066  1.00  0.00     0.124 S 
ATOM    100  O   UNL     1      28.814   0.072   2.609  1.00  0.00    -0.237 OA
ATOM    101  O   UNL     1      28.880   1.314   4.745  1.00  0.00    -0.237 OA
ATOM    102  O   UNL     1      29.474  -1.077   4.691  1.00  0.00    -0.744 OA
ENDBRANCH  98  99
ENDBRANCH  66  91
ENDBRANCH  40  41
ENDBRANCH  33  35
ENDBRANCH  32  33
ENDBRANCH  31  32
ENDBRANCH  30  31
ENDBRANCH   1  30
TORSDOF 20
