REMARK SMILES C[C@H]1[C@H]([NH+]2CCC(CC(=O)OCCOCCOC(=O)c3ccc(-c4c5nc(c(-c6c(F)cc(S(=O)(=O)[O-])cc6F)c6ccc([nH]6)c(-c6c(F)cc(S(=O)(=O)[O-])cc6F)c6nc(c(-c7c(F)cc(S(=O)(=O)[O-])cc7F)c7ccc4[nH]7)C=C6)C=C5)cc3)CC2)CCC[C@@H]1C
REMARK SMILES IDX 15 1 14 2 13 3 12 4 11 5 9 6 10 7 8 8 7 9 4 10 5 11 87 12
REMARK SMILES IDX 6 14 86 15 3 16 1 17 2 18 91 19 88 20 90 21 92 22 89 23
REMARK SMILES IDX 16 24 17 25 18 26 19 27 20 28 21 29 85 30 22 31 84 32 23 33
REMARK SMILES IDX 24 34 25 35 78 36 26 37 83 38 77 39 79 40 27 41 82 42 76 43
REMARK SMILES IDX 75 44 28 46 62 47 41 48 61 49 42 50 45 51 60 52 80 53 43 54
REMARK SMILES IDX 44 55 59 57 81 58 46 59 29 60 30 61 39 62 31 63 32 64 38 65
REMARK SMILES IDX 40 66 33 67 34 68 35 69 36 70 37 71 63 72 64 73 73 74 65 75
REMARK SMILES IDX 66 76 72 77 74 78 67 79 68 80 69 81 70 82 71 83 47 84 48 85
REMARK SMILES IDX 57 86 49 87 50 88 56 89 58 90 51 91 52 92 53 93 54 94 55 95
REMARK H PARENT 4 13 79 45 45 56
REMARK Flexibility Score: inf
ROOT
ATOM      1  C   UNL     1       0.545  -6.063   3.046  1.00  0.00     0.202 C 
ENDROOT
BRANCH   1   2
ATOM      2  O   UNL     1       1.767  -6.336   3.728  1.00  0.00    -0.374 OA
BRANCH   2   3
ATOM      3  C   UNL     1       2.586  -5.211   4.057  1.00  0.00     0.202 C 
BRANCH   3   4
ATOM      4  C   UNL     1       3.505  -4.720   2.935  1.00  0.00     0.261 C 
BRANCH   4   5
ATOM      5  O   UNL     1       2.776  -3.925   1.981  1.00  0.00    -0.463 OA
BRANCH   5   6
ATOM      6  C   UNL     1       2.491  -4.490   0.782  1.00  0.00     0.306 C 
ATOM      7  O   UNL     1       2.861  -5.596   0.411  1.00  0.00    -0.252 OA
BRANCH   6   8
ATOM      8  C   UNL     1       1.669  -3.555  -0.080  1.00  0.00     0.126 C 
BRANCH   8   9
ATOM      9  C   UNL     1       0.267  -3.156   0.435  1.00  0.00     0.011 C 
ATOM     10  N   UNL     1      -1.444  -0.838   1.213  1.00  0.00    -0.332 N 
ATOM     11  C   UNL     1      -1.625  -1.505  -0.079  1.00  0.00     0.262 C 
ATOM     12  C   UNL     1      -1.030  -1.821   2.201  1.00  0.00     0.262 C 
ATOM     13  H   UNL     1      -2.367  -0.485   1.465  1.00  0.00     0.348 HD
ATOM     14  C   UNL     1      -0.364  -2.195  -0.593  1.00  0.00     0.066 C 
ATOM     15  C   UNL     1       0.287  -2.506   1.826  1.00  0.00     0.066 C 
BRANCH  10  16
ATOM     16  C   UNL     1      -0.881   0.545   1.294  1.00  0.00     0.187 C 
ATOM     17  C   UNL     1       1.188   0.408   2.915  1.00  0.00     0.014 C 
ATOM     18  C   UNL     1       0.670   0.774   1.501  1.00  0.00     0.047 C 
ATOM     19  C   UNL     1       1.145   2.246   1.260  1.00  0.00    -0.006 C 
ATOM     20  C   UNL     1      -1.421   1.376   0.102  1.00  0.00     0.065 C 
ATOM     21  C   UNL     1       0.521   2.907   0.036  1.00  0.00     0.004 C 
ATOM     22  C   UNL     1       2.676   2.335   1.164  1.00  0.00     0.008 C 
ATOM     23  C   UNL     1      -0.990   2.830   0.119  1.00  0.00     0.006 C 
ENDBRANCH  10  16
ENDBRANCH   8   9
ENDBRANCH   6   8
ENDBRANCH   5   6
ENDBRANCH   4   5
ENDBRANCH   3   4
ENDBRANCH   2   3
ENDBRANCH   1   2
BRANCH   1  24
ATOM     24  C   UNL     1      -0.643  -5.660   3.931  1.00  0.00     0.261 C 
BRANCH  24  25
ATOM     25  O   UNL     1      -0.391  -4.455   4.676  1.00  0.00    -0.460 OA
BRANCH  25  26
ATOM     26  C   UNL     1      -0.100  -4.659   5.981  1.00  0.00     0.338 C 
ATOM     27  O   UNL     1      -0.142  -5.730   6.578  1.00  0.00    -0.246 OA
BRANCH  26  28
ATOM     28  C   UNL     1       0.447  -3.438   6.607  1.00  0.00     0.060 A 
ATOM     29  C   UNL     1       1.539  -3.610   7.465  1.00  0.00     0.016 A 
ATOM     30  C   UNL     1      -0.130  -2.173   6.447  1.00  0.00     0.016 A 
ATOM     31  C   UNL     1       1.996  -2.547   8.239  1.00  0.00     0.010 A 
ATOM     32  C   UNL     1       0.338  -1.101   7.223  1.00  0.00     0.010 A 
ATOM     33  C   UNL     1       1.363  -1.299   8.166  1.00  0.00    -0.014 A 
BRANCH  33  34
ATOM     34  C   UNL     1       1.669  -0.296   9.220  1.00  0.00     0.031 A 
ATOM     35  C   UNL     1       0.709  -0.128  10.371  1.00  0.00     0.074 A 
ATOM     36  C   UNL     1       2.838   0.371   9.220  1.00  0.00     0.049 A 
ATOM     37  N   UNL     1       0.827   0.599  11.453  1.00  0.00    -0.248 NA
ATOM     38  C   UNL     1      -0.551  -0.885  10.294  1.00  0.00     0.031 C 
ATOM     39  C   UNL     1       3.865   0.276   8.184  1.00  0.00     0.029 A 
ATOM     40  N   UNL     1       3.366   1.247  10.136  1.00  0.00    -0.354 N 
ATOM     41  C   UNL     1      -0.337   0.386  12.184  1.00  0.00     0.074 A 
ATOM     42  C   UNL     1      -1.168  -0.504  11.403  1.00  0.00     0.031 C 
ATOM     43  C   UNL     1       4.905   1.055   8.527  1.00  0.00     0.029 A 
ATOM     44  C   UNL     1       4.613   1.716   9.798  1.00  0.00     0.049 A 
ATOM     45  H   UNL     1       2.896   1.514  10.959  1.00  0.00     0.167 HD
ATOM     46  C   UNL     1      -0.679   0.871  13.402  1.00  0.00     0.037 A 
ATOM     47  C   UNL     1       5.426   2.579  10.439  1.00  0.00     0.037 A 
ATOM     48  C   UNL     1       0.150   1.752  14.184  1.00  0.00     0.049 A 
ATOM     49  C   UNL     1       5.010   3.134  11.777  1.00  0.00     0.074 A 
ATOM     50  C   UNL     1      -0.101   2.284  15.437  1.00  0.00     0.029 A 
ATOM     51  N   UNL     1       1.390   2.232  13.789  1.00  0.00    -0.354 N 
ATOM     52  N   UNL     1       3.918   2.901  12.466  1.00  0.00    -0.248 NA
ATOM     53  C   UNL     1       5.947   4.059  12.432  1.00  0.00     0.031 C 
ATOM     54  C   UNL     1       0.966   3.124  15.779  1.00  0.00     0.029 A 
ATOM     55  C   UNL     1       1.906   3.072  14.763  1.00  0.00     0.049 A 
ATOM     56  H   UNL     1       1.837   2.010  12.941  1.00  0.00     0.167 HD
ATOM     57  C   UNL     1       4.048   3.628  13.646  1.00  0.00     0.074 A 
ATOM     58  C   UNL     1       5.333   4.295  13.583  1.00  0.00     0.031 C 
ATOM     59  C   UNL     1       3.185   3.733  14.688  1.00  0.00     0.037 A 
BRANCH  46  60
ATOM     60  C   UNL     1      -2.021   0.475  13.955  1.00  0.00     0.058 A 
ATOM     61  C   UNL     1      -2.281  -0.829  14.407  1.00  0.00     0.135 A 
ATOM     62  C   UNL     1      -3.056   1.419  14.053  1.00  0.00     0.135 A 
ATOM     63  F   UNL     1      -1.334  -1.776  14.320  1.00  0.00    -0.206 F 
ATOM     64  C   UNL     1      -3.528  -1.190  14.909  1.00  0.00     0.059 A 
ATOM     65  C   UNL     1      -4.302   1.087  14.578  1.00  0.00     0.059 A 
ATOM     66  F   UNL     1      -2.863   2.680  13.634  1.00  0.00    -0.206 F 
ATOM     67  C   UNL     1      -4.533  -0.225  14.989  1.00  0.00     0.060 A 
BRANCH  67  68
ATOM     68  S   UNL     1      -6.146  -0.707  15.640  1.00  0.00     0.124 S 
ATOM     69  O   UNL     1      -6.682  -1.496  14.535  1.00  0.00    -0.237 OA
ATOM     70  O   UNL     1      -5.788  -1.458  16.839  1.00  0.00    -0.237 OA
ATOM     71  O   UNL     1      -6.812   0.569  15.880  1.00  0.00    -0.744 OA
ENDBRANCH  67  68
ENDBRANCH  46  60
BRANCH  47  72
ATOM     72  C   UNL     1       6.725   2.968   9.827  1.00  0.00     0.058 A 
ATOM     73  C   UNL     1       7.947   2.554  10.377  1.00  0.00     0.135 A 
ATOM     74  C   UNL     1       6.766   3.768   8.674  1.00  0.00     0.135 A 
ATOM     75  F   UNL     1       7.961   1.798  11.486  1.00  0.00    -0.206 F 
ATOM     76  C   UNL     1       9.164   2.929   9.816  1.00  0.00     0.059 A 
ATOM     77  C   UNL     1       7.969   4.134   8.080  1.00  0.00     0.059 A 
ATOM     78  F   UNL     1       5.625   4.183   8.102  1.00  0.00    -0.206 F 
ATOM     79  C   UNL     1       9.164   3.717   8.664  1.00  0.00     0.060 A 
BRANCH  79  80
ATOM     80  S   UNL     1      10.746   4.153   7.910  1.00  0.00     0.124 S 
ATOM     81  O   UNL     1      11.248   5.158   8.839  1.00  0.00    -0.237 OA
ATOM     82  O   UNL     1      11.449   2.873   7.911  1.00  0.00    -0.237 OA
ATOM     83  O   UNL     1      10.363   4.646   6.590  1.00  0.00    -0.744 OA
ENDBRANCH  79  80
ENDBRANCH  47  72
BRANCH  59  84
ATOM     84  C   UNL     1       3.618   4.575  15.859  1.00  0.00     0.058 A 
ATOM     85  C   UNL     1       3.698   5.974  15.777  1.00  0.00     0.135 A 
ATOM     86  C   UNL     1       3.945   3.973  17.085  1.00  0.00     0.135 A 
ATOM     87  F   UNL     1       3.398   6.602  14.629  1.00  0.00    -0.206 F 
ATOM     88  C   UNL     1       4.133   6.743  16.853  1.00  0.00     0.059 A 
ATOM     89  C   UNL     1       4.352   4.724  18.184  1.00  0.00     0.059 A 
ATOM     90  F   UNL     1       3.869   2.640  17.226  1.00  0.00    -0.206 F 
ATOM     91  C   UNL     1       4.465   6.107  18.050  1.00  0.00     0.060 A 
BRANCH  91  92
ATOM     92  S   UNL     1       5.040   7.111  19.437  1.00  0.00     0.124 S 
ATOM     93  O   UNL     1       6.406   7.420  19.027  1.00  0.00    -0.237 OA
ATOM     94  O   UNL     1       4.106   8.232  19.423  1.00  0.00    -0.237 OA
ATOM     95  O   UNL     1       4.915   6.213  20.581  1.00  0.00    -0.744 OA
ENDBRANCH  91  92
ENDBRANCH  59  84
ENDBRANCH  33  34
ENDBRANCH  26  28
ENDBRANCH  25  26
ENDBRANCH  24  25
ENDBRANCH   1  24
TORSDOF 19
