REMARK SMILES O=C(C[C@@H]1C(=O)O[C@H]2[C@@H]3OC(=O)c4cc(O)c(O)c(O)c4-c4ccccc4C(=O)OC[C@@H]2O[C@@H](OC(=O)c2cc(O)c(O)c(O)c2)[C@@H]3OC(=O)c2cc(O)c(O)c3c2[C@@H]1[C@H](O)C(=O)O3)OCCOCCOC(=O)c1ccc(-c2c3nc(c(-c4c(F)cc(S(=O)(=O)[O-])cc4F)c4ccc([nH]4)c(-c4c(F)cc(S(=O)(=O)[O-])cc4F)c4nc(c(-c5c(F)cc(S(=O)(=O)[O-])cc5F)c5ccc2[nH]5)C=C4)C=C3)cc1
REMARK SMILES IDX 1 1 2 2 3 3 4 4 5 6 6 7 7 8 8 9 9 10 32 11 47 12 33 13 34 15
REMARK SMILES IDX 10 16 11 17 12 18 13 19 14 20 21 21 15 22 19 23 17 24 22 25
REMARK SMILES IDX 23 26 27 27 24 28 26 29 25 30 28 31 29 32 30 33 31 34 16 36
REMARK SMILES IDX 20 38 18 40 48 42 49 43 50 44 51 45 52 46 58 47 53 48 57 49
REMARK SMILES IDX 59 50 55 51 64 52 60 53 62 55 63 56 54 57 56 59 61 61 35 63
REMARK SMILES IDX 36 64 37 65 38 66 39 67 46 68 40 69 44 70 42 71 41 72 45 74
REMARK SMILES IDX 43 76 65 78 66 79 67 80 68 81 69 82 70 83 71 84 72 85 73 86
REMARK SMILES IDX 74 87 75 88 139 89 76 90 138 91 77 92 78 93 79 94 132 95
REMARK SMILES IDX 80 96 137 97 131 98 133 99 81 100 136 101 130 102 129 103
REMARK SMILES IDX 82 105 116 106 95 107 115 108 96 109 99 110 114 111 134 112
REMARK SMILES IDX 97 113 98 114 113 116 135 117 100 118 83 119 84 120 93 121
REMARK SMILES IDX 85 122 86 123 92 124 94 125 87 126 88 127 89 128 90 129
REMARK SMILES IDX 91 130 117 131 118 132 127 133 119 134 120 135 126 136
REMARK SMILES IDX 128 137 121 138 122 139 123 140 124 141 125 142 101 143
REMARK SMILES IDX 102 144 111 145 103 146 104 147 110 148 112 149 105 150
REMARK SMILES IDX 106 151 107 152 108 153 109 154
REMARK H PARENT 16 37 20 39 18 41 54 58 56 60 61 62 41 73 45 75 43 77 133 104
REMARK H PARENT 99 115
REMARK Flexibility Score: 170.00
ROOT
ATOM      1  O   UNL     1       0.662  -0.365   0.757  1.00  0.00    -0.252 OA
ATOM      2  C   UNL     1       1.749  -0.733   1.212  1.00  0.00     0.306 C 
ENDROOT
BRANCH   2   3
ATOM      3  C   UNL     1       2.116  -0.362   2.679  1.00  0.00     0.138 C 
BRANCH   3   4
ATOM      4  C   UNL     1       3.005   0.839   3.159  1.00  0.00     0.121 CG0
ATOM      5  G   UNL     1       2.630   1.975   2.040  1.00  0.00     0.000 G0
BRANCH   4   6
ATOM      6  C   UNL     1       3.700   1.278   4.763  1.00  0.00     0.310 C 
ATOM      7  O   UNL     1       3.138   0.948   5.810  1.00  0.00    -0.252 OA
BRANCH   6   8
ATOM      8  O   UNL     1       4.752   2.230   4.897  1.00  0.00    -0.455 OA
BRANCH   8   9
ATOM      9  C   UNL     1       5.715   1.921   3.966  1.00  0.00     0.254 C 
ATOM     10  C   UNL     1       5.076   2.385   2.746  1.00  0.00     0.267 C 
ATOM     11  C   UNL     1       7.263   2.075   3.546  1.00  0.00     0.205 CG1
ATOM     12  C   UNL     1       5.377   0.954   1.801  1.00  0.00     0.290 C 
ATOM     13  O   UNL     1       7.572   0.663   3.065  1.00  0.00    -0.329 OA
ATOM     14  G   UNL     1       7.965   3.447   2.556  1.00  0.00     0.000 G1
ATOM     15  C   UNL     1       6.453  -0.069   2.369  1.00  0.00     0.357 C 
BRANCH  10  16
ATOM     16  O   UNL     1       3.453   3.331   2.901  1.00  0.00    -0.450 OA
BRANCH  16  17
ATOM     17  C   UNL     1       2.299   4.071   1.548  1.00  0.00     0.339 C 
ATOM     18  O   UNL     1       1.090   3.767   1.542  1.00  0.00    -0.246 OA
BRANCH  17  19
ATOM     19  C   UNL     1       2.682   5.128   0.056  1.00  0.00     0.075 A 
ATOM     20  C   UNL     1       1.438   5.843   0.128  1.00  0.00     0.066 A 
ATOM     21  C   UNL     1       3.730   5.551  -1.152  1.00  0.00     0.043 A 
ATOM     22  C   UNL     1       0.995   6.750  -0.792  1.00  0.00     0.162 A 
ATOM     23  C   UNL     1       3.081   6.494  -2.054  1.00  0.00     0.170 A 
ATOM     24  C   UNL     1       1.780   7.040  -1.872  1.00  0.00     0.200 A 
BRANCH  21  25
ATOM     25  C   UNL     1       5.377   5.125  -1.825  1.00  0.00     0.001 A 
ATOM     26  C   UNL     1       5.209   4.399  -3.024  1.00  0.00     0.010 A 
ATOM     27  C   UNL     1       7.014   5.215  -1.382  1.00  0.00     0.068 A 
ATOM     28  C   UNL     1       6.302   3.918  -3.772  1.00  0.00     0.001 A 
ATOM     29  C   UNL     1       8.009   4.854  -2.295  1.00  0.00     0.016 A 
ATOM     30  C   UNL     1       7.645   4.176  -3.449  1.00  0.00     0.001 A 
BRANCH  27  31
ATOM     31  C   UNL     1       7.936   4.991   0.210  1.00  0.00     0.338 C 
ATOM     32  O   UNL     1       8.691   5.859   0.642  1.00  0.00    -0.246 OA
BRANCH  31  33
ATOM     33  O   UNL     1       7.765   3.714   1.005  1.00  0.00    -0.459 OA
BRANCH  33  34
ATOM     34  C   UNL     1       7.965   3.447   2.556  1.00  0.00     0.269 CG1
ATOM     35  G   UNL     1       7.263   2.075   3.546  1.00  0.00     0.000 G1
ENDBRANCH  33  34
ENDBRANCH  31  33
ENDBRANCH  27  31
ENDBRANCH  21  25
BRANCH  22  36
ATOM     36  O   UNL     1      -0.234   7.305  -0.600  1.00  0.00    -0.504 OA
ATOM     37  H   UNL     1      -0.737   7.076   0.157  1.00  0.00     0.293 HD
ENDBRANCH  22  36
BRANCH  23  38
ATOM     38  O   UNL     1       3.619   6.970  -3.238  1.00  0.00    -0.504 OA
ATOM     39  H   UNL     1       3.135   7.577  -3.762  1.00  0.00     0.293 HD
ENDBRANCH  23  38
BRANCH  24  40
ATOM     40  O   UNL     1       1.226   7.885  -2.806  1.00  0.00    -0.502 OA
ATOM     41  H   UNL     1       0.368   8.236  -2.670  1.00  0.00     0.293 HD
ENDBRANCH  24  40
ENDBRANCH  17  19
ENDBRANCH  16  17
ENDBRANCH  10  16
BRANCH  12  42
ATOM     42  O   UNL     1       6.051   1.196   0.551  1.00  0.00    -0.448 OA
BRANCH  42  43
ATOM     43  C   UNL     1       5.406   1.777  -0.451  1.00  0.00     0.339 C 
ATOM     44  O   UNL     1       5.750   1.681  -1.613  1.00  0.00    -0.246 OA
BRANCH  43  45
ATOM     45  C   UNL     1       4.753   2.921   0.150  1.00  0.00     0.071 A 
ATOM     46  C   UNL     1       5.543   4.047   0.241  1.00  0.00     0.066 A 
ATOM     47  C   UNL     1       3.947   3.176   1.133  1.00  0.00     0.021 A 
ATOM     48  C   UNL     1       5.571   5.573   0.926  1.00  0.00     0.162 A 
ATOM     49  C   UNL     1       4.167   4.825   2.020  1.00  0.00     0.180 A 
ATOM     50  C   UNL     1       2.630   1.975   2.040  1.00  0.00     0.079 CG0
ATOM     51  C   UNL     1       4.843   5.949   1.937  1.00  0.00     0.201 A 
ATOM     52  O   UNL     1       2.968   5.231   3.232  1.00  0.00    -0.420 OA
ATOM     53  C   UNL     1       1.556   2.852   3.443  1.00  0.00     0.232 C 
ATOM     54  G   UNL     1       3.005   0.839   3.159  1.00  0.00     0.000 G0
ATOM     55  C   UNL     1       1.771   4.544   3.869  1.00  0.00     0.341 C 
ATOM     56  O   UNL     1       1.056   5.157   4.655  1.00  0.00    -0.249 OA
BRANCH  48  57
ATOM     57  O   UNL     1       6.132   6.685   0.302  1.00  0.00    -0.504 OA
ATOM     58  H   UNL     1       6.685   6.573  -0.446  1.00  0.00     0.293 HD
ENDBRANCH  48  57
BRANCH  51  59
ATOM     59  O   UNL     1       4.616   7.155   2.422  1.00  0.00    -0.502 OA
ATOM     60  H   UNL     1       5.224   7.849   2.255  1.00  0.00     0.293 HD
ENDBRANCH  51  59
BRANCH  53  61
ATOM     61  O   UNL     1       0.295   2.210   3.553  1.00  0.00    -0.381 OA
ATOM     62  H   UNL     1      -0.203   2.332   2.729  1.00  0.00     0.211 HD
ENDBRANCH  53  61
ENDBRANCH  43  45
ENDBRANCH  42  43
ENDBRANCH  12  42
BRANCH  15  63
ATOM     63  O   UNL     1       5.959  -1.559   2.633  1.00  0.00    -0.428 OA
BRANCH  63  64
ATOM     64  C   UNL     1       4.842  -2.045   3.295  1.00  0.00     0.340 C 
ATOM     65  O   UNL     1       4.299  -1.364   4.151  1.00  0.00    -0.246 OA
BRANCH  64  66
ATOM     66  C   UNL     1       4.140  -3.379   2.768  1.00  0.00     0.067 A 
ATOM     67  C   UNL     1       2.741  -3.442   2.518  1.00  0.00     0.066 A 
ATOM     68  C   UNL     1       4.775  -4.602   2.554  1.00  0.00     0.066 A 
ATOM     69  C   UNL     1       2.096  -4.448   1.784  1.00  0.00     0.162 A 
ATOM     70  C   UNL     1       4.056  -5.710   2.004  1.00  0.00     0.162 A 
ATOM     71  C   UNL     1       2.761  -5.604   1.509  1.00  0.00     0.200 A 
BRANCH  69  72
ATOM     72  O   UNL     1       0.812  -4.251   1.350  1.00  0.00    -0.504 OA
ATOM     73  H   UNL     1       0.369  -3.449   1.548  1.00  0.00     0.293 HD
ENDBRANCH  69  72
BRANCH  70  74
ATOM     74  O   UNL     1       4.641  -6.943   1.996  1.00  0.00    -0.504 OA
ATOM     75  H   UNL     1       4.182  -7.677   1.639  1.00  0.00     0.293 HD
ENDBRANCH  70  74
BRANCH  71  76
ATOM     76  O   UNL     1       2.093  -6.574   0.826  1.00  0.00    -0.502 OA
ATOM     77  H   UNL     1       1.218  -6.418   0.527  1.00  0.00     0.293 HD
ENDBRANCH  71  76
ENDBRANCH  64  66
ENDBRANCH  63  64
ENDBRANCH  15  63
ENDBRANCH   8   9
ENDBRANCH   6   8
ENDBRANCH   4   6
ENDBRANCH   3   4
ENDBRANCH   2   3
BRANCH   2  78
ATOM     78  O   UNL     1       2.428  -1.655   0.512  1.00  0.00    -0.463 OA
BRANCH  78  79
ATOM     79  C   UNL     1       3.776  -1.627   0.018  1.00  0.00     0.261 C 
BRANCH  79  80
ATOM     80  C   UNL     1       3.853  -0.888  -1.299  1.00  0.00     0.202 C 
BRANCH  80  81
ATOM     81  O   UNL     1       3.336   0.433  -1.159  1.00  0.00    -0.374 OA
BRANCH  81  82
ATOM     82  C   UNL     1       2.204   0.706  -1.988  1.00  0.00     0.202 C 
BRANCH  82  83
ATOM     83  C   UNL     1       2.516   0.914  -3.480  1.00  0.00     0.261 C 
BRANCH  83  84
ATOM     84  O   UNL     1       2.986  -0.304  -4.078  1.00  0.00    -0.460 OA
BRANCH  84  85
ATOM     85  C   UNL     1       4.298  -0.361  -4.423  1.00  0.00     0.338 C 
ATOM     86  O   UNL     1       5.079   0.567  -4.519  1.00  0.00    -0.246 OA
BRANCH  85  87
ATOM     87  C   UNL     1       4.676  -1.796  -4.450  1.00  0.00     0.060 A 
ATOM     88  C   UNL     1       3.805  -2.748  -4.986  1.00  0.00     0.016 A 
ATOM     89  C   UNL     1       5.865  -2.202  -3.826  1.00  0.00     0.016 A 
ATOM     90  C   UNL     1       4.117  -4.103  -4.889  1.00  0.00     0.010 A 
ATOM     91  C   UNL     1       6.177  -3.563  -3.728  1.00  0.00     0.010 A 
ATOM     92  C   UNL     1       5.310  -4.521  -4.272  1.00  0.00    -0.014 A 
BRANCH  92  93
ATOM     93  C   UNL     1       5.713  -5.942  -4.397  1.00  0.00     0.031 A 
ATOM     94  C   UNL     1       5.556  -6.930  -3.284  1.00  0.00     0.074 A 
ATOM     95  C   UNL     1       6.186  -6.340  -5.592  1.00  0.00     0.049 A 
ATOM     96  N   UNL     1       5.739  -8.227  -3.307  1.00  0.00    -0.248 NA
ATOM     97  C   UNL     1       5.150  -6.399  -1.978  1.00  0.00     0.031 C 
ATOM     98  C   UNL     1       6.394  -5.456  -6.741  1.00  0.00     0.029 A 
ATOM     99  N   UNL     1       6.548  -7.578  -6.049  1.00  0.00    -0.354 N 
ATOM    100  C   UNL     1       5.446  -8.677  -2.026  1.00  0.00     0.074 A 
ATOM    101  C   UNL     1       5.131  -7.505  -1.246  1.00  0.00     0.031 C 
ATOM    102  C   UNL     1       6.802  -6.188  -7.786  1.00  0.00     0.029 A 
ATOM    103  C   UNL     1       6.920  -7.582  -7.372  1.00  0.00     0.049 A 
ATOM    104  H   UNL     1       6.543  -8.386  -5.487  1.00  0.00     0.167 HD
ATOM    105  C   UNL     1       5.425  -9.947  -1.552  1.00  0.00     0.037 A 
ATOM    106  C   UNL     1       7.306  -8.597  -8.165  1.00  0.00     0.037 A 
ATOM    107  C   UNL     1       5.774 -11.103  -2.338  1.00  0.00     0.049 A 
ATOM    108  C   UNL     1       7.327  -9.991  -7.605  1.00  0.00     0.074 A 
ATOM    109  C   UNL     1       5.775 -12.435  -1.959  1.00  0.00     0.029 A 
ATOM    110  N   UNL     1       6.198 -11.064  -3.657  1.00  0.00    -0.354 N 
ATOM    111  N   UNL     1       6.981 -10.404  -6.409  1.00  0.00    -0.248 NA
ATOM    112  C   UNL     1       7.784 -11.059  -8.503  1.00  0.00     0.031 C 
ATOM    113  C   UNL     1       6.257 -13.194  -3.029  1.00  0.00     0.029 A 
ATOM    114  C   UNL     1       6.490 -12.343  -4.097  1.00  0.00     0.049 A 
ATOM    115  H   UNL     1       6.280 -10.247  -4.200  1.00  0.00     0.167 HD
ATOM    116  C   UNL     1       7.152 -11.784  -6.420  1.00  0.00     0.074 A 
ATOM    117  C   UNL     1       7.615 -12.135  -7.747  1.00  0.00     0.031 C 
ATOM    118  C   UNL     1       6.946 -12.678  -5.423  1.00  0.00     0.037 A 
BRANCH 105 119
ATOM    119  C   UNL     1       5.001 -10.182  -0.124  1.00  0.00     0.058 A 
ATOM    120  C   UNL     1       3.664 -10.030   0.275  1.00  0.00     0.135 A 
ATOM    121  C   UNL     1       5.911 -10.675   0.827  1.00  0.00     0.135 A 
ATOM    122  F   UNL     1       2.754  -9.527  -0.575  1.00  0.00    -0.206 F 
ATOM    123  C   UNL     1       3.245 -10.351   1.562  1.00  0.00     0.059 A 
ATOM    124  C   UNL     1       5.511 -11.023   2.115  1.00  0.00     0.059 A 
ATOM    125  F   UNL     1       7.203 -10.840   0.504  1.00  0.00    -0.206 F 
ATOM    126  C   UNL     1       4.177 -10.849   2.473  1.00  0.00     0.060 A 
BRANCH 126 127
ATOM    127  S   UNL     1       3.619 -11.205   4.151  1.00  0.00     0.124 S 
ATOM    128  O   UNL     1       3.333  -9.853   4.627  1.00  0.00    -0.237 OA
ATOM    129  O   UNL     1       2.462 -12.060   3.918  1.00  0.00    -0.237 OA
ATOM    130  O   UNL     1       4.772 -11.854   4.765  1.00  0.00    -0.744 OA
ENDBRANCH 126 127
ENDBRANCH 105 119
BRANCH 106 131
ATOM    131  C   UNL     1       7.675  -8.324  -9.578  1.00  0.00     0.058 A 
ATOM    132  C   UNL     1       6.889  -8.800 -10.636  1.00  0.00     0.135 A 
ATOM    133  C   UNL     1       8.809  -7.560  -9.896  1.00  0.00     0.135 A 
ATOM    134  F   UNL     1       5.793  -9.532 -10.382  1.00  0.00    -0.206 F 
ATOM    135  C   UNL     1       7.227  -8.552 -11.961  1.00  0.00     0.059 A 
ATOM    136  C   UNL     1       9.149  -7.269 -11.211  1.00  0.00     0.059 A 
ATOM    137  F   UNL     1       9.581  -7.060  -8.918  1.00  0.00    -0.206 F 
ATOM    138  C   UNL     1       8.359  -7.782 -12.238  1.00  0.00     0.060 A 
BRANCH 138 139
ATOM    139  S   UNL     1       8.774  -7.449 -13.962  1.00  0.00     0.124 S 
ATOM    140  O   UNL     1       9.167  -8.774 -14.429  1.00  0.00    -0.237 OA
ATOM    141  O   UNL     1       7.512  -6.935 -14.484  1.00  0.00    -0.237 OA
ATOM    142  O   UNL     1       9.852  -6.469 -13.865  1.00  0.00    -0.744 OA
ENDBRANCH 138 139
ENDBRANCH 106 131
BRANCH 118 143
ATOM    143  C   UNL     1       7.192 -14.130  -5.727  1.00  0.00     0.058 A 
ATOM    144  C   UNL     1       8.488 -14.634  -5.915  1.00  0.00     0.135 A 
ATOM    145  C   UNL     1       6.121 -15.039  -5.766  1.00  0.00     0.135 A 
ATOM    146  F   UNL     1       9.545 -13.808  -5.891  1.00  0.00    -0.206 F 
ATOM    147  C   UNL     1       8.712 -15.985  -6.156  1.00  0.00     0.059 A 
ATOM    148  C   UNL     1       6.325 -16.399  -5.971  1.00  0.00     0.059 A 
ATOM    149  F   UNL     1       4.862 -14.610  -5.579  1.00  0.00    -0.206 F 
ATOM    150  C   UNL     1       7.624 -16.861  -6.176  1.00  0.00     0.060 A 
BRANCH 150 151
ATOM    151  S   UNL     1       7.939 -18.615  -6.453  1.00  0.00     0.124 S 
ATOM    152  O   UNL     1       8.366 -18.621  -7.848  1.00  0.00    -0.237 OA
ATOM    153  O   UNL     1       8.979 -18.901  -5.470  1.00  0.00    -0.237 OA
ATOM    154  O   UNL     1       6.646 -19.240  -6.191  1.00  0.00    -0.744 OA
ENDBRANCH 150 151
ENDBRANCH 118 143
ENDBRANCH  92  93
ENDBRANCH  85  87
ENDBRANCH  84  85
ENDBRANCH  83  84
ENDBRANCH  82  83
ENDBRANCH  81  82
ENDBRANCH  80  81
ENDBRANCH  79  80
ENDBRANCH  78  79
ENDBRANCH   2  78
TORSDOF 30
