REMARK SMILES CCC[C@@](C)(NC(=O)N1CCN(C)C(=O)C1(C)C)C(=O)OCCOCCOC(=O)c1ccc(-c2c3nc(c(-c4c(F)cc(S(=O)(=O)[O-])cc4F)c4ccc([nH]4)c(-c4c(F)cc(S(=O)(=O)[O-])cc4F)c4nc(c(-c5c(F)cc(S(=O)(=O)[O-])cc5F)c5ccc2[nH]5)C=C4)C=C3)cc1
REMARK SMILES IDX 25 1 24 2 23 3 22 4 21 5 19 6 20 7 4 8 5 9 3 10 2 11 1 12
REMARK SMILES IDX 6 13 7 14 8 16 9 17 10 18 16 19 11 20 14 21 17 22 18 23
REMARK SMILES IDX 12 24 15 25 13 26 26 27 27 28 28 29 29 30 30 31 31 32 95 33
REMARK SMILES IDX 32 34 94 35 33 36 34 37 35 38 88 39 36 40 93 41 87 42 89 43
REMARK SMILES IDX 37 44 92 45 86 46 85 47 38 49 72 50 51 51 71 52 52 53 55 54
REMARK SMILES IDX 70 55 90 56 53 57 54 58 69 60 91 61 56 62 39 63 40 64 49 65
REMARK SMILES IDX 41 66 42 67 48 68 50 69 43 70 44 71 45 72 46 73 47 74 73 75
REMARK SMILES IDX 74 76 83 77 75 78 76 79 82 80 84 81 77 82 78 83 79 84 80 85
REMARK SMILES IDX 81 86 57 87 58 88 67 89 59 90 60 91 66 92 68 93 61 94 62 95
REMARK SMILES IDX 63 96 64 97 65 98
REMARK H PARENT 6 15 89 48 55 59
REMARK Flexibility Score: inf
ROOT
ATOM      1  C   UNL     1       3.961  -0.067   3.444  1.00  0.00     0.202 C 
ENDROOT
BRANCH   1   2
ATOM      2  O   UNL     1       2.858   1.077   3.159  1.00  0.00    -0.374 OA
BRANCH   2   3
ATOM      3  C   UNL     1       2.118   2.872   3.443  1.00  0.00     0.202 C 
BRANCH   3   4
ATOM      4  C   UNL     1       0.489   3.296   2.606  1.00  0.00     0.261 C 
BRANCH   4   5
ATOM      5  O   UNL     1      -0.596   2.106   2.047  1.00  0.00    -0.462 OA
BRANCH   5   6
ATOM      6  C   UNL     1      -0.720   0.813   1.411  1.00  0.00     0.331 C 
ATOM      7  O   UNL     1      -1.482   0.753   0.436  1.00  0.00    -0.249 OA
BRANCH   6   8
ATOM      8  C   UNL     1       0.082  -0.720   1.951  1.00  0.00     0.136 C 
ATOM      9  C   UNL     1      -1.176  -1.718   1.988  1.00  0.00     0.047 C 
BRANCH   8  10
ATOM     10  C   UNL     1       1.028  -1.379   0.870  1.00  0.00     0.040 C 
BRANCH  10  11
ATOM     11  C   UNL     1       0.426  -1.892  -0.458  1.00  0.00    -0.000 C 
ATOM     12  C   UNL     1       0.654  -0.972  -1.640  1.00  0.00     0.004 C 
ENDBRANCH  10  11
ENDBRANCH   8  10
BRANCH   8  13
ATOM     13  N   UNL     1       0.797  -1.137   3.400  1.00  0.00    -0.322 N 
ATOM     14  C   UNL     1       1.574  -0.721   4.495  1.00  0.00     0.319 C 
ATOM     15  H   UNL     1       0.581  -2.085   3.555  1.00  0.00     0.166 HD
ATOM     16  O   UNL     1       1.903  -1.633   5.251  1.00  0.00    -0.249 OA
BRANCH  14  17
ATOM     17  N   UNL     1       1.825   0.667   4.703  1.00  0.00    -0.309 N 
ATOM     18  C   UNL     1       3.396   1.711   4.917  1.00  0.00     0.144 C 
ATOM     19  C   UNL     1       0.796   1.296   3.750  1.00  0.00     0.118 C 
ATOM     20  C   UNL     1       4.291   2.452   3.339  1.00  0.00     0.140 C 
ATOM     21  C   UNL     1       1.689   1.596   1.862  1.00  0.00     0.247 C 
ATOM     22  C   UNL     1      -0.765   0.697   4.090  1.00  0.00     0.045 C 
ATOM     23  C   UNL     1       0.305   2.402   5.103  1.00  0.00     0.045 C 
ATOM     24  N   UNL     1       3.292   2.393   1.812  1.00  0.00    -0.342 N 
ATOM     25  O   UNL     1       1.284   1.526   0.702  1.00  0.00    -0.272 OA
ATOM     26  C   UNL     1       3.500   3.459   0.831  1.00  0.00     0.146 C 
ENDBRANCH  14  17
ENDBRANCH   8  13
ENDBRANCH   6   8
ENDBRANCH   5   6
ENDBRANCH   4   5
ENDBRANCH   3   4
ENDBRANCH   2   3
ENDBRANCH   1   2
BRANCH   1  27
ATOM     27  C   UNL     1       4.467  -0.811   4.922  1.00  0.00     0.261 C 
BRANCH  27  28
ATOM     28  O   UNL     1       3.870  -0.441   6.252  1.00  0.00    -0.460 OA
BRANCH  28  29
ATOM     29  C   UNL     1       4.585   0.255   7.196  1.00  0.00     0.338 C 
ATOM     30  O   UNL     1       5.804   0.356   7.192  1.00  0.00    -0.246 OA
BRANCH  29  31
ATOM     31  C   UNL     1       3.716   1.281   7.914  1.00  0.00     0.060 A 
ATOM     32  C   UNL     1       4.031   2.645   7.705  1.00  0.00     0.016 A 
ATOM     33  C   UNL     1       2.605   0.991   8.707  1.00  0.00     0.016 A 
ATOM     34  C   UNL     1       3.213   3.684   8.180  1.00  0.00     0.010 A 
ATOM     35  C   UNL     1       1.868   2.045   9.317  1.00  0.00     0.010 A 
ATOM     36  C   UNL     1       2.171   3.401   9.068  1.00  0.00    -0.014 A 
BRANCH  36  37
ATOM     37  C   UNL     1       1.737   4.509   9.986  1.00  0.00     0.031 A 
ATOM     38  C   UNL     1       2.694   4.846  11.115  1.00  0.00     0.074 A 
ATOM     39  C   UNL     1       0.632   5.267   9.816  1.00  0.00     0.049 A 
ATOM     40  N   UNL     1       2.604   5.745  12.061  1.00  0.00    -0.248 NA
ATOM     41  C   UNL     1       3.943   4.065  11.157  1.00  0.00     0.031 C 
ATOM     42  C   UNL     1      -0.328   5.151   8.720  1.00  0.00     0.029 A 
ATOM     43  N   UNL     1       0.134   6.306  10.577  1.00  0.00    -0.354 N 
ATOM     44  C   UNL     1       3.779   5.632  12.801  1.00  0.00     0.074 A 
ATOM     45  C   UNL     1       4.571   4.591  12.193  1.00  0.00     0.031 C 
ATOM     46  C   UNL     1      -1.307   6.062   8.892  1.00  0.00     0.029 A 
ATOM     47  C   UNL     1      -1.069   6.810  10.128  1.00  0.00     0.049 A 
ATOM     48  H   UNL     1       0.598   6.657  11.372  1.00  0.00     0.167 HD
ATOM     49  C   UNL     1       4.167   6.313  13.904  1.00  0.00     0.037 A 
ATOM     50  C   UNL     1      -1.890   7.743  10.665  1.00  0.00     0.037 A 
ATOM     51  C   UNL     1       3.363   7.311  14.550  1.00  0.00     0.049 A 
ATOM     52  C   UNL     1      -1.489   8.425  11.956  1.00  0.00     0.074 A 
ATOM     53  C   UNL     1       3.628   8.014  15.711  1.00  0.00     0.029 A 
ATOM     54  N   UNL     1       2.125   7.739  14.094  1.00  0.00    -0.354 N 
ATOM     55  N   UNL     1      -0.397   8.270  12.669  1.00  0.00    -0.248 NA
ATOM     56  C   UNL     1      -2.431   9.407  12.517  1.00  0.00     0.031 C 
ATOM     57  C   UNL     1       2.529   8.837  15.980  1.00  0.00     0.029 A 
ATOM     58  C   UNL     1       1.608   8.690  14.954  1.00  0.00     0.049 A 
ATOM     59  H   UNL     1       1.681   7.413  13.278  1.00  0.00     0.167 HD
ATOM     60  C   UNL     1      -0.508   9.153  13.742  1.00  0.00     0.074 A 
ATOM     61  C   UNL     1      -1.768   9.848  13.578  1.00  0.00     0.031 C 
ATOM     62  C   UNL     1       0.353   9.373  14.768  1.00  0.00     0.037 A 
BRANCH  49  63
ATOM     63  C   UNL     1       5.489   5.930  14.515  1.00  0.00     0.058 A 
ATOM     64  C   UNL     1       6.712   6.244  13.900  1.00  0.00     0.135 A 
ATOM     65  C   UNL     1       5.529   5.213  15.722  1.00  0.00     0.135 A 
ATOM     66  F   UNL     1       6.731   6.895  12.726  1.00  0.00    -0.206 F 
ATOM     67  C   UNL     1       7.926   5.837  14.447  1.00  0.00     0.059 A 
ATOM     68  C   UNL     1       6.732   4.821  16.301  1.00  0.00     0.059 A 
ATOM     69  F   UNL     1       4.389   4.871  16.343  1.00  0.00    -0.206 F 
ATOM     70  C   UNL     1       7.925   5.124  15.647  1.00  0.00     0.060 A 
BRANCH  70  71
ATOM     71  S   UNL     1       9.506   4.599  16.342  1.00  0.00     0.124 S 
ATOM     72  O   UNL     1       9.886   3.527  15.427  1.00  0.00    -0.237 OA
ATOM     73  O   UNL     1      10.304   5.818  16.255  1.00  0.00    -0.237 OA
ATOM     74  O   UNL     1       9.159   4.176  17.695  1.00  0.00    -0.744 OA
ENDBRANCH  70  71
ENDBRANCH  49  63
BRANCH  50  75
ATOM     75  C   UNL     1      -3.199   8.072  10.019  1.00  0.00     0.058 A 
ATOM     76  C   UNL     1      -3.455   9.338   9.467  1.00  0.00     0.135 A 
ATOM     77  C   UNL     1      -4.239   7.129   9.970  1.00  0.00     0.135 A 
ATOM     78  F   UNL     1      -2.512  10.292   9.512  1.00  0.00    -0.206 F 
ATOM     79  C   UNL     1      -4.685   9.656   8.891  1.00  0.00     0.059 A 
ATOM     80  C   UNL     1      -5.468   7.413   9.376  1.00  0.00     0.059 A 
ATOM     81  F   UNL     1      -4.061   5.906  10.492  1.00  0.00    -0.206 F 
ATOM     82  C   UNL     1      -5.684   8.682   8.842  1.00  0.00     0.060 A 
BRANCH  82  83
ATOM     83  S   UNL     1      -7.247   9.076   8.023  1.00  0.00     0.124 S 
ATOM     84  O   UNL     1      -7.868   9.978   8.986  1.00  0.00    -0.237 OA
ATOM     85  O   UNL     1      -6.793   9.686   6.777  1.00  0.00    -0.237 OA
ATOM     86  O   UNL     1      -7.886   7.772   7.877  1.00  0.00    -0.744 OA
ENDBRANCH  82  83
ENDBRANCH  50  75
BRANCH  62  87
ATOM     87  C   UNL     1      -0.009  10.443  15.763  1.00  0.00     0.058 A 
ATOM     88  C   UNL     1      -1.046  10.275  16.694  1.00  0.00     0.135 A 
ATOM     89  C   UNL     1       0.718  11.645  15.801  1.00  0.00     0.135 A 
ATOM     90  F   UNL     1      -1.768   9.144  16.704  1.00  0.00    -0.206 F 
ATOM     91  C   UNL     1      -1.379  11.280  17.598  1.00  0.00     0.059 A 
ATOM     92  C   UNL     1       0.421  12.650  16.716  1.00  0.00     0.059 A 
ATOM     93  F   UNL     1       1.734  11.849  14.947  1.00  0.00    -0.206 F 
ATOM     94  C   UNL     1      -0.644  12.467  17.595  1.00  0.00     0.060 A 
BRANCH  94  95
ATOM     95  S   UNL     1      -1.094  13.770  18.760  1.00  0.00     0.124 S 
ATOM     96  O   UNL     1      -2.302  14.309  18.144  1.00  0.00    -0.237 OA
ATOM     97  O   UNL     1      -1.292  13.028  20.002  1.00  0.00    -0.237 OA
ATOM     98  O   UNL     1       0.067  14.655  18.745  1.00  0.00    -0.744 OA
ENDBRANCH  94  95
ENDBRANCH  62  87
ENDBRANCH  36  37
ENDBRANCH  29  31
ENDBRANCH  28  29
ENDBRANCH  27  28
ENDBRANCH   1  27
TORSDOF 21
