REMARK SMILES NS(=O)(=O)c1ccc(-n2ccnc2-c2ccc(O)c(C(=O)OCCOCCOC(=O)c3ccc(-c4c5nc(c(-c6c(F)cc(S(=O)(=O)[O-])cc6F)c6ccc([nH]6)c(-c6c(F)cc(S(=O)(=O)[O-])cc6F)c6nc(c(-c7c(F)cc(S(=O)(=O)[O-])cc7F)c7ccc4[nH]7)C=C6)C=C5)cc3)c2)cc1
REMARK SMILES IDX 24 1 23 2 22 3 20 4 21 5 19 6 14 7 15 8 97 9 16 10 17 11
REMARK SMILES IDX 13 12 9 13 10 14 11 15 12 16 8 17 5 18 6 19 99 20 7 21 98 22
REMARK SMILES IDX 2 23 3 24 4 25 1 26 18 29 25 31 26 32 27 33 28 34 29 35
REMARK SMILES IDX 30 36 31 37 32 38 96 39 33 40 95 41 34 42 35 43 36 44 89 45
REMARK SMILES IDX 37 46 94 47 88 48 90 49 38 50 93 51 87 52 86 53 39 55 73 56
REMARK SMILES IDX 52 57 72 58 53 59 56 60 71 61 91 62 54 63 55 64 70 66 92 67
REMARK SMILES IDX 57 68 40 69 41 70 50 71 42 72 43 73 49 74 51 75 44 76 45 77
REMARK SMILES IDX 46 78 47 79 48 80 74 81 75 82 84 83 76 84 77 85 83 86 85 87
REMARK SMILES IDX 78 88 79 89 80 90 81 91 82 92 58 93 59 94 68 95 60 96 61 97
REMARK SMILES IDX 67 98 69 99 62 100 63 101 64 102 65 103 66 104
REMARK H PARENT 1 27 1 28 18 30 90 54 56 65
REMARK Flexibility Score: inf
ROOT
ATOM      1  C   UNL     1      -1.686  -1.368  -5.993  1.00  0.00     0.202 C 
ENDROOT
BRANCH   1   2
ATOM      2  C   UNL     1      -1.327  -1.431  -4.506  1.00  0.00     0.261 C 
BRANCH   2   3
ATOM      3  O   UNL     1      -0.946  -2.748  -4.081  1.00  0.00    -0.460 OA
BRANCH   3   4
ATOM      4  C   UNL     1      -1.907  -3.417  -3.400  1.00  0.00     0.342 C 
ATOM      5  O   UNL     1      -3.006  -2.991  -3.074  1.00  0.00    -0.246 OA
BRANCH   4   6
ATOM      6  C   UNL     1      -1.578  -4.852  -3.279  1.00  0.00     0.102 A 
ATOM      7  C   UNL     1       0.019  -6.636  -2.858  1.00  0.00     0.019 A 
ATOM      8  C   UNL     1      -1.025  -7.567  -2.914  1.00  0.00     0.016 A 
ATOM      9  C   UNL     1      -0.260  -5.282  -3.119  1.00  0.00     0.031 A 
ATOM     10  C   UNL     1      -2.335  -7.149  -3.156  1.00  0.00     0.048 A 
ATOM     11  C   UNL     1      -2.613  -5.795  -3.309  1.00  0.00     0.130 A 
BRANCH   7  12
ATOM     12  C   UNL     1       1.374  -7.074  -2.490  1.00  0.00     0.144 A 
ATOM     13  N   UNL     1       2.252  -6.357  -1.677  1.00  0.00    -0.300 N 
ATOM     14  C   UNL     1       3.482  -6.957  -1.790  1.00  0.00     0.113 A 
ATOM     15  C   UNL     1       3.264  -8.100  -2.521  1.00  0.00     0.132 A 
ATOM     16  N   UNL     1       1.958  -8.177  -2.926  1.00  0.00    -0.236 NA
BRANCH  13  17
ATOM     17  C   UNL     1       1.956  -5.200  -0.917  1.00  0.00     0.047 A 
ATOM     18  C   UNL     1       1.170  -2.823   0.285  1.00  0.00     0.082 A 
ATOM     19  C   UNL     1       0.403  -3.976   0.478  1.00  0.00     0.024 A 
ATOM     20  C   UNL     1       2.333  -2.856  -0.494  1.00  0.00     0.024 A 
ATOM     21  C   UNL     1       0.797  -5.169  -0.125  1.00  0.00     0.028 A 
ATOM     22  C   UNL     1       2.744  -4.055  -1.080  1.00  0.00     0.028 A 
BRANCH  18  23
ATOM     23  S   UNL     1       0.617  -1.318   1.030  1.00  0.00     0.238 S 
ATOM     24  O   UNL     1       1.284  -1.178   2.308  1.00  0.00    -0.207 OA
ATOM     25  O   UNL     1      -0.811  -1.223   0.883  1.00  0.00    -0.207 OA
BRANCH  23  26
ATOM     26  N   UNL     1       1.244  -0.110   0.046  1.00  0.00    -0.225 NA
ATOM     27  H   UNL     1       0.968   0.802   0.410  1.00  0.00     0.137 HD
ATOM     28  H   UNL     1       0.883  -0.221  -0.901  1.00  0.00     0.137 HD
ENDBRANCH  23  26
ENDBRANCH  18  23
ENDBRANCH  13  17
ENDBRANCH   7  12
BRANCH  11  29
ATOM     29  O   UNL     1      -3.925  -5.457  -3.513  1.00  0.00    -0.507 OA
ATOM     30  H   UNL     1      -4.583  -6.124  -3.524  1.00  0.00     0.293 HD
ENDBRANCH  11  29
ENDBRANCH   4   6
ENDBRANCH   3   4
ENDBRANCH   2   3
ENDBRANCH   1   2
BRANCH   1  31
ATOM     31  O   UNL     1      -2.816  -2.105  -6.457  1.00  0.00    -0.374 OA
BRANCH  31  32
ATOM     32  C   UNL     1      -2.773  -3.526  -6.534  1.00  0.00     0.202 C 
BRANCH  32  33
ATOM     33  C   UNL     1      -1.867  -4.199  -7.552  1.00  0.00     0.261 C 
BRANCH  33  34
ATOM     34  O   UNL     1      -0.513  -3.816  -7.390  1.00  0.00    -0.460 OA
BRANCH  34  35
ATOM     35  C   UNL     1      -0.112  -2.876  -8.275  1.00  0.00     0.338 C 
ATOM     36  O   UNL     1      -0.821  -2.159  -8.962  1.00  0.00    -0.246 OA
BRANCH  35  37
ATOM     37  C   UNL     1       1.344  -2.952  -8.396  1.00  0.00     0.060 A 
ATOM     38  C   UNL     1       1.900  -2.187  -9.421  1.00  0.00     0.016 A 
ATOM     39  C   UNL     1       2.031  -4.014  -7.788  1.00  0.00     0.016 A 
ATOM     40  C   UNL     1       3.020  -2.677 -10.042  1.00  0.00     0.010 A 
ATOM     41  C   UNL     1       3.142  -4.507  -8.418  1.00  0.00     0.010 A 
ATOM     42  C   UNL     1       3.549  -3.894  -9.598  1.00  0.00    -0.014 A 
BRANCH  42  43
ATOM     43  C   UNL     1       4.652  -4.459 -10.336  1.00  0.00     0.031 A 
ATOM     44  C   UNL     1       5.894  -3.712 -10.054  1.00  0.00     0.074 A 
ATOM     45  C   UNL     1       4.530  -5.573 -11.082  1.00  0.00     0.049 A 
ATOM     46  N   UNL     1       6.447  -2.806 -10.790  1.00  0.00    -0.248 NA
ATOM     47  C   UNL     1       6.409  -3.757  -8.674  1.00  0.00     0.031 C 
ATOM     48  C   UNL     1       3.389  -6.491 -11.164  1.00  0.00     0.029 A 
ATOM     49  N   UNL     1       5.458  -6.173 -11.874  1.00  0.00    -0.354 N 
ATOM     50  C   UNL     1       7.560  -2.400 -10.066  1.00  0.00     0.074 A 
ATOM     51  C   UNL     1       7.312  -2.777  -8.703  1.00  0.00     0.031 C 
ATOM     52  C   UNL     1       3.777  -7.637 -11.772  1.00  0.00     0.029 A 
ATOM     53  C   UNL     1       5.138  -7.477 -12.250  1.00  0.00     0.049 A 
ATOM     54  H   UNL     1       6.287  -5.723 -12.159  1.00  0.00     0.167 HD
ATOM     55  C   UNL     1       8.735  -2.146 -10.703  1.00  0.00     0.037 A 
ATOM     56  C   UNL     1       5.983  -8.354 -12.853  1.00  0.00     0.037 A 
ATOM     57  C   UNL     1       8.512  -1.967 -12.118  1.00  0.00     0.049 A 
ATOM     58  C   UNL     1       7.064  -7.540 -13.468  1.00  0.00     0.074 A 
ATOM     59  C   UNL     1       7.846  -1.054 -12.908  1.00  0.00     0.029 A 
ATOM     60  N   UNL     1       8.687  -3.097 -12.877  1.00  0.00    -0.354 N 
ATOM     61  N   UNL     1       6.865  -6.692 -14.443  1.00  0.00    -0.248 NA
ATOM     62  C   UNL     1       8.283  -7.327 -12.702  1.00  0.00     0.031 C 
ATOM     63  C   UNL     1       7.347  -1.799 -14.018  1.00  0.00     0.029 A 
ATOM     64  C   UNL     1       7.781  -3.122 -13.902  1.00  0.00     0.049 A 
ATOM     65  H   UNL     1       9.365  -3.790 -12.708  1.00  0.00     0.167 HD
ATOM     66  C   UNL     1       7.688  -5.613 -14.154  1.00  0.00     0.074 A 
ATOM     67  C   UNL     1       8.621  -6.113 -13.147  1.00  0.00     0.031 C 
ATOM     68  C   UNL     1       7.340  -4.349 -14.543  1.00  0.00     0.037 A 
BRANCH  55  69
ATOM     69  C   UNL     1      10.087  -2.559 -10.154  1.00  0.00     0.058 A 
ATOM     70  C   UNL     1      11.250  -2.160 -10.844  1.00  0.00     0.135 A 
ATOM     71  C   UNL     1      10.288  -3.548  -9.161  1.00  0.00     0.135 A 
ATOM     72  F   UNL     1      11.181  -1.241 -11.821  1.00  0.00    -0.206 F 
ATOM     73  C   UNL     1      12.498  -2.740 -10.607  1.00  0.00     0.059 A 
ATOM     74  C   UNL     1      11.528  -4.098  -8.871  1.00  0.00     0.059 A 
ATOM     75  F   UNL     1       9.286  -4.112  -8.479  1.00  0.00    -0.206 F 
ATOM     76  C   UNL     1      12.623  -3.715  -9.621  1.00  0.00     0.060 A 
BRANCH  76  77
ATOM     77  S   UNL     1      14.212  -4.512  -9.347  1.00  0.00     0.124 S 
ATOM     78  O   UNL     1      14.373  -5.272 -10.580  1.00  0.00    -0.237 OA
ATOM     79  O   UNL     1      15.096  -3.364  -9.177  1.00  0.00    -0.237 OA
ATOM     80  O   UNL     1      13.985  -5.304  -8.141  1.00  0.00    -0.744 OA
ENDBRANCH  76  77
ENDBRANCH  55  69
BRANCH  56  81
ATOM     81  C   UNL     1       6.128  -9.813 -12.590  1.00  0.00     0.058 A 
ATOM     82  C   UNL     1       6.822 -10.665 -13.470  1.00  0.00     0.135 A 
ATOM     83  C   UNL     1       5.828 -10.350 -11.322  1.00  0.00     0.135 A 
ATOM     84  F   UNL     1       7.186 -10.226 -14.684  1.00  0.00    -0.206 F 
ATOM     85  C   UNL     1       7.212 -11.963 -13.106  1.00  0.00     0.059 A 
ATOM     86  C   UNL     1       6.203 -11.639 -10.938  1.00  0.00     0.059 A 
ATOM     87  F   UNL     1       5.235  -9.599 -10.381  1.00  0.00    -0.206 F 
ATOM     88  C   UNL     1       6.909 -12.437 -11.830  1.00  0.00     0.060 A 
BRANCH  88  89
ATOM     89  S   UNL     1       7.515 -14.062 -11.307  1.00  0.00     0.124 S 
ATOM     90  O   UNL     1       6.744 -14.961 -12.159  1.00  0.00    -0.237 OA
ATOM     91  O   UNL     1       8.941 -13.971 -11.602  1.00  0.00    -0.237 OA
ATOM     92  O   UNL     1       7.178 -14.109  -9.886  1.00  0.00    -0.744 OA
ENDBRANCH  88  89
ENDBRANCH  56  81
BRANCH  68  93
ATOM     93  C   UNL     1       6.301  -4.207 -15.627  1.00  0.00     0.058 A 
ATOM     94  C   UNL     1       4.939  -4.533 -15.497  1.00  0.00     0.135 A 
ATOM     95  C   UNL     1       6.696  -3.574 -16.816  1.00  0.00     0.135 A 
ATOM     96  F   UNL     1       4.464  -5.063 -14.361  1.00  0.00    -0.206 F 
ATOM     97  C   UNL     1       4.019  -4.265 -16.517  1.00  0.00     0.059 A 
ATOM     98  C   UNL     1       5.794  -3.268 -17.829  1.00  0.00     0.059 A 
ATOM     99  F   UNL     1       7.973  -3.190 -16.978  1.00  0.00    -0.206 F 
ATOM    100  C   UNL     1       4.457  -3.626 -17.679  1.00  0.00     0.060 A 
BRANCH 100 101
ATOM    101  S   UNL     1       3.263  -3.205 -18.969  1.00  0.00     0.124 S 
ATOM    102  O   UNL     1       2.911  -4.517 -19.502  1.00  0.00    -0.237 OA
ATOM    103  O   UNL     1       2.214  -2.521 -18.218  1.00  0.00    -0.237 OA
ATOM    104  O   UNL     1       4.027  -2.350 -19.875  1.00  0.00    -0.744 OA
ENDBRANCH 100 101
ENDBRANCH  68  93
ENDBRANCH  42  43
ENDBRANCH  35  37
ENDBRANCH  34  35
ENDBRANCH  33  34
ENDBRANCH  32  33
ENDBRANCH  31  32
ENDBRANCH   1  31
TORSDOF 22
