REMARK SMILES Cc1oc(C[N@H+]2C[C@@H](C)[C@@H](C)C2)cc1C(=O)OCCOCCOC(=O)c1ccc(-c2c3nc(c(-c4c(F)cc(S(=O)(=O)[O-])cc4F)c4ccc([nH]4)c(-c4c(F)cc(S(=O)(=O)[O-])cc4F)c4nc(c(-c5c(F)cc(S(=O)(=O)[O-])cc5F)c5ccc2[nH]5)C=C4)C=C3)cc1
REMARK SMILES IDX 21 1 20 2 19 3 18 4 17 5 15 6 16 7 14 8 1 9 2 10 3 11 4 12
REMARK SMILES IDX 13 13 5 14 6 15 7 16 12 17 8 19 10 20 9 21 11 22 22 23 23 24
REMARK SMILES IDX 24 25 25 26 26 27 27 28 91 29 28 30 90 31 29 32 30 33 31 34
REMARK SMILES IDX 84 35 32 36 89 37 83 38 85 39 33 40 88 41 82 42 81 43 34 45
REMARK SMILES IDX 68 46 47 47 67 48 48 49 51 50 66 51 86 52 49 53 50 54 65 56
REMARK SMILES IDX 87 57 52 58 35 59 36 60 45 61 37 62 38 63 44 64 46 65 39 66
REMARK SMILES IDX 40 67 41 68 42 69 43 70 69 71 70 72 79 73 71 74 72 75 78 76
REMARK SMILES IDX 80 77 73 78 74 79 75 80 76 81 77 82 53 83 54 84 63 85 55 86
REMARK SMILES IDX 56 87 62 88 64 89 57 90 58 91 59 92 60 93 61 94
REMARK H PARENT 6 18 85 44 51 55
REMARK Flexibility Score: inf
ROOT
ATOM      1  C   UNL     1      -0.298  -3.573   1.821  1.00  0.00     0.202 C 
ENDROOT
BRANCH   1   2
ATOM      2  O   UNL     1      -0.151  -4.797   1.095  1.00  0.00    -0.374 OA
BRANCH   2   3
ATOM      3  C   UNL     1       1.115  -4.995   0.459  1.00  0.00     0.202 C 
BRANCH   3   4
ATOM      4  C   UNL     1       1.164  -4.471  -0.980  1.00  0.00     0.261 C 
BRANCH   4   5
ATOM      5  O   UNL     1       1.089  -3.035  -0.973  1.00  0.00    -0.460 OA
BRANCH   5   6
ATOM      6  C   UNL     1      -0.080  -2.500  -1.419  1.00  0.00     0.341 C 
ATOM      7  O   UNL     1      -0.937  -3.115  -2.042  1.00  0.00    -0.246 OA
BRANCH   6   8
ATOM      8  C   UNL     1      -0.294  -1.137  -0.959  1.00  0.00     0.101 A 
ATOM      9  C   UNL     1       2.083  -0.190  -0.260  1.00  0.00     0.088 C 
ATOM     10  C   UNL     1       0.617  -0.217  -0.464  1.00  0.00     0.115 A 
ATOM     11  O   UNL     1      -0.030   0.929  -0.098  1.00  0.00    -0.459 OA
ATOM     12  C   UNL     1      -1.361   0.751  -0.326  1.00  0.00     0.159 A 
ATOM     13  C   UNL     1      -1.565  -0.491  -0.881  1.00  0.00     0.067 A 
BRANCH  12  14
ATOM     14  C   UNL     1      -2.304   1.859   0.020  1.00  0.00     0.338 C 
BRANCH  14  15
ATOM     15  N   UNL     1      -2.118   2.525   1.309  1.00  0.00    -0.328 N 
ATOM     16  C   UNL     1      -2.075   1.654   2.479  1.00  0.00     0.266 C 
ATOM     17  C   UNL     1      -0.990   3.457   1.369  1.00  0.00     0.266 C 
ATOM     18  H   UNL     1      -2.985   3.061   1.360  1.00  0.00     0.348 HD
ATOM     19  C   UNL     1      -1.544   2.600   3.552  1.00  0.00     0.049 C 
ATOM     20  C   UNL     1      -0.450   3.380   2.806  1.00  0.00     0.049 C 
ATOM     21  C   UNL     1      -1.116   1.885   4.824  1.00  0.00     0.014 C 
ATOM     22  C   UNL     1       0.930   2.720   2.834  1.00  0.00     0.014 C 
ENDBRANCH  14  15
ENDBRANCH  12  14
ENDBRANCH   6   8
ENDBRANCH   5   6
ENDBRANCH   4   5
ENDBRANCH   3   4
ENDBRANCH   2   3
ENDBRANCH   1   2
BRANCH   1  23
ATOM     23  C   UNL     1       0.208  -3.629   3.265  1.00  0.00     0.261 C 
BRANCH  23  24
ATOM     24  O   UNL     1       1.647  -3.619   3.295  1.00  0.00    -0.460 OA
BRANCH  24  25
ATOM     25  C   UNL     1       2.224  -4.793   3.647  1.00  0.00     0.338 C 
ATOM     26  O   UNL     1       1.659  -5.797   4.048  1.00  0.00    -0.246 OA
BRANCH  25  27
ATOM     27  C   UNL     1       3.662  -4.763   3.304  1.00  0.00     0.060 A 
ATOM     28  C   UNL     1       4.200  -5.906   2.700  1.00  0.00     0.016 A 
ATOM     29  C   UNL     1       4.479  -3.665   3.590  1.00  0.00     0.016 A 
ATOM     30  C   UNL     1       5.564  -5.975   2.424  1.00  0.00     0.010 A 
ATOM     31  C   UNL     1       5.850  -3.739   3.319  1.00  0.00     0.010 A 
ATOM     32  C   UNL     1       6.403  -4.906   2.765  1.00  0.00    -0.014 A 
BRANCH  32  33
ATOM     33  C   UNL     1       7.873  -5.076   2.671  1.00  0.00     0.031 A 
ATOM     34  C   UNL     1       8.641  -5.457   3.907  1.00  0.00     0.074 A 
ATOM     35  C   UNL     1       8.511  -4.928   1.496  1.00  0.00     0.049 A 
ATOM     36  N   UNL     1       9.925  -5.654   4.057  1.00  0.00    -0.248 NA
ATOM     37  C   UNL     1       7.856  -5.642   5.138  1.00  0.00     0.031 C 
ATOM     38  C   UNL     1       7.872  -4.590   0.225  1.00  0.00     0.029 A 
ATOM     39  N   UNL     1       9.842  -5.042   1.185  1.00  0.00    -0.354 N 
ATOM     40  C   UNL     1      10.104  -5.985   5.395  1.00  0.00     0.074 A 
ATOM     41  C   UNL     1       8.800  -5.935   6.021  1.00  0.00     0.031 C 
ATOM     42  C   UNL     1       8.816  -4.513  -0.729  1.00  0.00     0.029 A 
ATOM     43  C   UNL     1      10.125  -4.775  -0.133  1.00  0.00     0.049 A 
ATOM     44  H   UNL     1      10.530  -5.292   1.844  1.00  0.00     0.167 HD
ATOM     45  C   UNL     1      11.248  -6.311   6.041  1.00  0.00     0.037 A 
ATOM     46  C   UNL     1      11.307  -4.732  -0.778  1.00  0.00     0.037 A 
ATOM     47  C   UNL     1      12.544  -6.360   5.418  1.00  0.00     0.049 A 
ATOM     48  C   UNL     1      12.574  -5.045  -0.027  1.00  0.00     0.074 A 
ATOM     49  C   UNL     1      13.761  -6.693   5.987  1.00  0.00     0.029 A 
ATOM     50  N   UNL     1      12.793  -6.060   4.087  1.00  0.00    -0.354 N 
ATOM     51  N   UNL     1      12.724  -5.380   1.233  1.00  0.00    -0.248 NA
ATOM     52  C   UNL     1      13.832  -4.979  -0.785  1.00  0.00     0.031 C 
ATOM     53  C   UNL     1      14.752  -6.559   5.007  1.00  0.00     0.029 A 
ATOM     54  C   UNL     1      14.146  -6.181   3.820  1.00  0.00     0.049 A 
ATOM     55  H   UNL     1      12.108  -5.799   3.430  1.00  0.00     0.167 HD
ATOM     56  C   UNL     1      14.088  -5.585   1.413  1.00  0.00     0.074 A 
ATOM     57  C   UNL     1      14.719  -5.345   0.131  1.00  0.00     0.031 C 
ATOM     58  C   UNL     1      14.758  -5.943   2.537  1.00  0.00     0.037 A 
BRANCH  45  59
ATOM     59  C   UNL     1      11.147  -6.623   7.507  1.00  0.00     0.058 A 
ATOM     60  C   UNL     1      10.599  -7.832   7.965  1.00  0.00     0.135 A 
ATOM     61  C   UNL     1      11.619  -5.711   8.463  1.00  0.00     0.135 A 
ATOM     62  F   UNL     1      10.116  -8.729   7.091  1.00  0.00    -0.206 F 
ATOM     63  C   UNL     1      10.501  -8.116   9.323  1.00  0.00     0.059 A 
ATOM     64  C   UNL     1      11.550  -5.983   9.826  1.00  0.00     0.059 A 
ATOM     65  F   UNL     1      12.147  -4.539   8.077  1.00  0.00    -0.206 F 
ATOM     66  C   UNL     1      10.975  -7.182  10.246  1.00  0.00     0.060 A 
BRANCH  66  67
ATOM     67  S   UNL     1      10.836  -7.558  12.007  1.00  0.00     0.124 S 
ATOM     68  O   UNL     1       9.415  -7.323  12.242  1.00  0.00    -0.237 OA
ATOM     69  O   UNL     1      11.265  -8.952  12.066  1.00  0.00    -0.237 OA
ATOM     70  O   UNL     1      11.743  -6.600  12.631  1.00  0.00    -0.744 OA
ENDBRANCH  66  67
ENDBRANCH  45  59
BRANCH  46  71
ATOM     71  C   UNL     1      11.350  -4.368  -2.218  1.00  0.00     0.058 A 
ATOM     72  C   UNL     1      11.640  -5.325  -3.201  1.00  0.00     0.135 A 
ATOM     73  C   UNL     1      11.097  -3.053  -2.639  1.00  0.00     0.135 A 
ATOM     74  F   UNL     1      11.900  -6.593  -2.845  1.00  0.00    -0.206 F 
ATOM     75  C   UNL     1      11.686  -4.992  -4.551  1.00  0.00     0.059 A 
ATOM     76  C   UNL     1      11.117  -2.700  -3.984  1.00  0.00     0.059 A 
ATOM     77  F   UNL     1      10.806  -2.103  -1.737  1.00  0.00    -0.206 F 
ATOM     78  C   UNL     1      11.421  -3.675  -4.932  1.00  0.00     0.060 A 
BRANCH  78  79
ATOM     79  S   UNL     1      11.425  -3.261  -6.690  1.00  0.00     0.124 S 
ATOM     80  O   UNL     1      12.854  -3.205  -6.975  1.00  0.00    -0.237 OA
ATOM     81  O   UNL     1      10.700  -4.386  -7.274  1.00  0.00    -0.237 OA
ATOM     82  O   UNL     1      10.720  -1.983  -6.733  1.00  0.00    -0.744 OA
ENDBRANCH  78  79
ENDBRANCH  46  71
BRANCH  58  83
ATOM     83  C   UNL     1      16.245  -6.123   2.429  1.00  0.00     0.058 A 
ATOM     84  C   UNL     1      17.116  -5.025   2.353  1.00  0.00     0.135 A 
ATOM     85  C   UNL     1      16.810  -7.409   2.459  1.00  0.00     0.135 A 
ATOM     86  F   UNL     1      16.625  -3.776   2.316  1.00  0.00    -0.206 F 
ATOM     87  C   UNL     1      18.495  -5.196   2.292  1.00  0.00     0.059 A 
ATOM     88  C   UNL     1      18.187  -7.602   2.421  1.00  0.00     0.059 A 
ATOM     89  F   UNL     1      16.020  -8.492   2.542  1.00  0.00    -0.206 F 
ATOM     90  C   UNL     1      19.022  -6.489   2.326  1.00  0.00     0.060 A 
BRANCH  90  91
ATOM     91  S   UNL     1      20.815  -6.699   2.283  1.00  0.00     0.124 S 
ATOM     92  O   UNL     1      21.102  -6.478   0.870  1.00  0.00    -0.237 OA
ATOM     93  O   UNL     1      21.277  -5.655   3.194  1.00  0.00    -0.237 OA
ATOM     94  O   UNL     1      21.007  -8.066   2.758  1.00  0.00    -0.744 OA
ENDBRANCH  90  91
ENDBRANCH  58  83
ENDBRANCH  32  33
ENDBRANCH  25  27
ENDBRANCH  24  25
ENDBRANCH  23  24
ENDBRANCH   1  23
TORSDOF 19
