REMARK SMILES CC1(C)C[C@@H]([NH2+]C[C@@H]2CCCC[C@@H]2C(=O)OCCOCCOC(=O)c2ccc(-c3c4nc(c(-c5c(F)cc(S(=O)(=O)[O-])cc5F)c5ccc([nH]5)c(-c5c(F)cc(S(=O)(=O)[O-])cc5F)c5nc(c(-c6c(F)cc(S(=O)(=O)[O-])cc6F)c6ccc3[nH]6)C=C5)C=C4)cc2)C(C)(C)O1
REMARK SMILES IDX 19 1 18 2 17 3 16 4 14 5 15 6 13 7 8 8 9 9 10 10 12 11 11 12
REMARK SMILES IDX 7 13 6 14 5 17 1 18 2 19 3 20 4 21 94 22 91 23 92 24 93 25
REMARK SMILES IDX 20 26 21 27 22 28 23 29 24 30 25 31 26 32 90 33 27 34 89 35
REMARK SMILES IDX 28 36 29 37 30 38 83 39 31 40 88 41 82 42 84 43 32 44 87 45
REMARK SMILES IDX 81 46 80 47 33 49 67 50 46 51 66 52 47 53 50 54 65 55 85 56
REMARK SMILES IDX 48 57 49 58 64 60 86 61 51 62 34 63 35 64 44 65 36 66 37 67
REMARK SMILES IDX 43 68 45 69 38 70 39 71 40 72 41 73 42 74 68 75 69 76 78 77
REMARK SMILES IDX 70 78 71 79 77 80 79 81 72 82 73 83 74 84 75 85 76 86 52 87
REMARK SMILES IDX 53 88 62 89 54 90 55 91 61 92 63 93 56 94 57 95 58 96 59 97
REMARK SMILES IDX 60 98
REMARK H PARENT 6 15 6 16 84 48 50 59
REMARK Flexibility Score: inf
ROOT
ATOM      1  O   UNL     1       4.332  -5.783   6.389  1.00  0.00    -0.374 OA
ENDROOT
BRANCH   1   2
ATOM      2  C   UNL     1       5.603  -5.683   5.752  1.00  0.00     0.202 C 
BRANCH   2   3
ATOM      3  C   UNL     1       5.717  -5.724   4.225  1.00  0.00     0.261 C 
BRANCH   3   4
ATOM      4  O   UNL     1       4.945  -4.709   3.563  1.00  0.00    -0.463 OA
BRANCH   4   5
ATOM      5  C   UNL     1       3.793  -5.176   3.007  1.00  0.00     0.309 C 
ATOM      6  O   UNL     1       3.426  -6.341   3.081  1.00  0.00    -0.252 OA
BRANCH   5   7
ATOM      7  C   UNL     1       3.036  -4.073   2.271  1.00  0.00     0.108 C 
ATOM      8  C   UNL     1       1.525  -3.946   2.593  1.00  0.00     0.058 C 
ATOM      9  C   UNL     1       0.803  -5.285   2.404  1.00  0.00     0.010 C 
ATOM     10  C   UNL     1       0.966  -5.760   0.956  1.00  0.00     0.001 C 
ATOM     11  C   UNL     1       3.153  -4.386   0.769  1.00  0.00     0.016 C 
ATOM     12  C   UNL     1       2.382  -5.654   0.374  1.00  0.00     0.001 C 
BRANCH   8  13
ATOM     13  C   UNL     1       1.080  -3.221   3.883  1.00  0.00     0.265 C 
BRANCH  13  14
ATOM     14  N   UNL     1       1.550  -1.839   4.072  1.00  0.00    -0.341 N 
ATOM     15  H   UNL     1       1.529  -1.630   5.070  1.00  0.00     0.346 HD
ATOM     16  H   UNL     1       2.488  -1.797   3.673  1.00  0.00     0.346 HD
BRANCH  14  17
ATOM     17  C   UNL     1       0.751  -0.817   3.370  1.00  0.00     0.217 C 
ATOM     18  C   UNL     1       0.940   0.687  -0.012  1.00  0.00     0.042 C 
ATOM     19  C   UNL     1       0.327   0.407   1.358  1.00  0.00     0.069 C 
ATOM     20  C   UNL     1      -1.201   0.492   1.285  1.00  0.00     0.042 C 
ATOM     21  C   UNL     1       0.781  -0.947   1.861  1.00  0.00     0.103 C 
ATOM     22  O   UNL     1       0.798   1.363   2.315  1.00  0.00    -0.363 OA
ATOM     23  C   UNL     1       1.148   0.682   3.553  1.00  0.00     0.115 C 
ATOM     24  C   UNL     1       2.648   0.915   3.765  1.00  0.00     0.048 C 
ATOM     25  C   UNL     1       0.365   1.358   4.681  1.00  0.00     0.048 C 
ENDBRANCH  14  17
ENDBRANCH  13  14
ENDBRANCH   8  13
ENDBRANCH   5   7
ENDBRANCH   4   5
ENDBRANCH   3   4
ENDBRANCH   2   3
ENDBRANCH   1   2
BRANCH   1  26
ATOM     26  C   UNL     1       3.391  -4.736   6.199  1.00  0.00     0.202 C 
BRANCH  26  27
ATOM     27  C   UNL     1       3.613  -3.350   6.822  1.00  0.00     0.261 C 
BRANCH  27  28
ATOM     28  O   UNL     1       4.951  -2.871   6.731  1.00  0.00    -0.460 OA
BRANCH  28  29
ATOM     29  C   UNL     1       5.676  -3.080   7.856  1.00  0.00     0.338 C 
ATOM     30  O   UNL     1       5.295  -3.558   8.912  1.00  0.00    -0.246 OA
BRANCH  29  31
ATOM     31  C   UNL     1       7.085  -2.826   7.536  1.00  0.00     0.060 A 
ATOM     32  C   UNL     1       7.986  -3.889   7.682  1.00  0.00     0.016 A 
ATOM     33  C   UNL     1       7.503  -1.577   7.075  1.00  0.00     0.016 A 
ATOM     34  C   UNL     1       9.326  -3.701   7.374  1.00  0.00     0.010 A 
ATOM     35  C   UNL     1       8.851  -1.384   6.788  1.00  0.00     0.010 A 
ATOM     36  C   UNL     1       9.765  -2.438   6.958  1.00  0.00    -0.014 A 
BRANCH  36  37
ATOM     37  C   UNL     1      11.211  -2.179   6.839  1.00  0.00     0.031 A 
ATOM     38  C   UNL     1      11.908  -1.495   7.976  1.00  0.00     0.074 A 
ATOM     39  C   UNL     1      11.878  -2.563   5.738  1.00  0.00     0.049 A 
ATOM     40  N   UNL     1      13.154  -1.122   8.079  1.00  0.00    -0.248 NA
ATOM     41  C   UNL     1      11.083  -1.189   9.157  1.00  0.00     0.031 C 
ATOM     42  C   UNL     1      11.292  -3.278   4.605  1.00  0.00     0.029 A 
ATOM     43  N   UNL     1      13.192  -2.400   5.394  1.00  0.00    -0.354 N 
ATOM     44  C   UNL     1      13.265  -0.533   9.333  1.00  0.00     0.074 A 
ATOM     45  C   UNL     1      11.950  -0.562   9.936  1.00  0.00     0.031 C 
ATOM     46  C   UNL     1      12.248  -3.491   3.685  1.00  0.00     0.029 A 
ATOM     47  C   UNL     1      13.497  -2.891   4.148  1.00  0.00     0.049 A 
ATOM     48  H   UNL     1      13.855  -1.972   5.982  1.00  0.00     0.167 HD
ATOM     49  C   UNL     1      14.370  -0.024   9.926  1.00  0.00     0.037 A 
ATOM     50  C   UNL     1      14.652  -2.837   3.458  1.00  0.00     0.037 A 
ATOM     51  C   UNL     1      15.662   0.013   9.292  1.00  0.00     0.049 A 
ATOM     52  C   UNL     1      15.842  -2.170   4.092  1.00  0.00     0.074 A 
ATOM     53  C   UNL     1      16.854   0.500   9.793  1.00  0.00     0.029 A 
ATOM     54  N   UNL     1      15.923  -0.440   8.005  1.00  0.00    -0.354 N 
ATOM     55  N   UNL     1      15.949  -1.636   5.287  1.00  0.00    -0.248 NA
ATOM     56  C   UNL     1      17.067  -2.089   3.285  1.00  0.00     0.031 C 
ATOM     57  C   UNL     1      17.821   0.399   8.787  1.00  0.00     0.029 A 
ATOM     58  C   UNL     1      17.249  -0.209   7.679  1.00  0.00     0.049 A 
ATOM     59  H   UNL     1      15.262  -0.863   7.410  1.00  0.00     0.167 HD
ATOM     60  C   UNL     1      17.258  -1.177   5.386  1.00  0.00     0.074 A 
ATOM     61  C   UNL     1      17.906  -1.507   4.131  1.00  0.00     0.031 C 
ATOM     62  C   UNL     1      17.869  -0.543   6.418  1.00  0.00     0.037 A 
BRANCH  49  63
ATOM     63  C   UNL     1      14.204   0.567  11.300  1.00  0.00     0.058 A 
ATOM     64  C   UNL     1      13.897  -0.227  12.418  1.00  0.00     0.135 A 
ATOM     65  C   UNL     1      14.332   1.951  11.500  1.00  0.00     0.135 A 
ATOM     66  F   UNL     1      13.745  -1.554  12.284  1.00  0.00    -0.206 F 
ATOM     67  C   UNL     1      13.674   0.334  13.671  1.00  0.00     0.059 A 
ATOM     68  C   UNL     1      14.146   2.530  12.752  1.00  0.00     0.059 A 
ATOM     69  F   UNL     1      14.622   2.760  10.468  1.00  0.00    -0.206 F 
ATOM     70  C   UNL     1      13.794   1.716  13.826  1.00  0.00     0.060 A 
BRANCH  70  71
ATOM     71  S   UNL     1      13.465   2.433  15.450  1.00  0.00     0.124 S 
ATOM     72  O   UNL     1      12.016   2.283  15.546  1.00  0.00    -0.237 OA
ATOM     73  O   UNL     1      14.250   1.577  16.333  1.00  0.00    -0.237 OA
ATOM     74  O   UNL     1      13.946   3.805  15.320  1.00  0.00    -0.744 OA
ENDBRANCH  70  71
ENDBRANCH  49  63
BRANCH  50  75
ATOM     75  C   UNL     1      14.728  -3.439   2.101  1.00  0.00     0.058 A 
ATOM     76  C   UNL     1      15.483  -4.597   1.870  1.00  0.00     0.135 A 
ATOM     77  C   UNL     1      14.015  -2.897   1.019  1.00  0.00     0.135 A 
ATOM     78  F   UNL     1      16.189  -5.147   2.870  1.00  0.00    -0.206 F 
ATOM     79  C   UNL     1      15.526  -5.201   0.618  1.00  0.00     0.059 A 
ATOM     80  C   UNL     1      14.023  -3.496  -0.236  1.00  0.00     0.059 A 
ATOM     81  F   UNL     1      13.270  -1.794   1.189  1.00  0.00    -0.206 F 
ATOM     82  C   UNL     1      14.783  -4.649  -0.427  1.00  0.00     0.060 A 
BRANCH  82  83
ATOM     83  S   UNL     1      14.785  -5.490  -2.025  1.00  0.00     0.124 S 
ATOM     84  O   UNL     1      16.148  -5.249  -2.484  1.00  0.00    -0.237 OA
ATOM     85  O   UNL     1      14.472  -6.864  -1.644  1.00  0.00    -0.237 OA
ATOM     86  O   UNL     1      13.736  -4.800  -2.769  1.00  0.00    -0.744 OA
ENDBRANCH  82  83
ENDBRANCH  50  75
BRANCH  62  87
ATOM     87  C   UNL     1      19.317  -0.176   6.244  1.00  0.00     0.058 A 
ATOM     88  C   UNL     1      19.715   0.869   5.396  1.00  0.00     0.135 A 
ATOM     89  C   UNL     1      20.311  -0.827   6.994  1.00  0.00     0.135 A 
ATOM     90  F   UNL     1      18.807   1.517   4.649  1.00  0.00    -0.206 F 
ATOM     91  C   UNL     1      21.049   1.247   5.287  1.00  0.00     0.059 A 
ATOM     92  C   UNL     1      21.646  -0.445   6.925  1.00  0.00     0.059 A 
ATOM     93  F   UNL     1      19.983  -1.828   7.827  1.00  0.00    -0.206 F 
ATOM     94  C   UNL     1      22.006   0.590   6.063  1.00  0.00     0.060 A 
BRANCH  94  95
ATOM     95  S   UNL     1      23.724   1.133   5.955  1.00  0.00     0.124 S 
ATOM     96  O   UNL     1      24.098   0.667   4.624  1.00  0.00    -0.237 OA
ATOM     97  O   UNL     1      23.602   2.580   6.110  1.00  0.00    -0.237 OA
ATOM     98  O   UNL     1      24.371   0.442   7.067  1.00  0.00    -0.744 OA
ENDBRANCH  94  95
ENDBRANCH  62  87
ENDBRANCH  36  37
ENDBRANCH  29  31
ENDBRANCH  28  29
ENDBRANCH  27  28
ENDBRANCH  26  27
ENDBRANCH   1  26
TORSDOF 20
