REMARK SMILES O=C(OCCOCCOC(=O)[C@@]1([NH2+]C2CC2)CCC[C@H]1CCn1ccnc1)c1ccc(-c2c3nc(c(-c4c(F)cc(S(=O)(=O)[O-])cc4F)c4ccc([nH]4)c(-c4c(F)cc(S(=O)(=O)[O-])cc4F)c4nc(c(-c5c(F)cc(S(=O)(=O)[O-])cc5F)c5ccc2[nH]5)C=C4)C=C3)cc1
REMARK SMILES IDX 6 1 5 2 4 3 3 4 2 5 1 6 28 7 29 8 93 9 30 10 92 11 31 12
REMARK SMILES IDX 32 13 33 14 86 15 34 16 91 17 85 18 87 19 35 20 90 21 84 22
REMARK SMILES IDX 83 23 36 25 70 26 49 27 69 28 50 29 53 30 68 31 88 32 51 33
REMARK SMILES IDX 52 34 67 36 89 37 54 38 37 39 38 40 47 41 39 42 40 43 46 44
REMARK SMILES IDX 48 45 41 46 42 47 43 48 44 49 45 50 71 51 72 52 81 53 73 54
REMARK SMILES IDX 74 55 80 56 82 57 75 58 76 59 77 60 78 61 79 62 55 63 56 64
REMARK SMILES IDX 65 65 57 66 58 67 64 68 66 69 59 70 60 71 61 72 62 73 63 74
REMARK SMILES IDX 7 75 8 76 9 77 10 78 11 79 12 80 17 81 20 82 18 83 19 84
REMARK SMILES IDX 13 85 14 88 15 89 16 90 21 91 22 92 23 93 24 94 27 95 25 96
REMARK SMILES IDX 26 97
REMARK H PARENT 87 24 53 35 13 86 13 87
REMARK Flexibility Score: inf
ROOT
ATOM      1  O   UNL     1       3.948   0.494  -1.080  1.00  0.00    -0.374 OA
ENDROOT
BRANCH   1   2
ATOM      2  C   UNL     1       4.664  -0.463  -0.296  1.00  0.00     0.202 C 
BRANCH   2   3
ATOM      3  C   UNL     1       4.653  -0.356   1.228  1.00  0.00     0.261 C 
BRANCH   3   4
ATOM      4  O   UNL     1       3.357  -0.554   1.825  1.00  0.00    -0.460 OA
BRANCH   4   5
ATOM      5  C   UNL     1       2.234  -0.002   1.316  1.00  0.00     0.338 C 
ATOM      6  O   UNL     1       1.223  -0.665   1.107  1.00  0.00    -0.246 OA
BRANCH   5   7
ATOM      7  C   UNL     1       2.156   1.470   1.347  1.00  0.00     0.060 A 
ATOM      8  C   UNL     1       3.276   2.275   1.524  1.00  0.00     0.016 A 
ATOM      9  C   UNL     1       0.869   1.995   1.506  1.00  0.00     0.016 A 
ATOM     10  C   UNL     1       3.147   3.414   2.262  1.00  0.00     0.010 A 
ATOM     11  C   UNL     1       0.722   3.199   2.150  1.00  0.00     0.010 A 
ATOM     12  C   UNL     1       1.868   3.817   2.634  1.00  0.00    -0.014 A 
BRANCH  12  13
ATOM     13  C   UNL     1       1.798   5.033   3.403  1.00  0.00     0.031 A 
ATOM     14  C   UNL     1       2.370   6.172   2.651  1.00  0.00     0.074 A 
ATOM     15  C   UNL     1       1.225   5.064   4.617  1.00  0.00     0.049 A 
ATOM     16  N   UNL     1       3.448   6.832   2.914  1.00  0.00    -0.248 NA
ATOM     17  C   UNL     1       1.831   6.418   1.299  1.00  0.00     0.031 C 
ATOM     18  C   UNL     1       0.460   4.006   5.280  1.00  0.00     0.029 A 
ATOM     19  N   UNL     1       1.100   6.108   5.469  1.00  0.00    -0.354 N 
ATOM     20  C   UNL     1       3.548   7.771   1.894  1.00  0.00     0.074 A 
ATOM     21  C   UNL     1       2.706   7.305   0.828  1.00  0.00     0.031 C 
ATOM     22  C   UNL     1      -0.260   4.550   6.286  1.00  0.00     0.029 A 
ATOM     23  C   UNL     1       0.089   5.955   6.408  1.00  0.00     0.049 A 
ATOM     24  H   UNL     1       1.676   6.906   5.427  1.00  0.00     0.167 HD
ATOM     25  C   UNL     1       4.024   9.015   2.161  1.00  0.00     0.037 A 
ATOM     26  C   UNL     1      -0.479   6.961   7.120  1.00  0.00     0.037 A 
ATOM     27  C   UNL     1       4.869   8.998   3.333  1.00  0.00     0.049 A 
ATOM     28  C   UNL     1       0.471   8.111   7.075  1.00  0.00     0.074 A 
ATOM     29  C   UNL     1       5.998   8.285   3.694  1.00  0.00     0.029 A 
ATOM     30  N   UNL     1       4.356   9.503   4.504  1.00  0.00    -0.354 N 
ATOM     31  N   UNL     1       1.648   8.100   7.642  1.00  0.00    -0.248 NA
ATOM     32  C   UNL     1       0.318   9.075   5.992  1.00  0.00     0.031 C 
ATOM     33  C   UNL     1       5.831   8.001   5.080  1.00  0.00     0.029 A 
ATOM     34  C   UNL     1       4.656   8.619   5.509  1.00  0.00     0.049 A 
ATOM     35  H   UNL     1       3.861  10.348   4.604  1.00  0.00     0.167 HD
ATOM     36  C   UNL     1       2.492   8.724   6.733  1.00  0.00     0.074 A 
ATOM     37  C   UNL     1       1.602   9.372   5.772  1.00  0.00     0.031 C 
ATOM     38  C   UNL     1       3.822   8.414   6.673  1.00  0.00     0.037 A 
BRANCH  25  39
ATOM     39  C   UNL     1       3.340  10.267   1.652  1.00  0.00     0.058 A 
ATOM     40  C   UNL     1       3.913  11.518   1.950  1.00  0.00     0.135 A 
ATOM     41  C   UNL     1       2.015  10.315   1.152  1.00  0.00     0.135 A 
ATOM     42  F   UNL     1       5.167  11.599   2.425  1.00  0.00    -0.206 F 
ATOM     43  C   UNL     1       3.194  12.710   1.859  1.00  0.00     0.059 A 
ATOM     44  C   UNL     1       1.300  11.493   1.004  1.00  0.00     0.059 A 
ATOM     45  F   UNL     1       1.298   9.225   0.862  1.00  0.00    -0.206 F 
ATOM     46  C   UNL     1       1.879  12.681   1.403  1.00  0.00     0.060 A 
BRANCH  46  47
ATOM     47  S   UNL     1       0.910  14.194   1.376  1.00  0.00     0.124 S 
ATOM     48  O   UNL     1       0.739  14.451   2.800  1.00  0.00    -0.237 OA
ATOM     49  O   UNL     1       1.798  15.104   0.659  1.00  0.00    -0.237 OA
ATOM     50  O   UNL     1      -0.296  13.806   0.651  1.00  0.00    -0.744 OA
ENDBRANCH  46  47
ENDBRANCH  25  39
BRANCH  26  51
ATOM     51  C   UNL     1      -1.918   7.113   7.471  1.00  0.00     0.058 A 
ATOM     52  C   UNL     1      -2.342   8.114   8.363  1.00  0.00     0.135 A 
ATOM     53  C   UNL     1      -2.939   6.462   6.745  1.00  0.00     0.135 A 
ATOM     54  F   UNL     1      -1.441   8.802   9.081  1.00  0.00    -0.206 F 
ATOM     55  C   UNL     1      -3.688   8.482   8.491  1.00  0.00     0.059 A 
ATOM     56  C   UNL     1      -4.286   6.799   6.867  1.00  0.00     0.059 A 
ATOM     57  F   UNL     1      -2.656   5.535   5.819  1.00  0.00    -0.206 F 
ATOM     58  C   UNL     1      -4.651   7.830   7.722  1.00  0.00     0.060 A 
BRANCH  58  59
ATOM     59  S   UNL     1      -6.363   8.412   7.750  1.00  0.00     0.124 S 
ATOM     60  O   UNL     1      -6.793   8.021   9.088  1.00  0.00    -0.237 OA
ATOM     61  O   UNL     1      -6.206   9.844   7.522  1.00  0.00    -0.237 OA
ATOM     62  O   UNL     1      -6.990   7.676   6.654  1.00  0.00    -0.744 OA
ENDBRANCH  58  59
ENDBRANCH  26  51
BRANCH  38  63
ATOM     63  C   UNL     1       4.424   7.621   7.805  1.00  0.00     0.058 A 
ATOM     64  C   UNL     1       4.052   6.310   8.156  1.00  0.00     0.135 A 
ATOM     65  C   UNL     1       5.528   8.171   8.472  1.00  0.00     0.135 A 
ATOM     66  F   UNL     1       3.081   5.667   7.491  1.00  0.00    -0.206 F 
ATOM     67  C   UNL     1       4.714   5.603   9.163  1.00  0.00     0.059 A 
ATOM     68  C   UNL     1       6.224   7.473   9.454  1.00  0.00     0.059 A 
ATOM     69  F   UNL     1       5.976   9.393   8.137  1.00  0.00    -0.206 F 
ATOM     70  C   UNL     1       5.799   6.196   9.809  1.00  0.00     0.060 A 
BRANCH  70  71
ATOM     71  S   UNL     1       6.689   5.268  11.077  1.00  0.00     0.124 S 
ATOM     72  O   UNL     1       5.724   5.239  12.170  1.00  0.00    -0.237 OA
ATOM     73  O   UNL     1       6.941   3.990  10.418  1.00  0.00    -0.237 OA
ATOM     74  O   UNL     1       7.881   6.078  11.319  1.00  0.00    -0.744 OA
ENDBRANCH  70  71
ENDBRANCH  38  63
ENDBRANCH  12  13
ENDBRANCH   5   7
ENDBRANCH   4   5
ENDBRANCH   3   4
ENDBRANCH   2   3
ENDBRANCH   1   2
BRANCH   1  75
ATOM     75  C   UNL     1       2.731   0.043  -1.712  1.00  0.00     0.202 C 
BRANCH  75  76
ATOM     76  C   UNL     1       2.765  -0.879  -2.948  1.00  0.00     0.261 C 
BRANCH  76  77
ATOM     77  O   UNL     1       3.004  -2.271  -2.615  1.00  0.00    -0.459 OA
BRANCH  77  78
ATOM     78  C   UNL     1       4.325  -2.522  -2.468  1.00  0.00     0.368 C 
ATOM     79  O   UNL     1       5.144  -1.665  -2.714  1.00  0.00    -0.245 OA
BRANCH  78  80
ATOM     80  C   UNL     1       4.725  -3.872  -1.866  1.00  0.00     0.197 C 
ATOM     81  C   UNL     1       4.070  -5.123  -2.446  1.00  0.00     0.081 C 
ATOM     82  C   UNL     1       6.251  -4.114  -2.258  1.00  0.00     0.064 C 
ATOM     83  C   UNL     1       5.018  -6.254  -2.050  1.00  0.00     0.008 C 
ATOM     84  C   UNL     1       6.420  -5.642  -2.040  1.00  0.00     0.011 C 
BRANCH  80  85
ATOM     85  N   UNL     1       4.661  -3.880  -0.374  1.00  0.00    -0.329 N 
ATOM     86  H   UNL     1       5.340  -3.183  -0.067  1.00  0.00     0.347 HD
ATOM     87  H   UNL     1       4.797  -4.872  -0.184  1.00  0.00     0.347 HD
BRANCH  85  88
ATOM     88  C   UNL     1       3.447  -3.618   0.405  1.00  0.00     0.183 C 
ATOM     89  C   UNL     1       2.040  -3.589  -0.106  1.00  0.00     0.071 C 
ATOM     90  C   UNL     1       2.494  -4.727   0.753  1.00  0.00     0.071 C 
ENDBRANCH  85  88
ENDBRANCH  80  85
BRANCH  82  91
ATOM     91  C   UNL     1       6.738  -3.784  -3.717  1.00  0.00     0.032 C 
BRANCH  91  92
ATOM     92  C   UNL     1       7.162  -2.354  -4.161  1.00  0.00     0.123 C 
BRANCH  92  93
ATOM     93  N   UNL     1       7.866  -1.504  -3.224  1.00  0.00    -0.337 N 
ATOM     94  C   UNL     1       7.629  -0.170  -3.008  1.00  0.00     0.107 A 
ATOM     95  C   UNL     1       8.930  -1.853  -2.445  1.00  0.00     0.199 A 
ATOM     96  C   UNL     1       8.541   0.209  -2.053  1.00  0.00     0.130 A 
ATOM     97  N   UNL     1       9.356  -0.842  -1.721  1.00  0.00    -0.245 NA
ENDBRANCH  92  93
ENDBRANCH  91  92
ENDBRANCH  82  91
ENDBRANCH  78  80
ENDBRANCH  77  78
ENDBRANCH  76  77
ENDBRANCH  75  76
ENDBRANCH   1  75
TORSDOF 22
