REMARK SMILES C[C@H]([NH3+])C(=O)N1CCC[C@H]1C(=O)OCCOCCOC(=O)c1ccc(-c2c3nc(c(-c4c(F)cc(S(=O)(=O)[O-])cc4F)c4ccc([nH]4)c(-c4c(F)cc(S(=O)(=O)[O-])cc4F)c4nc(c(-c5c(F)cc(S(=O)(=O)[O-])cc5F)c5ccc2[nH]5)C=C4)C=C3)cc1
REMARK SMILES IDX 16 1 15 2 14 3 13 4 11 5 12 6 10 7 6 8 7 9 8 10 9 11 4 12
REMARK SMILES IDX 5 13 2 14 1 15 3 16 17 20 18 21 19 22 20 23 21 24 22 25
REMARK SMILES IDX 23 26 87 27 24 28 86 29 25 30 26 31 27 32 80 33 28 34 85 35
REMARK SMILES IDX 79 36 81 37 29 38 84 39 78 40 77 41 30 43 64 44 43 45 63 46
REMARK SMILES IDX 44 47 47 48 62 49 82 50 45 51 46 52 61 54 83 55 48 56 31 57
REMARK SMILES IDX 32 58 41 59 33 60 34 61 40 62 42 63 35 64 36 65 37 66 38 67
REMARK SMILES IDX 39 68 65 69 66 70 75 71 67 72 68 73 74 74 76 75 69 76 70 77
REMARK SMILES IDX 71 78 72 79 73 80 49 81 50 82 59 83 51 84 52 85 58 86 60 87
REMARK SMILES IDX 53 88 54 89 55 90 56 91 57 92
REMARK H PARENT 3 17 3 18 3 19 81 42 47 53
REMARK Flexibility Score: inf
ROOT
ATOM      1  O   UNL     1      -6.501  -1.042  -2.678  1.00  0.00    -0.374 OA
ENDROOT
BRANCH   1   2
ATOM      2  C   UNL     1      -6.719   0.071  -1.807  1.00  0.00     0.202 C 
BRANCH   2   3
ATOM      3  C   UNL     1      -5.989   0.056  -0.454  1.00  0.00     0.261 C 
BRANCH   3   4
ATOM      4  O   UNL     1      -4.601  -0.285  -0.584  1.00  0.00    -0.462 OA
BRANCH   4   5
ATOM      5  C   UNL     1      -4.300  -1.575  -0.265  1.00  0.00     0.328 C 
ATOM      6  O   UNL     1      -5.065  -2.331   0.326  1.00  0.00    -0.250 OA
BRANCH   5   7
ATOM      7  C   UNL     1      -2.977  -2.038  -0.910  1.00  0.00     0.195 C 
ATOM      8  N   UNL     1      -1.747  -1.357  -0.512  1.00  0.00    -0.324 N 
ATOM      9  C   UNL     1      -1.149  -2.088   0.583  1.00  0.00     0.121 C 
ATOM     10  C   UNL     1      -1.404  -3.536   0.211  1.00  0.00     0.024 C 
ATOM     11  C   UNL     1      -2.699  -3.518  -0.597  1.00  0.00     0.039 C 
BRANCH   8  12
ATOM     12  C   UNL     1      -1.249  -0.313  -1.263  1.00  0.00     0.281 C 
ATOM     13  O   UNL     1      -1.967   0.235  -2.111  1.00  0.00    -0.268 OA
BRANCH  12  14
ATOM     14  C   UNL     1       0.265   0.023  -1.268  1.00  0.00     0.268 C 
ATOM     15  C   UNL     1       0.987  -0.993  -2.153  1.00  0.00     0.086 C 
BRANCH  14  16
ATOM     16  N   UNL     1       0.889   0.118   0.064  1.00  0.00    -0.348 N 
ATOM     17  H   UNL     1       0.844  -0.791   0.526  1.00  0.00     0.345 HD
ATOM     18  H   UNL     1       0.392   0.809   0.625  1.00  0.00     0.345 HD
ATOM     19  H   UNL     1       1.864   0.400  -0.037  1.00  0.00     0.345 HD
ENDBRANCH  14  16
ENDBRANCH  12  14
ENDBRANCH   8  12
ENDBRANCH   5   7
ENDBRANCH   4   5
ENDBRANCH   3   4
ENDBRANCH   2   3
ENDBRANCH   1   2
BRANCH   1  20
ATOM     20  C   UNL     1      -5.297  -1.005  -3.450  1.00  0.00     0.202 C 
BRANCH  20  21
ATOM     21  C   UNL     1      -5.303  -0.162  -4.728  1.00  0.00     0.261 C 
BRANCH  21  22
ATOM     22  O   UNL     1      -5.318   1.241  -4.419  1.00  0.00    -0.460 OA
BRANCH  22  23
ATOM     23  C   UNL     1      -6.489   1.866  -4.664  1.00  0.00     0.338 C 
ATOM     24  O   UNL     1      -7.471   1.399  -5.227  1.00  0.00    -0.246 OA
BRANCH  23  25
ATOM     25  C   UNL     1      -6.511   3.162  -3.962  1.00  0.00     0.060 A 
ATOM     26  C   UNL     1      -7.640   3.449  -3.184  1.00  0.00     0.016 A 
ATOM     27  C   UNL     1      -5.474   4.091  -4.081  1.00  0.00     0.016 A 
ATOM     28  C   UNL     1      -7.769   4.692  -2.575  1.00  0.00     0.010 A 
ATOM     29  C   UNL     1      -5.610   5.344  -3.476  1.00  0.00     0.010 A 
ATOM     30  C   UNL     1      -6.776   5.663  -2.757  1.00  0.00    -0.014 A 
BRANCH  30  31
ATOM     31  C   UNL     1      -7.038   7.056  -2.328  1.00  0.00     0.031 A 
ATOM     32  C   UNL     1      -7.464   8.062  -3.362  1.00  0.00     0.074 A 
ATOM     33  C   UNL     1      -6.933   7.408  -1.034  1.00  0.00     0.049 A 
ATOM     34  N   UNL     1      -7.718   9.336  -3.224  1.00  0.00    -0.248 NA
ATOM     35  C   UNL     1      -7.623   7.563  -4.739  1.00  0.00     0.031 C 
ATOM     36  C   UNL     1      -6.564   6.508   0.058  1.00  0.00     0.029 A 
ATOM     37  N   UNL     1      -7.120   8.621  -0.422  1.00  0.00    -0.354 N 
ATOM     38  C   UNL     1      -8.053   9.795  -4.493  1.00  0.00     0.074 A 
ATOM     39  C   UNL     1      -7.945   8.668  -5.393  1.00  0.00     0.031 C 
ATOM     40  C   UNL     1      -6.537   7.205   1.206  1.00  0.00     0.029 A 
ATOM     41  C   UNL     1      -6.854   8.604   0.926  1.00  0.00     0.049 A 
ATOM     42  H   UNL     1      -7.417   9.427  -0.903  1.00  0.00     0.167 HD
ATOM     43  C   UNL     1      -8.422  11.042  -4.869  1.00  0.00     0.037 A 
ATOM     44  C   UNL     1      -6.843   9.610   1.823  1.00  0.00     0.037 A 
ATOM     45  C   UNL     1      -8.533  12.154  -3.961  1.00  0.00     0.049 A 
ATOM     46  C   UNL     1      -7.205  11.001   1.370  1.00  0.00     0.074 A 
ATOM     47  C   UNL     1      -8.930  13.451  -4.234  1.00  0.00     0.029 A 
ATOM     48  N   UNL     1      -8.236  12.104  -2.606  1.00  0.00    -0.354 N 
ATOM     49  N   UNL     1      -7.552  11.416   0.174  1.00  0.00    -0.248 NA
ATOM     50  C   UNL     1      -7.181  12.060   2.388  1.00  0.00     0.031 C 
ATOM     51  C   UNL     1      -8.819  14.198  -3.058  1.00  0.00     0.029 A 
ATOM     52  C   UNL     1      -8.412  13.354  -2.037  1.00  0.00     0.049 A 
ATOM     53  H   UNL     1      -7.944  11.298  -2.122  1.00  0.00     0.167 HD
ATOM     54  C   UNL     1      -7.811  12.777   0.302  1.00  0.00     0.074 A 
ATOM     55  C   UNL     1      -7.594  13.112   1.695  1.00  0.00     0.031 C 
ATOM     56  C   UNL     1      -8.196  13.669  -0.645  1.00  0.00     0.037 A 
BRANCH  43  57
ATOM     57  C   UNL     1      -8.705  11.280  -6.327  1.00  0.00     0.058 A 
ATOM     58  C   UNL     1      -9.848  10.763  -6.957  1.00  0.00     0.135 A 
ATOM     59  C   UNL     1      -7.837  12.073  -7.096  1.00  0.00     0.135 A 
ATOM     60  F   UNL     1     -10.702   9.983  -6.276  1.00  0.00    -0.206 F 
ATOM     61  C   UNL     1     -10.110  11.007  -8.302  1.00  0.00     0.059 A 
ATOM     62  C   UNL     1      -8.094  12.352  -8.434  1.00  0.00     0.059 A 
ATOM     63  F   UNL     1      -6.727  12.588  -6.545  1.00  0.00    -0.206 F 
ATOM     64  C   UNL     1      -9.228  11.805  -9.032  1.00  0.00     0.060 A 
BRANCH  64  65
ATOM     65  S   UNL     1      -9.591  12.126 -10.771  1.00  0.00     0.124 S 
ATOM     66  O   UNL     1      -9.312  10.825 -11.372  1.00  0.00    -0.237 OA
ATOM     67  O   UNL     1     -10.996  12.516 -10.729  1.00  0.00    -0.237 OA
ATOM     68  O   UNL     1      -8.658  13.191 -11.123  1.00  0.00    -0.744 OA
ENDBRANCH  64  65
ENDBRANCH  43  57
BRANCH  44  69
ATOM     69  C   UNL     1      -6.458   9.341   3.235  1.00  0.00     0.058 A 
ATOM     70  C   UNL     1      -7.393   9.430   4.275  1.00  0.00     0.135 A 
ATOM     71  C   UNL     1      -5.141   8.987   3.569  1.00  0.00     0.135 A 
ATOM     72  F   UNL     1      -8.662   9.776   4.009  1.00  0.00    -0.206 F 
ATOM     73  C   UNL     1      -7.035   9.194   5.599  1.00  0.00     0.059 A 
ATOM     74  C   UNL     1      -4.765   8.718   4.882  1.00  0.00     0.059 A 
ATOM     75  F   UNL     1      -4.208   8.878   2.610  1.00  0.00    -0.206 F 
ATOM     76  C   UNL     1      -5.718   8.835   5.892  1.00  0.00     0.060 A 
BRANCH  76  77
ATOM     77  S   UNL     1      -5.276   8.486   7.608  1.00  0.00     0.124 S 
ATOM     78  O   UNL     1      -5.288   9.822   8.192  1.00  0.00    -0.237 OA
ATOM     79  O   UNL     1      -6.353   7.596   8.027  1.00  0.00    -0.237 OA
ATOM     80  O   UNL     1      -3.962   7.858   7.495  1.00  0.00    -0.744 OA
ENDBRANCH  76  77
ENDBRANCH  44  69
BRANCH  56  81
ATOM     81  C   UNL     1      -8.444  15.087  -0.206  1.00  0.00     0.058 A 
ATOM     82  C   UNL     1      -7.394  15.947   0.147  1.00  0.00     0.135 A 
ATOM     83  C   UNL     1      -9.750  15.607  -0.194  1.00  0.00     0.135 A 
ATOM     84  F   UNL     1      -6.128  15.500   0.157  1.00  0.00    -0.206 F 
ATOM     85  C   UNL     1      -7.630  17.267   0.520  1.00  0.00     0.059 A 
ATOM     86  C   UNL     1     -10.006  16.931   0.147  1.00  0.00     0.059 A 
ATOM     87  F   UNL     1     -10.791  14.830  -0.534  1.00  0.00    -0.206 F 
ATOM     88  C   UNL     1      -8.940  17.750   0.515  1.00  0.00     0.060 A 
BRANCH  88  89
ATOM     89  S   UNL     1      -9.228  19.473   0.971  1.00  0.00     0.124 S 
ATOM     90  O   UNL     1      -9.012  19.436   2.413  1.00  0.00    -0.237 OA
ATOM     91  O   UNL     1      -8.211  20.176   0.195  1.00  0.00    -0.237 OA
ATOM     92  O   UNL     1     -10.606  19.711   0.548  1.00  0.00    -0.744 OA
ENDBRANCH  88  89
ENDBRANCH  56  81
ENDBRANCH  30  31
ENDBRANCH  23  25
ENDBRANCH  22  23
ENDBRANCH  21  22
ENDBRANCH  20  21
ENDBRANCH   1  20
TORSDOF 20
