REMARK SMILES CC(C)n1c([C@H](O)CC(=O)OCCOCCOC(=O)c2ccc(-c3c4nc(c(-c5c(F)cc(S(=O)(=O)[O-])cc5F)c5ccc([nH]5)c(-c5c(F)cc(S(=O)(=O)[O-])cc5F)c5nc(c(-c6c(F)cc(S(=O)(=O)[O-])cc6F)c6ccc3[nH]6)C=C5)C=C4)cc2)nc2cc(Cl)ccc21
REMARK SMILES IDX 14 1 13 2 12 3 11 4 9 5 10 6 8 7 6 8 5 9 4 10 93 11 86 12
REMARK SMILES IDX 87 13 92 14 88 15 91 16 89 17 90 18 2 19 1 20 3 21 7 22
REMARK SMILES IDX 15 24 16 25 17 26 18 27 19 28 20 29 21 30 85 31 22 32 84 33
REMARK SMILES IDX 23 34 24 35 25 36 78 37 26 38 83 39 77 40 79 41 27 42 82 43
REMARK SMILES IDX 76 44 75 45 28 47 62 48 41 49 61 50 42 51 45 52 60 53 80 54
REMARK SMILES IDX 43 55 44 56 59 58 81 59 46 60 29 61 30 62 39 63 31 64 32 65
REMARK SMILES IDX 38 66 40 67 33 68 34 69 35 70 36 71 37 72 63 73 64 74 73 75
REMARK SMILES IDX 65 76 66 77 72 78 74 79 67 80 68 81 69 82 70 83 71 84 47 85
REMARK SMILES IDX 48 86 57 87 49 88 50 89 56 90 58 91 51 92 52 93 53 94 54 95
REMARK SMILES IDX 55 96
REMARK H PARENT 7 23 79 46 45 57
REMARK Flexibility Score: inf
ROOT
ATOM      1  O   UNL     1       1.723   5.093  -0.918  1.00  0.00    -0.374 OA
ENDROOT
BRANCH   1   2
ATOM      2  C   UNL     1       0.645   5.534  -0.091  1.00  0.00     0.202 C 
BRANCH   2   3
ATOM      3  C   UNL     1      -0.785   5.290  -0.586  1.00  0.00     0.261 C 
BRANCH   3   4
ATOM      4  O   UNL     1      -0.967   3.895  -0.839  1.00  0.00    -0.463 OA
BRANCH   4   5
ATOM      5  C   UNL     1      -1.463   3.588  -2.059  1.00  0.00     0.308 C 
ATOM      6  O   UNL     1      -1.965   4.377  -2.850  1.00  0.00    -0.252 OA
BRANCH   5   7
ATOM      7  C   UNL     1      -1.139   2.175  -2.442  1.00  0.00     0.162 C 
BRANCH   7   8
ATOM      8  C   UNL     1      -1.579   1.078  -1.492  1.00  0.00     0.191 C 
BRANCH   8   9
ATOM      9  C   UNL     1      -2.275  -0.073  -2.170  1.00  0.00     0.139 A 
ATOM     10  N   UNL     1      -3.373  -0.034  -3.021  1.00  0.00    -0.323 N 
ATOM     11  C   UNL     1      -3.621  -1.343  -3.419  1.00  0.00     0.069 A 
ATOM     12  N   UNL     1      -1.900  -1.323  -1.950  1.00  0.00    -0.230 NA
ATOM     13  C   UNL     1      -2.707  -2.112  -2.713  1.00  0.00     0.090 A 
ATOM     14  C   UNL     1      -4.540  -1.909  -4.312  1.00  0.00     0.030 A 
ATOM     15  C   UNL     1      -2.701  -3.506  -2.856  1.00  0.00     0.051 A 
ATOM     16  C   UNL     1      -4.521  -3.300  -4.456  1.00  0.00     0.023 A 
ATOM     17  C   UNL     1      -3.619  -4.082  -3.735  1.00  0.00     0.043 A 
ATOM     18  Cl  UNL     1      -3.634  -5.793  -3.941  1.00  0.00    -0.084 Cl
BRANCH  10  19
ATOM     19  C   UNL     1      -4.147   1.096  -3.544  1.00  0.00     0.083 C 
ATOM     20  C   UNL     1      -4.600   2.150  -2.534  1.00  0.00     0.031 C 
ATOM     21  C   UNL     1      -3.539   1.668  -4.835  1.00  0.00     0.031 C 
ENDBRANCH  10  19
ENDBRANCH   8   9
BRANCH   8  22
ATOM     22  O   UNL     1      -2.402   1.482  -0.410  1.00  0.00    -0.385 OA
ATOM     23  H   UNL     1      -3.266   1.764  -0.749  1.00  0.00     0.211 HD
ENDBRANCH   8  22
ENDBRANCH   7   8
ENDBRANCH   5   7
ENDBRANCH   4   5
ENDBRANCH   3   4
ENDBRANCH   2   3
ENDBRANCH   1   2
BRANCH   1  24
ATOM     24  C   UNL     1       1.966   3.687  -1.004  1.00  0.00     0.202 C 
BRANCH  24  25
ATOM     25  C   UNL     1       2.434   2.946   0.259  1.00  0.00     0.261 C 
BRANCH  25  26
ATOM     26  O   UNL     1       1.368   2.838   1.210  1.00  0.00    -0.460 OA
BRANCH  26  27
ATOM     27  C   UNL     1       1.756   2.972   2.509  1.00  0.00     0.338 C 
ATOM     28  O   UNL     1       2.834   2.702   2.988  1.00  0.00    -0.246 OA
BRANCH  27  29
ATOM     29  C   UNL     1       0.770   3.906   3.089  1.00  0.00     0.060 A 
ATOM     30  C   UNL     1      -0.600   3.650   2.987  1.00  0.00     0.016 A 
ATOM     31  C   UNL     1       1.255   5.189   3.390  1.00  0.00     0.016 A 
ATOM     32  C   UNL     1      -1.491   4.710   3.112  1.00  0.00     0.010 A 
ATOM     33  C   UNL     1       0.363   6.252   3.464  1.00  0.00     0.010 A 
ATOM     34  C   UNL     1      -1.006   6.015   3.300  1.00  0.00    -0.014 A 
BRANCH  34  35
ATOM     35  C   UNL     1      -1.980   7.090   3.491  1.00  0.00     0.031 A 
ATOM     36  C   UNL     1      -2.572   7.132   4.856  1.00  0.00     0.074 A 
ATOM     37  C   UNL     1      -2.226   8.096   2.627  1.00  0.00     0.049 A 
ATOM     38  N   UNL     1      -3.815   7.060   5.208  1.00  0.00    -0.248 NA
ATOM     39  C   UNL     1      -1.625   7.184   5.983  1.00  0.00     0.031 C 
ATOM     40  C   UNL     1      -1.496   8.429   1.407  1.00  0.00     0.029 A 
ATOM     41  N   UNL     1      -3.133   9.114   2.730  1.00  0.00    -0.354 N 
ATOM     42  C   UNL     1      -3.820   7.231   6.589  1.00  0.00     0.074 A 
ATOM     43  C   UNL     1      -2.449   7.163   7.026  1.00  0.00     0.031 C 
ATOM     44  C   UNL     1      -1.864   9.658   0.983  1.00  0.00     0.029 A 
ATOM     45  C   UNL     1      -2.907  10.169   1.854  1.00  0.00     0.049 A 
ATOM     46  H   UNL     1      -3.882   9.100   3.369  1.00  0.00     0.167 HD
ATOM     47  C   UNL     1      -4.920   7.614   7.288  1.00  0.00     0.037 A 
ATOM     48  C   UNL     1      -3.463  11.407   1.902  1.00  0.00     0.037 A 
ATOM     49  C   UNL     1      -6.141   7.421   6.561  1.00  0.00     0.049 A 
ATOM     50  C   UNL     1      -4.683  11.325   2.744  1.00  0.00     0.074 A 
ATOM     51  C   UNL     1      -6.774   6.326   6.005  1.00  0.00     0.029 A 
ATOM     52  N   UNL     1      -6.765   8.520   6.026  1.00  0.00    -0.354 N 
ATOM     53  N   UNL     1      -5.781  10.709   2.406  1.00  0.00    -0.248 NA
ATOM     54  C   UNL     1      -4.555  11.635   4.160  1.00  0.00     0.031 C 
ATOM     55  C   UNL     1      -7.412   6.817   4.829  1.00  0.00     0.029 A 
ATOM     56  C   UNL     1      -7.137   8.182   4.747  1.00  0.00     0.049 A 
ATOM     57  H   UNL     1      -6.918   9.384   6.472  1.00  0.00     0.167 HD
ATOM     58  C   UNL     1      -6.288  10.204   3.594  1.00  0.00     0.074 A 
ATOM     59  C   UNL     1      -5.555  10.898   4.646  1.00  0.00     0.031 C 
ATOM     60  C   UNL     1      -7.062   9.079   3.615  1.00  0.00     0.037 A 
BRANCH  47  61
ATOM     61  C   UNL     1      -4.824   8.430   8.546  1.00  0.00     0.058 A 
ATOM     62  C   UNL     1      -5.881   8.454   9.470  1.00  0.00     0.135 A 
ATOM     63  C   UNL     1      -3.790   9.370   8.760  1.00  0.00     0.135 A 
ATOM     64  F   UNL     1      -6.932   7.631   9.324  1.00  0.00    -0.206 F 
ATOM     65  C   UNL     1      -5.913   9.358  10.532  1.00  0.00     0.059 A 
ATOM     66  C   UNL     1      -3.771  10.238   9.843  1.00  0.00     0.059 A 
ATOM     67  F   UNL     1      -2.796   9.537   7.874  1.00  0.00    -0.206 F 
ATOM     68  C   UNL     1      -4.854  10.249  10.706  1.00  0.00     0.060 A 
BRANCH  68  69
ATOM     69  S   UNL     1      -4.928  11.470  12.028  1.00  0.00     0.124 S 
ATOM     70  O   UNL     1      -5.926  12.397  11.508  1.00  0.00    -0.237 OA
ATOM     71  O   UNL     1      -5.341  10.661  13.171  1.00  0.00    -0.237 OA
ATOM     72  O   UNL     1      -3.562  11.979  12.091  1.00  0.00    -0.744 OA
ENDBRANCH  68  69
ENDBRANCH  47  61
BRANCH  48  73
ATOM     73  C   UNL     1      -2.849  12.711   1.526  1.00  0.00     0.058 A 
ATOM     74  C   UNL     1      -3.629  13.879   1.427  1.00  0.00     0.135 A 
ATOM     75  C   UNL     1      -1.452  12.900   1.523  1.00  0.00     0.135 A 
ATOM     76  F   UNL     1      -4.968  13.802   1.445  1.00  0.00    -0.206 F 
ATOM     77  C   UNL     1      -3.059  15.156   1.384  1.00  0.00     0.059 A 
ATOM     78  C   UNL     1      -0.862  14.160   1.459  1.00  0.00     0.059 A 
ATOM     79  F   UNL     1      -0.608  11.871   1.684  1.00  0.00    -0.206 F 
ATOM     80  C   UNL     1      -1.672  15.287   1.423  1.00  0.00     0.060 A 
BRANCH  80  81
ATOM     81  S   UNL     1      -0.935  16.931   1.563  1.00  0.00     0.124 S 
ATOM     82  O   UNL     1      -1.255  17.518   0.267  1.00  0.00    -0.237 OA
ATOM     83  O   UNL     1      -1.646  17.486   2.709  1.00  0.00    -0.237 OA
ATOM     84  O   UNL     1       0.480  16.650   1.789  1.00  0.00    -0.744 OA
ENDBRANCH  80  81
ENDBRANCH  48  73
BRANCH  60  85
ATOM     85  C   UNL     1      -7.632   8.584   2.311  1.00  0.00     0.058 A 
ATOM     86  C   UNL     1      -6.849   8.129   1.235  1.00  0.00     0.135 A 
ATOM     87  C   UNL     1      -9.022   8.426   2.203  1.00  0.00     0.135 A 
ATOM     88  F   UNL     1      -5.510   8.146   1.302  1.00  0.00    -0.206 F 
ATOM     89  C   UNL     1      -7.425   7.581   0.088  1.00  0.00     0.059 A 
ATOM     90  C   UNL     1      -9.617   7.852   1.081  1.00  0.00     0.059 A 
ATOM     91  F   UNL     1      -9.821   8.784   3.222  1.00  0.00    -0.206 F 
ATOM     92  C   UNL     1      -8.811   7.440   0.021  1.00  0.00     0.060 A 
BRANCH  92  93
ATOM     93  S   UNL     1      -9.542   6.633  -1.421  1.00  0.00     0.124 S 
ATOM     94  O   UNL     1      -9.396   7.654  -2.453  1.00  0.00    -0.237 OA
ATOM     95  O   UNL     1      -8.706   5.446  -1.581  1.00  0.00    -0.237 OA
ATOM     96  O   UNL     1     -10.915   6.362  -1.001  1.00  0.00    -0.744 OA
ENDBRANCH  92  93
ENDBRANCH  60  85
ENDBRANCH  34  35
ENDBRANCH  27  29
ENDBRANCH  26  27
ENDBRANCH  25  26
ENDBRANCH  24  25
ENDBRANCH   1  24
TORSDOF 21
