REMARK SMILES CCc1nc2sc(C(=O)NCC(=O)OCCOCCOC(=O)c3ccc(-c4c5nc(c(-c6c(F)cc(S(=O)(=O)[O-])cc6F)c6ccc([nH]6)c(-c6c(F)cc(S(=O)(=O)[O-])cc6F)c6nc(c(-c7c(F)cc(S(=O)(=O)[O-])cc7F)c7ccc4[nH]7)C=C6)C=C5)cc3)c(N)c2c(C(F)(F)F)c1C
REMARK SMILES IDX 17 1 16 2 15 3 14 4 12 5 13 6 11 7 10 8 8 9 9 10 7 12 3 13
REMARK SMILES IDX 4 14 97 15 5 16 92 17 98 18 6 19 91 20 89 21 2 22 1 23 93 24
REMARK SMILES IDX 94 25 95 26 96 27 90 28 18 31 19 32 20 33 21 34 22 35 23 36
REMARK SMILES IDX 24 37 88 38 25 39 87 40 26 41 27 42 28 43 81 44 29 45 86 46
REMARK SMILES IDX 80 47 82 48 30 49 85 50 79 51 78 52 31 54 65 55 44 56 64 57
REMARK SMILES IDX 45 58 48 59 63 60 83 61 46 62 47 63 62 65 84 66 49 67 32 68
REMARK SMILES IDX 33 69 42 70 34 71 35 72 41 73 43 74 36 75 37 76 38 77 39 78
REMARK SMILES IDX 40 79 66 80 67 81 76 82 68 83 69 84 75 85 77 86 70 87 71 88
REMARK SMILES IDX 72 89 73 90 74 91 50 92 51 93 60 94 52 95 53 96 59 97 61 98
REMARK SMILES IDX 54 99 55 100 56 101 57 102 58 103
REMARK H PARENT 10 11 90 29 90 30 82 53 48 64
REMARK Flexibility Score: inf
ROOT
ATOM      1  O   UNL     1       1.939  12.256   3.733  1.00  0.00    -0.374 OA
ENDROOT
BRANCH   1   2
ATOM      2  C   UNL     1       2.232  11.139   4.569  1.00  0.00     0.202 C 
BRANCH   2   3
ATOM      3  C   UNL     1       1.921   9.718   4.091  1.00  0.00     0.261 C 
BRANCH   3   4
ATOM      4  O   UNL     1       2.692   9.323   2.944  1.00  0.00    -0.462 OA
BRANCH   4   5
ATOM      5  C   UNL     1       2.010   9.311   1.768  1.00  0.00     0.325 C 
ATOM      6  O   UNL     1       0.819   9.598   1.657  1.00  0.00    -0.250 OA
BRANCH   5   7
ATOM      7  C   UNL     1       2.917   9.100   0.553  1.00  0.00     0.239 C 
BRANCH   7   8
ATOM      8  N   UNL     1       4.132   8.335   0.728  1.00  0.00    -0.340 N 
ATOM      9  C   UNL     1       4.375   6.983   0.667  1.00  0.00     0.264 C 
ATOM     10  O   UNL     1       5.580   6.713   0.600  1.00  0.00    -0.268 OA
ATOM     11  H   UNL     1       4.927   8.880   0.927  1.00  0.00     0.164 HD
BRANCH   9  12
ATOM     12  C   UNL     1       3.334   5.950   0.707  1.00  0.00     0.118 A 
ATOM     13  C   UNL     1       0.883   1.920   1.109  1.00  0.00     0.045 A 
ATOM     14  N   UNL     1       2.154   2.331   0.905  1.00  0.00    -0.242 NA
ATOM     15  C   UNL     1      -0.204   2.795   1.288  1.00  0.00    -0.017 A 
ATOM     16  C   UNL     1       2.346   3.656   0.851  1.00  0.00     0.127 A 
ATOM     17  C   UNL     1       0.029   4.195   1.197  1.00  0.00     0.073 A 
ATOM     18  C   UNL     1      -1.603   2.315   1.574  1.00  0.00     0.047 C 
ATOM     19  S   UNL     1       3.896   4.305   0.621  1.00  0.00    -0.108 S 
ATOM     20  C   UNL     1       1.371   4.622   0.970  1.00  0.00     0.048 A 
ATOM     21  C   UNL     1       1.956   5.926   0.828  1.00  0.00     0.066 A 
BRANCH  13  22
ATOM     22  C   UNL     1       0.759   0.413   1.151  1.00  0.00     0.053 C 
ATOM     23  C   UNL     1       1.243  -0.234  -0.142  1.00  0.00     0.011 C 
ENDBRANCH  13  22
BRANCH  17  24
ATOM     24  C   UNL     1      -1.064   5.235   1.345  1.00  0.00     0.417 C 
ATOM     25  F   UNL     1      -0.819   6.103   2.373  1.00  0.00    -0.166 F 
ATOM     26  F   UNL     1      -1.199   6.012   0.228  1.00  0.00    -0.166 F 
ATOM     27  F   UNL     1      -2.318   4.764   1.585  1.00  0.00    -0.166 F 
ENDBRANCH  17  24
BRANCH  21  28
ATOM     28  N   UNL     1       1.149   6.998   0.859  1.00  0.00    -0.397 N 
ATOM     29  H   UNL     1       1.528   7.902   0.764  1.00  0.00     0.156 HD
ATOM     30  H   UNL     1       0.179   6.881   0.977  1.00  0.00     0.156 HD
ENDBRANCH  21  28
ENDBRANCH   9  12
ENDBRANCH   7   8
ENDBRANCH   5   7
ENDBRANCH   4   5
ENDBRANCH   3   4
ENDBRANCH   2   3
ENDBRANCH   1   2
BRANCH   1  31
ATOM     31  C   UNL     1       2.461  12.377   2.418  1.00  0.00     0.202 C 
BRANCH  31  32
ATOM     32  C   UNL     1       3.965  12.424   2.170  1.00  0.00     0.261 C 
BRANCH  32  33
ATOM     33  O   UNL     1       4.693  11.421   2.855  1.00  0.00    -0.460 OA
BRANCH  33  34
ATOM     34  C   UNL     1       5.220  11.879   4.017  1.00  0.00     0.338 C 
ATOM     35  O   UNL     1       4.911  12.899   4.606  1.00  0.00    -0.246 OA
BRANCH  34  36
ATOM     36  C   UNL     1       6.349  11.034   4.408  1.00  0.00     0.060 A 
ATOM     37  C   UNL     1       7.003  11.410   5.583  1.00  0.00     0.016 A 
ATOM     38  C   UNL     1       6.934  10.185   3.458  1.00  0.00     0.016 A 
ATOM     39  C   UNL     1       8.350  11.162   5.675  1.00  0.00     0.010 A 
ATOM     40  C   UNL     1       8.282   9.950   3.546  1.00  0.00     0.010 A 
ATOM     41  C   UNL     1       8.982  10.536   4.597  1.00  0.00    -0.014 A 
BRANCH  41  42
ATOM     42  C   UNL     1      10.421  10.446   4.618  1.00  0.00     0.031 A 
ATOM     43  C   UNL     1      10.895   9.397   5.539  1.00  0.00     0.074 A 
ATOM     44  C   UNL     1      11.192  11.186   3.801  1.00  0.00     0.049 A 
ATOM     45  N   UNL     1      11.451   9.561   6.692  1.00  0.00    -0.248 NA
ATOM     46  C   UNL     1      10.485   8.011   5.259  1.00  0.00     0.031 C 
ATOM     47  C   UNL     1      10.786  12.057   2.695  1.00  0.00     0.029 A 
ATOM     48  N   UNL     1      12.548  11.229   3.740  1.00  0.00    -0.354 N 
ATOM     49  C   UNL     1      11.692   8.277   7.161  1.00  0.00     0.074 A 
ATOM     50  C   UNL     1      10.862   7.399   6.380  1.00  0.00     0.031 C 
ATOM     51  C   UNL     1      11.869  12.347   1.937  1.00  0.00     0.029 A 
ATOM     52  C   UNL     1      13.052  11.793   2.572  1.00  0.00     0.049 A 
ATOM     53  H   UNL     1      13.126  10.889   4.461  1.00  0.00     0.167 HD
ATOM     54  C   UNL     1      12.769   8.007   7.945  1.00  0.00     0.037 A 
ATOM     55  C   UNL     1      14.339  11.692   2.148  1.00  0.00     0.037 A 
ATOM     56  C   UNL     1      13.319   9.214   8.509  1.00  0.00     0.049 A 
ATOM     57  C   UNL     1      15.157  11.370   3.357  1.00  0.00     0.074 A 
ATOM     58  C   UNL     1      12.819  10.205   9.332  1.00  0.00     0.029 A 
ATOM     59  N   UNL     1      14.434   9.751   7.907  1.00  0.00    -0.354 N 
ATOM     60  N   UNL     1      15.306  12.194   4.363  1.00  0.00    -0.248 NA
ATOM     61  C   UNL     1      15.362   9.962   3.675  1.00  0.00     0.031 C 
ATOM     62  C   UNL     1      13.363  11.419   8.822  1.00  0.00     0.029 A 
ATOM     63  C   UNL     1      14.224  11.101   7.770  1.00  0.00     0.049 A 
ATOM     64  H   UNL     1      15.238   9.256   7.625  1.00  0.00     0.167 HD
ATOM     65  C   UNL     1      15.208  11.399   5.500  1.00  0.00     0.074 A 
ATOM     66  C   UNL     1      15.297  10.024   5.009  1.00  0.00     0.031 C 
ATOM     67  C   UNL     1      14.765  11.903   6.691  1.00  0.00     0.037 A 
BRANCH  54  68
ATOM     68  C   UNL     1      13.536   6.712   7.882  1.00  0.00     0.058 A 
ATOM     69  C   UNL     1      14.505   6.441   8.865  1.00  0.00     0.135 A 
ATOM     70  C   UNL     1      13.546   5.852   6.759  1.00  0.00     0.135 A 
ATOM     71  F   UNL     1      14.595   7.205   9.965  1.00  0.00    -0.206 F 
ATOM     72  C   UNL     1      15.455   5.431   8.713  1.00  0.00     0.059 A 
ATOM     73  C   UNL     1      14.441   4.802   6.617  1.00  0.00     0.059 A 
ATOM     74  F   UNL     1      12.761   6.045   5.693  1.00  0.00    -0.206 F 
ATOM     75  C   UNL     1      15.419   4.624   7.578  1.00  0.00     0.060 A 
BRANCH  75  76
ATOM     76  S   UNL     1      16.703   3.390   7.328  1.00  0.00     0.124 S 
ATOM     77  O   UNL     1      17.881   4.230   7.140  1.00  0.00    -0.237 OA
ATOM     78  O   UNL     1      16.644   2.639   8.577  1.00  0.00    -0.237 OA
ATOM     79  O   UNL     1      16.249   2.666   6.144  1.00  0.00    -0.744 OA
ENDBRANCH  75  76
ENDBRANCH  54  68
BRANCH  55  80
ATOM     80  C   UNL     1      14.800  11.440   0.751  1.00  0.00     0.058 A 
ATOM     81  C   UNL     1      16.153  11.552   0.382  1.00  0.00     0.135 A 
ATOM     82  C   UNL     1      13.954  10.835  -0.204  1.00  0.00     0.135 A 
ATOM     83  F   UNL     1      17.042  12.082   1.237  1.00  0.00    -0.206 F 
ATOM     84  C   UNL     1      16.640  11.074  -0.845  1.00  0.00     0.059 A 
ATOM     85  C   UNL     1      14.413  10.361  -1.432  1.00  0.00     0.059 A 
ATOM     86  F   UNL     1      12.660  10.607   0.061  1.00  0.00    -0.206 F 
ATOM     87  C   UNL     1      15.761  10.465  -1.741  1.00  0.00     0.060 A 
BRANCH  87  88
ATOM     88  S   UNL     1      16.397   9.727  -3.267  1.00  0.00     0.124 S 
ATOM     89  O   UNL     1      16.886  10.897  -3.989  1.00  0.00    -0.237 OA
ATOM     90  O   UNL     1      17.418   8.814  -2.765  1.00  0.00    -0.237 OA
ATOM     91  O   UNL     1      15.221   9.084  -3.850  1.00  0.00    -0.744 OA
ENDBRANCH  87  88
ENDBRANCH  55  80
BRANCH  67  92
ATOM     92  C   UNL     1      14.603  13.398   6.835  1.00  0.00     0.058 A 
ATOM     93  C   UNL     1      13.657  14.163   6.129  1.00  0.00     0.135 A 
ATOM     94  C   UNL     1      15.285  14.037   7.882  1.00  0.00     0.135 A 
ATOM     95  F   UNL     1      12.891  13.606   5.181  1.00  0.00    -0.206 F 
ATOM     96  C   UNL     1      13.416  15.506   6.436  1.00  0.00     0.059 A 
ATOM     97  C   UNL     1      15.040  15.364   8.225  1.00  0.00     0.059 A 
ATOM     98  F   UNL     1      16.156  13.345   8.636  1.00  0.00    -0.206 F 
ATOM     99  C   UNL     1      14.108  16.096   7.494  1.00  0.00     0.060 A 
BRANCH  99 100
ATOM    100  S   UNL     1      13.728  17.802   7.954  1.00  0.00     0.124 S 
ATOM    101  O   UNL     1      14.234  18.550   6.809  1.00  0.00    -0.237 OA
ATOM    102  O   UNL     1      12.275  17.773   8.102  1.00  0.00    -0.237 OA
ATOM    103  O   UNL     1      14.468  17.993   9.200  1.00  0.00    -0.744 OA
ENDBRANCH  99 100
ENDBRANCH  67  92
ENDBRANCH  41  42
ENDBRANCH  34  36
ENDBRANCH  33  34
ENDBRANCH  32  33
ENDBRANCH  31  32
ENDBRANCH   1  31
TORSDOF 22
