REMARK SMILES Cc1c(C#N)c2ccccc2n1CC(=O)N1CC[C@H](O)C[C@@H]1C(=O)OCCOCCOC(=O)c1ccc(-c2c3nc(c(-c4c(F)cc(S(=O)(=O)[O-])cc4F)c4ccc([nH]4)c(-c4c(F)cc(S(=O)(=O)[O-])cc4F)c4nc(c(-c5c(F)cc(S(=O)(=O)[O-])cc5F)c5ccc2[nH]5)C=C4)C=C3)cc1
REMARK SMILES IDX 27 1 26 2 25 3 23 4 24 5 22 6 16 7 17 8 18 9 21 10 19 11
REMARK SMILES IDX 14 12 15 13 13 14 12 15 1 16 2 17 3 18 6 19 11 20 7 21 10 22
REMARK SMILES IDX 8 23 9 24 4 25 5 26 20 27 28 29 29 30 30 31 31 32 32 33
REMARK SMILES IDX 33 34 34 35 35 36 99 37 36 38 98 39 37 40 38 41 39 42 92 43
REMARK SMILES IDX 40 44 97 45 91 46 93 47 41 48 96 49 90 50 89 51 42 53 76 54
REMARK SMILES IDX 55 55 75 56 56 57 59 58 74 59 94 60 57 61 58 62 73 64 95 65
REMARK SMILES IDX 60 66 43 67 44 68 53 69 45 70 46 71 52 72 54 73 47 74 48 75
REMARK SMILES IDX 49 76 50 77 51 78 77 79 78 80 87 81 79 82 80 83 86 84 88 85
REMARK SMILES IDX 81 86 82 87 83 88 84 89 85 90 61 91 62 92 71 93 63 94 64 95
REMARK SMILES IDX 70 96 72 97 65 98 66 99 67 100 68 101 69 102
REMARK H PARENT 20 28 93 52 59 63
REMARK Flexibility Score: inf
ROOT
ATOM      1  C   UNL     1       4.416   5.338   6.291  1.00  0.00     0.202 C 
ENDROOT
BRANCH   1   2
ATOM      2  C   UNL     1       3.360   4.369   5.745  1.00  0.00     0.261 C 
BRANCH   2   3
ATOM      3  O   UNL     1       3.801   3.651   4.581  1.00  0.00    -0.462 OA
BRANCH   3   4
ATOM      4  C   UNL     1       3.255   4.099   3.413  1.00  0.00     0.329 C 
ATOM      5  O   UNL     1       2.408   4.982   3.337  1.00  0.00    -0.250 OA
BRANCH   4   6
ATOM      6  C   UNL     1       3.689   3.266   2.195  1.00  0.00     0.197 C 
ATOM      7  N   UNL     1       2.659   2.247   2.024  1.00  0.00    -0.327 N 
ATOM      8  C   UNL     1       2.804   1.080   2.898  1.00  0.00     0.123 C 
ATOM      9  C   UNL     1       4.149   0.403   2.678  1.00  0.00     0.053 C 
ATOM     10  C   UNL     1       5.102   2.687   2.115  1.00  0.00     0.069 C 
ATOM     11  C   UNL     1       5.312   1.364   2.845  1.00  0.00     0.118 C 
BRANCH   7  12
ATOM     12  C   UNL     1       1.600   2.572   1.187  1.00  0.00     0.243 C 
ATOM     13  O   UNL     1       1.801   3.295   0.201  1.00  0.00    -0.273 OA
BRANCH  12  14
ATOM     14  C   UNL     1       0.167   2.227   1.554  1.00  0.00     0.222 C 
BRANCH  14  15
ATOM     15  N   UNL     1      -0.082   0.841   1.904  1.00  0.00    -0.334 N 
ATOM     16  C   UNL     1       0.694  -0.119  -0.303  1.00  0.00     0.066 C 
ATOM     17  C   UNL     1       0.156  -0.247   1.082  1.00  0.00     0.034 A 
ATOM     18  C   UNL     1      -0.068  -1.380   1.849  1.00  0.00     0.080 A 
ATOM     19  C   UNL     1      -0.416  -0.975   3.169  1.00  0.00     0.018 A 
ATOM     20  C   UNL     1      -0.406   0.421   3.183  1.00  0.00     0.050 A 
ATOM     21  C   UNL     1      -0.681  -1.663   4.372  1.00  0.00     0.012 A 
ATOM     22  C   UNL     1      -0.622   1.151   4.363  1.00  0.00     0.027 A 
ATOM     23  C   UNL     1      -0.889  -0.942   5.551  1.00  0.00     0.001 A 
ATOM     24  C   UNL     1      -0.840   0.445   5.545  1.00  0.00     0.002 A 
BRANCH  18  25
ATOM     25  C   UNL     1       0.161  -2.728   1.411  1.00  0.00     0.102 C 
ATOM     26  N   UNL     1       0.399  -3.795   1.043  1.00  0.00    -0.192 NA
ENDBRANCH  18  25
ENDBRANCH  14  15
ENDBRANCH  12  14
ENDBRANCH   7  12
BRANCH  11  27
ATOM     27  O   UNL     1       5.589   1.556   4.222  1.00  0.00    -0.393 OA
ATOM     28  H   UNL     1       4.820   1.961   4.653  1.00  0.00     0.210 HD
ENDBRANCH  11  27
ENDBRANCH   4   6
ENDBRANCH   3   4
ENDBRANCH   2   3
ENDBRANCH   1   2
BRANCH   1  29
ATOM     29  O   UNL     1       5.148   6.154   5.380  1.00  0.00    -0.374 OA
BRANCH  29  30
ATOM     30  C   UNL     1       6.065   5.526   4.484  1.00  0.00     0.202 C 
BRANCH  30  31
ATOM     31  C   UNL     1       7.209   4.662   5.047  1.00  0.00     0.261 C 
BRANCH  31  32
ATOM     32  O   UNL     1       6.711   3.573   5.834  1.00  0.00    -0.460 OA
BRANCH  32  33
ATOM     33  C   UNL     1       7.375   3.336   6.998  1.00  0.00     0.338 C 
ATOM     34  O   UNL     1       8.504   3.687   7.287  1.00  0.00    -0.246 OA
BRANCH  33  35
ATOM     35  C   UNL     1       6.333   2.955   7.978  1.00  0.00     0.060 A 
ATOM     36  C   UNL     1       5.399   1.956   7.699  1.00  0.00     0.016 A 
ATOM     37  C   UNL     1       6.138   3.841   9.050  1.00  0.00     0.016 A 
ATOM     38  C   UNL     1       4.227   1.902   8.454  1.00  0.00     0.010 A 
ATOM     39  C   UNL     1       4.952   3.803   9.779  1.00  0.00     0.010 A 
ATOM     40  C   UNL     1       3.978   2.855   9.463  1.00  0.00    -0.014 A 
BRANCH  40  41
ATOM     41  C   UNL     1       2.816   2.658  10.343  1.00  0.00     0.031 A 
ATOM     42  C   UNL     1       2.925   1.385  11.114  1.00  0.00     0.074 A 
ATOM     43  C   UNL     1       1.815   3.530  10.610  1.00  0.00     0.049 A 
ATOM     44  N   UNL     1       2.180   0.336  11.003  1.00  0.00    -0.248 NA
ATOM     45  C   UNL     1       4.106   1.191  11.972  1.00  0.00     0.031 C 
ATOM     46  C   UNL     1       1.667   4.916  10.165  1.00  0.00     0.029 A 
ATOM     47  N   UNL     1       0.725   3.368  11.426  1.00  0.00    -0.354 N 
ATOM     48  C   UNL     1       2.665  -0.578  11.935  1.00  0.00     0.074 A 
ATOM     49  C   UNL     1       3.941  -0.072  12.367  1.00  0.00     0.031 C 
ATOM     50  C   UNL     1       0.698   5.525  10.894  1.00  0.00     0.029 A 
ATOM     51  C   UNL     1       0.063   4.549  11.767  1.00  0.00     0.049 A 
ATOM     52  H   UNL     1       0.431   2.485  11.747  1.00  0.00     0.167 HD
ATOM     53  C   UNL     1       1.873  -1.568  12.431  1.00  0.00     0.037 A 
ATOM     54  C   UNL     1      -0.909   4.724  12.710  1.00  0.00     0.037 A 
ATOM     55  C   UNL     1       0.708  -1.758  11.605  1.00  0.00     0.049 A 
ATOM     56  C   UNL     1      -1.534   3.397  12.945  1.00  0.00     0.074 A 
ATOM     57  C   UNL     1       0.499  -2.106  10.285  1.00  0.00     0.029 A 
ATOM     58  N   UNL     1      -0.481  -1.226  12.043  1.00  0.00    -0.354 N 
ATOM     59  N   UNL     1      -2.239   2.763  12.049  1.00  0.00    -0.248 NA
ATOM     60  C   UNL     1      -0.972   2.572  14.001  1.00  0.00     0.031 C 
ATOM     61  C   UNL     1      -0.610  -1.315   9.870  1.00  0.00     0.029 A 
ATOM     62  C   UNL     1      -1.061  -0.593  10.974  1.00  0.00     0.049 A 
ATOM     63  H   UNL     1      -0.848  -1.288  12.954  1.00  0.00     0.167 HD
ATOM     64  C   UNL     1      -1.829   1.443  12.158  1.00  0.00     0.074 A 
ATOM     65  C   UNL     1      -1.094   1.376  13.421  1.00  0.00     0.031 C 
ATOM     66  C   UNL     1      -1.877   0.595  11.089  1.00  0.00     0.037 A 
BRANCH  53  67
ATOM     67  C   UNL     1       1.944  -2.098  13.845  1.00  0.00     0.058 A 
ATOM     68  C   UNL     1       1.114  -3.181  14.206  1.00  0.00     0.135 A 
ATOM     69  C   UNL     1       2.542  -1.406  14.921  1.00  0.00     0.135 A 
ATOM     70  F   UNL     1       0.505  -3.921  13.266  1.00  0.00    -0.206 F 
ATOM     71  C   UNL     1       0.811  -3.480  15.534  1.00  0.00     0.059 A 
ATOM     72  C   UNL     1       2.294  -1.721  16.252  1.00  0.00     0.059 A 
ATOM     73  F   UNL     1       3.317  -0.330  14.742  1.00  0.00    -0.206 F 
ATOM     74  C   UNL     1       1.389  -2.726  16.549  1.00  0.00     0.060 A 
BRANCH  74  75
ATOM     75  S   UNL     1       0.895  -3.025  18.254  1.00  0.00     0.124 S 
ATOM     76  O   UNL     1      -0.504  -2.615  18.227  1.00  0.00    -0.237 OA
ATOM     77  O   UNL     1       1.142  -4.456  18.390  1.00  0.00    -0.237 OA
ATOM     78  O   UNL     1       1.792  -2.163  19.019  1.00  0.00    -0.744 OA
ENDBRANCH  74  75
ENDBRANCH  53  67
BRANCH  54  79
ATOM     79  C   UNL     1      -1.082   5.854  13.680  1.00  0.00     0.058 A 
ATOM     80  C   UNL     1      -2.227   5.979  14.497  1.00  0.00     0.135 A 
ATOM     81  C   UNL     1       0.008   6.670  14.038  1.00  0.00     0.135 A 
ATOM     82  F   UNL     1      -3.311   5.224  14.260  1.00  0.00    -0.206 F 
ATOM     83  C   UNL     1      -2.270   6.828  15.617  1.00  0.00     0.059 A 
ATOM     84  C   UNL     1      -0.012   7.524  15.143  1.00  0.00     0.059 A 
ATOM     85  F   UNL     1       1.171   6.594  13.375  1.00  0.00    -0.206 F 
ATOM     86  C   UNL     1      -1.146   7.585  15.944  1.00  0.00     0.060 A 
BRANCH  86  87
ATOM     87  S   UNL     1      -1.125   8.569  17.466  1.00  0.00     0.124 S 
ATOM     88  O   UNL     1      -2.129   9.588  17.184  1.00  0.00    -0.237 OA
ATOM     89  O   UNL     1      -1.485   7.582  18.479  1.00  0.00    -0.237 OA
ATOM     90  O   UNL     1       0.251   9.055  17.536  1.00  0.00    -0.744 OA
ENDBRANCH  86  87
ENDBRANCH  54  79
BRANCH  66  91
ATOM     91  C   UNL     1      -2.648   1.008   9.860  1.00  0.00     0.058 A 
ATOM     92  C   UNL     1      -2.356   2.131   9.064  1.00  0.00     0.135 A 
ATOM     93  C   UNL     1      -3.624   0.122   9.374  1.00  0.00     0.135 A 
ATOM     94  F   UNL     1      -1.357   2.966   9.386  1.00  0.00    -0.206 F 
ATOM     95  C   UNL     1      -3.031   2.380   7.865  1.00  0.00     0.059 A 
ATOM     96  C   UNL     1      -4.276   0.327   8.161  1.00  0.00     0.059 A 
ATOM     97  F   UNL     1      -3.913  -0.999  10.056  1.00  0.00    -0.206 F 
ATOM     98  C   UNL     1      -3.985   1.467   7.417  1.00  0.00     0.060 A 
BRANCH  98  99
ATOM     99  S   UNL     1      -4.789   1.736   5.820  1.00  0.00     0.124 S 
ATOM    100  O   UNL     1      -5.716   2.819   6.127  1.00  0.00    -0.237 OA
ATOM    101  O   UNL     1      -3.674   2.097   4.951  1.00  0.00    -0.237 OA
ATOM    102  O   UNL     1      -5.409   0.445   5.532  1.00  0.00    -0.744 OA
ENDBRANCH  98  99
ENDBRANCH  66  91
ENDBRANCH  40  41
ENDBRANCH  33  35
ENDBRANCH  32  33
ENDBRANCH  31  32
ENDBRANCH  30  31
ENDBRANCH  29  30
ENDBRANCH   1  29
TORSDOF 22
