REMARK SMILES C[C@@H](C(=O)OCCOCCOC(=O)c1ccc(-c2c3nc(c(-c4c(F)cc(S(=O)(=O)[O-])cc4F)c4ccc([nH]4)c(-c4c(F)cc(S(=O)(=O)[O-])cc4F)c4nc(c(-c5c(F)cc(S(=O)(=O)[O-])cc5F)c5ccc2[nH]5)C=C4)C=C3)cc1)c1ccc(C[C@@H]2CCC[C@@H]2O)cc1F
REMARK SMILES IDX 7 1 6 2 5 3 3 4 4 5 2 6 1 7 80 8 81 9 92 10 82 11 91 12
REMARK SMILES IDX 93 13 83 14 84 15 85 16 86 17 89 18 87 19 88 20 90 21 8 23
REMARK SMILES IDX 9 24 10 25 11 26 12 27 13 28 14 29 15 30 79 31 16 32 78 33
REMARK SMILES IDX 17 34 18 35 19 36 72 37 20 38 77 39 71 40 73 41 21 42 76 43
REMARK SMILES IDX 70 44 69 45 22 47 56 48 35 49 55 50 36 51 39 52 54 53 74 54
REMARK SMILES IDX 37 55 38 56 53 58 75 59 40 60 23 61 24 62 33 63 25 64 26 65
REMARK SMILES IDX 32 66 34 67 27 68 28 69 29 70 30 71 31 72 57 73 58 74 67 75
REMARK SMILES IDX 59 76 60 77 66 78 68 79 61 80 62 81 63 82 64 83 65 84 41 85
REMARK SMILES IDX 42 86 51 87 43 88 44 89 50 90 52 91 45 92 46 93 47 94 48 95
REMARK SMILES IDX 49 96
REMARK H PARENT 90 22 73 46 39 57
REMARK Flexibility Score: inf
ROOT
ATOM      1  C   UNL     1      -8.837   5.598   6.163  1.00  0.00     0.202 C 
ENDROOT
BRANCH   1   2
ATOM      2  C   UNL     1     -10.233   4.982   6.299  1.00  0.00     0.261 C 
BRANCH   2   3
ATOM      3  O   UNL     1     -10.194   3.562   6.502  1.00  0.00    -0.463 OA
BRANCH   3   4
ATOM      4  C   UNL     1     -10.697   2.811   5.478  1.00  0.00     0.313 C 
ATOM      5  O   UNL     1     -11.264   3.302   4.510  1.00  0.00    -0.252 OA
BRANCH   4   6
ATOM      6  C   UNL     1     -10.480   1.294   5.679  1.00  0.00     0.129 C 
ATOM      7  C   UNL     1      -9.972   0.982   7.102  1.00  0.00     0.025 C 
BRANCH   6   8
ATOM      8  C   UNL     1      -9.648   0.637   4.566  1.00  0.00     0.002 A 
ATOM      9  C   UNL     1      -8.621  -0.286   4.829  1.00  0.00     0.008 A 
ATOM     10  C   UNL     1      -9.929   0.867   3.212  1.00  0.00     0.127 A 
ATOM     11  C   UNL     1      -7.876  -0.875   3.794  1.00  0.00     0.004 A 
ATOM     12  C   UNL     1      -9.147   0.337   2.182  1.00  0.00     0.043 A 
ATOM     13  F   UNL     1     -11.006   1.569   2.843  1.00  0.00    -0.207 F 
ATOM     14  C   UNL     1      -8.081  -0.521   2.459  1.00  0.00    -0.045 A 
BRANCH  14  15
ATOM     15  C   UNL     1      -7.260  -1.099   1.330  1.00  0.00     0.041 C 
BRANCH  15  16
ATOM     16  C   UNL     1      -5.745  -0.799   1.244  1.00  0.00     0.022 C 
ATOM     17  C   UNL     1      -4.891  -1.390   2.370  1.00  0.00     0.007 C 
ATOM     18  C   UNL     1      -5.311   0.669   1.228  1.00  0.00     0.117 C 
ATOM     19  C   UNL     1      -4.588  -0.243   3.341  1.00  0.00     0.003 C 
ATOM     20  C   UNL     1      -5.118   1.033   2.694  1.00  0.00     0.032 C 
BRANCH  18  21
ATOM     21  O   UNL     1      -6.206   1.520   0.547  1.00  0.00    -0.393 OA
ATOM     22  H   UNL     1      -7.077   1.482   0.973  1.00  0.00     0.210 HD
ENDBRANCH  18  21
ENDBRANCH  15  16
ENDBRANCH  14  15
ENDBRANCH   6   8
ENDBRANCH   4   6
ENDBRANCH   3   4
ENDBRANCH   2   3
ENDBRANCH   1   2
BRANCH   1  23
ATOM     23  O   UNL     1      -7.898   4.925   5.329  1.00  0.00    -0.374 OA
BRANCH  23  24
ATOM     24  C   UNL     1      -7.315   3.716   5.817  1.00  0.00     0.202 C 
BRANCH  24  25
ATOM     25  C   UNL     1      -6.401   3.809   7.046  1.00  0.00     0.261 C 
BRANCH  25  26
ATOM     26  O   UNL     1      -7.116   4.168   8.243  1.00  0.00    -0.460 OA
BRANCH  26  27
ATOM     27  C   UNL     1      -6.684   5.305   8.841  1.00  0.00     0.338 C 
ATOM     28  O   UNL     1      -5.723   5.990   8.512  1.00  0.00    -0.246 OA
BRANCH  27  29
ATOM     29  C   UNL     1      -7.650   5.750   9.861  1.00  0.00     0.060 A 
ATOM     30  C   UNL     1      -8.204   7.029   9.717  1.00  0.00     0.016 A 
ATOM     31  C   UNL     1      -7.933   4.977  10.989  1.00  0.00     0.016 A 
ATOM     32  C   UNL     1      -9.007   7.560  10.725  1.00  0.00     0.010 A 
ATOM     33  C   UNL     1      -8.731   5.517  12.004  1.00  0.00     0.010 A 
ATOM     34  C   UNL     1      -9.241   6.824  11.893  1.00  0.00    -0.014 A 
BRANCH  34  35
ATOM     35  C   UNL     1      -9.889   7.485  13.053  1.00  0.00     0.031 A 
ATOM     36  C   UNL     1      -9.025   8.013  14.167  1.00  0.00     0.074 A 
ATOM     37  C   UNL     1     -11.223   7.647  13.096  1.00  0.00     0.049 A 
ATOM     38  N   UNL     1      -9.376   8.599  15.282  1.00  0.00    -0.248 NA
ATOM     39  C   UNL     1      -7.571   7.857  14.000  1.00  0.00     0.031 C 
ATOM     40  C   UNL     1     -12.160   7.215  12.060  1.00  0.00     0.029 A 
ATOM     41  N   UNL     1     -12.021   8.217  14.056  1.00  0.00    -0.354 N 
ATOM     42  C   UNL     1      -8.191   8.882  15.951  1.00  0.00     0.074 A 
ATOM     43  C   UNL     1      -7.112   8.373  15.131  1.00  0.00     0.031 C 
ATOM     44  C   UNL     1     -13.410   7.522  12.448  1.00  0.00     0.029 A 
ATOM     45  C   UNL     1     -13.363   8.147  13.769  1.00  0.00     0.049 A 
ATOM     46  H   UNL     1     -11.666   8.637  14.873  1.00  0.00     0.167 HD
ATOM     47  C   UNL     1      -8.017   9.516  17.134  1.00  0.00     0.037 A 
ATOM     48  C   UNL     1     -14.432   8.523  14.499  1.00  0.00     0.037 A 
ATOM     49  C   UNL     1      -9.093  10.018  17.948  1.00  0.00     0.049 A 
ATOM     50  C   UNL     1     -14.219   9.171  15.842  1.00  0.00     0.074 A 
ATOM     51  C   UNL     1      -9.020  10.682  19.160  1.00  0.00     0.029 A 
ATOM     52  N   UNL     1     -10.440   9.907  17.634  1.00  0.00    -0.354 N 
ATOM     53  N   UNL     1     -13.092   9.445  16.456  1.00  0.00    -0.248 NA
ATOM     54  C   UNL     1     -15.421   9.565  16.591  1.00  0.00     0.031 C 
ATOM     55  C   UNL     1     -10.324  10.934  19.600  1.00  0.00     0.029 A 
ATOM     56  C   UNL     1     -11.209  10.470  18.639  1.00  0.00     0.049 A 
ATOM     57  H   UNL     1     -10.797   9.489  16.818  1.00  0.00     0.167 HD
ATOM     58  C   UNL     1     -13.448  10.065  17.650  1.00  0.00     0.074 A 
ATOM     59  C   UNL     1     -14.895  10.134  17.668  1.00  0.00     0.031 C 
ATOM     60  C   UNL     1     -12.650  10.536  18.641  1.00  0.00     0.037 A 
BRANCH  47  61
ATOM     61  C   UNL     1      -6.607   9.681  17.632  1.00  0.00     0.058 A 
ATOM     62  C   UNL     1      -5.714  10.585  17.034  1.00  0.00     0.135 A 
ATOM     63  C   UNL     1      -6.149   8.942  18.734  1.00  0.00     0.135 A 
ATOM     64  F   UNL     1      -6.094  11.304  15.966  1.00  0.00    -0.206 F 
ATOM     65  C   UNL     1      -4.409  10.729  17.494  1.00  0.00     0.059 A 
ATOM     66  C   UNL     1      -4.856   9.089  19.227  1.00  0.00     0.059 A 
ATOM     67  F   UNL     1      -6.961   8.062  19.342  1.00  0.00    -0.206 F 
ATOM     68  C   UNL     1      -3.988   9.974  18.590  1.00  0.00     0.060 A 
BRANCH  68  69
ATOM     69  S   UNL     1      -2.290  10.167  19.172  1.00  0.00     0.124 S 
ATOM     70  O   UNL     1      -1.545   9.468  18.129  1.00  0.00    -0.237 OA
ATOM     71  O   UNL     1      -2.131  11.617  19.200  1.00  0.00    -0.237 OA
ATOM     72  O   UNL     1      -2.302   9.515  20.477  1.00  0.00    -0.744 OA
ENDBRANCH  68  69
ENDBRANCH  47  61
BRANCH  48  73
ATOM     73  C   UNL     1     -15.804   8.281  13.979  1.00  0.00     0.058 A 
ATOM     74  C   UNL     1     -16.624   9.341  13.565  1.00  0.00     0.135 A 
ATOM     75  C   UNL     1     -16.318   6.979  13.878  1.00  0.00     0.135 A 
ATOM     76  F   UNL     1     -16.182  10.604  13.653  1.00  0.00    -0.206 F 
ATOM     77  C   UNL     1     -17.908   9.120  13.077  1.00  0.00     0.059 A 
ATOM     78  C   UNL     1     -17.590   6.731  13.372  1.00  0.00     0.059 A 
ATOM     79  F   UNL     1     -15.570   5.929  14.253  1.00  0.00    -0.206 F 
ATOM     80  C   UNL     1     -18.381   7.810  12.981  1.00  0.00     0.060 A 
BRANCH  80  81
ATOM     81  S   UNL     1     -20.027   7.529  12.293  1.00  0.00     0.124 S 
ATOM     82  O   UNL     1     -20.882   7.963  13.392  1.00  0.00    -0.237 OA
ATOM     83  O   UNL     1     -20.017   8.387  11.113  1.00  0.00    -0.237 OA
ATOM     84  O   UNL     1     -20.033   6.095  12.016  1.00  0.00    -0.744 OA
ENDBRANCH  80  81
ENDBRANCH  48  73
BRANCH  60  85
ATOM     85  C   UNL     1     -13.317  11.196  19.816  1.00  0.00     0.058 A 
ATOM     86  C   UNL     1     -14.007  10.454  20.787  1.00  0.00     0.135 A 
ATOM     87  C   UNL     1     -13.216  12.585  20.002  1.00  0.00     0.135 A 
ATOM     88  F   UNL     1     -14.137   9.124  20.654  1.00  0.00    -0.206 F 
ATOM     89  C   UNL     1     -14.592  11.068  21.890  1.00  0.00     0.059 A 
ATOM     90  C   UNL     1     -13.771  13.216  21.110  1.00  0.00     0.059 A 
ATOM     91  F   UNL     1     -12.557  13.341  19.109  1.00  0.00    -0.206 F 
ATOM     92  C   UNL     1     -14.468  12.450  22.044  1.00  0.00     0.060 A 
BRANCH  92  93
ATOM     93  S   UNL     1     -15.202  13.230  23.498  1.00  0.00     0.124 S 
ATOM     94  O   UNL     1     -16.620  13.209  23.157  1.00  0.00    -0.237 OA
ATOM     95  O   UNL     1     -14.795  12.332  24.574  1.00  0.00    -0.237 OA
ATOM     96  O   UNL     1     -14.581  14.551  23.524  1.00  0.00    -0.744 OA
ENDBRANCH  92  93
ENDBRANCH  60  85
ENDBRANCH  34  35
ENDBRANCH  27  29
ENDBRANCH  26  27
ENDBRANCH  25  26
ENDBRANCH  24  25
ENDBRANCH  23  24
ENDBRANCH   1  23
TORSDOF 21
