REMARK SMILES O=C1CN(S(=O)(=O)c2ccc(CC(=O)OCCOCCOC(=O)c3ccc(-c4c5nc(c(-c6c(F)cc(S(=O)(=O)[O-])cc6F)c6ccc([nH]6)c(-c6c(F)cc(S(=O)(=O)[O-])cc6F)c6nc(c(-c7c(F)cc(S(=O)(=O)[O-])cc7F)c7ccc4[nH]7)C=C6)C=C5)cc3)cc2)CCN1
REMARK SMILES IDX 18 1 17 2 16 3 15 4 13 5 14 6 12 7 11 8 8 9 9 10 91 11 10 12
REMARK SMILES IDX 90 13 5 14 6 15 7 16 4 17 1 18 2 19 3 20 94 21 93 22 92 24
REMARK SMILES IDX 19 25 20 26 21 27 22 28 23 29 24 30 25 31 89 32 26 33 88 34
REMARK SMILES IDX 27 35 28 36 29 37 82 38 30 39 87 40 81 41 83 42 31 43 86 44
REMARK SMILES IDX 80 45 79 46 32 48 66 49 45 50 65 51 46 52 49 53 64 54 84 55
REMARK SMILES IDX 47 56 48 57 63 59 85 60 50 61 33 62 34 63 43 64 35 65 36 66
REMARK SMILES IDX 42 67 44 68 37 69 38 70 39 71 40 72 41 73 67 74 68 75 77 76
REMARK SMILES IDX 69 77 70 78 76 79 78 80 71 81 72 82 73 83 74 84 75 85 51 86
REMARK SMILES IDX 52 87 61 88 53 89 54 90 60 91 62 92 55 93 56 94 57 95 58 96
REMARK SMILES IDX 59 97
REMARK H PARENT 94 23 83 47 49 58
REMARK Flexibility Score: inf
ROOT
ATOM      1  O   UNL     1      -1.556  -5.399   8.590  1.00  0.00    -0.374 OA
ENDROOT
BRANCH   1   2
ATOM      2  C   UNL     1      -0.340  -4.733   8.922  1.00  0.00     0.202 C 
BRANCH   2   3
ATOM      3  C   UNL     1       0.941  -5.199   8.222  1.00  0.00     0.261 C 
BRANCH   3   4
ATOM      4  O   UNL     1       0.866  -5.117   6.786  1.00  0.00    -0.463 OA
BRANCH   4   5
ATOM      5  C   UNL     1       0.884  -6.306   6.130  1.00  0.00     0.310 C 
ATOM      6  O   UNL     1       1.014  -7.400   6.674  1.00  0.00    -0.252 OA
BRANCH   5   7
ATOM      7  C   UNL     1       0.758  -6.197   4.627  1.00  0.00     0.158 C 
BRANCH   7   8
ATOM      8  C   UNL     1       0.193  -4.930   4.024  1.00  0.00    -0.037 A 
ATOM      9  C   UNL     1      -0.816  -2.615   2.788  1.00  0.00     0.082 A 
ATOM     10  C   UNL     1      -1.682  -3.664   3.105  1.00  0.00     0.022 A 
ATOM     11  C   UNL     1       0.541  -2.703   3.113  1.00  0.00     0.022 A 
ATOM     12  C   UNL     1      -1.175  -4.818   3.717  1.00  0.00     0.006 A 
ATOM     13  C   UNL     1       1.043  -3.859   3.716  1.00  0.00     0.006 A 
BRANCH   9  14
ATOM     14  S   UNL     1      -1.464  -1.078   2.167  1.00  0.00     0.243 S 
ATOM     15  O   UNL     1      -0.620  -0.020   2.687  1.00  0.00    -0.207 OA
ATOM     16  O   UNL     1      -2.886  -1.068   2.418  1.00  0.00    -0.207 OA
BRANCH  14  17
ATOM     17  N   UNL     1      -1.268  -1.136   0.466  1.00  0.00    -0.187 NA
ATOM     18  O   UNL     1       2.192  -0.035   0.042  1.00  0.00    -0.274 OA
ATOM     19  C   UNL     1       0.964  -0.004   0.015  1.00  0.00     0.235 C 
ATOM     20  C   UNL     1       0.127  -1.272  -0.037  1.00  0.00     0.202 C 
ATOM     21  N   UNL     1       0.300   1.191  -0.102  1.00  0.00    -0.354 N 
ATOM     22  C   UNL     1      -1.141   1.334   0.016  1.00  0.00     0.132 C 
ATOM     23  H   UNL     1       0.833   2.000  -0.278  1.00  0.00     0.163 HD
ATOM     24  C   UNL     1      -1.913   0.030  -0.237  1.00  0.00     0.124 C 
ENDBRANCH  14  17
ENDBRANCH   9  14
ENDBRANCH   7   8
ENDBRANCH   5   7
ENDBRANCH   4   5
ENDBRANCH   3   4
ENDBRANCH   2   3
ENDBRANCH   1   2
BRANCH   1  25
ATOM     25  C   UNL     1      -2.129  -5.138   7.311  1.00  0.00     0.202 C 
BRANCH  25  26
ATOM     26  C   UNL     1      -2.776  -3.768   7.070  1.00  0.00     0.261 C 
BRANCH  26  27
ATOM     27  O   UNL     1      -1.862  -2.671   7.214  1.00  0.00    -0.460 OA
BRANCH  27  28
ATOM     28  C   UNL     1      -2.083  -1.908   8.314  1.00  0.00     0.338 C 
ATOM     29  O   UNL     1      -2.981  -2.041   9.130  1.00  0.00    -0.246 OA
BRANCH  28  30
ATOM     30  C   UNL     1      -0.966  -0.968   8.526  1.00  0.00     0.060 A 
ATOM     31  C   UNL     1      -0.404  -0.925   9.809  1.00  0.00     0.016 A 
ATOM     32  C   UNL     1      -0.542  -0.081   7.534  1.00  0.00     0.016 A 
ATOM     33  C   UNL     1       0.530   0.056  10.129  1.00  0.00     0.010 A 
ATOM     34  C   UNL     1       0.395   0.906   7.859  1.00  0.00     0.010 A 
ATOM     35  C   UNL     1       0.896   1.009   9.170  1.00  0.00    -0.014 A 
BRANCH  35  36
ATOM     36  C   UNL     1       1.660   2.206   9.599  1.00  0.00     0.031 A 
ATOM     37  C   UNL     1       0.921   3.502   9.806  1.00  0.00     0.074 A 
ATOM     38  C   UNL     1       2.979   2.127   9.851  1.00  0.00     0.049 A 
ATOM     39  N   UNL     1       1.380   4.671  10.170  1.00  0.00    -0.248 NA
ATOM     40  C   UNL     1      -0.532   3.475   9.572  1.00  0.00     0.031 C 
ATOM     41  C   UNL     1       3.790   0.916   9.725  1.00  0.00     0.029 A 
ATOM     42  N   UNL     1       3.868   3.086  10.266  1.00  0.00    -0.354 N 
ATOM     43  C   UNL     1       0.279   5.519  10.197  1.00  0.00     0.074 A 
ATOM     44  C   UNL     1      -0.867   4.740   9.782  1.00  0.00     0.031 C 
ATOM     45  C   UNL     1       5.062   1.208  10.048  1.00  0.00     0.029 A 
ATOM     46  C   UNL     1       5.160   2.630  10.374  1.00  0.00     0.049 A 
ATOM     47  H   UNL     1       3.605   4.013  10.467  1.00  0.00     0.167 HD
ATOM     48  C   UNL     1       0.226   6.827  10.546  1.00  0.00     0.037 A 
ATOM     49  C   UNL     1       6.294   3.291  10.682  1.00  0.00     0.037 A 
ATOM     50  C   UNL     1       1.372   7.593  10.962  1.00  0.00     0.049 A 
ATOM     51  C   UNL     1       6.220   4.758  11.016  1.00  0.00     0.074 A 
ATOM     52  C   UNL     1       1.426   8.920  11.351  1.00  0.00     0.029 A 
ATOM     53  N   UNL     1       2.668   7.101  11.039  1.00  0.00    -0.354 N 
ATOM     54  N   UNL     1       5.169   5.545  11.054  1.00  0.00    -0.248 NA
ATOM     55  C   UNL     1       7.482   5.428  11.357  1.00  0.00     0.031 C 
ATOM     56  C   UNL     1       2.762   9.244  11.611  1.00  0.00     0.029 A 
ATOM     57  C   UNL     1       3.532   8.103  11.448  1.00  0.00     0.049 A 
ATOM     58  H   UNL     1       2.933   6.176  10.834  1.00  0.00     0.167 HD
ATOM     59  C   UNL     1       5.639   6.790  11.459  1.00  0.00     0.074 A 
ATOM     60  C   UNL     1       7.067   6.651  11.659  1.00  0.00     0.031 C 
ATOM     61  C   UNL     1       4.950   7.943  11.655  1.00  0.00     0.037 A 
BRANCH  48  62
ATOM     62  C   UNL     1      -1.109   7.520  10.465  1.00  0.00     0.058 A 
ATOM     63  C   UNL     1      -2.151   7.232  11.361  1.00  0.00     0.135 A 
ATOM     64  C   UNL     1      -1.337   8.510   9.495  1.00  0.00     0.135 A 
ATOM     65  F   UNL     1      -1.996   6.283  12.298  1.00  0.00    -0.206 F 
ATOM     66  C   UNL     1      -3.380   7.881  11.281  1.00  0.00     0.059 A 
ATOM     67  C   UNL     1      -2.547   9.193   9.416  1.00  0.00     0.059 A 
ATOM     68  F   UNL     1      -0.377   8.824   8.611  1.00  0.00    -0.206 F 
ATOM     69  C   UNL     1      -3.568   8.861  10.305  1.00  0.00     0.060 A 
BRANCH  69  70
ATOM     70  S   UNL     1      -5.165   9.700  10.219  1.00  0.00     0.124 S 
ATOM     71  O   UNL     1      -6.021   8.644   9.688  1.00  0.00    -0.237 OA
ATOM     72  O   UNL     1      -5.400  10.066  11.611  1.00  0.00    -0.237 OA
ATOM     73  O   UNL     1      -4.915  10.817   9.313  1.00  0.00    -0.744 OA
ENDBRANCH  69  70
ENDBRANCH  48  62
BRANCH  49  74
ATOM     74  C   UNL     1       7.596   2.570  10.686  1.00  0.00     0.058 A 
ATOM     75  C   UNL     1       8.296   2.337  11.878  1.00  0.00     0.135 A 
ATOM     76  C   UNL     1       8.163   2.094   9.493  1.00  0.00     0.135 A 
ATOM     77  F   UNL     1       7.801   2.780  13.044  1.00  0.00    -0.206 F 
ATOM     78  C   UNL     1       9.519   1.673  11.888  1.00  0.00     0.059 A 
ATOM     79  C   UNL     1       9.371   1.403   9.480  1.00  0.00     0.059 A 
ATOM     80  F   UNL     1       7.529   2.280   8.325  1.00  0.00    -0.206 F 
ATOM     81  C   UNL     1      10.047   1.206  10.683  1.00  0.00     0.060 A 
BRANCH  81  82
ATOM     82  S   UNL     1      11.610   0.302  10.714  1.00  0.00     0.124 S 
ATOM     83  O   UNL     1      12.562   1.371  10.995  1.00  0.00    -0.237 OA
ATOM     84  O   UNL     1      11.388  -0.656  11.792  1.00  0.00    -0.237 OA
ATOM     85  O   UNL     1      11.689  -0.278   9.376  1.00  0.00    -0.744 OA
ENDBRANCH  81  82
ENDBRANCH  49  74
BRANCH  61  86
ATOM     86  C   UNL     1       5.719   9.135  12.161  1.00  0.00     0.058 A 
ATOM     87  C   UNL     1       6.627   9.834  11.352  1.00  0.00     0.135 A 
ATOM     88  C   UNL     1       5.500   9.612  13.464  1.00  0.00     0.135 A 
ATOM     89  F   UNL     1       6.877   9.419  10.100  1.00  0.00    -0.206 F 
ATOM     90  C   UNL     1       7.315  10.947  11.827  1.00  0.00     0.059 A 
ATOM     91  C   UNL     1       6.153  10.741  13.949  1.00  0.00     0.059 A 
ATOM     92  F   UNL     1       4.631   8.989  14.277  1.00  0.00    -0.206 F 
ATOM     93  C   UNL     1       7.070  11.394  13.127  1.00  0.00     0.060 A 
BRANCH  93  94
ATOM     94  S   UNL     1       7.949  12.853  13.723  1.00  0.00     0.124 S 
ATOM     95  O   UNL     1       9.295  12.325  13.923  1.00  0.00    -0.237 OA
ATOM     96  O   UNL     1       7.794  13.787  12.611  1.00  0.00    -0.237 OA
ATOM     97  O   UNL     1       7.229  13.213  14.941  1.00  0.00    -0.744 OA
ENDBRANCH  93  94
ENDBRANCH  61  86
ENDBRANCH  35  36
ENDBRANCH  28  30
ENDBRANCH  27  28
ENDBRANCH  26  27
ENDBRANCH  25  26
ENDBRANCH   1  25
TORSDOF 20
