REMARK SMILES O=C(OCCOCCOC(=O)c1ccc([C@H]2CCC[N@@H+](CCN3CCCC3=O)C2)cc1)c1ccc(-c2c3nc(c(-c4c(F)cc(S(=O)(=O)[O-])cc4F)c4ccc([nH]4)c(-c4c(F)cc(S(=O)(=O)[O-])cc4F)c4nc(c(-c5c(F)cc(S(=O)(=O)[O-])cc5F)c5ccc2[nH]5)C=C4)C=C3)cc1
REMARK SMILES IDX 7 1 6 2 5 3 4 4 3 5 2 6 1 7 32 8 33 9 97 10 34 11 96 12
REMARK SMILES IDX 35 13 36 14 37 15 90 16 38 17 95 18 89 19 91 20 39 21 94 22
REMARK SMILES IDX 88 23 87 24 40 26 74 27 53 28 73 29 54 30 57 31 72 32 92 33
REMARK SMILES IDX 55 34 56 35 71 37 93 38 58 39 41 40 42 41 51 42 43 43 44 44
REMARK SMILES IDX 50 45 52 46 45 47 46 48 47 49 48 50 49 51 75 52 76 53 85 54
REMARK SMILES IDX 77 55 78 56 84 57 86 58 79 59 80 60 81 61 82 62 83 63 59 64
REMARK SMILES IDX 60 65 69 66 61 67 62 68 68 69 70 70 63 71 64 72 65 73 66 74
REMARK SMILES IDX 67 75 8 76 9 77 10 78 11 79 12 80 13 81 31 82 14 83 30 84
REMARK SMILES IDX 15 85 16 86 17 87 29 88 18 89 20 90 19 91 21 93 22 94 23 95
REMARK SMILES IDX 24 96 27 97 25 98 26 99 28 100
REMARK H PARENT 91 25 57 36 20 92
REMARK Flexibility Score: inf
ROOT
ATOM      1  C   UNL     1      12.672   3.212   9.113  1.00  0.00     0.202 C 
ENDROOT
BRANCH   1   2
ATOM      2  O   UNL     1      12.803   2.218   8.095  1.00  0.00    -0.374 OA
BRANCH   2   3
ATOM      3  C   UNL     1      12.522   0.874   8.463  1.00  0.00     0.202 C 
BRANCH   3   4
ATOM      4  C   UNL     1      13.742   0.103   8.963  1.00  0.00     0.261 C 
BRANCH   4   5
ATOM      5  O   UNL     1      14.280   0.744  10.130  1.00  0.00    -0.460 OA
BRANCH   5   6
ATOM      6  C   UNL     1      15.421   1.466  10.220  1.00  0.00     0.338 C 
ATOM      7  O   UNL     1      15.768   1.886  11.322  1.00  0.00    -0.246 OA
BRANCH   6   8
ATOM      8  C   UNL     1      16.289   1.779   9.046  1.00  0.00     0.060 A 
ATOM      9  C   UNL     1      15.818   2.017   7.754  1.00  0.00     0.016 A 
ATOM     10  C   UNL     1      17.657   1.967   9.295  1.00  0.00     0.016 A 
ATOM     11  C   UNL     1      16.664   2.401   6.727  1.00  0.00     0.010 A 
ATOM     12  C   UNL     1      18.514   2.393   8.277  1.00  0.00     0.010 A 
ATOM     13  C   UNL     1      18.010   2.617   6.991  1.00  0.00    -0.014 A 
BRANCH  13  14
ATOM     14  C   UNL     1      18.869   3.043   5.877  1.00  0.00     0.031 A 
ATOM     15  C   UNL     1      19.782   2.036   5.259  1.00  0.00     0.074 A 
ATOM     16  C   UNL     1      18.741   4.293   5.393  1.00  0.00     0.049 A 
ATOM     17  N   UNL     1      20.696   2.206   4.347  1.00  0.00    -0.248 NA
ATOM     18  C   UNL     1      19.641   0.645   5.725  1.00  0.00     0.031 C 
ATOM     19  C   UNL     1      17.775   5.287   5.874  1.00  0.00     0.029 A 
ATOM     20  N   UNL     1      19.406   4.939   4.388  1.00  0.00    -0.354 N 
ATOM     21  C   UNL     1      21.273   0.958   4.162  1.00  0.00     0.074 A 
ATOM     22  C   UNL     1      20.595   0.032   5.040  1.00  0.00     0.031 C 
ATOM     23  C   UNL     1      17.915   6.417   5.163  1.00  0.00     0.029 A 
ATOM     24  C   UNL     1      19.028   6.253   4.237  1.00  0.00     0.049 A 
ATOM     25  H   UNL     1      20.090   4.506   3.827  1.00  0.00     0.167 HD
ATOM     26  C   UNL     1      22.297   0.637   3.341  1.00  0.00     0.037 A 
ATOM     27  C   UNL     1      19.569   7.223   3.476  1.00  0.00     0.037 A 
ATOM     28  C   UNL     1      22.930   1.596   2.476  1.00  0.00     0.049 A 
ATOM     29  C   UNL     1      20.762   6.857   2.633  1.00  0.00     0.074 A 
ATOM     30  C   UNL     1      23.987   1.408   1.608  1.00  0.00     0.029 A 
ATOM     31  N   UNL     1      22.559   2.932   2.381  1.00  0.00    -0.354 N 
ATOM     32  N   UNL     1      21.331   5.682   2.483  1.00  0.00    -0.248 NA
ATOM     33  C   UNL     1      21.405   7.939   1.879  1.00  0.00     0.031 C 
ATOM     34  C   UNL     1      24.292   2.645   1.030  1.00  0.00     0.029 A 
ATOM     35  C   UNL     1      23.390   3.592   1.497  1.00  0.00     0.049 A 
ATOM     36  H   UNL     1      21.813   3.347   2.872  1.00  0.00     0.167 HD
ATOM     37  C   UNL     1      22.395   5.881   1.614  1.00  0.00     0.074 A 
ATOM     38  C   UNL     1      22.375   7.285   1.252  1.00  0.00     0.031 C 
ATOM     39  C   UNL     1      23.316   4.994   1.162  1.00  0.00     0.037 A 
BRANCH  26  40
ATOM     40  C   UNL     1      22.836  -0.761   3.410  1.00  0.00     0.058 A 
ATOM     41  C   UNL     1      22.146  -1.862   2.880  1.00  0.00     0.135 A 
ATOM     42  C   UNL     1      24.078  -0.998   4.022  1.00  0.00     0.135 A 
ATOM     43  F   UNL     1      20.940  -1.697   2.315  1.00  0.00    -0.206 F 
ATOM     44  C   UNL     1      22.664  -3.152   2.966  1.00  0.00     0.059 A 
ATOM     45  C   UNL     1      24.625  -2.275   4.099  1.00  0.00     0.059 A 
ATOM     46  F   UNL     1      24.769   0.017   4.563  1.00  0.00    -0.206 F 
ATOM     47  C   UNL     1      23.906  -3.347   3.575  1.00  0.00     0.060 A 
BRANCH  47  48
ATOM     48  S   UNL     1      24.572  -5.023   3.664  1.00  0.00     0.124 S 
ATOM     49  O   UNL     1      23.699  -5.631   4.664  1.00  0.00    -0.237 OA
ATOM     50  O   UNL     1      24.396  -5.500   2.296  1.00  0.00    -0.237 OA
ATOM     51  O   UNL     1      25.955  -4.819   4.082  1.00  0.00    -0.744 OA
ENDBRANCH  47  48
ENDBRANCH  26  40
BRANCH  27  52
ATOM     52  C   UNL     1      19.062   8.623   3.551  1.00  0.00     0.058 A 
ATOM     53  C   UNL     1      18.491   9.260   2.440  1.00  0.00     0.135 A 
ATOM     54  C   UNL     1      19.160   9.365   4.741  1.00  0.00     0.135 A 
ATOM     55  F   UNL     1      18.379   8.603   1.275  1.00  0.00    -0.206 F 
ATOM     56  C   UNL     1      18.060  10.584   2.496  1.00  0.00     0.059 A 
ATOM     57  C   UNL     1      18.708  10.678   4.832  1.00  0.00     0.059 A 
ATOM     58  F   UNL     1      19.690   8.808   5.842  1.00  0.00    -0.206 F 
ATOM     59  C   UNL     1      18.176  11.286   3.697  1.00  0.00     0.060 A 
BRANCH  59  60
ATOM     60  S   UNL     1      17.614  13.001   3.765  1.00  0.00     0.124 S 
ATOM     61  O   UNL     1      18.657  13.682   3.007  1.00  0.00    -0.237 OA
ATOM     62  O   UNL     1      16.306  12.923   3.122  1.00  0.00    -0.237 OA
ATOM     63  O   UNL     1      17.584  13.290   5.196  1.00  0.00    -0.744 OA
ENDBRANCH  59  60
ENDBRANCH  27  52
BRANCH  39  64
ATOM     64  C   UNL     1      24.358   5.515   0.218  1.00  0.00     0.058 A 
ATOM     65  C   UNL     1      25.432   6.292   0.676  1.00  0.00     0.135 A 
ATOM     66  C   UNL     1      24.333   5.146  -1.135  1.00  0.00     0.135 A 
ATOM     67  F   UNL     1      25.489   6.677   1.961  1.00  0.00    -0.206 F 
ATOM     68  C   UNL     1      26.450   6.689  -0.181  1.00  0.00     0.059 A 
ATOM     69  C   UNL     1      25.355   5.508  -2.003  1.00  0.00     0.059 A 
ATOM     70  F   UNL     1      23.329   4.395  -1.614  1.00  0.00    -0.206 F 
ATOM     71  C   UNL     1      26.408   6.282  -1.516  1.00  0.00     0.060 A 
BRANCH  71  72
ATOM     72  S   UNL     1      27.779   6.735  -2.597  1.00  0.00     0.124 S 
ATOM     73  O   UNL     1      27.534   8.159  -2.801  1.00  0.00    -0.237 OA
ATOM     74  O   UNL     1      28.943   6.402  -1.781  1.00  0.00    -0.237 OA
ATOM     75  O   UNL     1      27.581   5.889  -3.770  1.00  0.00    -0.744 OA
ENDBRANCH  71  72
ENDBRANCH  39  64
ENDBRANCH  13  14
ENDBRANCH   6   8
ENDBRANCH   5   6
ENDBRANCH   4   5
ENDBRANCH   3   4
ENDBRANCH   2   3
ENDBRANCH   1   2
BRANCH   1  76
ATOM     76  C   UNL     1      12.058   4.466   8.480  1.00  0.00     0.261 C 
BRANCH  76  77
ATOM     77  O   UNL     1      10.787   4.115   7.909  1.00  0.00    -0.460 OA
BRANCH  77  78
ATOM     78  C   UNL     1      10.842   3.559   6.662  1.00  0.00     0.338 C 
ATOM     79  O   UNL     1      11.736   3.622   5.848  1.00  0.00    -0.246 OA
BRANCH  78  80
ATOM     80  C   UNL     1       9.668   2.669   6.563  1.00  0.00     0.060 A 
ATOM     81  C   UNL     1       9.813   1.327   6.197  1.00  0.00     0.016 A 
ATOM     82  C   UNL     1       8.430   3.154   6.945  1.00  0.00     0.016 A 
ATOM     83  C   UNL     1       8.740   0.434   6.353  1.00  0.00     0.005 A 
ATOM     84  C   UNL     1       7.360   2.277   7.037  1.00  0.00     0.005 A 
ATOM     85  C   UNL     1       7.503   0.887   6.834  1.00  0.00    -0.039 A 
BRANCH  85  86
ATOM     86  C   UNL     1       6.350  -0.085   7.160  1.00  0.00     0.074 C 
ATOM     87  C   UNL     1       6.787  -1.239   8.083  1.00  0.00     0.020 C 
ATOM     88  C   UNL     1       5.185   0.679   7.834  1.00  0.00     0.270 C 
ATOM     89  C   UNL     1       5.577  -2.034   8.581  1.00  0.00     0.062 C 
ATOM     90  N   UNL     1       4.098  -0.048   8.483  1.00  0.00    -0.333 N 
ATOM     91  C   UNL     1       4.591  -1.136   9.330  1.00  0.00     0.262 C 
ATOM     92  H   UNL     1       3.531  -0.501   7.766  1.00  0.00     0.348 HD
BRANCH  90  93
ATOM     93  C   UNL     1       3.237   0.912   9.226  1.00  0.00     0.284 C 
BRANCH  93  94
ATOM     94  C   UNL     1       3.715   1.571  10.560  1.00  0.00     0.180 C 
BRANCH  94  95
ATOM     95  N   UNL     1       4.846   2.497  10.485  1.00  0.00    -0.337 N 
ATOM     96  C   UNL     1       4.696   3.902  10.202  1.00  0.00     0.120 C 
ATOM     97  C   UNL     1       6.142   2.180  10.875  1.00  0.00     0.222 C 
ATOM     98  C   UNL     1       6.114   4.393   9.974  1.00  0.00     0.031 C 
ATOM     99  C   UNL     1       6.990   3.423  10.755  1.00  0.00     0.102 C 
ATOM    100  O   UNL     1       6.538   1.099  11.280  1.00  0.00    -0.275 OA
ENDBRANCH  94  95
ENDBRANCH  93  94
ENDBRANCH  90  93
ENDBRANCH  85  86
ENDBRANCH  78  80
ENDBRANCH  77  78
ENDBRANCH  76  77
ENDBRANCH   1  76
TORSDOF 21
