REMARK SMILES CC[N@@H+](C/C(Cl)=C/Cl)C[C@@H](C)C(=O)OCCOCCOC(=O)c1ccc(-c2c3nc(c(-c4c(F)cc(S(=O)(=O)[O-])cc4F)c4ccc([nH]4)c(-c4c(F)cc(S(=O)(=O)[O-])cc4F)c4nc(c(-c5c(F)cc(S(=O)(=O)[O-])cc5F)c5ccc2[nH]5)C=C4)C=C3)cc1
REMARK SMILES IDX 16 1 15 2 14 3 12 4 13 5 10 6 11 7 9 8 3 9 2 11 1 12 4 13
REMARK SMILES IDX 5 14 6 15 7 16 8 17 17 18 18 19 19 20 20 21 21 22 22 23
REMARK SMILES IDX 23 24 24 25 88 26 25 27 87 28 26 29 27 30 28 31 81 32 29 33
REMARK SMILES IDX 86 34 80 35 82 36 30 37 85 38 79 39 78 40 31 42 65 43 44 44
REMARK SMILES IDX 64 45 45 46 48 47 63 48 83 49 46 50 47 51 62 53 84 54 49 55
REMARK SMILES IDX 32 56 33 57 42 58 34 59 35 60 41 61 43 62 36 63 37 64 38 65
REMARK SMILES IDX 39 66 40 67 66 68 67 69 76 70 68 71 69 72 75 73 77 74 70 75
REMARK SMILES IDX 71 76 72 77 73 78 74 79 50 80 51 81 60 82 52 83 53 84 59 85
REMARK SMILES IDX 61 86 54 87 55 88 56 89 57 90 58 91
REMARK H PARENT 3 10 82 41 48 52
REMARK Flexibility Score: inf
ROOT
ATOM      1  C   UNL     1       7.251   1.505  -2.376  1.00  0.00     0.202 C 
ENDROOT
BRANCH   1   2
ATOM      2  C   UNL     1       6.569   2.132  -1.156  1.00  0.00     0.261 C 
BRANCH   2   3
ATOM      3  O   UNL     1       5.151   1.883  -1.101  1.00  0.00    -0.463 OA
BRANCH   3   4
ATOM      4  C   UNL     1       4.363   2.974  -1.299  1.00  0.00     0.314 C 
ATOM      5  O   UNL     1       4.774   4.103  -1.540  1.00  0.00    -0.252 OA
BRANCH   4   6
ATOM      6  C   UNL     1       2.883   2.679  -1.120  1.00  0.00     0.151 C 
ATOM      7  C   UNL     1       2.563   2.781   0.365  1.00  0.00     0.026 C 
BRANCH   6   8
ATOM      8  C   UNL     1       2.439   1.369  -1.809  1.00  0.00     0.277 C 
BRANCH   8   9
ATOM      9  N   UNL     1       1.011   1.098  -2.026  1.00  0.00    -0.330 N 
ATOM     10  H   UNL     1       1.116   0.134  -2.343  1.00  0.00     0.348 HD
BRANCH   9  11
ATOM     11  C   UNL     1       0.145   0.855  -0.882  1.00  0.00     0.259 C 
ATOM     12  C   UNL     1       0.633  -0.266   0.029  1.00  0.00     0.071 C 
ENDBRANCH   9  11
BRANCH   9  13
ATOM     13  C   UNL     1       0.382   1.778  -3.164  1.00  0.00     0.312 C 
BRANCH  13  14
ATOM     14  C   UNL     1       0.398   3.287  -3.205  1.00  0.00     0.083 C 
ATOM     15  Cl  UNL     1       1.293   3.962  -4.535  1.00  0.00    -0.082 Cl
ATOM     16  C   UNL     1      -0.217   4.065  -2.306  1.00  0.00     0.102 C 
ATOM     17  Cl  UNL     1      -0.198   5.780  -2.276  1.00  0.00    -0.091 Cl
ENDBRANCH  13  14
ENDBRANCH   9  13
ENDBRANCH   8   9
ENDBRANCH   6   8
ENDBRANCH   4   6
ENDBRANCH   3   4
ENDBRANCH   2   3
ENDBRANCH   1   2
BRANCH   1  18
ATOM     18  O   UNL     1       6.841   1.963  -3.663  1.00  0.00    -0.374 OA
BRANCH  18  19
ATOM     19  C   UNL     1       5.587   1.494  -4.152  1.00  0.00     0.202 C 
BRANCH  19  20
ATOM     20  C   UNL     1       5.530   0.040  -4.641  1.00  0.00     0.261 C 
BRANCH  20  21
ATOM     21  O   UNL     1       5.793  -0.907  -3.588  1.00  0.00    -0.460 OA
BRANCH  21  22
ATOM     22  C   UNL     1       6.899  -1.666  -3.782  1.00  0.00     0.338 C 
ATOM     23  O   UNL     1       7.604  -1.695  -4.783  1.00  0.00    -0.246 OA
BRANCH  22  24
ATOM     24  C   UNL     1       7.286  -2.356  -2.539  1.00  0.00     0.060 A 
ATOM     25  C   UNL     1       8.580  -2.123  -2.059  1.00  0.00     0.016 A 
ATOM     26  C   UNL     1       6.456  -3.289  -1.913  1.00  0.00     0.016 A 
ATOM     27  C   UNL     1       9.072  -2.866  -0.989  1.00  0.00     0.010 A 
ATOM     28  C   UNL     1       6.956  -4.041  -0.839  1.00  0.00     0.010 A 
ATOM     29  C   UNL     1       8.280  -3.861  -0.400  1.00  0.00    -0.014 A 
BRANCH  29  30
ATOM     30  C   UNL     1       8.917  -4.786   0.572  1.00  0.00     0.031 A 
ATOM     31  C   UNL     1       9.408  -6.129   0.100  1.00  0.00     0.074 A 
ATOM     32  C   UNL     1       9.147  -4.391   1.838  1.00  0.00     0.049 A 
ATOM     33  N   UNL     1      10.082  -7.041   0.752  1.00  0.00    -0.248 NA
ATOM     34  C   UNL     1       9.104  -6.490  -1.294  1.00  0.00     0.031 C 
ATOM     35  C   UNL     1       8.735  -3.110   2.410  1.00  0.00     0.029 A 
ATOM     36  N   UNL     1       9.796  -5.026   2.867  1.00  0.00    -0.354 N 
ATOM     37  C   UNL     1      10.301  -8.073  -0.153  1.00  0.00     0.074 A 
ATOM     38  C   UNL     1       9.646  -7.696  -1.387  1.00  0.00     0.031 C 
ATOM     39  C   UNL     1       9.143  -3.052   3.690  1.00  0.00     0.029 A 
ATOM     40  C   UNL     1       9.835  -4.294   4.030  1.00  0.00     0.049 A 
ATOM     41  H   UNL     1      10.197  -5.921   2.780  1.00  0.00     0.167 HD
ATOM     42  C   UNL     1      11.000  -9.221   0.020  1.00  0.00     0.037 A 
ATOM     43  C   UNL     1      10.367  -4.592   5.231  1.00  0.00     0.037 A 
ATOM     44  C   UNL     1      11.643  -9.601   1.251  1.00  0.00     0.049 A 
ATOM     45  C   UNL     1      11.108  -5.891   5.410  1.00  0.00     0.074 A 
ATOM     46  C   UNL     1      12.370 -10.748   1.527  1.00  0.00     0.029 A 
ATOM     47  N   UNL     1      11.638  -8.845   2.414  1.00  0.00    -0.354 N 
ATOM     48  N   UNL     1      11.324  -6.845   4.536  1.00  0.00    -0.248 NA
ATOM     49  C   UNL     1      11.693  -6.145   6.734  1.00  0.00     0.031 C 
ATOM     50  C   UNL     1      12.774 -10.700   2.866  1.00  0.00     0.029 A 
ATOM     51  C   UNL     1      12.336  -9.505   3.413  1.00  0.00     0.049 A 
ATOM     52  H   UNL     1      11.203  -7.968   2.514  1.00  0.00     0.167 HD
ATOM     53  C   UNL     1      12.079  -7.806   5.201  1.00  0.00     0.074 A 
ATOM     54  C   UNL     1      12.304  -7.305   6.541  1.00  0.00     0.031 C 
ATOM     55  C   UNL     1      12.541  -8.998   4.746  1.00  0.00     0.037 A 
BRANCH  42  56
ATOM     56  C   UNL     1      11.102 -10.154  -1.155  1.00  0.00     0.058 A 
ATOM     57  C   UNL     1      11.923  -9.859  -2.255  1.00  0.00     0.135 A 
ATOM     58  C   UNL     1      10.405 -11.373  -1.166  1.00  0.00     0.135 A 
ATOM     59  F   UNL     1      12.596  -8.698  -2.304  1.00  0.00    -0.206 F 
ATOM     60  C   UNL     1      12.035 -10.730  -3.334  1.00  0.00     0.059 A 
ATOM     61  C   UNL     1      10.520 -12.270  -2.224  1.00  0.00     0.059 A 
ATOM     62  F   UNL     1       9.604 -11.703  -0.140  1.00  0.00    -0.206 F 
ATOM     63  C   UNL     1      11.329 -11.934  -3.309  1.00  0.00     0.060 A 
BRANCH  63  64
ATOM     64  S   UNL     1      11.494 -13.061  -4.710  1.00  0.00     0.124 S 
ATOM     65  O   UNL     1      10.705 -12.376  -5.729  1.00  0.00    -0.237 OA
ATOM     66  O   UNL     1      12.937 -13.078  -4.930  1.00  0.00    -0.237 OA
ATOM     67  O   UNL     1      10.925 -14.309  -4.211  1.00  0.00    -0.744 OA
ENDBRANCH  63  64
ENDBRANCH  42  56
BRANCH  43  68
ATOM     68  C   UNL     1      10.211  -3.644   6.367  1.00  0.00     0.058 A 
ATOM     69  C   UNL     1      11.301  -2.926   6.877  1.00  0.00     0.135 A 
ATOM     70  C   UNL     1       8.957  -3.447   6.968  1.00  0.00     0.135 A 
ATOM     71  F   UNL     1      12.521  -3.088   6.342  1.00  0.00    -0.206 F 
ATOM     72  C   UNL     1      11.160  -2.058   7.956  1.00  0.00     0.059 A 
ATOM     73  C   UNL     1       8.787  -2.568   8.030  1.00  0.00     0.059 A 
ATOM     74  F   UNL     1       7.880  -4.103   6.507  1.00  0.00    -0.206 F 
ATOM     75  C   UNL     1       9.897  -1.886   8.526  1.00  0.00     0.060 A 
BRANCH  75  76
ATOM     76  S   UNL     1       9.709  -0.723   9.895  1.00  0.00     0.124 S 
ATOM     77  O   UNL     1      10.256  -1.490  11.008  1.00  0.00    -0.237 OA
ATOM     78  O   UNL     1      10.507   0.414   9.447  1.00  0.00    -0.237 OA
ATOM     79  O   UNL     1       8.268  -0.489   9.936  1.00  0.00    -0.744 OA
ENDBRANCH  75  76
ENDBRANCH  43  68
BRANCH  55  80
ATOM     80  C   UNL     1      13.344  -9.832   5.707  1.00  0.00     0.058 A 
ATOM     81  C   UNL     1      12.739 -10.492   6.788  1.00  0.00     0.135 A 
ATOM     82  C   UNL     1      14.730  -9.980   5.541  1.00  0.00     0.135 A 
ATOM     83  F   UNL     1      11.416 -10.382   6.993  1.00  0.00    -0.206 F 
ATOM     84  C   UNL     1      13.486 -11.235   7.697  1.00  0.00     0.059 A 
ATOM     85  C   UNL     1      15.493 -10.739   6.423  1.00  0.00     0.059 A 
ATOM     86  F   UNL     1      15.356  -9.382   4.515  1.00  0.00    -0.206 F 
ATOM     87  C   UNL     1      14.865 -11.345   7.510  1.00  0.00     0.060 A 
BRANCH  87  88
ATOM     88  S   UNL     1      15.829 -12.302   8.700  1.00  0.00     0.124 S 
ATOM     89  O   UNL     1      15.921 -11.370   9.818  1.00  0.00    -0.237 OA
ATOM     90  O   UNL     1      14.987 -13.474   8.920  1.00  0.00    -0.237 OA
ATOM     91  O   UNL     1      17.079 -12.561   7.992  1.00  0.00    -0.744 OA
ENDBRANCH  87  88
ENDBRANCH  55  80
ENDBRANCH  29  30
ENDBRANCH  22  24
ENDBRANCH  21  22
ENDBRANCH  20  21
ENDBRANCH  19  20
ENDBRANCH  18  19
ENDBRANCH   1  18
TORSDOF 22
