REMARK SMILES C[C@H]([C@@H](C)C(=O)OCCOCCOC(=O)c1ccc(-c2c3nc(c(-c4c(F)cc(S(=O)(=O)[O-])cc4F)c4ccc([nH]4)c(-c4c(F)cc(S(=O)(=O)[O-])cc4F)c4nc(c(-c5c(F)cc(S(=O)(=O)[O-])cc5F)c5ccc2[nH]5)C=C4)C=C3)cc1)[NH+]1CCN(c2nccs2)CC1
REMARK SMILES IDX 10 1 9 2 8 3 7 4 5 5 6 6 3 7 4 8 2 9 1 10 82 11 83 12 92 13
REMARK SMILES IDX 84 15 91 16 85 17 86 18 87 19 90 20 88 21 89 22 11 23 12 24
REMARK SMILES IDX 13 25 14 26 15 27 16 28 17 29 81 30 18 31 80 32 19 33 20 34
REMARK SMILES IDX 21 35 74 36 22 37 79 38 73 39 75 40 23 41 78 42 72 43 71 44
REMARK SMILES IDX 24 46 58 47 37 48 57 49 38 50 41 51 56 52 76 53 39 54 40 55
REMARK SMILES IDX 55 57 77 58 42 59 25 60 26 61 35 62 27 63 28 64 34 65 36 66
REMARK SMILES IDX 29 67 30 68 31 69 32 70 33 71 59 72 60 73 69 74 61 75 62 76
REMARK SMILES IDX 68 77 70 78 63 79 64 80 65 81 66 82 67 83 43 84 44 85 53 86
REMARK SMILES IDX 45 87 46 88 52 89 54 90 47 91 48 92 49 93 50 94 51 95
REMARK H PARENT 82 14 75 45 41 56
REMARK Flexibility Score: inf
ROOT
ATOM      1  O   UNL     1      -0.831   0.033  -3.591  1.00  0.00    -0.374 OA
ENDROOT
BRANCH   1   2
ATOM      2  C   UNL     1       0.227  -0.862  -3.928  1.00  0.00     0.202 C 
BRANCH   2   3
ATOM      3  C   UNL     1       1.587  -0.595  -3.278  1.00  0.00     0.261 C 
BRANCH   3   4
ATOM      4  O   UNL     1       1.578  -0.733  -1.845  1.00  0.00    -0.463 OA
BRANCH   4   5
ATOM      5  C   UNL     1       1.484   0.433  -1.151  1.00  0.00     0.314 C 
ATOM      6  O   UNL     1       1.376   1.543  -1.664  1.00  0.00    -0.252 OA
BRANCH   5   7
ATOM      7  C   UNL     1       1.674   0.264   0.346  1.00  0.00     0.154 C 
ATOM      8  C   UNL     1       3.186   0.398   0.577  1.00  0.00     0.026 C 
BRANCH   7   9
ATOM      9  C   UNL     1       1.043  -1.017   0.993  1.00  0.00     0.195 C 
ATOM     10  C   UNL     1       1.645  -1.252   2.387  1.00  0.00     0.076 C 
BRANCH   9  11
ATOM     11  N   UNL     1      -0.440  -1.022   0.965  1.00  0.00    -0.329 N 
ATOM     12  C   UNL     1      -1.075  -2.340   1.192  1.00  0.00     0.284 C 
ATOM     13  C   UNL     1      -1.167  -0.003   1.739  1.00  0.00     0.284 C 
ATOM     14  H   UNL     1      -0.548  -0.750  -0.012  1.00  0.00     0.348 HD
ATOM     15  C   UNL     1      -1.390  -2.753   2.653  1.00  0.00     0.180 C 
ATOM     16  C   UNL     1      -1.450  -0.312   3.224  1.00  0.00     0.180 C 
ATOM     17  N   UNL     1      -1.976  -1.663   3.435  1.00  0.00    -0.337 N 
BRANCH  17  18
ATOM     18  C   UNL     1      -2.598  -1.899   4.627  1.00  0.00     0.185 A 
ATOM     19  N   UNL     1      -3.438  -1.046   5.181  1.00  0.00    -0.229 NA
ATOM     20  S   UNL     1      -2.314  -3.314   5.596  1.00  0.00    -0.106 S 
ATOM     21  C   UNL     1      -3.923  -1.532   6.378  1.00  0.00     0.125 A 
ATOM     22  C   UNL     1      -3.386  -2.728   6.791  1.00  0.00     0.088 A 
ENDBRANCH  17  18
ENDBRANCH   9  11
ENDBRANCH   7   9
ENDBRANCH   5   7
ENDBRANCH   4   5
ENDBRANCH   3   4
ENDBRANCH   2   3
ENDBRANCH   1   2
BRANCH   1  23
ATOM     23  C   UNL     1      -1.498  -0.204  -2.350  1.00  0.00     0.202 C 
BRANCH  23  24
ATOM     24  C   UNL     1      -2.523  -1.342  -2.350  1.00  0.00     0.261 C 
BRANCH  24  25
ATOM     25  O   UNL     1      -1.883  -2.631  -2.430  1.00  0.00    -0.460 OA
BRANCH  25  26
ATOM     26  C   UNL     1      -2.137  -3.322  -3.565  1.00  0.00     0.338 C 
ATOM     27  O   UNL     1      -2.930  -3.021  -4.449  1.00  0.00    -0.246 OA
BRANCH  26  28
ATOM     28  C   UNL     1      -1.183  -4.438  -3.714  1.00  0.00     0.060 A 
ATOM     29  C   UNL     1      -0.525  -4.556  -4.945  1.00  0.00     0.016 A 
ATOM     30  C   UNL     1      -0.989  -5.395  -2.714  1.00  0.00     0.016 A 
ATOM     31  C   UNL     1       0.273  -5.666  -5.209  1.00  0.00     0.010 A 
ATOM     32  C   UNL     1      -0.191  -6.514  -2.984  1.00  0.00     0.010 A 
ATOM     33  C   UNL     1       0.408  -6.676  -4.247  1.00  0.00    -0.014 A 
BRANCH  33  34
ATOM     34  C   UNL     1       1.036  -7.964  -4.633  1.00  0.00     0.031 A 
ATOM     35  C   UNL     1       0.149  -9.129  -4.988  1.00  0.00     0.074 A 
ATOM     36  C   UNL     1       2.374  -8.083  -4.721  1.00  0.00     0.049 A 
ATOM     37  N   UNL     1       0.478 -10.342  -5.350  1.00  0.00    -0.248 NA
ATOM     38  C   UNL     1      -1.303  -8.893  -4.927  1.00  0.00     0.031 C 
ATOM     39  C   UNL     1       3.336  -7.017  -4.448  1.00  0.00     0.029 A 
ATOM     40  N   UNL     1       3.153  -9.159  -5.067  1.00  0.00    -0.354 N 
ATOM     41  C   UNL     1      -0.721 -11.016  -5.552  1.00  0.00     0.074 A 
ATOM     42  C   UNL     1      -1.786 -10.085  -5.246  1.00  0.00     0.031 C 
ATOM     43  C   UNL     1       4.579  -7.494  -4.633  1.00  0.00     0.029 A 
ATOM     44  C   UNL     1       4.502  -8.905  -5.009  1.00  0.00     0.049 A 
ATOM     45  H   UNL     1       2.780 -10.030  -5.333  1.00  0.00     0.167 HD
ATOM     46  C   UNL     1      -0.918 -12.291  -5.963  1.00  0.00     0.037 A 
ATOM     47  C   UNL     1       5.554  -9.722  -5.218  1.00  0.00     0.037 A 
ATOM     48  C   UNL     1       0.143 -13.211  -6.279  1.00  0.00     0.049 A 
ATOM     49  C   UNL     1       5.310 -11.155  -5.616  1.00  0.00     0.074 A 
ATOM     50  C   UNL     1       0.044 -14.516  -6.729  1.00  0.00     0.029 A 
ATOM     51  N   UNL     1       1.496 -12.927  -6.171  1.00  0.00    -0.354 N 
ATOM     52  N   UNL     1       4.170 -11.771  -5.824  1.00  0.00    -0.248 NA
ATOM     53  C   UNL     1       6.495 -12.003  -5.809  1.00  0.00     0.031 C 
ATOM     54  C   UNL     1       1.337 -15.037  -6.848  1.00  0.00     0.029 A 
ATOM     55  C   UNL     1       2.243 -14.040  -6.521  1.00  0.00     0.049 A 
ATOM     56  H   UNL     1       1.871 -12.062  -5.888  1.00  0.00     0.167 HD
ATOM     57  C   UNL     1       4.502 -13.069  -6.200  1.00  0.00     0.074 A 
ATOM     58  C   UNL     1       5.948 -13.148  -6.198  1.00  0.00     0.031 C 
ATOM     59  C   UNL     1       3.683 -14.102  -6.521  1.00  0.00     0.037 A 
BRANCH  46  60
ATOM     60  C   UNL     1      -2.336 -12.778  -6.072  1.00  0.00     0.058 A 
ATOM     61  C   UNL     1      -3.190 -12.351  -7.101  1.00  0.00     0.135 A 
ATOM     62  C   UNL     1      -2.837 -13.714  -5.153  1.00  0.00     0.135 A 
ATOM     63  F   UNL     1      -2.768 -11.443  -7.996  1.00  0.00    -0.206 F 
ATOM     64  C   UNL     1      -4.497 -12.817  -7.202  1.00  0.00     0.059 A 
ATOM     65  C   UNL     1      -4.132 -14.213  -5.249  1.00  0.00     0.059 A 
ATOM     66  F   UNL     1      -2.063 -14.153  -4.147  1.00  0.00    -0.206 F 
ATOM     67  C   UNL     1      -4.959 -13.748  -6.271  1.00  0.00     0.060 A 
BRANCH  67  68
ATOM     68  S   UNL     1      -6.654 -14.351  -6.417  1.00  0.00     0.124 S 
ATOM     69  O   UNL     1      -7.415 -13.192  -5.960  1.00  0.00    -0.237 OA
ATOM     70  O   UNL     1      -6.757 -14.655  -7.841  1.00  0.00    -0.237 OA
ATOM     71  O   UNL     1      -6.682 -15.509  -5.529  1.00  0.00    -0.744 OA
ENDBRANCH  67  68
ENDBRANCH  46  60
BRANCH  47  72
ATOM     72  C   UNL     1       6.939  -9.209  -5.046  1.00  0.00     0.058 A 
ATOM     73  C   UNL     1       7.794  -9.041  -6.145  1.00  0.00     0.135 A 
ATOM     74  C   UNL     1       7.438  -8.882  -3.775  1.00  0.00     0.135 A 
ATOM     75  F   UNL     1       7.368  -9.351  -7.379  1.00  0.00    -0.206 F 
ATOM     76  C   UNL     1       9.097  -8.579  -5.991  1.00  0.00     0.059 A 
ATOM     77  C   UNL     1       8.729  -8.396  -3.598  1.00  0.00     0.059 A 
ATOM     78  F   UNL     1       6.657  -9.017  -2.691  1.00  0.00    -0.206 F 
ATOM     79  C   UNL     1       9.555  -8.257  -4.712  1.00  0.00     0.060 A 
BRANCH  79  80
ATOM     80  S   UNL     1      11.231  -7.611  -4.526  1.00  0.00     0.124 S 
ATOM     81  O   UNL     1      12.032  -8.815  -4.719  1.00  0.00    -0.237 OA
ATOM     82  O   UNL     1      11.299  -6.620  -5.595  1.00  0.00    -0.237 OA
ATOM     83  O   UNL     1      11.230  -7.063  -3.173  1.00  0.00    -0.744 OA
ENDBRANCH  79  80
ENDBRANCH  47  72
BRANCH  59  84
ATOM     84  C   UNL     1       4.327 -15.398  -6.931  1.00  0.00     0.058 A 
ATOM     85  C   UNL     1       4.949 -16.242  -5.998  1.00  0.00     0.135 A 
ATOM     86  C   UNL     1       4.270 -15.828  -8.268  1.00  0.00     0.135 A 
ATOM     87  F   UNL     1       5.036 -15.876  -4.710  1.00  0.00    -0.206 F 
ATOM     88  C   UNL     1       5.513 -17.456  -6.379  1.00  0.00     0.059 A 
ATOM     89  C   UNL     1       4.803 -17.049  -8.666  1.00  0.00     0.059 A 
ATOM     90  F   UNL     1       3.675 -15.064  -9.198  1.00  0.00    -0.206 F 
ATOM     91  C   UNL     1       5.433 -17.852  -7.716  1.00  0.00     0.060 A 
BRANCH  91  92
ATOM     92  S   UNL     1       6.138 -19.444  -8.192  1.00  0.00     0.124 S 
ATOM     93  O   UNL     1       7.567 -19.150  -8.175  1.00  0.00    -0.237 OA
ATOM     94  O   UNL     1       5.661 -20.328  -7.133  1.00  0.00    -0.237 OA
ATOM     95  O   UNL     1       5.563 -19.690  -9.511  1.00  0.00    -0.744 OA
ENDBRANCH  91  92
ENDBRANCH  59  84
ENDBRANCH  33  34
ENDBRANCH  26  28
ENDBRANCH  25  26
ENDBRANCH  24  25
ENDBRANCH  23  24
ENDBRANCH   1  23
TORSDOF 20
