REMARK SMILES O=C(CSc1nc2[nH]cnc2c(=O)[nH]1)NCCC(=O)OCCOCCOC(=O)c1ccc(-c2c3nc(c(-c4c(F)cc(S(=O)(=O)[O-])cc4F)c4ccc([nH]4)c(-c4c(F)cc(S(=O)(=O)[O-])cc4F)c4nc(c(-c5c(F)cc(S(=O)(=O)[O-])cc5F)c5ccc2[nH]5)C=C4)C=C3)cc1
REMARK SMILES IDX 22 1 21 2 20 3 18 4 19 5 17 6 16 7 15 8 1 9 2 10 3 12 4 13
REMARK SMILES IDX 5 14 6 15 14 16 7 17 12 18 8 20 11 21 13 22 9 23 10 25 23 26
REMARK SMILES IDX 24 27 25 28 26 29 27 30 28 31 29 32 30 33 94 34 31 35 93 36
REMARK SMILES IDX 32 37 33 38 34 39 87 40 35 41 92 42 86 43 88 44 36 45 91 46
REMARK SMILES IDX 85 47 84 48 37 50 71 51 50 52 70 53 51 54 54 55 69 56 89 57
REMARK SMILES IDX 52 58 53 59 68 61 90 62 55 63 38 64 39 65 48 66 40 67 41 68
REMARK SMILES IDX 47 69 49 70 42 71 43 72 44 73 45 74 46 75 72 76 73 77 82 78
REMARK SMILES IDX 74 79 75 80 81 81 83 82 76 83 77 84 78 85 79 86 80 87 56 88
REMARK SMILES IDX 57 89 66 90 58 91 59 92 65 93 67 94 60 95 61 96 62 97 63 98
REMARK SMILES IDX 64 99
REMARK H PARENT 15 11 14 19 8 24 88 49 54 60
REMARK Flexibility Score: inf
ROOT
ATOM      1  C   UNL     1       6.835  -3.491  -1.790  1.00  0.00     0.202 C 
ENDROOT
BRANCH   1   2
ATOM      2  C   UNL     1       6.128  -2.562  -2.781  1.00  0.00     0.261 C 
BRANCH   2   3
ATOM      3  O   UNL     1       4.819  -2.162  -2.331  1.00  0.00    -0.463 OA
BRANCH   3   4
ATOM      4  C   UNL     1       3.777  -2.628  -3.071  1.00  0.00     0.307 C 
ATOM      5  O   UNL     1       3.885  -3.307  -4.086  1.00  0.00    -0.252 OA
BRANCH   4   6
ATOM      6  C   UNL     1       2.432  -2.197  -2.539  1.00  0.00     0.144 C 
BRANCH   6   7
ATOM      7  C   UNL     1       2.311  -2.069  -1.026  1.00  0.00     0.127 C 
BRANCH   7   8
ATOM      8  N   UNL     1       2.885  -0.841  -0.514  1.00  0.00    -0.355 N 
ATOM      9  O   UNL     1       0.917   0.011   0.308  1.00  0.00    -0.274 OA
ATOM     10  C   UNL     1       2.125   0.123   0.110  1.00  0.00     0.230 C 
ATOM     11  H   UNL     1       3.853  -0.691  -0.617  1.00  0.00     0.163 HD
BRANCH  10  12
ATOM     12  C   UNL     1       2.870   1.388   0.476  1.00  0.00     0.178 C 
BRANCH  12  13
ATOM     13  S   UNL     1       4.053   1.136   1.806  1.00  0.00    -0.078 SA
BRANCH  13  14
ATOM     14  C   UNL     1       3.041   0.527   3.076  1.00  0.00     0.170 A 
ATOM     15  N   UNL     1       3.006  -0.745   3.347  1.00  0.00    -0.204 NA
ATOM     16  N   UNL     1       2.386   1.519   3.773  1.00  0.00    -0.299 N 
ATOM     17  C   UNL     1       2.234  -1.008   4.428  1.00  0.00     0.165 A 
ATOM     18  C   UNL     1       1.576   1.278   4.871  1.00  0.00     0.279 A 
ATOM     19  H   UNL     1       2.500   2.451   3.475  1.00  0.00     0.172 HD
ATOM     20  N   UNL     1       2.042  -2.230   5.002  1.00  0.00    -0.329 N 
ATOM     21  C   UNL     1       1.520  -0.129   5.212  1.00  0.00     0.172 A 
ATOM     22  O   UNL     1       0.995   2.183   5.464  1.00  0.00    -0.267 OA
ATOM     23  C   UNL     1       1.227  -2.043   6.090  1.00  0.00     0.199 A 
ATOM     24  H   UNL     1       2.417  -3.086   4.693  1.00  0.00     0.169 HD
ATOM     25  N   UNL     1       0.882  -0.780   6.238  1.00  0.00    -0.229 NA
ENDBRANCH  13  14
ENDBRANCH  12  13
ENDBRANCH  10  12
ENDBRANCH   7   8
ENDBRANCH   6   7
ENDBRANCH   4   6
ENDBRANCH   3   4
ENDBRANCH   2   3
ENDBRANCH   1   2
BRANCH   1  26
ATOM     26  O   UNL     1       6.234  -4.753  -1.512  1.00  0.00    -0.374 OA
BRANCH  26  27
ATOM     27  C   UNL     1       5.051  -4.772  -0.720  1.00  0.00     0.202 C 
BRANCH  27  28
ATOM     28  C   UNL     1       5.173  -4.453   0.778  1.00  0.00     0.261 C 
BRANCH  28  29
ATOM     29  O   UNL     1       5.701  -3.144   1.050  1.00  0.00    -0.460 OA
BRANCH  29  30
ATOM     30  C   UNL     1       6.963  -3.145   1.555  1.00  0.00     0.338 C 
ATOM     31  O   UNL     1       7.653  -4.119   1.808  1.00  0.00    -0.246 OA
BRANCH  30  32
ATOM     32  C   UNL     1       7.491  -1.770   1.598  1.00  0.00     0.060 A 
ATOM     33  C   UNL     1       8.666  -1.488   0.890  1.00  0.00     0.016 A 
ATOM     34  C   UNL     1       6.898  -0.798   2.400  1.00  0.00     0.016 A 
ATOM     35  C   UNL     1       9.277  -0.241   1.018  1.00  0.00     0.010 A 
ATOM     36  C   UNL     1       7.505   0.457   2.514  1.00  0.00     0.010 A 
ATOM     37  C   UNL     1       8.721   0.729   1.862  1.00  0.00    -0.014 A 
BRANCH  37  38
ATOM     38  C   UNL     1       9.499   1.946   2.213  1.00  0.00     0.031 A 
ATOM     39  C   UNL     1      10.100   2.046   3.591  1.00  0.00     0.074 A 
ATOM     40  C   UNL     1       9.691   2.936   1.322  1.00  0.00     0.049 A 
ATOM     41  N   UNL     1      10.786   3.020   4.132  1.00  0.00    -0.248 NA
ATOM     42  C   UNL     1       9.886   0.896   4.485  1.00  0.00     0.031 C 
ATOM     43  C   UNL     1       9.189   2.949  -0.051  1.00  0.00     0.029 A 
ATOM     44  N   UNL     1      10.363   4.128   1.444  1.00  0.00    -0.354 N 
ATOM     45  C   UNL     1      11.065   2.610   5.431  1.00  0.00     0.074 A 
ATOM     46  C   UNL     1      10.435   1.321   5.612  1.00  0.00     0.031 C 
ATOM     47  C   UNL     1       9.580   4.088  -0.648  1.00  0.00     0.029 A 
ATOM     48  C   UNL     1      10.327   4.902   0.309  1.00  0.00     0.049 A 
ATOM     49  H   UNL     1      10.827   4.401   2.268  1.00  0.00     0.167 HD
ATOM     50  C   UNL     1      11.793   3.240   6.385  1.00  0.00     0.037 A 
ATOM     51  C   UNL     1      10.830   6.131   0.074  1.00  0.00     0.037 A 
ATOM     52  C   UNL     1      12.430   4.516   6.196  1.00  0.00     0.049 A 
ATOM     53  C   UNL     1      11.592   6.840   1.164  1.00  0.00     0.074 A 
ATOM     54  C   UNL     1      13.217   5.226   7.085  1.00  0.00     0.029 A 
ATOM     55  N   UNL     1      12.346   5.281   5.040  1.00  0.00    -0.354 N 
ATOM     56  N   UNL     1      11.871   6.428   2.378  1.00  0.00    -0.248 NA
ATOM     57  C   UNL     1      12.113   8.178   0.849  1.00  0.00     0.031 C 
ATOM     58  C   UNL     1      13.557   6.446   6.491  1.00  0.00     0.029 A 
ATOM     59  C   UNL     1      13.042   6.467   5.205  1.00  0.00     0.049 A 
ATOM     60  H   UNL     1      11.862   5.018   4.224  1.00  0.00     0.167 HD
ATOM     61  C   UNL     1      12.634   7.439   2.958  1.00  0.00     0.074 A 
ATOM     62  C   UNL     1      12.771   8.480   1.960  1.00  0.00     0.031 C 
ATOM     63  C   UNL     1      13.179   7.494   4.200  1.00  0.00     0.037 A 
BRANCH  50  64
ATOM     64  C   UNL     1      11.902   2.568   7.729  1.00  0.00     0.058 A 
ATOM     65  C   UNL     1      12.609   1.367   7.910  1.00  0.00     0.135 A 
ATOM     66  C   UNL     1      11.280   3.133   8.854  1.00  0.00     0.135 A 
ATOM     67  F   UNL     1      13.211   0.773   6.867  1.00  0.00    -0.206 F 
ATOM     68  C   UNL     1      12.651   0.725   9.143  1.00  0.00     0.059 A 
ATOM     69  C   UNL     1      11.339   2.527  10.106  1.00  0.00     0.059 A 
ATOM     70  F   UNL     1      10.593   4.280   8.743  1.00  0.00    -0.206 F 
ATOM     71  C   UNL     1      12.007   1.311  10.235  1.00  0.00     0.060 A 
BRANCH  71  72
ATOM     72  S   UNL     1      12.044   0.450  11.821  1.00  0.00     0.124 S 
ATOM     73  O   UNL     1      11.139  -0.666  11.566  1.00  0.00    -0.237 OA
ATOM     74  O   UNL     1      13.455   0.103  11.955  1.00  0.00    -0.237 OA
ATOM     75  O   UNL     1      11.556   1.452  12.763  1.00  0.00    -0.744 OA
ENDBRANCH  71  72
ENDBRANCH  50  64
BRANCH  51  76
ATOM     76  C   UNL     1      10.648   6.760  -1.263  1.00  0.00     0.058 A 
ATOM     77  C   UNL     1      11.735   6.933  -2.133  1.00  0.00     0.135 A 
ATOM     78  C   UNL     1       9.383   7.178  -1.707  1.00  0.00     0.135 A 
ATOM     79  F   UNL     1      12.966   6.562  -1.750  1.00  0.00    -0.206 F 
ATOM     80  C   UNL     1      11.576   7.497  -3.395  1.00  0.00     0.059 A 
ATOM     81  C   UNL     1       9.195   7.721  -2.974  1.00  0.00     0.059 A 
ATOM     82  F   UNL     1       8.309   7.027  -0.916  1.00  0.00    -0.206 F 
ATOM     83  C   UNL     1      10.300   7.878  -3.811  1.00  0.00     0.060 A 
BRANCH  83  84
ATOM     84  S   UNL     1      10.095   8.531  -5.482  1.00  0.00     0.124 S 
ATOM     85  O   UNL     1      10.743   9.832  -5.373  1.00  0.00    -0.237 OA
ATOM     86  O   UNL     1      10.794   7.532  -6.285  1.00  0.00    -0.237 OA
ATOM     87  O   UNL     1       8.645   8.559  -5.655  1.00  0.00    -0.744 OA
ENDBRANCH  83  84
ENDBRANCH  51  76
BRANCH  63  88
ATOM     88  C   UNL     1      14.024   8.694   4.540  1.00  0.00     0.058 A 
ATOM     89  C   UNL     1      13.470   9.968   4.738  1.00  0.00     0.135 A 
ATOM     90  C   UNL     1      15.410   8.549   4.725  1.00  0.00     0.135 A 
ATOM     91  F   UNL     1      12.152  10.165   4.571  1.00  0.00    -0.206 F 
ATOM     92  C   UNL     1      14.262  11.061   5.078  1.00  0.00     0.059 A 
ATOM     93  C   UNL     1      16.216   9.621   5.097  1.00  0.00     0.059 A 
ATOM     94  F   UNL     1      15.993   7.351   4.561  1.00  0.00    -0.206 F 
ATOM     95  C   UNL     1      15.634  10.877   5.258  1.00  0.00     0.060 A 
BRANCH  95  96
ATOM     96  S   UNL     1      16.646  12.297   5.725  1.00  0.00     0.124 S 
ATOM     97  O   UNL     1      16.670  13.062   4.482  1.00  0.00    -0.237 OA
ATOM     98  O   UNL     1      15.875  12.884   6.816  1.00  0.00    -0.237 OA
ATOM     99  O   UNL     1      17.918  11.696   6.116  1.00  0.00    -0.744 OA
ENDBRANCH  95  96
ENDBRANCH  63  88
ENDBRANCH  37  38
ENDBRANCH  30  32
ENDBRANCH  29  30
ENDBRANCH  28  29
ENDBRANCH  27  28
ENDBRANCH  26  27
ENDBRANCH   1  26
TORSDOF 22
