REMARK SMILES CC(C)[C@@H]1C(=O)Nc2ccccc2N1C(=O)N[C@H](Cc1ccccc1)C(=O)OCCOCCOC(=O)c1ccc(-c2c3nc(c(-c4c(F)cc(S(=O)(=O)[O-])cc4F)c4ccc([nH]4)c(-c4c(F)cc(S(=O)(=O)[O-])cc4F)c4nc(c(-c5c(F)cc(S(=O)(=O)[O-])cc5F)c5ccc2[nH]5)C=C4)C=C3)cc1
REMARK SMILES IDX 31 1 30 2 29 3 28 4 26 5 27 6 18 7 17 8 15 9 16 10 14 12
REMARK SMILES IDX 4 13 5 14 6 15 7 16 13 17 8 18 12 20 9 21 11 22 10 23 2 24
REMARK SMILES IDX 1 25 3 26 19 27 20 28 21 29 25 30 22 31 24 32 23 33 32 34
REMARK SMILES IDX 33 35 34 36 35 37 36 38 37 39 38 40 102 41 39 42 101 43
REMARK SMILES IDX 40 44 41 45 42 46 95 47 43 48 100 49 94 50 96 51 44 52 99 53
REMARK SMILES IDX 93 54 92 55 45 57 79 58 58 59 78 60 59 61 62 62 77 63 97 64
REMARK SMILES IDX 60 65 61 66 76 68 98 69 63 70 46 71 47 72 56 73 48 74 49 75
REMARK SMILES IDX 55 76 57 77 50 78 51 79 52 80 53 81 54 82 80 83 81 84 90 85
REMARK SMILES IDX 82 86 83 87 89 88 91 89 84 90 85 91 86 92 87 93 88 94 64 95
REMARK SMILES IDX 65 96 74 97 66 98 67 99 73 100 75 101 68 102 69 103 70 104
REMARK SMILES IDX 71 105 72 106
REMARK H PARENT 17 11 7 19 96 56 62 67
REMARK Flexibility Score: inf
ROOT
ATOM      1  O   UNL     1       0.591   1.940   3.591  1.00  0.00    -0.374 OA
ENDROOT
BRANCH   1   2
ATOM      2  C   UNL     1       1.762   1.205   3.220  1.00  0.00     0.202 C 
BRANCH   2   3
ATOM      3  C   UNL     1       1.500  -0.174   2.561  1.00  0.00     0.261 C 
BRANCH   3   4
ATOM      4  O   UNL     1       1.700  -0.169   1.117  1.00  0.00    -0.462 OA
BRANCH   4   5
ATOM      5  C   UNL     1       0.912  -0.920   0.308  1.00  0.00     0.329 C 
ATOM      6  O   UNL     1      -0.094  -1.489   0.725  1.00  0.00    -0.250 OA
BRANCH   5   7
ATOM      7  C   UNL     1       1.297  -0.927  -1.242  1.00  0.00     0.198 C 
BRANCH   7   8
ATOM      8  N   UNL     1       2.701  -1.117  -1.871  1.00  0.00    -0.324 N 
ATOM      9  C   UNL     1       3.875  -0.676  -2.373  1.00  0.00     0.323 C 
ATOM     10  O   UNL     1       4.464  -1.606  -2.949  1.00  0.00    -0.248 OA
ATOM     11  H   UNL     1       2.782  -2.095  -1.946  1.00  0.00     0.166 HD
BRANCH   9  12
ATOM     12  N   UNL     1       4.420   0.576  -2.332  1.00  0.00    -0.280 N 
ATOM     13  C   UNL     1       3.963   1.798  -1.666  1.00  0.00     0.184 C 
ATOM     14  C   UNL     1       3.670   2.852  -2.740  1.00  0.00     0.247 C 
ATOM     15  O   UNL     1       2.661   3.538  -2.833  1.00  0.00    -0.272 OA
ATOM     16  N   UNL     1       4.841   3.109  -3.458  1.00  0.00    -0.322 N 
ATOM     17  C   UNL     1       5.732   0.893  -2.873  1.00  0.00     0.070 A 
ATOM     18  C   UNL     1       5.950   2.233  -3.328  1.00  0.00     0.065 A 
ATOM     19  H   UNL     1       4.896   3.893  -4.051  1.00  0.00     0.170 HD
ATOM     20  C   UNL     1       6.825   0.053  -2.677  1.00  0.00     0.028 A 
ATOM     21  C   UNL     1       7.238   2.726  -3.512  1.00  0.00     0.028 A 
ATOM     22  C   UNL     1       8.117   0.571  -2.818  1.00  0.00     0.002 A 
ATOM     23  C   UNL     1       8.321   1.899  -3.209  1.00  0.00     0.002 A 
BRANCH  13  24
ATOM     24  C   UNL     1       3.233   1.532  -0.406  1.00  0.00     0.015 C 
ATOM     25  C   UNL     1       4.184   0.771   0.562  1.00  0.00     0.010 C 
ATOM     26  C   UNL     1       2.664   2.766   0.205  1.00  0.00     0.010 C 
ENDBRANCH  13  24
ENDBRANCH   9  12
ENDBRANCH   7   8
BRANCH   7  27
ATOM     27  C   UNL     1       0.426   0.098  -2.021  1.00  0.00     0.072 C 
BRANCH  27  28
ATOM     28  C   UNL     1      -1.058  -0.183  -2.232  1.00  0.00    -0.045 A 
ATOM     29  C   UNL     1      -1.916   0.914  -2.438  1.00  0.00     0.004 A 
ATOM     30  C   UNL     1      -1.610  -1.468  -2.336  1.00  0.00     0.004 A 
ATOM     31  C   UNL     1      -3.273   0.734  -2.726  1.00  0.00     0.000 A 
ATOM     32  C   UNL     1      -2.971  -1.648  -2.620  1.00  0.00     0.000 A 
ATOM     33  C   UNL     1      -3.801  -0.549  -2.819  1.00  0.00     0.000 A 
ENDBRANCH  27  28
ENDBRANCH   7  27
ENDBRANCH   5   7
ENDBRANCH   4   5
ENDBRANCH   3   4
ENDBRANCH   2   3
ENDBRANCH   1   2
BRANCH   1  34
ATOM     34  C   UNL     1      -0.234   2.407   2.525  1.00  0.00     0.202 C 
BRANCH  34  35
ATOM     35  C   UNL     1      -0.233   3.943   2.355  1.00  0.00     0.261 C 
BRANCH  35  36
ATOM     36  O   UNL     1       0.917   4.481   1.657  1.00  0.00    -0.460 OA
BRANCH  36  37
ATOM     37  C   UNL     1       1.856   5.114   2.408  1.00  0.00     0.338 C 
ATOM     38  O   UNL     1       1.835   5.224   3.622  1.00  0.00    -0.246 OA
BRANCH  37  39
ATOM     39  C   UNL     1       3.006   5.616   1.584  1.00  0.00     0.060 A 
ATOM     40  C   UNL     1       4.266   5.666   2.198  1.00  0.00     0.016 A 
ATOM     41  C   UNL     1       2.898   6.008   0.242  1.00  0.00     0.016 A 
ATOM     42  C   UNL     1       5.383   6.170   1.516  1.00  0.00     0.010 A 
ATOM     43  C   UNL     1       4.028   6.488  -0.452  1.00  0.00     0.010 A 
ATOM     44  C   UNL     1       5.269   6.630   0.198  1.00  0.00    -0.014 A 
BRANCH  44  45
ATOM     45  C   UNL     1       6.371   7.448  -0.399  1.00  0.00     0.031 A 
ATOM     46  C   UNL     1       6.193   8.948  -0.484  1.00  0.00     0.074 A 
ATOM     47  C   UNL     1       7.549   6.918  -0.788  1.00  0.00     0.049 A 
ATOM     48  N   UNL     1       7.022   9.863  -0.923  1.00  0.00    -0.248 NA
ATOM     49  C   UNL     1       4.912   9.486   0.001  1.00  0.00     0.031 C 
ATOM     50  C   UNL     1       7.914   5.505  -0.720  1.00  0.00     0.029 A 
ATOM     51  N   UNL     1       8.666   7.525  -1.321  1.00  0.00    -0.354 N 
ATOM     52  C   UNL     1       6.374  11.080  -0.744  1.00  0.00     0.074 A 
ATOM     53  C   UNL     1       5.057  10.783  -0.223  1.00  0.00     0.031 C 
ATOM     54  C   UNL     1       9.159   5.351  -1.210  1.00  0.00     0.029 A 
ATOM     55  C   UNL     1       9.674   6.649  -1.651  1.00  0.00     0.049 A 
ATOM     56  H   UNL     1       8.736   8.498  -1.455  1.00  0.00     0.167 HD
ATOM     57  C   UNL     1       6.832  12.338  -0.953  1.00  0.00     0.037 A 
ATOM     58  C   UNL     1      10.865   6.858  -2.251  1.00  0.00     0.037 A 
ATOM     59  C   UNL     1       8.137  12.665  -1.462  1.00  0.00     0.049 A 
ATOM     60  C   UNL     1      11.309   8.256  -2.605  1.00  0.00     0.074 A 
ATOM     61  C   UNL     1       8.687  13.918  -1.673  1.00  0.00     0.029 A 
ATOM     62  N   UNL     1       9.092  11.740  -1.846  1.00  0.00    -0.354 N 
ATOM     63  N   UNL     1      10.695   9.395  -2.393  1.00  0.00    -0.248 NA
ATOM     64  C   UNL     1      12.618   8.400  -3.265  1.00  0.00     0.031 C 
ATOM     65  C   UNL     1       9.961  13.751  -2.227  1.00  0.00     0.029 A 
ATOM     66  C   UNL     1      10.220  12.393  -2.318  1.00  0.00     0.049 A 
ATOM     67  H   UNL     1       8.987  10.763  -1.793  1.00  0.00     0.167 HD
ATOM     68  C   UNL     1      11.564  10.388  -2.841  1.00  0.00     0.074 A 
ATOM     69  C   UNL     1      12.738   9.718  -3.355  1.00  0.00     0.031 C 
ATOM     70  C   UNL     1      11.404  11.734  -2.808  1.00  0.00     0.037 A 
BRANCH  57  71
ATOM     71  C   UNL     1       5.901  13.470  -0.620  1.00  0.00     0.058 A 
ATOM     72  C   UNL     1       5.614  13.812   0.712  1.00  0.00     0.135 A 
ATOM     73  C   UNL     1       5.309  14.233  -1.637  1.00  0.00     0.135 A 
ATOM     74  F   UNL     1       6.143  13.103   1.721  1.00  0.00    -0.206 F 
ATOM     75  C   UNL     1       4.744  14.851   1.022  1.00  0.00     0.059 A 
ATOM     76  C   UNL     1       4.455  15.294  -1.349  1.00  0.00     0.059 A 
ATOM     77  F   UNL     1       5.553  13.947  -2.926  1.00  0.00    -0.206 F 
ATOM     78  C   UNL     1       4.166  15.584  -0.016  1.00  0.00     0.060 A 
BRANCH  78  79
ATOM     79  S   UNL     1       3.030  16.922   0.402  1.00  0.00     0.124 S 
ATOM     80  O   UNL     1       1.839  16.178   0.799  1.00  0.00    -0.237 OA
ATOM     81  O   UNL     1       3.737  17.610   1.478  1.00  0.00    -0.237 OA
ATOM     82  O   UNL     1       2.915  17.671  -0.846  1.00  0.00    -0.744 OA
ENDBRANCH  78  79
ENDBRANCH  57  71
BRANCH  58  83
ATOM     83  C   UNL     1      11.734   5.698  -2.591  1.00  0.00     0.058 A 
ATOM     84  C   UNL     1      12.943   5.462  -1.920  1.00  0.00     0.135 A 
ATOM     85  C   UNL     1      11.374   4.816  -3.622  1.00  0.00     0.135 A 
ATOM     86  F   UNL     1      13.340   6.289  -0.942  1.00  0.00    -0.206 F 
ATOM     87  C   UNL     1      13.769   4.396  -2.264  1.00  0.00     0.059 A 
ATOM     88  C   UNL     1      12.173   3.733  -3.970  1.00  0.00     0.059 A 
ATOM     89  F   UNL     1      10.221   4.993  -4.287  1.00  0.00    -0.206 F 
ATOM     90  C   UNL     1      13.372   3.534  -3.289  1.00  0.00     0.060 A 
BRANCH  90  91
ATOM     91  S   UNL     1      14.421   2.120  -3.689  1.00  0.00     0.124 S 
ATOM     92  O   UNL     1      15.548   2.767  -4.350  1.00  0.00    -0.237 OA
ATOM     93  O   UNL     1      14.688   1.558  -2.369  1.00  0.00    -0.237 OA
ATOM     94  O   UNL     1      13.566   1.305  -4.547  1.00  0.00    -0.744 OA
ENDBRANCH  90  91
ENDBRANCH  58  83
BRANCH  70  95
ATOM     95  C   UNL     1      12.547  12.596  -3.271  1.00  0.00     0.058 A 
ATOM     96  C   UNL     1      12.862  12.751  -4.629  1.00  0.00     0.135 A 
ATOM     97  C   UNL     1      13.297  13.334  -2.339  1.00  0.00     0.135 A 
ATOM     98  F   UNL     1      12.182  12.066  -5.562  1.00  0.00    -0.206 F 
ATOM     99  C   UNL     1      13.889  13.595  -5.047  1.00  0.00     0.059 A 
ATOM    100  C   UNL     1      14.312  14.200  -2.734  1.00  0.00     0.059 A 
ATOM    101  F   UNL     1      13.031  13.232  -1.026  1.00  0.00    -0.206 F 
ATOM    102  C   UNL     1      14.607  14.318  -4.091  1.00  0.00     0.060 A 
BRANCH 102 103
ATOM    103  S   UNL     1      15.907  15.443  -4.646  1.00  0.00     0.124 S 
ATOM    104  O   UNL     1      16.976  14.510  -4.988  1.00  0.00    -0.237 OA
ATOM    105  O   UNL     1      15.275  16.123  -5.772  1.00  0.00    -0.237 OA
ATOM    106  O   UNL     1      16.154  16.279  -3.475  1.00  0.00    -0.744 OA
ENDBRANCH 102 103
ENDBRANCH  70  95
ENDBRANCH  44  45
ENDBRANCH  37  39
ENDBRANCH  36  37
ENDBRANCH  35  36
ENDBRANCH  34  35
ENDBRANCH   1  34
TORSDOF 22
