REMARK SMILES O=C(Nc1ccc(/C=C/C(=O)OCCOCCOC(=O)c2ccc(-c3c4nc(c(-c5c(F)cc(S(=O)(=O)[O-])cc5F)c5ccc([nH]5)c(-c5c(F)cc(S(=O)(=O)[O-])cc5F)c5nc(c(-c6c(F)cc(S(=O)(=O)[O-])cc6F)c6ccc3[nH]6)C=C5)C=C4)cc2)cc1F)NC1CCCC1
REMARK SMILES IDX 15 1 14 2 13 3 12 4 10 5 11 6 9 7 8 8 7 9 4 10 5 11 88 12
REMARK SMILES IDX 6 13 87 14 89 15 3 16 1 17 2 18 90 19 91 22 92 23 95 24
REMARK SMILES IDX 93 25 94 26 16 27 17 28 18 29 19 30 20 31 21 32 22 33 86 34
REMARK SMILES IDX 23 35 85 36 24 37 25 38 26 39 79 40 27 41 84 42 78 43 80 44
REMARK SMILES IDX 28 45 83 46 77 47 76 48 29 50 63 51 42 52 62 53 43 54 46 55
REMARK SMILES IDX 61 56 81 57 44 58 45 59 60 61 82 62 47 63 30 64 31 65 40 66
REMARK SMILES IDX 32 67 33 68 39 69 41 70 34 71 35 72 36 73 37 74 38 75 64 76
REMARK SMILES IDX 65 77 74 78 66 79 67 80 73 81 75 82 68 83 69 84 70 85 71 86
REMARK SMILES IDX 72 87 48 88 49 89 58 90 50 91 51 92 57 93 59 94 52 95 53 96
REMARK SMILES IDX 54 97 55 98 56 99
REMARK H PARENT 3 20 90 21 80 49 46 60
REMARK Flexibility Score: inf
ROOT
ATOM      1  O   UNL     1      13.117   1.604   3.073  1.00  0.00    -0.374 OA
ENDROOT
BRANCH   1   2
ATOM      2  C   UNL     1      13.575   1.077   1.827  1.00  0.00     0.202 C 
BRANCH   2   3
ATOM      3  C   UNL     1      12.964  -0.263   1.413  1.00  0.00     0.261 C 
BRANCH   3   4
ATOM      4  O   UNL     1      11.547  -0.138   1.211  1.00  0.00    -0.460 OA
BRANCH   4   5
ATOM      5  C   UNL     1      10.774  -0.800   2.101  1.00  0.00     0.330 C 
ATOM      6  O   UNL     1      11.151  -1.569   2.973  1.00  0.00    -0.247 OA
BRANCH   5   7
ATOM      7  C   UNL     1       9.347  -0.446   1.969  1.00  0.00     0.094 C 
ATOM      8  C   UNL     1       8.821   0.425   1.092  1.00  0.00     0.016 C 
BRANCH   8   9
ATOM      9  C   UNL     1       7.373   0.664   1.035  1.00  0.00    -0.022 A 
ATOM     10  C   UNL     1       4.562   0.757   0.856  1.00  0.00     0.078 A 
ATOM     11  C   UNL     1       5.186   0.818   2.103  1.00  0.00     0.030 A 
ATOM     12  C   UNL     1       5.365   0.812  -0.289  1.00  0.00     0.147 A 
ATOM     13  C   UNL     1       6.582   0.758   2.190  1.00  0.00     0.010 A 
ATOM     14  C   UNL     1       6.754   0.767  -0.210  1.00  0.00     0.049 A 
ATOM     15  F   UNL     1       4.813   0.883  -1.509  1.00  0.00    -0.205 F 
BRANCH  10  16
ATOM     16  N   UNL     1       3.160   0.612   0.839  1.00  0.00    -0.305 N 
ATOM     17  O   UNL     1       1.126   0.049   0.079  1.00  0.00    -0.248 OA
ATOM     18  C   UNL     1       2.345  -0.035  -0.051  1.00  0.00     0.319 C 
ATOM     19  N   UNL     1       2.947  -0.853  -0.952  1.00  0.00    -0.335 N 
ATOM     20  H   UNL     1       2.691   1.048   1.587  1.00  0.00     0.171 HD
ATOM     21  H   UNL     1       3.931  -0.888  -0.943  1.00  0.00     0.165 HD
BRANCH  19  22
ATOM     22  C   UNL     1       2.266  -1.676  -1.922  1.00  0.00     0.083 C 
ATOM     23  C   UNL     1       2.708  -1.337  -3.341  1.00  0.00     0.025 C 
ATOM     24  C   UNL     1       2.670  -3.143  -1.788  1.00  0.00     0.025 C 
ATOM     25  C   UNL     1       2.341  -2.575  -4.143  1.00  0.00     0.002 C 
ATOM     26  C   UNL     1       2.449  -3.748  -3.171  1.00  0.00     0.002 C 
ENDBRANCH  19  22
ENDBRANCH  10  16
ENDBRANCH   8   9
ENDBRANCH   5   7
ENDBRANCH   4   5
ENDBRANCH   3   4
ENDBRANCH   2   3
ENDBRANCH   1   2
BRANCH   1  27
ATOM     27  C   UNL     1      11.885   2.328   3.051  1.00  0.00     0.202 C 
BRANCH  27  28
ATOM     28  C   UNL     1      11.963   3.777   2.557  1.00  0.00     0.261 C 
BRANCH  28  29
ATOM     29  O   UNL     1      12.240   3.850   1.146  1.00  0.00    -0.460 OA
BRANCH  29  30
ATOM     30  C   UNL     1      13.473   4.315   0.830  1.00  0.00     0.338 C 
ATOM     31  O   UNL     1      14.320   4.739   1.604  1.00  0.00    -0.246 OA
BRANCH  30  32
ATOM     32  C   UNL     1      13.752   4.076  -0.598  1.00  0.00     0.060 A 
ATOM     33  C   UNL     1      14.951   3.429  -0.924  1.00  0.00     0.016 A 
ATOM     34  C   UNL     1      12.893   4.526  -1.604  1.00  0.00     0.016 A 
ATOM     35  C   UNL     1      15.319   3.272  -2.259  1.00  0.00     0.010 A 
ATOM     36  C   UNL     1      13.269   4.373  -2.943  1.00  0.00     0.010 A 
ATOM     37  C   UNL     1      14.498   3.775  -3.276  1.00  0.00    -0.014 A 
BRANCH  37  38
ATOM     38  C   UNL     1      14.986   3.789  -4.676  1.00  0.00     0.031 A 
ATOM     39  C   UNL     1      15.551   5.063  -5.242  1.00  0.00     0.074 A 
ATOM     40  C   UNL     1      14.951   2.673  -5.427  1.00  0.00     0.049 A 
ATOM     41  N   UNL     1      15.994   5.309  -6.447  1.00  0.00    -0.248 NA
ATOM     42  C   UNL     1      15.627   6.214  -4.326  1.00  0.00     0.031 C 
ATOM     43  C   UNL     1      14.466   1.369  -4.976  1.00  0.00     0.029 A 
ATOM     44  N   UNL     1      15.328   2.460  -6.729  1.00  0.00    -0.354 N 
ATOM     45  C   UNL     1      16.396   6.639  -6.439  1.00  0.00     0.074 A 
ATOM     46  C   UNL     1      16.119   7.157  -5.117  1.00  0.00     0.031 C 
ATOM     47  C   UNL     1      14.568   0.493  -5.989  1.00  0.00     0.029 A 
ATOM     48  C   UNL     1      15.094   1.179  -7.169  1.00  0.00     0.049 A 
ATOM     49  H   UNL     1      15.728   3.159  -7.296  1.00  0.00     0.167 HD
ATOM     50  C   UNL     1      16.954   7.359  -7.440  1.00  0.00     0.037 A 
ATOM     51  C   UNL     1      15.264   0.628  -8.388  1.00  0.00     0.037 A 
ATOM     52  C   UNL     1      17.234   6.835  -8.752  1.00  0.00     0.049 A 
ATOM     53  C   UNL     1      15.824   1.466  -9.507  1.00  0.00     0.074 A 
ATOM     54  C   UNL     1      17.818   7.482  -9.827  1.00  0.00     0.029 A 
ATOM     55  N   UNL     1      16.946   5.544  -9.169  1.00  0.00    -0.354 N 
ATOM     56  N   UNL     1      16.210   2.719  -9.482  1.00  0.00    -0.248 NA
ATOM     57  C   UNL     1      15.969   0.819 -10.819  1.00  0.00     0.031 C 
ATOM     58  C   UNL     1      17.840   6.597 -10.909  1.00  0.00     0.029 A 
ATOM     59  C   UNL     1      17.316   5.382 -10.494  1.00  0.00     0.049 A 
ATOM     60  H   UNL     1      16.539   4.846  -8.607  1.00  0.00     0.167 HD
ATOM     61  C   UNL     1      16.662   3.005 -10.766  1.00  0.00     0.074 A 
ATOM     62  C   UNL     1      16.510   1.791 -11.542  1.00  0.00     0.031 C 
ATOM     63  C   UNL     1      17.159   4.168 -11.256  1.00  0.00     0.037 A 
BRANCH  50  64
ATOM     64  C   UNL     1      17.288   8.799  -7.168  1.00  0.00     0.058 A 
ATOM     65  C   UNL     1      16.546   9.826  -7.772  1.00  0.00     0.135 A 
ATOM     66  C   UNL     1      18.375   9.163  -6.359  1.00  0.00     0.135 A 
ATOM     67  F   UNL     1      15.491   9.533  -8.547  1.00  0.00    -0.206 F 
ATOM     68  C   UNL     1      16.880  11.165  -7.595  1.00  0.00     0.059 A 
ATOM     69  C   UNL     1      18.713  10.497  -6.149  1.00  0.00     0.059 A 
ATOM     70  F   UNL     1      19.102   8.219  -5.740  1.00  0.00    -0.206 F 
ATOM     71  C   UNL     1      17.968  11.490  -6.784  1.00  0.00     0.060 A 
BRANCH  71  72
ATOM     72  S   UNL     1      18.368  13.234  -6.540  1.00  0.00     0.124 S 
ATOM     73  O   UNL     1      18.897  13.606  -7.847  1.00  0.00    -0.237 OA
ATOM     74  O   UNL     1      17.068  13.801  -6.192  1.00  0.00    -0.237 OA
ATOM     75  O   UNL     1      19.340  13.208  -5.450  1.00  0.00    -0.744 OA
ENDBRANCH  71  72
ENDBRANCH  50  64
BRANCH  51  76
ATOM     76  C   UNL     1      14.892  -0.794  -8.606  1.00  0.00     0.058 A 
ATOM     77  C   UNL     1      13.549  -1.202  -8.595  1.00  0.00     0.135 A 
ATOM     78  C   UNL     1      15.873  -1.780  -8.786  1.00  0.00     0.135 A 
ATOM     79  F   UNL     1      12.572  -0.298  -8.422  1.00  0.00    -0.206 F 
ATOM     80  C   UNL     1      13.193  -2.540  -8.719  1.00  0.00     0.059 A 
ATOM     81  C   UNL     1      15.541  -3.123  -8.936  1.00  0.00     0.059 A 
ATOM     82  F   UNL     1      17.170  -1.435  -8.822  1.00  0.00    -0.206 F 
ATOM     83  C   UNL     1      14.198  -3.495  -8.879  1.00  0.00     0.060 A 
BRANCH  83  84
ATOM     84  S   UNL     1      13.716  -5.231  -8.996  1.00  0.00     0.124 S 
ATOM     85  O   UNL     1      13.252  -5.495  -7.638  1.00  0.00    -0.237 OA
ATOM     86  O   UNL     1      12.682  -5.193 -10.025  1.00  0.00    -0.237 OA
ATOM     87  O   UNL     1      14.955  -5.901  -9.379  1.00  0.00    -0.744 OA
ENDBRANCH  83  84
ENDBRANCH  51  76
BRANCH  63  88
ATOM     88  C   UNL     1      17.595   4.197 -12.695  1.00  0.00     0.058 A 
ATOM     89  C   UNL     1      18.957   4.282 -13.025  1.00  0.00     0.135 A 
ATOM     90  C   UNL     1      16.662   4.238 -13.743  1.00  0.00     0.135 A 
ATOM     91  F   UNL     1      19.890   4.252 -12.060  1.00  0.00    -0.206 F 
ATOM     92  C   UNL     1      19.379   4.431 -14.341  1.00  0.00     0.059 A 
ATOM     93  C   UNL     1      17.063   4.362 -15.071  1.00  0.00     0.059 A 
ATOM     94  F   UNL     1      15.349   4.149 -13.482  1.00  0.00    -0.206 F 
ATOM     95  C   UNL     1      18.424   4.477 -15.358  1.00  0.00     0.060 A 
BRANCH  95  96
ATOM     96  S   UNL     1      18.989   4.675 -17.061  1.00  0.00     0.124 S 
ATOM     97  O   UNL     1      19.443   6.061 -17.067  1.00  0.00    -0.237 OA
ATOM     98  O   UNL     1      20.036   3.663 -17.159  1.00  0.00    -0.237 OA
ATOM     99  O   UNL     1      17.790   4.403 -17.850  1.00  0.00    -0.744 OA
ENDBRANCH  95  96
ENDBRANCH  63  88
ENDBRANCH  37  38
ENDBRANCH  30  32
ENDBRANCH  29  30
ENDBRANCH  28  29
ENDBRANCH  27  28
ENDBRANCH   1  27
TORSDOF 20
