REMARK SMILES O=C(OCCOCCOC(=O)[C@@H]1CCCN(C(=O)/C=C/c2c(F)cccc2Cl)C1)c1ccc(-c2c3nc(c(-c4c(F)cc(S(=O)(=O)[O-])cc4F)c4ccc([nH]4)c(-c4c(F)cc(S(=O)(=O)[O-])cc4F)c4nc(c(-c5c(F)cc(S(=O)(=O)[O-])cc5F)c5ccc2[nH]5)C=C4)C=C3)cc1
REMARK SMILES IDX 6 1 5 2 4 3 3 4 2 5 1 6 30 7 31 8 95 9 32 10 94 11 33 12
REMARK SMILES IDX 34 13 35 14 88 15 36 16 93 17 87 18 89 19 37 20 92 21 86 22
REMARK SMILES IDX 85 23 38 25 72 26 51 27 71 28 52 29 55 30 70 31 90 32 53 33
REMARK SMILES IDX 54 34 69 36 91 37 56 38 39 39 40 40 49 41 41 42 42 43 48 44
REMARK SMILES IDX 50 45 43 46 44 47 45 48 46 49 47 50 73 51 74 52 83 53 75 54
REMARK SMILES IDX 76 55 82 56 84 57 77 58 78 59 79 60 80 61 81 62 57 63 58 64
REMARK SMILES IDX 67 65 59 66 60 67 66 68 68 69 61 70 62 71 63 72 64 73 65 74
REMARK SMILES IDX 7 75 8 76 9 77 10 78 11 79 12 80 13 81 29 82 14 83 16 84
REMARK SMILES IDX 15 85 17 86 18 87 19 88 20 89 21 90 22 91 27 92 23 93 24 94
REMARK SMILES IDX 26 95 28 96 25 97
REMARK H PARENT 89 24 55 35
REMARK Flexibility Score: inf
ROOT
ATOM      1  O   UNL     1       4.235  -1.615  -0.122  1.00  0.00    -0.374 OA
ENDROOT
BRANCH   1   2
ATOM      2  C   UNL     1       4.660  -0.718   0.905  1.00  0.00     0.202 C 
BRANCH   2   3
ATOM      3  C   UNL     1       4.280   0.768   0.785  1.00  0.00     0.261 C 
BRANCH   3   4
ATOM      4  O   UNL     1       2.855   0.941   0.627  1.00  0.00    -0.460 OA
BRANCH   4   5
ATOM      5  C   UNL     1       2.169   1.198  -0.512  1.00  0.00     0.338 C 
ATOM      6  O   UNL     1       0.957   1.390  -0.472  1.00  0.00    -0.246 OA
BRANCH   5   7
ATOM      7  C   UNL     1       2.856   1.254  -1.828  1.00  0.00     0.060 A 
ATOM      8  C   UNL     1       3.993   0.509  -2.102  1.00  0.00     0.016 A 
ATOM      9  C   UNL     1       2.319   2.035  -2.856  1.00  0.00     0.016 A 
ATOM     10  C   UNL     1       4.657   0.571  -3.289  1.00  0.00     0.010 A 
ATOM     11  C   UNL     1       2.944   2.062  -4.108  1.00  0.00     0.010 A 
ATOM     12  C   UNL     1       4.116   1.323  -4.309  1.00  0.00    -0.014 A 
BRANCH  12  13
ATOM     13  C   UNL     1       4.944   1.368  -5.508  1.00  0.00     0.031 A 
ATOM     14  C   UNL     1       5.772   2.586  -5.715  1.00  0.00     0.074 A 
ATOM     15  C   UNL     1       5.118   0.226  -6.199  1.00  0.00     0.049 A 
ATOM     16  N   UNL     1       6.540   2.891  -6.717  1.00  0.00    -0.248 NA
ATOM     17  C   UNL     1       5.747   3.593  -4.636  1.00  0.00     0.031 C 
ATOM     18  C   UNL     1       4.498  -1.067  -5.867  1.00  0.00     0.029 A 
ATOM     19  N   UNL     1       5.901  -0.053  -7.278  1.00  0.00    -0.354 N 
ATOM     20  C   UNL     1       7.034   4.154  -6.428  1.00  0.00     0.074 A 
ATOM     21  C   UNL     1       6.508   4.549  -5.143  1.00  0.00     0.031 C 
ATOM     22  C   UNL     1       4.935  -1.999  -6.726  1.00  0.00     0.029 A 
ATOM     23  C   UNL     1       5.768  -1.346  -7.723  1.00  0.00     0.049 A 
ATOM     24  H   UNL     1       6.502   0.605  -7.697  1.00  0.00     0.167 HD
ATOM     25  C   UNL     1       7.834   4.909  -7.210  1.00  0.00     0.037 A 
ATOM     26  C   UNL     1       6.213  -1.901  -8.863  1.00  0.00     0.037 A 
ATOM     27  C   UNL     1       8.318   4.435  -8.477  1.00  0.00     0.049 A 
ATOM     28  C   UNL     1       7.002  -1.006  -9.775  1.00  0.00     0.074 A 
ATOM     29  C   UNL     1       9.061   5.102  -9.428  1.00  0.00     0.029 A 
ATOM     30  N   UNL     1       8.092   3.149  -8.965  1.00  0.00    -0.354 N 
ATOM     31  N   UNL     1       7.371   0.242  -9.580  1.00  0.00    -0.248 NA
ATOM     32  C   UNL     1       7.417  -1.567 -11.062  1.00  0.00     0.031 C 
ATOM     33  C   UNL     1       9.235   4.237 -10.515  1.00  0.00     0.029 A 
ATOM     34  C   UNL     1       8.660   3.007 -10.215  1.00  0.00     0.049 A 
ATOM     35  H   UNL     1       7.599   2.443  -8.487  1.00  0.00     0.167 HD
ATOM     36  C   UNL     1       8.072   0.617 -10.714  1.00  0.00     0.074 A 
ATOM     37  C   UNL     1       8.091  -0.549 -11.582  1.00  0.00     0.031 C 
ATOM     38  C   UNL     1       8.645   1.808 -11.022  1.00  0.00     0.037 A 
BRANCH  25  39
ATOM     39  C   UNL     1       8.090   6.317  -6.762  1.00  0.00     0.058 A 
ATOM     40  C   UNL     1       8.884   6.627  -5.646  1.00  0.00     0.135 A 
ATOM     41  C   UNL     1       7.453   7.380  -7.424  1.00  0.00     0.135 A 
ATOM     42  F   UNL     1       9.479   5.647  -4.947  1.00  0.00    -0.206 F 
ATOM     43  C   UNL     1       9.012   7.934  -5.184  1.00  0.00     0.059 A 
ATOM     44  C   UNL     1       7.589   8.697  -6.997  1.00  0.00     0.059 A 
ATOM     45  F   UNL     1       6.660   7.141  -8.480  1.00  0.00    -0.206 F 
ATOM     46  C   UNL     1       8.357   8.962  -5.865  1.00  0.00     0.060 A 
BRANCH  46  47
ATOM     47  S   UNL     1       8.514  10.650  -5.245  1.00  0.00     0.124 S 
ATOM     48  O   UNL     1       7.700  10.594  -4.034  1.00  0.00    -0.237 OA
ATOM     49  O   UNL     1       9.953  10.772  -5.035  1.00  0.00    -0.237 OA
ATOM     50  O   UNL     1       7.970  11.463  -6.328  1.00  0.00    -0.744 OA
ENDBRANCH  46  47
ENDBRANCH  25  39
BRANCH  26  51
ATOM     51  C   UNL     1       5.827  -3.293  -9.222  1.00  0.00     0.058 A 
ATOM     52  C   UNL     1       6.779  -4.312  -9.348  1.00  0.00     0.135 A 
ATOM     53  C   UNL     1       4.478  -3.639  -9.421  1.00  0.00     0.135 A 
ATOM     54  F   UNL     1       8.081  -4.040  -9.172  1.00  0.00    -0.206 F 
ATOM     55  C   UNL     1       6.413  -5.619  -9.668  1.00  0.00     0.059 A 
ATOM     56  C   UNL     1       4.084  -4.942  -9.709  1.00  0.00     0.059 A 
ATOM     57  F   UNL     1       3.517  -2.708  -9.302  1.00  0.00    -0.206 F 
ATOM     58  C   UNL     1       5.061  -5.924  -9.844  1.00  0.00     0.060 A 
BRANCH  58  59
ATOM     59  S   UNL     1       4.594  -7.626 -10.227  1.00  0.00     0.124 S 
ATOM     60  O   UNL     1       5.077  -7.762 -11.597  1.00  0.00    -0.237 OA
ATOM     61  O   UNL     1       5.325  -8.380  -9.214  1.00  0.00    -0.237 OA
ATOM     62  O   UNL     1       3.143  -7.622 -10.069  1.00  0.00    -0.744 OA
ENDBRANCH  58  59
ENDBRANCH  26  51
BRANCH  38  63
ATOM     63  C   UNL     1       9.368   1.880 -12.331  1.00  0.00     0.058 A 
ATOM     64  C   UNL     1       8.679   1.938 -13.550  1.00  0.00     0.135 A 
ATOM     65  C   UNL     1      10.769   1.969 -12.350  1.00  0.00     0.135 A 
ATOM     66  F   UNL     1       7.340   1.846 -13.577  1.00  0.00    -0.206 F 
ATOM     67  C   UNL     1       9.358   2.069 -14.753  1.00  0.00     0.059 A 
ATOM     68  C   UNL     1      11.466   2.134 -13.538  1.00  0.00     0.059 A 
ATOM     69  F   UNL     1      11.466   1.928 -11.204  1.00  0.00    -0.206 F 
ATOM     70  C   UNL     1      10.751   2.174 -14.735  1.00  0.00     0.060 A 
BRANCH  70  71
ATOM     71  S   UNL     1      11.617   2.402 -16.299  1.00  0.00     0.124 S 
ATOM     72  O   UNL     1      11.504   1.074 -16.892  1.00  0.00    -0.237 OA
ATOM     73  O   UNL     1      10.831   3.453 -16.939  1.00  0.00    -0.237 OA
ATOM     74  O   UNL     1      12.961   2.795 -15.889  1.00  0.00    -0.744 OA
ENDBRANCH  70  71
ENDBRANCH  38  63
ENDBRANCH  12  13
ENDBRANCH   5   7
ENDBRANCH   4   5
ENDBRANCH   3   4
ENDBRANCH   2   3
ENDBRANCH   1   2
BRANCH   1  75
ATOM     75  C   UNL     1       2.868  -2.029  -0.065  1.00  0.00     0.202 C 
BRANCH  75  76
ATOM     76  C   UNL     1       2.810  -3.519   0.235  1.00  0.00     0.261 C 
BRANCH  76  77
ATOM     77  O   UNL     1       3.197  -3.705   1.607  1.00  0.00    -0.463 OA
BRANCH  77  78
ATOM     78  C   UNL     1       4.525  -3.832   1.857  1.00  0.00     0.310 C 
ATOM     79  O   UNL     1       5.394  -4.033   1.012  1.00  0.00    -0.252 OA
BRANCH  78  80
ATOM     80  C   UNL     1       4.830  -3.747   3.340  1.00  0.00     0.119 C 
ATOM     81  C   UNL     1       4.193  -4.925   4.077  1.00  0.00     0.019 C 
ATOM     82  C   UNL     1       4.469  -2.416   4.011  1.00  0.00     0.135 C 
ATOM     83  C   UNL     1       2.708  -4.703   4.386  1.00  0.00     0.022 C 
ATOM     84  N   UNL     1       3.025  -2.263   4.218  1.00  0.00    -0.338 N 
ATOM     85  C   UNL     1       2.446  -3.337   5.014  1.00  0.00     0.120 C 
BRANCH  84  86
ATOM     86  C   UNL     1       2.402  -1.069   3.881  1.00  0.00     0.246 C 
ATOM     87  O   UNL     1       3.042  -0.060   3.581  1.00  0.00    -0.270 OA
BRANCH  86  88
ATOM     88  C   UNL     1       0.917  -0.932   3.949  1.00  0.00     0.072 C 
ATOM     89  C   UNL     1       0.018  -1.864   3.594  1.00  0.00     0.018 C 
BRANCH  89  90
ATOM     90  C   UNL     1      -1.433  -1.689   3.783  1.00  0.00     0.029 A 
ATOM     91  C   UNL     1      -2.235  -1.246   2.724  1.00  0.00     0.131 A 
ATOM     92  C   UNL     1      -2.075  -2.005   4.995  1.00  0.00     0.051 A 
ATOM     93  F   UNL     1      -1.681  -0.935   1.543  1.00  0.00    -0.206 F 
ATOM     94  C   UNL     1      -3.623  -1.137   2.849  1.00  0.00     0.040 A 
ATOM     95  C   UNL     1      -3.468  -1.905   5.123  1.00  0.00     0.021 A 
ATOM     96  Cl  UNL     1      -1.201  -2.556   6.384  1.00  0.00    -0.084 Cl
ATOM     97  C   UNL     1      -4.244  -1.476   4.048  1.00  0.00     0.005 A 
ENDBRANCH  89  90
ENDBRANCH  86  88
ENDBRANCH  84  86
ENDBRANCH  78  80
ENDBRANCH  77  78
ENDBRANCH  76  77
ENDBRANCH  75  76
ENDBRANCH   1  75
TORSDOF 20
