REMARK SMILES Cc1ccc(-c2nn(CCC(=O)OCCOCCOC(=O)c3ccc(-c4c5nc(c(-c6c(F)cc(S(=O)(=O)[O-])cc6F)c6ccc([nH]6)c(-c6c(F)cc(S(=O)(=O)[O-])cc6F)c6nc(c(-c7c(F)cc(S(=O)(=O)[O-])cc7F)c7ccc4[nH]7)C=C6)C=C5)cc3)c(=O)c3noc(C)c23)cc1C
REMARK SMILES IDX 16 1 15 2 14 3 13 4 11 5 12 6 10 7 9 8 8 9 6 10 7 11 95 12
REMARK SMILES IDX 90 13 93 14 88 15 91 16 92 17 94 18 89 19 5 20 1 21 2 22
REMARK SMILES IDX 3 23 97 24 4 25 96 26 98 27 17 28 18 29 19 30 20 31 21 32
REMARK SMILES IDX 22 33 23 34 87 35 24 36 86 37 25 38 26 39 27 40 80 41 28 42
REMARK SMILES IDX 85 43 79 44 81 45 29 46 84 47 78 48 77 49 30 51 64 52 43 53
REMARK SMILES IDX 63 54 44 55 47 56 62 57 82 58 45 59 46 60 61 62 83 63 48 64
REMARK SMILES IDX 31 65 32 66 41 67 33 68 34 69 40 70 42 71 35 72 36 73 37 74
REMARK SMILES IDX 38 75 39 76 65 77 66 78 75 79 67 80 68 81 74 82 76 83 69 84
REMARK SMILES IDX 70 85 71 86 72 87 73 88 49 89 50 90 59 91 51 92 52 93 58 94
REMARK SMILES IDX 60 95 53 96 54 97 55 98 56 99 57 100
REMARK H PARENT 81 50 47 61
REMARK Flexibility Score: inf
ROOT
ATOM      1  O   UNL     1      -9.098  -5.020  -0.381  1.00  0.00    -0.374 OA
ENDROOT
BRANCH   1   2
ATOM      2  C   UNL     1      -7.906  -5.647   0.099  1.00  0.00     0.202 C 
BRANCH   2   3
ATOM      3  C   UNL     1      -6.927  -6.126  -0.991  1.00  0.00     0.261 C 
BRANCH   3   4
ATOM      4  O   UNL     1      -6.100  -5.085  -1.556  1.00  0.00    -0.463 OA
BRANCH   4   5
ATOM      5  C   UNL     1      -6.495  -4.526  -2.725  1.00  0.00     0.307 C 
ATOM      6  O   UNL     1      -7.454  -4.890  -3.396  1.00  0.00    -0.252 OA
BRANCH   5   7
ATOM      7  C   UNL     1      -5.557  -3.421  -3.168  1.00  0.00     0.146 C 
BRANCH   7   8
ATOM      8  C   UNL     1      -5.557  -2.159  -2.303  1.00  0.00     0.160 C 
BRANCH   8   9
ATOM      9  N   UNL     1      -4.703  -2.237  -1.116  1.00  0.00    -0.227 N 
ATOM     10  C   UNL     1      -2.698  -1.562  -0.106  1.00  0.00     0.104 A 
ATOM     11  N   UNL     1      -3.488  -1.542  -1.149  1.00  0.00    -0.169 NA
ATOM     12  C   UNL     1      -3.013  -2.378   1.036  1.00  0.00     0.078 A 
ATOM     13  C   UNL     1      -4.247  -3.027   1.084  1.00  0.00     0.183 A 
ATOM     14  C   UNL     1      -2.423  -2.701   2.236  1.00  0.00     0.143 A 
ATOM     15  C   UNL     1      -5.205  -2.833   0.043  1.00  0.00     0.296 A 
ATOM     16  N   UNL     1      -4.394  -3.786   2.173  1.00  0.00    -0.074 NA
ATOM     17  O   UNL     1      -3.235  -3.577   2.903  1.00  0.00    -0.360 OA
ATOM     18  C   UNL     1      -1.191  -2.335   2.955  1.00  0.00     0.091 C 
ATOM     19  O   UNL     1      -6.388  -3.145   0.167  1.00  0.00    -0.265 OA
BRANCH  10  20
ATOM     20  C   UNL     1      -1.487  -0.745  -0.100  1.00  0.00     0.003 A 
ATOM     21  C   UNL     1       2.052   1.670   0.040  1.00  0.00     0.044 C 
ATOM     22  C   UNL     1       0.830   0.797  -0.020  1.00  0.00    -0.048 A 
ATOM     23  C   UNL     1      -0.438   1.409  -0.015  1.00  0.00     0.004 A 
ATOM     24  C   UNL     1       0.926  -0.610  -0.074  1.00  0.00    -0.048 A 
ATOM     25  C   UNL     1      -1.598   0.642  -0.057  1.00  0.00     0.011 A 
ATOM     26  C   UNL     1      -0.245  -1.372  -0.130  1.00  0.00     0.014 A 
ATOM     27  C   UNL     1       2.226  -1.361  -0.038  1.00  0.00     0.044 C 
ENDBRANCH  10  20
ENDBRANCH   8   9
ENDBRANCH   7   8
ENDBRANCH   5   7
ENDBRANCH   4   5
ENDBRANCH   3   4
ENDBRANCH   2   3
ENDBRANCH   1   2
BRANCH   1  28
ATOM     28  C   UNL     1      -9.045  -3.612  -0.585  1.00  0.00     0.202 C 
BRANCH  28  29
ATOM     29  C   UNL     1      -9.282  -2.676   0.625  1.00  0.00     0.261 C 
BRANCH  29  30
ATOM     30  O   UNL     1      -8.431  -2.822   1.774  1.00  0.00    -0.460 OA
BRANCH  30  31
ATOM     31  C   UNL     1      -8.843  -3.754   2.661  1.00  0.00     0.338 C 
ATOM     32  O   UNL     1      -9.795  -4.507   2.520  1.00  0.00    -0.246 OA
BRANCH  31  33
ATOM     33  C   UNL     1      -7.991  -3.803   3.870  1.00  0.00     0.060 A 
ATOM     34  C   UNL     1      -7.819  -5.059   4.462  1.00  0.00     0.016 A 
ATOM     35  C   UNL     1      -7.513  -2.657   4.514  1.00  0.00     0.016 A 
ATOM     36  C   UNL     1      -7.231  -5.168   5.719  1.00  0.00     0.010 A 
ATOM     37  C   UNL     1      -6.929  -2.770   5.785  1.00  0.00     0.010 A 
ATOM     38  C   UNL     1      -6.808  -4.024   6.406  1.00  0.00    -0.014 A 
BRANCH  38  39
ATOM     39  C   UNL     1      -6.208  -4.224   7.746  1.00  0.00     0.031 A 
ATOM     40  C   UNL     1      -4.984  -3.423   8.044  1.00  0.00     0.074 A 
ATOM     41  C   UNL     1      -6.970  -4.609   8.796  1.00  0.00     0.049 A 
ATOM     42  N   UNL     1      -5.029  -2.163   8.363  1.00  0.00    -0.248 NA
ATOM     43  C   UNL     1      -3.633  -3.913   7.777  1.00  0.00     0.031 C 
ATOM     44  C   UNL     1      -8.367  -4.185   8.975  1.00  0.00     0.029 A 
ATOM     45  N   UNL     1      -6.642  -5.200   9.997  1.00  0.00    -0.354 N 
ATOM     46  C   UNL     1      -3.737  -1.674   8.314  1.00  0.00     0.074 A 
ATOM     47  C   UNL     1      -2.903  -2.798   7.948  1.00  0.00     0.031 C 
ATOM     48  C   UNL     1      -8.714  -4.370  10.265  1.00  0.00     0.029 A 
ATOM     49  C   UNL     1      -7.632  -5.053  10.970  1.00  0.00     0.049 A 
ATOM     50  H   UNL     1      -5.795  -5.678  10.153  1.00  0.00     0.167 HD
ATOM     51  C   UNL     1      -3.435  -0.377   8.585  1.00  0.00     0.037 A 
ATOM     52  C   UNL     1      -7.402  -4.960  12.311  1.00  0.00     0.037 A 
ATOM     53  C   UNL     1      -4.547   0.442   8.974  1.00  0.00     0.049 A 
ATOM     54  C   UNL     1      -6.851  -3.557  12.395  1.00  0.00     0.074 A 
ATOM     55  C   UNL     1      -5.454   1.280   8.363  1.00  0.00     0.029 A 
ATOM     56  N   UNL     1      -4.951   0.394  10.290  1.00  0.00    -0.354 N 
ATOM     57  N   UNL     1      -7.549  -2.450  12.355  1.00  0.00    -0.248 NA
ATOM     58  C   UNL     1      -5.422  -3.384  12.124  1.00  0.00     0.031 C 
ATOM     59  C   UNL     1      -6.596   1.300   9.226  1.00  0.00     0.029 A 
ATOM     60  C   UNL     1      -6.323   0.439  10.288  1.00  0.00     0.049 A 
ATOM     61  H   UNL     1      -4.367   0.339  11.080  1.00  0.00     0.167 HD
ATOM     62  C   UNL     1      -6.705  -1.502  11.770  1.00  0.00     0.074 A 
ATOM     63  C   UNL     1      -5.405  -2.135  11.681  1.00  0.00     0.031 C 
ATOM     64  C   UNL     1      -7.132  -0.333  11.210  1.00  0.00     0.037 A 
BRANCH  51  65
ATOM     65  C   UNL     1      -2.069   0.178   8.675  1.00  0.00     0.058 A 
ATOM     66  C   UNL     1      -1.538   0.419   9.953  1.00  0.00     0.135 A 
ATOM     67  C   UNL     1      -1.381   0.683   7.567  1.00  0.00     0.135 A 
ATOM     68  F   UNL     1      -2.172  -0.049  11.041  1.00  0.00    -0.206 F 
ATOM     69  C   UNL     1      -0.398   1.187  10.135  1.00  0.00     0.059 A 
ATOM     70  C   UNL     1      -0.226   1.451   7.725  1.00  0.00     0.059 A 
ATOM     71  F   UNL     1      -1.850   0.480   6.325  1.00  0.00    -0.206 F 
ATOM     72  C   UNL     1       0.239   1.718   9.015  1.00  0.00     0.060 A 
BRANCH  72  73
ATOM     73  S   UNL     1       1.659   2.802   9.287  1.00  0.00     0.124 S 
ATOM     74  O   UNL     1       1.058   3.905  10.028  1.00  0.00    -0.237 OA
ATOM     75  O   UNL     1       2.555   1.937  10.046  1.00  0.00    -0.237 OA
ATOM     76  O   UNL     1       2.102   3.124   7.934  1.00  0.00    -0.744 OA
ENDBRANCH  72  73
ENDBRANCH  51  65
BRANCH  52  77
ATOM     77  C   UNL     1      -6.755  -6.167  12.926  1.00  0.00     0.058 A 
ATOM     78  C   UNL     1      -7.367  -7.420  12.702  1.00  0.00     0.135 A 
ATOM     79  C   UNL     1      -5.571  -6.192  13.679  1.00  0.00     0.135 A 
ATOM     80  F   UNL     1      -8.580  -7.486  12.129  1.00  0.00    -0.206 F 
ATOM     81  C   UNL     1      -6.749  -8.624  13.024  1.00  0.00     0.059 A 
ATOM     82  C   UNL     1      -4.915  -7.387  13.990  1.00  0.00     0.059 A 
ATOM     83  F   UNL     1      -4.998  -5.062  14.113  1.00  0.00    -0.206 F 
ATOM     84  C   UNL     1      -5.489  -8.596  13.612  1.00  0.00     0.060 A 
BRANCH  84  85
ATOM     85  S   UNL     1      -4.593 -10.152  13.790  1.00  0.00     0.124 S 
ATOM     86  O   UNL     1      -5.460 -10.904  14.689  1.00  0.00    -0.237 OA
ATOM     87  O   UNL     1      -4.545 -10.623  12.409  1.00  0.00    -0.237 OA
ATOM     88  O   UNL     1      -3.309  -9.742  14.350  1.00  0.00    -0.744 OA
ENDBRANCH  84  85
ENDBRANCH  52  77
BRANCH  64  89
ATOM     89  C   UNL     1      -8.572   0.016  11.395  1.00  0.00     0.058 A 
ATOM     90  C   UNL     1      -9.039   0.451  12.641  1.00  0.00     0.135 A 
ATOM     91  C   UNL     1      -9.476   0.022  10.318  1.00  0.00     0.135 A 
ATOM     92  F   UNL     1      -8.218   0.473  13.704  1.00  0.00    -0.206 F 
ATOM     93  C   UNL     1     -10.338   0.925  12.805  1.00  0.00     0.059 A 
ATOM     94  C   UNL     1     -10.772   0.515  10.454  1.00  0.00     0.059 A 
ATOM     95  F   UNL     1      -9.098  -0.405   9.102  1.00  0.00    -0.206 F 
ATOM     96  C   UNL     1     -11.189   0.978  11.700  1.00  0.00     0.060 A 
BRANCH  96  97
ATOM     97  S   UNL     1     -12.812   1.743  11.899  1.00  0.00     0.124 S 
ATOM     98  O   UNL     1     -13.495   0.793  12.772  1.00  0.00    -0.237 OA
ATOM     99  O   UNL     1     -12.476   3.028  12.505  1.00  0.00    -0.237 OA
ATOM    100  O   UNL     1     -13.328   1.821  10.535  1.00  0.00    -0.744 OA
ENDBRANCH  96  97
ENDBRANCH  64  89
ENDBRANCH  38  39
ENDBRANCH  31  33
ENDBRANCH  30  31
ENDBRANCH  29  30
ENDBRANCH  28  29
ENDBRANCH   1  28
TORSDOF 20
