REMARK SMILES CCc1ccsc1C(=O)N(CC(=O)OCCOCCOC(=O)c1ccc(-c2c3nc(c(-c4c(F)cc(S(=O)(=O)[O-])cc4F)c4ccc([nH]4)c(-c4c(F)cc(S(=O)(=O)[O-])cc4F)c4nc(c(-c5c(F)cc(S(=O)(=O)[O-])cc5F)c5ccc2[nH]5)C=C4)C=C3)cc1)c1ccccc1N
REMARK SMILES IDX 16 1 15 2 14 3 12 4 13 5 11 6 10 7 8 8 9 9 7 10 3 11 4 12
REMARK SMILES IDX 5 13 6 14 2 15 1 16 89 17 90 18 94 19 91 20 93 21 92 22
REMARK SMILES IDX 95 23 17 26 18 27 19 28 20 29 21 30 22 31 23 32 24 33 88 34
REMARK SMILES IDX 25 35 87 36 26 37 27 38 28 39 81 40 29 41 86 42 80 43 82 44
REMARK SMILES IDX 30 45 85 46 79 47 78 48 31 50 65 51 44 52 64 53 45 54 48 55
REMARK SMILES IDX 63 56 83 57 46 58 47 59 62 61 84 62 49 63 32 64 33 65 42 66
REMARK SMILES IDX 34 67 35 68 41 69 43 70 36 71 37 72 38 73 39 74 40 75 66 76
REMARK SMILES IDX 67 77 76 78 68 79 69 80 75 81 77 82 70 83 71 84 72 85 73 86
REMARK SMILES IDX 74 87 50 88 51 89 60 90 52 91 53 92 59 93 61 94 54 95 55 96
REMARK SMILES IDX 56 97 57 98 58 99
REMARK H PARENT 95 24 95 25 82 49 48 60
REMARK Flexibility Score: inf
ROOT
ATOM      1  C   UNL     1       2.674   1.370   5.342  1.00  0.00     0.202 C 
ENDROOT
BRANCH   1   2
ATOM      2  C   UNL     1       2.499   1.282   3.817  1.00  0.00     0.261 C 
BRANCH   2   3
ATOM      3  O   UNL     1       1.315   1.896   3.256  1.00  0.00    -0.462 OA
BRANCH   3   4
ATOM      4  C   UNL     1       0.390   1.025   2.769  1.00  0.00     0.326 C 
ATOM      5  O   UNL     1       0.456  -0.196   2.904  1.00  0.00    -0.250 OA
BRANCH   4   6
ATOM      6  C   UNL     1      -0.766   1.651   1.975  1.00  0.00     0.248 C 
BRANCH   6   7
ATOM      7  N   UNL     1      -0.889   3.088   1.852  1.00  0.00    -0.294 N 
BRANCH   7   8
ATOM      8  C   UNL     1      -0.088   3.816   0.917  1.00  0.00     0.269 C 
ATOM      9  O   UNL     1       0.014   5.036   1.116  1.00  0.00    -0.268 OA
BRANCH   8  10
ATOM     10  C   UNL     1       0.628   3.248  -0.303  1.00  0.00     0.096 A 
ATOM     11  C   UNL     1       1.075   2.032  -0.887  1.00  0.00    -0.025 A 
ATOM     12  C   UNL     1       1.775   2.266  -2.139  1.00  0.00     0.016 A 
ATOM     13  C   UNL     1       1.855   3.575  -2.512  1.00  0.00     0.066 A 
ATOM     14  S   UNL     1       1.074   4.574  -1.408  1.00  0.00    -0.138 S 
BRANCH  11  15
ATOM     15  C   UNL     1       0.963   0.602  -0.399  1.00  0.00     0.034 C 
ATOM     16  C   UNL     1       1.662  -0.501  -1.184  1.00  0.00     0.009 C 
ENDBRANCH  11  15
ENDBRANCH   8  10
ENDBRANCH   7   8
BRANCH   7  17
ATOM     17  C   UNL     1      -1.853   3.735   2.784  1.00  0.00     0.068 A 
ATOM     18  C   UNL     1      -2.290   3.010   3.924  1.00  0.00     0.028 A 
ATOM     19  C   UNL     1      -2.422   5.031   2.637  1.00  0.00     0.056 A 
ATOM     20  C   UNL     1      -3.113   3.548   4.923  1.00  0.00     0.002 A 
ATOM     21  C   UNL     1      -3.277   5.548   3.643  1.00  0.00     0.028 A 
ATOM     22  C   UNL     1      -3.584   4.836   4.796  1.00  0.00     0.002 A 
BRANCH  19  23
ATOM     23  N   UNL     1      -2.392   5.770   1.443  1.00  0.00    -0.397 N 
ATOM     24  H   UNL     1      -1.822   5.475   0.697  1.00  0.00     0.156 HD
ATOM     25  H   UNL     1      -2.941   6.582   1.353  1.00  0.00     0.156 HD
ENDBRANCH  19  23
ENDBRANCH   7  17
ENDBRANCH   6   7
ENDBRANCH   4   6
ENDBRANCH   3   4
ENDBRANCH   2   3
ENDBRANCH   1   2
BRANCH   1  26
ATOM     26  O   UNL     1       1.588   1.094   6.212  1.00  0.00    -0.374 OA
BRANCH  26  27
ATOM     27  C   UNL     1       0.370   1.799   6.051  1.00  0.00     0.202 C 
BRANCH  27  28
ATOM     28  C   UNL     1       0.335   3.335   6.003  1.00  0.00     0.261 C 
BRANCH  28  29
ATOM     29  O   UNL     1       1.558   3.990   5.737  1.00  0.00    -0.460 OA
BRANCH  29  30
ATOM     30  C   UNL     1       2.214   4.398   6.843  1.00  0.00     0.338 C 
ATOM     31  O   UNL     1       1.914   4.219   8.006  1.00  0.00    -0.246 OA
BRANCH  30  32
ATOM     32  C   UNL     1       3.457   5.007   6.368  1.00  0.00     0.060 A 
ATOM     33  C   UNL     1       4.662   4.436   6.781  1.00  0.00     0.016 A 
ATOM     34  C   UNL     1       3.418   6.117   5.518  1.00  0.00     0.016 A 
ATOM     35  C   UNL     1       5.853   5.026   6.389  1.00  0.00     0.010 A 
ATOM     36  C   UNL     1       4.613   6.705   5.125  1.00  0.00     0.010 A 
ATOM     37  C   UNL     1       5.827   6.186   5.601  1.00  0.00    -0.014 A 
BRANCH  37  38
ATOM     38  C   UNL     1       7.073   6.955   5.436  1.00  0.00     0.031 A 
ATOM     39  C   UNL     1       7.298   8.138   6.330  1.00  0.00     0.074 A 
ATOM     40  C   UNL     1       7.993   6.552   4.547  1.00  0.00     0.049 A 
ATOM     41  N   UNL     1       8.338   8.921   6.421  1.00  0.00    -0.248 NA
ATOM     42  C   UNL     1       6.199   8.484   7.248  1.00  0.00     0.031 C 
ATOM     43  C   UNL     1       7.859   5.394   3.663  1.00  0.00     0.029 A 
ATOM     44  N   UNL     1       9.228   7.062   4.254  1.00  0.00    -0.354 N 
ATOM     45  C   UNL     1       8.021   9.852   7.403  1.00  0.00     0.074 A 
ATOM     46  C   UNL     1       6.675   9.566   7.845  1.00  0.00     0.031 C 
ATOM     47  C   UNL     1       8.983   5.268   2.940  1.00  0.00     0.029 A 
ATOM     48  C   UNL     1       9.898   6.352   3.289  1.00  0.00     0.049 A 
ATOM     49  H   UNL     1       9.600   7.862   4.692  1.00  0.00     0.167 HD
ATOM     50  C   UNL     1       8.794  10.847   7.898  1.00  0.00     0.037 A 
ATOM     51  C   UNL     1      11.116   6.562   2.757  1.00  0.00     0.037 A 
ATOM     52  C   UNL     1      10.125  11.117   7.423  1.00  0.00     0.049 A 
ATOM     53  C   UNL     1      11.932   7.715   3.273  1.00  0.00     0.074 A 
ATOM     54  C   UNL     1      11.014  12.087   7.845  1.00  0.00     0.029 A 
ATOM     55  N   UNL     1      10.752  10.415   6.400  1.00  0.00    -0.354 N 
ATOM     56  N   UNL     1      11.640   8.573   4.223  1.00  0.00    -0.248 NA
ATOM     57  C   UNL     1      13.242   7.930   2.648  1.00  0.00     0.031 C 
ATOM     58  C   UNL     1      12.155  12.009   7.038  1.00  0.00     0.029 A 
ATOM     59  C   UNL     1      12.004  10.950   6.154  1.00  0.00     0.049 A 
ATOM     60  H   UNL     1      10.363   9.648   5.920  1.00  0.00     0.167 HD
ATOM     61  C   UNL     1      12.740   9.416   4.330  1.00  0.00     0.074 A 
ATOM     62  C   UNL     1      13.706   8.955   3.350  1.00  0.00     0.031 C 
ATOM     63  C   UNL     1      12.939  10.470   5.162  1.00  0.00     0.037 A 
BRANCH  50  64
ATOM     64  C   UNL     1       8.188  11.724   8.961  1.00  0.00     0.058 A 
ATOM     65  C   UNL     1       7.882  11.238  10.244  1.00  0.00     0.135 A 
ATOM     66  C   UNL     1       7.865  13.061   8.680  1.00  0.00     0.135 A 
ATOM     67  F   UNL     1       8.150   9.961  10.565  1.00  0.00    -0.206 F 
ATOM     68  C   UNL     1       7.229  12.026  11.187  1.00  0.00     0.059 A 
ATOM     69  C   UNL     1       7.242  13.878   9.619  1.00  0.00     0.059 A 
ATOM     70  F   UNL     1       8.132  13.582   7.472  1.00  0.00    -0.206 F 
ATOM     71  C   UNL     1       6.904  13.343  10.861  1.00  0.00     0.060 A 
BRANCH  71  72
ATOM     72  S   UNL     1       6.013  14.340  12.075  1.00  0.00     0.124 S 
ATOM     73  O   UNL     1       4.678  13.753  12.010  1.00  0.00    -0.237 OA
ATOM     74  O   UNL     1       6.760  14.082  13.302  1.00  0.00    -0.237 OA
ATOM     75  O   UNL     1       6.127  15.697  11.550  1.00  0.00    -0.744 OA
ENDBRANCH  71  72
ENDBRANCH  50  64
BRANCH  51  76
ATOM     76  C   UNL     1      11.630   5.637   1.715  1.00  0.00     0.058 A 
ATOM     77  C   UNL     1      12.668   4.738   1.998  1.00  0.00     0.135 A 
ATOM     78  C   UNL     1      11.052   5.585   0.436  1.00  0.00     0.135 A 
ATOM     79  F   UNL     1      13.257   4.753   3.204  1.00  0.00    -0.206 F 
ATOM     80  C   UNL     1      13.111   3.815   1.056  1.00  0.00     0.059 A 
ATOM     81  C   UNL     1      11.461   4.655  -0.515  1.00  0.00     0.059 A 
ATOM     82  F   UNL     1      10.046   6.415   0.119  1.00  0.00    -0.206 F 
ATOM     83  C   UNL     1      12.492   3.774  -0.195  1.00  0.00     0.060 A 
BRANCH  83  84
ATOM     84  S   UNL     1      13.014   2.510  -1.375  1.00  0.00     0.124 S 
ATOM     85  O   UNL     1      14.342   2.984  -1.748  1.00  0.00    -0.237 OA
ATOM     86  O   UNL     1      12.973   1.299  -0.562  1.00  0.00    -0.237 OA
ATOM     87  O   UNL     1      11.999   2.587  -2.422  1.00  0.00    -0.744 OA
ENDBRANCH  83  84
ENDBRANCH  51  76
BRANCH  63  88
ATOM     88  C   UNL     1      14.260  11.180   5.061  1.00  0.00     0.058 A 
ATOM     89  C   UNL     1      14.575  12.003   3.968  1.00  0.00     0.135 A 
ATOM     90  C   UNL     1      15.201  11.076   6.098  1.00  0.00     0.135 A 
ATOM     91  F   UNL     1      13.712  12.130   2.947  1.00  0.00    -0.206 F 
ATOM     92  C   UNL     1      15.788  12.678   3.895  1.00  0.00     0.059 A 
ATOM     93  C   UNL     1      16.407  11.766   6.060  1.00  0.00     0.059 A 
ATOM     94  F   UNL     1      14.944  10.311   7.171  1.00  0.00    -0.206 F 
ATOM     95  C   UNL     1      16.697  12.555   4.948  1.00  0.00     0.060 A 
BRANCH  95  96
ATOM     96  S   UNL     1      18.254  13.462   4.855  1.00  0.00     0.124 S 
ATOM     97  O   UNL     1      18.980  12.697   3.847  1.00  0.00    -0.237 OA
ATOM     98  O   UNL     1      17.816  14.793   4.447  1.00  0.00    -0.237 OA
ATOM     99  O   UNL     1      18.782  13.371   6.213  1.00  0.00    -0.744 OA
ENDBRANCH  95  96
ENDBRANCH  63  88
ENDBRANCH  37  38
ENDBRANCH  30  32
ENDBRANCH  29  30
ENDBRANCH  28  29
ENDBRANCH  27  28
ENDBRANCH  26  27
ENDBRANCH   1  26
TORSDOF 23
