REMARK SMILES Cc1cc(NC(=O)c2ccc(Br)cc2N)ccc1C(=O)OCCOCCOC(=O)c1ccc(-c2c3nc(c(-c4c(F)cc(S(=O)(=O)[O-])cc4F)c4ccc([nH]4)c(-c4c(F)cc(S(=O)(=O)[O-])cc4F)c4nc(c(-c5c(F)cc(S(=O)(=O)[O-])cc5F)c5ccc2[nH]5)C=C4)C=C3)cc1
REMARK SMILES IDX 24 1 23 2 22 3 21 4 19 5 20 6 18 7 1 8 2 9 3 10 4 11 17 12
REMARK SMILES IDX 16 13 5 14 6 15 7 17 8 18 9 19 14 20 10 21 13 22 11 23 12 24
REMARK SMILES IDX 15 25 25 28 26 29 27 30 28 31 29 32 30 33 31 34 95 35 32 36
REMARK SMILES IDX 94 37 33 38 34 39 35 40 88 41 36 42 93 43 87 44 89 45 37 46
REMARK SMILES IDX 92 47 86 48 85 49 38 51 72 52 51 53 71 54 52 55 55 56 70 57
REMARK SMILES IDX 90 58 53 59 54 60 69 62 91 63 56 64 39 65 40 66 49 67 41 68
REMARK SMILES IDX 42 69 48 70 50 71 43 72 44 73 45 74 46 75 47 76 73 77 74 78
REMARK SMILES IDX 83 79 75 80 76 81 82 82 84 83 77 84 78 85 79 86 80 87 81 88
REMARK SMILES IDX 57 89 58 90 67 91 59 92 60 93 66 94 68 95 61 96 62 97 63 98
REMARK SMILES IDX 64 99 65 100
REMARK H PARENT 5 16 15 26 15 27 89 50 55 61
REMARK Flexibility Score: inf
ROOT
ATOM      1  O   UNL     1       0.929   3.178  -2.236  1.00  0.00    -0.374 OA
ENDROOT
BRANCH   1   2
ATOM      2  C   UNL     1       2.122   2.422  -2.398  1.00  0.00     0.202 C 
BRANCH   2   3
ATOM      3  C   UNL     1       2.750   2.364  -1.043  1.00  0.00     0.261 C 
BRANCH   3   4
ATOM      4  O   UNL     1       2.025   1.562  -0.091  1.00  0.00    -0.460 OA
BRANCH   4   5
ATOM      5  C   UNL     1       0.708   1.763   0.090  1.00  0.00     0.338 C 
ATOM      6  O   UNL     1       0.159   2.788   0.435  1.00  0.00    -0.246 OA
BRANCH   5   7
ATOM      7  C   UNL     1       0.013   0.480  -0.183  1.00  0.00     0.063 A 
ATOM      8  C   UNL     1       2.150  -0.982  -0.573  1.00  0.00     0.045 C 
ATOM      9  C   UNL     1       0.662  -0.729  -0.524  1.00  0.00    -0.035 A 
ATOM     10  C   UNL     1      -0.128  -1.864  -0.678  1.00  0.00     0.030 A 
ATOM     11  C   UNL     1      -1.486  -1.841  -0.385  1.00  0.00     0.041 A 
ATOM     12  C   UNL     1      -1.393   0.527  -0.081  1.00  0.00     0.018 A 
ATOM     13  C   UNL     1      -2.151  -0.635  -0.198  1.00  0.00     0.027 A 
BRANCH  11  14
ATOM     14  N   UNL     1      -2.154  -3.037  -0.106  1.00  0.00    -0.322 N 
ATOM     15  C   UNL     1      -1.613  -4.183   0.459  1.00  0.00     0.257 C 
ATOM     16  H   UNL     1      -3.110  -3.070  -0.336  1.00  0.00     0.170 HD
ATOM     17  O   UNL     1      -2.223  -5.248   0.349  1.00  0.00    -0.269 OA
BRANCH  15  18
ATOM     18  C   UNL     1      -0.323  -4.166   1.237  1.00  0.00     0.063 A 
ATOM     19  C   UNL     1       0.549  -5.242   0.982  1.00  0.00     0.017 A 
ATOM     20  C   UNL     1       0.045  -3.185   2.191  1.00  0.00     0.045 A 
ATOM     21  C   UNL     1       1.760  -5.366   1.668  1.00  0.00     0.016 A 
ATOM     22  C   UNL     1       1.266  -3.336   2.876  1.00  0.00     0.042 A 
ATOM     23  C   UNL     1       2.110  -4.413   2.617  1.00  0.00     0.020 A 
ATOM     24  Br  UNL     1       3.715  -4.606   3.599  1.00  0.00    -0.051 Br
BRANCH  20  25
ATOM     25  N   UNL     1      -0.793  -2.158   2.627  1.00  0.00    -0.398 N 
ATOM     26  H   UNL     1      -1.659  -2.007   2.184  1.00  0.00     0.156 HD
ATOM     27  H   UNL     1      -0.518  -1.584   3.378  1.00  0.00     0.156 HD
ENDBRANCH  20  25
ENDBRANCH  15  18
ENDBRANCH  11  14
ENDBRANCH   5   7
ENDBRANCH   4   5
ENDBRANCH   3   4
ENDBRANCH   2   3
ENDBRANCH   1   2
BRANCH   1  28
ATOM     28  C   UNL     1       0.179   3.392  -3.408  1.00  0.00     0.202 C 
BRANCH  28  29
ATOM     29  C   UNL     1       0.971   4.125  -4.495  1.00  0.00     0.261 C 
BRANCH  29  30
ATOM     30  O   UNL     1       1.224   5.494  -4.106  1.00  0.00    -0.460 OA
BRANCH  30  31
ATOM     31  C   UNL     1       2.501   5.791  -3.719  1.00  0.00     0.338 C 
ATOM     32  O   UNL     1       3.421   5.963  -4.498  1.00  0.00    -0.246 OA
BRANCH  31  33
ATOM     33  C   UNL     1       2.581   5.936  -2.234  1.00  0.00     0.060 A 
ATOM     34  C   UNL     1       3.807   5.865  -1.543  1.00  0.00     0.016 A 
ATOM     35  C   UNL     1       1.391   5.968  -1.515  1.00  0.00     0.016 A 
ATOM     36  C   UNL     1       3.829   5.691  -0.143  1.00  0.00     0.010 A 
ATOM     37  C   UNL     1       1.413   5.702  -0.164  1.00  0.00     0.010 A 
ATOM     38  C   UNL     1       2.622   5.541   0.537  1.00  0.00    -0.014 A 
BRANCH  38  39
ATOM     39  C   UNL     1       2.421   5.125   1.931  1.00  0.00     0.031 A 
ATOM     40  C   UNL     1       1.642   6.036   2.803  1.00  0.00     0.074 A 
ATOM     41  C   UNL     1       2.566   3.822   2.285  1.00  0.00     0.049 A 
ATOM     42  N   UNL     1       1.332   5.766   4.018  1.00  0.00    -0.248 NA
ATOM     43  C   UNL     1       1.158   7.356   2.391  1.00  0.00     0.031 C 
ATOM     44  C   UNL     1       1.817   3.059   3.289  1.00  0.00     0.029 A 
ATOM     45  N   UNL     1       3.434   2.861   1.766  1.00  0.00    -0.354 N 
ATOM     46  C   UNL     1       0.365   6.652   4.422  1.00  0.00     0.074 A 
ATOM     47  C   UNL     1       0.391   7.697   3.433  1.00  0.00     0.031 C 
ATOM     48  C   UNL     1       2.408   1.868   3.495  1.00  0.00     0.029 A 
ATOM     49  C   UNL     1       3.637   1.856   2.720  1.00  0.00     0.049 A 
ATOM     50  H   UNL     1       3.839   2.885   0.869  1.00  0.00     0.167 HD
ATOM     51  C   UNL     1      -0.404   6.300   5.490  1.00  0.00     0.037 A 
ATOM     52  C   UNL     1       4.896   1.578   3.150  1.00  0.00     0.037 A 
ATOM     53  C   UNL     1       0.163   5.104   6.139  1.00  0.00     0.049 A 
ATOM     54  C   UNL     1       4.966   2.029   4.578  1.00  0.00     0.074 A 
ATOM     55  C   UNL     1      -0.221   3.778   6.218  1.00  0.00     0.029 A 
ATOM     56  N   UNL     1       1.495   5.147   6.563  1.00  0.00    -0.354 N 
ATOM     57  N   UNL     1       4.161   2.945   5.053  1.00  0.00    -0.248 NA
ATOM     58  C   UNL     1       5.768   1.394   5.617  1.00  0.00     0.031 C 
ATOM     59  C   UNL     1       0.936   3.014   6.572  1.00  0.00     0.029 A 
ATOM     60  C   UNL     1       2.012   3.878   6.747  1.00  0.00     0.049 A 
ATOM     61  H   UNL     1       2.002   5.978   6.713  1.00  0.00     0.167 HD
ATOM     62  C   UNL     1       4.223   2.943   6.407  1.00  0.00     0.074 A 
ATOM     63  C   UNL     1       5.287   2.001   6.718  1.00  0.00     0.031 C 
ATOM     64  C   UNL     1       3.395   3.691   7.187  1.00  0.00     0.037 A 
BRANCH  51  65
ATOM     65  C   UNL     1      -1.729   6.931   5.884  1.00  0.00     0.058 A 
ATOM     66  C   UNL     1      -2.378   6.527   7.073  1.00  0.00     0.135 A 
ATOM     67  C   UNL     1      -2.460   7.867   5.116  1.00  0.00     0.135 A 
ATOM     68  F   UNL     1      -1.828   5.612   7.885  1.00  0.00    -0.206 F 
ATOM     69  C   UNL     1      -3.625   7.022   7.472  1.00  0.00     0.059 A 
ATOM     70  C   UNL     1      -3.686   8.411   5.518  1.00  0.00     0.059 A 
ATOM     71  F   UNL     1      -2.061   8.265   3.904  1.00  0.00    -0.206 F 
ATOM     72  C   UNL     1      -4.269   7.975   6.695  1.00  0.00     0.060 A 
BRANCH  72  73
ATOM     73  S   UNL     1      -5.869   8.618   7.223  1.00  0.00     0.124 S 
ATOM     74  O   UNL     1      -6.720   7.438   7.114  1.00  0.00    -0.237 OA
ATOM     75  O   UNL     1      -5.587   9.076   8.579  1.00  0.00    -0.237 OA
ATOM     76  O   UNL     1      -6.148   9.677   6.256  1.00  0.00    -0.744 OA
ENDBRANCH  72  73
ENDBRANCH  51  65
BRANCH  52  77
ATOM     77  C   UNL     1       5.890   1.640   2.026  1.00  0.00     0.058 A 
ATOM     78  C   UNL     1       5.857   0.556   1.115  1.00  0.00     0.135 A 
ATOM     79  C   UNL     1       6.380   2.859   1.526  1.00  0.00     0.135 A 
ATOM     80  F   UNL     1       5.387  -0.637   1.516  1.00  0.00    -0.206 F 
ATOM     81  C   UNL     1       6.133   0.709  -0.247  1.00  0.00     0.059 A 
ATOM     82  C   UNL     1       6.638   3.040   0.155  1.00  0.00     0.059 A 
ATOM     83  F   UNL     1       6.438   3.938   2.321  1.00  0.00    -0.206 F 
ATOM     84  C   UNL     1       6.458   1.974  -0.731  1.00  0.00     0.060 A 
BRANCH  84  85
ATOM     85  S   UNL     1       6.337   2.269  -2.527  1.00  0.00     0.124 S 
ATOM     86  O   UNL     1       7.631   1.804  -3.004  1.00  0.00    -0.237 OA
ATOM     87  O   UNL     1       5.190   1.445  -2.913  1.00  0.00    -0.237 OA
ATOM     88  O   UNL     1       6.099   3.705  -2.605  1.00  0.00    -0.744 OA
ENDBRANCH  84  85
ENDBRANCH  52  77
BRANCH  64  89
ATOM     89  C   UNL     1       3.874   4.263   8.486  1.00  0.00     0.058 A 
ATOM     90  C   UNL     1       5.240   4.458   8.766  1.00  0.00     0.135 A 
ATOM     91  C   UNL     1       2.967   4.803   9.422  1.00  0.00     0.135 A 
ATOM     92  F   UNL     1       6.199   4.131   7.886  1.00  0.00    -0.206 F 
ATOM     93  C   UNL     1       5.680   5.029   9.949  1.00  0.00     0.059 A 
ATOM     94  C   UNL     1       3.387   5.448  10.577  1.00  0.00     0.059 A 
ATOM     95  F   UNL     1       1.640   4.739   9.238  1.00  0.00    -0.206 F 
ATOM     96  C   UNL     1       4.745   5.509  10.855  1.00  0.00     0.060 A 
BRANCH  96  97
ATOM     97  S   UNL     1       5.322   6.212  12.401  1.00  0.00     0.124 S 
ATOM     98  O   UNL     1       5.522   5.007  13.200  1.00  0.00    -0.237 OA
ATOM     99  O   UNL     1       6.539   6.912  11.999  1.00  0.00    -0.237 OA
ATOM    100  O   UNL     1       4.219   7.072  12.813  1.00  0.00    -0.744 OA
ENDBRANCH  96  97
ENDBRANCH  64  89
ENDBRANCH  38  39
ENDBRANCH  31  33
ENDBRANCH  30  31
ENDBRANCH  29  30
ENDBRANCH  28  29
ENDBRANCH   1  28
TORSDOF 20
