REMARK SMILES COC(=O)[C@@H]1[C@@H](NC(=O)COCC(=O)OCCOCCOC(=O)c2ccc(-c3c4nc(c(-c5c(F)cc(S(=O)(=O)[O-])cc5F)c5ccc([nH]5)c(-c5c(F)cc(S(=O)(=O)[O-])cc5F)c5nc(c(-c6c(F)cc(S(=O)(=O)[O-])cc6F)c6ccc3[nH]6)C=C5)C=C4)cc2)CCN1C(C)=O
REMARK SMILES IDX 16 1 15 2 13 3 14 4 12 5 11 6 10 7 8 8 7 9 9 11 6 12 5 13
REMARK SMILES IDX 92 14 90 15 91 16 3 17 4 18 2 19 1 20 93 21 94 22 95 23
REMARK SMILES IDX 17 24 18 25 19 26 20 27 21 28 22 29 23 30 24 31 25 32 89 33
REMARK SMILES IDX 26 34 88 35 27 36 28 37 29 38 82 39 30 40 87 41 81 42 83 43
REMARK SMILES IDX 31 44 86 45 80 46 79 47 32 49 66 50 45 51 65 52 46 53 49 54
REMARK SMILES IDX 64 55 84 56 47 57 48 58 63 60 85 61 50 62 33 63 34 64 43 65
REMARK SMILES IDX 35 66 36 67 42 68 44 69 37 70 38 71 39 72 40 73 41 74 67 75
REMARK SMILES IDX 68 76 77 77 69 78 70 79 76 80 78 81 71 82 72 83 73 84 74 85
REMARK SMILES IDX 75 86 51 87 52 88 61 89 53 90 54 91 60 92 62 93 55 94 56 95
REMARK SMILES IDX 57 96 58 97 59 98
REMARK H PARENT 7 10 83 48 49 59
REMARK Flexibility Score: inf
ROOT
ATOM      1  C   UNL     1      -4.278   3.998  -9.841  1.00  0.00     0.261 C 
ENDROOT
BRANCH   1   2
ATOM      2  O   UNL     1      -3.848   2.973  -8.925  1.00  0.00    -0.462 OA
BRANCH   2   3
ATOM      3  C   UNL     1      -2.522   2.678  -8.945  1.00  0.00     0.332 C 
ATOM      4  O   UNL     1      -1.693   3.185  -9.693  1.00  0.00    -0.250 OA
BRANCH   3   5
ATOM      5  C   UNL     1      -2.157   1.575  -7.950  1.00  0.00     0.283 C 
BRANCH   5   6
ATOM      6  O   UNL     1      -3.017   1.191  -6.892  1.00  0.00    -0.360 OA
BRANCH   6   7
ATOM      7  C   UNL     1      -3.009   2.019  -5.742  1.00  0.00     0.260 C 
BRANCH   7   8
ATOM      8  C   UNL     1      -1.678   2.600  -5.234  1.00  0.00     0.246 C 
ATOM      9  N   UNL     1      -0.745   1.783  -4.660  1.00  0.00    -0.349 N 
ATOM     10  H   UNL     1       0.156   2.169  -4.572  1.00  0.00     0.163 HD
ATOM     11  O   UNL     1      -1.413   3.795  -5.373  1.00  0.00    -0.272 OA
BRANCH   9  12
ATOM     12  C   UNL     1      -0.895   0.419  -4.159  1.00  0.00     0.118 C 
ATOM     13  C   UNL     1       0.428  -0.213  -3.650  1.00  0.00     0.217 C 
ATOM     14  N   UNL     1       0.186  -1.657  -3.765  1.00  0.00    -0.327 N 
ATOM     15  C   UNL     1      -1.341  -0.600  -5.206  1.00  0.00     0.049 C 
ATOM     16  C   UNL     1      -0.951  -1.939  -4.616  1.00  0.00     0.122 C 
BRANCH  13  17
ATOM     17  C   UNL     1       0.718   0.357  -2.260  1.00  0.00     0.330 C 
ATOM     18  O   UNL     1       1.096   1.514  -2.091  1.00  0.00    -0.250 OA
BRANCH  17  19
ATOM     19  O   UNL     1       0.436  -0.515  -1.256  1.00  0.00    -0.467 OA
ATOM     20  C   UNL     1       0.834  -0.055   0.036  1.00  0.00     0.282 C 
ENDBRANCH  17  19
ENDBRANCH  13  17
BRANCH  14  21
ATOM     21  C   UNL     1       1.117  -2.583  -3.354  1.00  0.00     0.220 C 
ATOM     22  C   UNL     1       0.698  -4.033  -3.399  1.00  0.00     0.114 C 
ATOM     23  O   UNL     1       2.207  -2.250  -2.890  1.00  0.00    -0.275 OA
ENDBRANCH  14  21
ENDBRANCH   9  12
ENDBRANCH   7   8
ENDBRANCH   6   7
ENDBRANCH   5   6
ENDBRANCH   3   5
ENDBRANCH   2   3
ENDBRANCH   1   2
BRANCH   1  24
ATOM     24  C   UNL     1      -4.919   5.169  -9.097  1.00  0.00     0.202 C 
BRANCH  24  25
ATOM     25  O   UNL     1      -4.024   5.993  -8.349  1.00  0.00    -0.374 OA
BRANCH  25  26
ATOM     26  C   UNL     1      -3.588   5.484  -7.088  1.00  0.00     0.202 C 
BRANCH  26  27
ATOM     27  C   UNL     1      -4.589   5.626  -5.931  1.00  0.00     0.261 C 
BRANCH  27  28
ATOM     28  O   UNL     1      -5.747   4.784  -6.110  1.00  0.00    -0.460 OA
BRANCH  28  29
ATOM     29  C   UNL     1      -6.903   5.454  -6.350  1.00  0.00     0.338 C 
ATOM     30  O   UNL     1      -7.071   6.661  -6.319  1.00  0.00    -0.246 OA
BRANCH  29  31
ATOM     31  C   UNL     1      -7.940   4.530  -6.856  1.00  0.00     0.060 A 
ATOM     32  C   UNL     1      -8.593   4.890  -8.044  1.00  0.00     0.016 A 
ATOM     33  C   UNL     1      -8.336   3.393  -6.150  1.00  0.00     0.016 A 
ATOM     34  C   UNL     1      -9.687   4.154  -8.496  1.00  0.00     0.010 A 
ATOM     35  C   UNL     1      -9.443   2.661  -6.600  1.00  0.00     0.010 A 
ATOM     36  C   UNL     1     -10.150   3.065  -7.748  1.00  0.00    -0.014 A 
BRANCH  36  37
ATOM     37  C   UNL     1     -11.485   2.486  -8.045  1.00  0.00     0.031 A 
ATOM     38  C   UNL     1     -12.656   2.927  -7.206  1.00  0.00     0.074 A 
ATOM     39  C   UNL     1     -11.668   1.614  -9.053  1.00  0.00     0.049 A 
ATOM     40  N   UNL     1     -13.890   2.497  -7.210  1.00  0.00    -0.248 NA
ATOM     41  C   UNL     1     -12.396   3.999  -6.230  1.00  0.00     0.031 C 
ATOM     42  C   UNL     1     -10.633   1.163  -9.980  1.00  0.00     0.029 A 
ATOM     43  N   UNL     1     -12.797   0.944  -9.457  1.00  0.00    -0.354 N 
ATOM     44  C   UNL     1     -14.549   3.229  -6.228  1.00  0.00     0.074 A 
ATOM     45  C   UNL     1     -13.574   4.118  -5.636  1.00  0.00     0.031 C 
ATOM     46  C   UNL     1     -11.170   0.273 -10.833  1.00  0.00     0.029 A 
ATOM     47  C   UNL     1     -12.576   0.063 -10.489  1.00  0.00     0.049 A 
ATOM     48  H   UNL     1     -13.681   1.081  -9.046  1.00  0.00     0.167 HD
ATOM     49  C   UNL     1     -15.849   3.167  -5.855  1.00  0.00     0.037 A 
ATOM     50  C   UNL     1     -13.404  -0.832 -11.065  1.00  0.00     0.037 A 
ATOM     51  C   UNL     1     -16.817   2.289  -6.455  1.00  0.00     0.049 A 
ATOM     52  C   UNL     1     -14.831  -0.936 -10.588  1.00  0.00     0.074 A 
ATOM     53  C   UNL     1     -18.159   2.151  -6.149  1.00  0.00     0.029 A 
ATOM     54  N   UNL     1     -16.547   1.401  -7.485  1.00  0.00    -0.354 N 
ATOM     55  N   UNL     1     -15.438  -0.247  -9.651  1.00  0.00    -0.248 NA
ATOM     56  C   UNL     1     -15.686  -1.939 -11.241  1.00  0.00     0.031 C 
ATOM     57  C   UNL     1     -18.691   1.148  -6.964  1.00  0.00     0.029 A 
ATOM     58  C   UNL     1     -17.693   0.699  -7.814  1.00  0.00     0.049 A 
ATOM     59  H   UNL     1     -15.670   1.286  -7.918  1.00  0.00     0.167 HD
ATOM     60  C   UNL     1     -16.752  -0.705  -9.630  1.00  0.00     0.074 A 
ATOM     61  C   UNL     1     -16.852  -1.736 -10.642  1.00  0.00     0.031 C 
ATOM     62  C   UNL     1     -17.784  -0.302  -8.848  1.00  0.00     0.037 A 
BRANCH  49  63
ATOM     63  C   UNL     1     -16.291   4.050  -4.722  1.00  0.00     0.058 A 
ATOM     64  C   UNL     1     -16.436   5.437  -4.875  1.00  0.00     0.135 A 
ATOM     65  C   UNL     1     -16.604   3.492  -3.472  1.00  0.00     0.135 A 
ATOM     66  F   UNL     1     -16.132   6.024  -6.044  1.00  0.00    -0.206 F 
ATOM     67  C   UNL     1     -16.851   6.245  -3.821  1.00  0.00     0.059 A 
ATOM     68  C   UNL     1     -17.046   4.276  -2.411  1.00  0.00     0.059 A 
ATOM     69  F   UNL     1     -16.480   2.170  -3.271  1.00  0.00    -0.206 F 
ATOM     70  C   UNL     1     -17.152   5.655  -2.592  1.00  0.00     0.060 A 
BRANCH  70  71
ATOM     71  S   UNL     1     -17.689   6.714  -1.232  1.00  0.00     0.124 S 
ATOM     72  O   UNL     1     -16.436   7.362  -0.857  1.00  0.00    -0.237 OA
ATOM     73  O   UNL     1     -18.678   7.572  -1.876  1.00  0.00    -0.237 OA
ATOM     74  O   UNL     1     -18.224   5.769  -0.256  1.00  0.00    -0.744 OA
ENDBRANCH  70  71
ENDBRANCH  49  63
BRANCH  50  75
ATOM     75  C   UNL     1     -12.899  -1.722 -12.146  1.00  0.00     0.058 A 
ATOM     76  C   UNL     1     -13.334  -1.577 -13.471  1.00  0.00     0.135 A 
ATOM     77  C   UNL     1     -11.968  -2.736 -11.871  1.00  0.00     0.135 A 
ATOM     78  F   UNL     1     -14.233  -0.632 -13.782  1.00  0.00    -0.206 F 
ATOM     79  C   UNL     1     -12.872  -2.411 -14.485  1.00  0.00     0.059 A 
ATOM     80  C   UNL     1     -11.473  -3.567 -12.871  1.00  0.00     0.059 A 
ATOM     81  F   UNL     1     -11.514  -2.913 -10.620  1.00  0.00    -0.206 F 
ATOM     82  C   UNL     1     -11.938  -3.402 -14.175  1.00  0.00     0.060 A 
BRANCH  82  83
ATOM     83  S   UNL     1     -11.305  -4.447 -15.506  1.00  0.00     0.124 S 
ATOM     84  O   UNL     1     -12.445  -5.319 -15.762  1.00  0.00    -0.237 OA
ATOM     85  O   UNL     1     -11.001  -3.468 -16.545  1.00  0.00    -0.237 OA
ATOM     86  O   UNL     1     -10.142  -5.089 -14.902  1.00  0.00    -0.744 OA
ENDBRANCH  82  83
ENDBRANCH  50  75
BRANCH  62  87
ATOM     87  C   UNL     1     -19.135  -0.918  -9.083  1.00  0.00     0.058 A 
ATOM     88  C   UNL     1     -19.448  -2.209  -8.635  1.00  0.00     0.135 A 
ATOM     89  C   UNL     1     -20.163  -0.155  -9.663  1.00  0.00     0.135 A 
ATOM     90  F   UNL     1     -18.501  -2.981  -8.079  1.00  0.00    -0.206 F 
ATOM     91  C   UNL     1     -20.736  -2.723  -8.751  1.00  0.00     0.059 A 
ATOM     92  C   UNL     1     -21.462  -0.640  -9.768  1.00  0.00     0.059 A 
ATOM     93  F   UNL     1     -19.915   1.090 -10.100  1.00  0.00    -0.206 F 
ATOM     94  C   UNL     1     -21.739  -1.927  -9.309  1.00  0.00     0.060 A 
BRANCH  94  95
ATOM     95  S   UNL     1     -23.424  -2.574  -9.376  1.00  0.00     0.124 S 
ATOM     96  O   UNL     1     -23.323  -3.546 -10.459  1.00  0.00    -0.237 OA
ATOM     97  O   UNL     1     -23.598  -3.131  -8.038  1.00  0.00    -0.237 OA
ATOM     98  O   UNL     1     -24.231  -1.392  -9.666  1.00  0.00    -0.744 OA
ENDBRANCH  94  95
ENDBRANCH  62  87
ENDBRANCH  36  37
ENDBRANCH  29  31
ENDBRANCH  28  29
ENDBRANCH  27  28
ENDBRANCH  26  27
ENDBRANCH  25  26
ENDBRANCH  24  25
ENDBRANCH   1  24
TORSDOF 24
