REMARK SMILES Cc1ccccc1NC(=O)CSc1nc(C(=O)OCCOCCOC(=O)c2ccc(-c3c4nc(c(-c5c(F)cc(S(=O)(=O)[O-])cc5F)c5ccc([nH]5)c(-c5c(F)cc(S(=O)(=O)[O-])cc5F)c5nc(c(-c6c(F)cc(S(=O)(=O)[O-])cc6F)c6ccc3[nH]6)C=C5)C=C4)cc2)c2ccccc2n1
REMARK SMILES IDX 20 1 19 2 18 3 16 4 17 5 15 6 13 7 14 8 99 9 98 10 93 11
REMARK SMILES IDX 97 12 94 13 96 14 95 15 12 16 11 17 9 18 8 19 10 21 7 22
REMARK SMILES IDX 1 23 2 24 3 25 4 26 6 27 5 28 21 29 22 30 23 31 24 32 25 33
REMARK SMILES IDX 26 34 27 35 28 36 92 37 29 38 91 39 30 40 31 41 32 42 85 43
REMARK SMILES IDX 33 44 90 45 84 46 86 47 34 48 89 49 83 50 82 51 35 53 69 54
REMARK SMILES IDX 48 55 68 56 49 57 52 58 67 59 87 60 50 61 51 62 66 64 88 65
REMARK SMILES IDX 53 66 36 67 37 68 46 69 38 70 39 71 45 72 47 73 40 74 41 75
REMARK SMILES IDX 42 76 43 77 44 78 70 79 71 80 80 81 72 82 73 83 79 84 81 85
REMARK SMILES IDX 74 86 75 87 76 88 77 89 78 90 54 91 55 92 64 93 56 94 57 95
REMARK SMILES IDX 63 96 65 97 58 98 59 99 60 100 61 101 62 102
REMARK H PARENT 8 20 86 52 52 63
REMARK Flexibility Score: inf
ROOT
ATOM      1  C   UNL     1      -3.162   7.359  -6.264  1.00  0.00     0.202 C 
ENDROOT
BRANCH   1   2
ATOM      2  C   UNL     1      -1.745   7.832  -6.325  1.00  0.00     0.261 C 
BRANCH   2   3
ATOM      3  O   UNL     1      -0.845   6.956  -5.625  1.00  0.00    -0.458 OA
BRANCH   3   4
ATOM      4  C   UNL     1      -0.984   6.586  -4.337  1.00  0.00     0.357 C 
ATOM      5  O   UNL     1      -1.367   7.243  -3.399  1.00  0.00    -0.244 OA
BRANCH   4   6
ATOM      6  C   UNL     1      -0.706   5.124  -4.275  1.00  0.00     0.160 A 
ATOM      7  C   UNL     1      -1.146   3.313  -2.988  1.00  0.00     0.189 A 
ATOM      8  N   UNL     1      -1.132   4.623  -3.101  1.00  0.00    -0.215 NA
ATOM      9  N   UNL     1      -0.724   2.459  -3.928  1.00  0.00    -0.222 NA
ATOM     10  C   UNL     1      -0.274   2.972  -5.082  1.00  0.00     0.076 A 
ATOM     11  C   UNL     1      -0.250   4.339  -5.359  1.00  0.00     0.034 A 
ATOM     12  C   UNL     1       0.144   2.089  -6.074  1.00  0.00     0.029 A 
ATOM     13  C   UNL     1       0.177   4.756  -6.665  1.00  0.00     0.013 A 
ATOM     14  C   UNL     1       0.535   2.510  -7.351  1.00  0.00     0.002 A 
ATOM     15  C   UNL     1       0.533   3.854  -7.655  1.00  0.00     0.001 A 
BRANCH   7  16
ATOM     16  S   UNL     1      -2.066   2.692  -1.623  1.00  0.00    -0.076 SA
BRANCH  16  17
ATOM     17  C   UNL     1      -1.355   3.721  -0.290  1.00  0.00     0.178 C 
BRANCH  17  18
ATOM     18  C   UNL     1       0.130   3.489  -0.081  1.00  0.00     0.234 C 
ATOM     19  N   UNL     1       0.690   2.277   0.207  1.00  0.00    -0.325 N 
ATOM     20  H   UNL     1       1.662   2.327   0.357  1.00  0.00     0.169 HD
ATOM     21  O   UNL     1       0.921   4.437  -0.169  1.00  0.00    -0.274 OA
BRANCH  19  22
ATOM     22  C   UNL     1       0.177   0.972   0.337  1.00  0.00     0.044 A 
ATOM     23  C   UNL     1       2.519  -0.043  -0.077  1.00  0.00     0.046 C 
ATOM     24  C   UNL     1       1.025  -0.129   0.097  1.00  0.00    -0.027 A 
ATOM     25  C   UNL     1       0.461  -1.418  -0.001  1.00  0.00     0.005 A 
ATOM     26  C   UNL     1      -0.905  -1.625   0.169  1.00  0.00     0.000 A 
ATOM     27  C   UNL     1      -1.161   0.718   0.650  1.00  0.00     0.026 A 
ATOM     28  C   UNL     1      -1.713  -0.558   0.525  1.00  0.00     0.002 A 
ENDBRANCH  19  22
ENDBRANCH  17  18
ENDBRANCH  16  17
ENDBRANCH   7  16
ENDBRANCH   4   6
ENDBRANCH   3   4
ENDBRANCH   2   3
ENDBRANCH   1   2
BRANCH   1  29
ATOM     29  O   UNL     1      -3.514   7.440  -4.897  1.00  0.00    -0.374 OA
BRANCH  29  30
ATOM     30  C   UNL     1      -4.739   6.870  -4.515  1.00  0.00     0.202 C 
BRANCH  30  31
ATOM     31  C   UNL     1      -5.909   7.558  -5.213  1.00  0.00     0.261 C 
BRANCH  31  32
ATOM     32  O   UNL     1      -6.060   8.923  -4.752  1.00  0.00    -0.460 OA
BRANCH  32  33
ATOM     33  C   UNL     1      -5.500   9.902  -5.529  1.00  0.00     0.338 C 
ATOM     34  O   UNL     1      -5.989  10.295  -6.574  1.00  0.00    -0.246 OA
BRANCH  33  35
ATOM     35  C   UNL     1      -4.234  10.413  -4.918  1.00  0.00     0.060 A 
ATOM     36  C   UNL     1      -3.275  11.120  -5.671  1.00  0.00     0.016 A 
ATOM     37  C   UNL     1      -3.907   9.971  -3.644  1.00  0.00     0.016 A 
ATOM     38  C   UNL     1      -1.942  11.227  -5.218  1.00  0.00     0.010 A 
ATOM     39  C   UNL     1      -2.582   9.966  -3.268  1.00  0.00     0.010 A 
ATOM     40  C   UNL     1      -1.575  10.562  -4.054  1.00  0.00    -0.014 A 
BRANCH  40  41
ATOM     41  C   UNL     1      -0.222  10.350  -3.507  1.00  0.00     0.031 A 
ATOM     42  C   UNL     1      -0.014  10.807  -2.112  1.00  0.00     0.074 A 
ATOM     43  C   UNL     1       0.626   9.426  -4.030  1.00  0.00     0.049 A 
ATOM     44  N   UNL     1       1.031  10.555  -1.414  1.00  0.00    -0.248 NA
ATOM     45  C   UNL     1      -0.982  11.622  -1.376  1.00  0.00     0.031 C 
ATOM     46  C   UNL     1       1.518   8.512  -3.302  1.00  0.00     0.029 A 
ATOM     47  N   UNL     1       0.843   9.057  -5.356  1.00  0.00    -0.354 N 
ATOM     48  C   UNL     1       0.740  10.819  -0.098  1.00  0.00     0.074 A 
ATOM     49  C   UNL     1      -0.465  11.602  -0.144  1.00  0.00     0.031 C 
ATOM     50  C   UNL     1       2.334   7.877  -4.161  1.00  0.00     0.029 A 
ATOM     51  C   UNL     1       2.107   8.457  -5.469  1.00  0.00     0.049 A 
ATOM     52  H   UNL     1       0.210   9.196  -6.098  1.00  0.00     0.167 HD
ATOM     53  C   UNL     1       1.520  10.224   0.848  1.00  0.00     0.037 A 
ATOM     54  C   UNL     1       3.033   8.992  -6.308  1.00  0.00     0.037 A 
ATOM     55  C   UNL     1       2.689   9.601   0.200  1.00  0.00     0.049 A 
ATOM     56  C   UNL     1       4.147   9.548  -5.463  1.00  0.00     0.074 A 
ATOM     57  C   UNL     1       3.074   8.297  -0.060  1.00  0.00     0.029 A 
ATOM     58  N   UNL     1       3.508  10.408  -0.593  1.00  0.00    -0.354 N 
ATOM     59  N   UNL     1       3.979   9.878  -4.208  1.00  0.00    -0.248 NA
ATOM     60  C   UNL     1       5.544   9.618  -5.872  1.00  0.00     0.031 C 
ATOM     61  C   UNL     1       4.091   8.337  -1.067  1.00  0.00     0.029 A 
ATOM     62  C   UNL     1       4.343   9.662  -1.401  1.00  0.00     0.049 A 
ATOM     63  H   UNL     1       3.493  11.393  -0.577  1.00  0.00     0.167 HD
ATOM     64  C   UNL     1       5.187  10.087  -3.617  1.00  0.00     0.074 A 
ATOM     65  C   UNL     1       6.137   9.950  -4.710  1.00  0.00     0.031 C 
ATOM     66  C   UNL     1       5.318  10.319  -2.277  1.00  0.00     0.037 A 
BRANCH  53  67
ATOM     67  C   UNL     1       1.196  10.079   2.328  1.00  0.00     0.058 A 
ATOM     68  C   UNL     1       2.098   9.410   3.188  1.00  0.00     0.135 A 
ATOM     69  C   UNL     1       0.007  10.502   2.966  1.00  0.00     0.135 A 
ATOM     70  F   UNL     1       3.260   8.921   2.733  1.00  0.00    -0.206 F 
ATOM     71  C   UNL     1       1.849   9.196   4.550  1.00  0.00     0.059 A 
ATOM     72  C   UNL     1      -0.249  10.331   4.332  1.00  0.00     0.059 A 
ATOM     73  F   UNL     1      -1.003  11.072   2.305  1.00  0.00    -0.206 F 
ATOM     74  C   UNL     1       0.675   9.669   5.119  1.00  0.00     0.060 A 
BRANCH  74  75
ATOM     75  S   UNL     1       0.370   9.410   6.876  1.00  0.00     0.124 S 
ATOM     76  O   UNL     1       0.283   7.956   6.960  1.00  0.00    -0.237 OA
ATOM     77  O   UNL     1       1.549  10.014   7.487  1.00  0.00    -0.237 OA
ATOM     78  O   UNL     1      -0.884  10.121   7.115  1.00  0.00    -0.744 OA
ENDBRANCH  74  75
ENDBRANCH  53  67
BRANCH  54  79
ATOM     79  C   UNL     1       2.391   9.482  -7.577  1.00  0.00     0.058 A 
ATOM     80  C   UNL     1       1.993   8.475  -8.490  1.00  0.00     0.135 A 
ATOM     81  C   UNL     1       1.633  10.667  -7.589  1.00  0.00     0.135 A 
ATOM     82  F   UNL     1       2.671   7.315  -8.539  1.00  0.00    -0.206 F 
ATOM     83  C   UNL     1       0.806   8.554  -9.225  1.00  0.00     0.059 A 
ATOM     84  C   UNL     1       0.422  10.754  -8.298  1.00  0.00     0.059 A 
ATOM     85  F   UNL     1       1.941  11.668  -6.751  1.00  0.00    -0.206 F 
ATOM     86  C   UNL     1      -0.010   9.672  -9.072  1.00  0.00     0.060 A 
BRANCH  86  87
ATOM     87  S   UNL     1      -1.732   9.589  -9.668  1.00  0.00     0.124 S 
ATOM     88  O   UNL     1      -1.592   9.987 -11.062  1.00  0.00    -0.237 OA
ATOM     89  O   UNL     1      -2.090   8.188  -9.452  1.00  0.00    -0.237 OA
ATOM     90  O   UNL     1      -2.421  10.530  -8.793  1.00  0.00    -0.744 OA
ENDBRANCH  86  87
ENDBRANCH  54  79
BRANCH  66  91
ATOM     91  C   UNL     1       6.431  11.148  -1.671  1.00  0.00     0.058 A 
ATOM     92  C   UNL     1       7.314  11.943  -2.424  1.00  0.00     0.135 A 
ATOM     93  C   UNL     1       6.536  11.310  -0.265  1.00  0.00     0.135 A 
ATOM     94  F   UNL     1       7.244  12.023  -3.758  1.00  0.00    -0.206 F 
ATOM     95  C   UNL     1       8.289  12.744  -1.838  1.00  0.00     0.059 A 
ATOM     96  C   UNL     1       7.444  12.172   0.339  1.00  0.00     0.059 A 
ATOM     97  F   UNL     1       5.739  10.658   0.593  1.00  0.00    -0.206 F 
ATOM     98  C   UNL     1       8.347  12.853  -0.456  1.00  0.00     0.060 A 
BRANCH  98  99
ATOM     99  S   UNL     1       9.595  13.914   0.275  1.00  0.00     0.124 S 
ATOM    100  O   UNL     1      10.791  13.090   0.128  1.00  0.00    -0.237 OA
ATOM    101  O   UNL     1       9.536  15.099  -0.576  1.00  0.00    -0.237 OA
ATOM    102  O   UNL     1       9.123  14.107   1.642  1.00  0.00    -0.744 OA
ENDBRANCH  98  99
ENDBRANCH  66  91
ENDBRANCH  40  41
ENDBRANCH  33  35
ENDBRANCH  32  33
ENDBRANCH  31  32
ENDBRANCH  30  31
ENDBRANCH  29  30
ENDBRANCH   1  29
TORSDOF 21
