REMARK SMILES Nn1c(Cc2ccc(F)c(F)c2)nnc1SCC(=O)OCCOCCOC(=O)c1ccc(-c2c3nc(c(-c4c(F)cc(S(=O)(=O)[O-])cc4F)c4ccc([nH]4)c(-c4c(F)cc(S(=O)(=O)[O-])cc4F)c4nc(c(-c5c(F)cc(S(=O)(=O)[O-])cc5F)c5ccc2[nH]5)C=C4)C=C3)cc1
REMARK SMILES IDX 22 1 21 2 20 3 18 4 19 5 17 6 16 7 15 8 2 9 3 10 13 11 14 12
REMARK SMILES IDX 1 13 4 16 5 17 6 18 12 19 7 20 10 21 8 22 11 23 9 24 23 25
REMARK SMILES IDX 24 26 25 27 26 28 27 29 28 30 29 31 30 32 94 33 31 34 93 35
REMARK SMILES IDX 32 36 33 37 34 38 87 39 35 40 92 41 86 42 88 43 36 44 91 45
REMARK SMILES IDX 85 46 84 47 37 49 71 50 50 51 70 52 51 53 54 54 69 55 89 56
REMARK SMILES IDX 52 57 53 58 68 60 90 61 55 62 38 63 39 64 48 65 40 66 41 67
REMARK SMILES IDX 47 68 49 69 42 70 43 71 44 72 45 73 46 74 72 75 73 76 82 77
REMARK SMILES IDX 74 78 75 79 81 80 83 81 76 82 77 83 78 84 79 85 80 86 56 87
REMARK SMILES IDX 57 88 66 89 58 90 59 91 65 92 67 93 60 94 61 95 62 96 63 97
REMARK SMILES IDX 64 98
REMARK H PARENT 1 14 1 15 88 48 54 59
REMARK Flexibility Score: inf
ROOT
ATOM      1  C   UNL     1       3.294  -1.242  -3.980  1.00  0.00     0.202 C 
ENDROOT
BRANCH   1   2
ATOM      2  C   UNL     1       3.546  -2.507  -3.145  1.00  0.00     0.261 C 
BRANCH   2   3
ATOM      3  O   UNL     1       2.606  -2.731  -2.069  1.00  0.00    -0.463 OA
BRANCH   3   4
ATOM      4  C   UNL     1       3.098  -2.645  -0.803  1.00  0.00     0.316 C 
ATOM      5  O   UNL     1       4.232  -2.259  -0.529  1.00  0.00    -0.251 OA
BRANCH   4   6
ATOM      6  C   UNL     1       2.145  -3.081   0.286  1.00  0.00     0.200 C 
BRANCH   6   7
ATOM      7  S   UNL     1       0.416  -2.740   0.005  1.00  0.00    -0.073 SA
BRANCH   7   8
ATOM      8  C   UNL     1      -0.017  -1.144   0.520  1.00  0.00     0.210 A 
ATOM      9  N   UNL     1       0.764  -0.038   0.804  1.00  0.00    -0.221 N 
ATOM     10  C   UNL     1      -0.100   1.047   0.684  1.00  0.00     0.157 A 
ATOM     11  N   UNL     1      -1.335   0.587   0.652  1.00  0.00    -0.132 NA
ATOM     12  N   UNL     1      -1.281  -0.773   0.526  1.00  0.00    -0.121 NA
BRANCH   9  13
ATOM     13  N   UNL     1       2.143   0.018   1.189  1.00  0.00    -0.336 N 
ATOM     14  H   UNL     1       2.571   0.888   1.361  1.00  0.00     0.178 HD
ATOM     15  H   UNL     1       2.662  -0.813   1.282  1.00  0.00     0.178 HD
ENDBRANCH   9  13
BRANCH  10  16
ATOM     16  C   UNL     1       0.287   2.491   0.549  1.00  0.00     0.115 C 
BRANCH  16  17
ATOM     17  C   UNL     1      -0.272   3.195  -0.690  1.00  0.00    -0.037 A 
ATOM     18  C   UNL     1      -1.654   3.225  -0.963  1.00  0.00     0.007 A 
ATOM     19  C   UNL     1       0.584   3.882  -1.571  1.00  0.00     0.046 A 
ATOM     20  C   UNL     1      -2.160   3.894  -2.086  1.00  0.00     0.043 A 
ATOM     21  C   UNL     1       0.071   4.547  -2.690  1.00  0.00     0.159 A 
ATOM     22  C   UNL     1      -1.292   4.554  -2.945  1.00  0.00     0.158 A 
ATOM     23  F   UNL     1       0.914   5.193  -3.509  1.00  0.00    -0.204 F 
ATOM     24  F   UNL     1      -1.783   5.215  -4.003  1.00  0.00    -0.204 F 
ENDBRANCH  16  17
ENDBRANCH  10  16
ENDBRANCH   7   8
ENDBRANCH   6   7
ENDBRANCH   4   6
ENDBRANCH   3   4
ENDBRANCH   2   3
ENDBRANCH   1   2
BRANCH   1  25
ATOM     25  O   UNL     1       3.434   0.025  -3.337  1.00  0.00    -0.374 OA
BRANCH  25  26
ATOM     26  C   UNL     1       2.523   0.332  -2.295  1.00  0.00     0.202 C 
BRANCH  26  27
ATOM     27  C   UNL     1       1.061   0.579  -2.653  1.00  0.00     0.261 C 
BRANCH  27  28
ATOM     28  O   UNL     1       0.490  -0.394  -3.509  1.00  0.00    -0.460 OA
BRANCH  28  29
ATOM     29  C   UNL     1       0.097   0.115  -4.694  1.00  0.00     0.338 C 
ATOM     30  O   UNL     1       0.182   1.271  -5.091  1.00  0.00    -0.246 OA
BRANCH  29  31
ATOM     31  C   UNL     1      -0.329  -0.994  -5.531  1.00  0.00     0.060 A 
ATOM     32  C   UNL     1       0.401  -1.237  -6.697  1.00  0.00     0.016 A 
ATOM     33  C   UNL     1      -1.456  -1.742  -5.187  1.00  0.00     0.016 A 
ATOM     34  C   UNL     1      -0.035  -2.218  -7.571  1.00  0.00     0.010 A 
ATOM     35  C   UNL     1      -1.893  -2.721  -6.067  1.00  0.00     0.010 A 
ATOM     36  C   UNL     1      -1.205  -2.929  -7.275  1.00  0.00    -0.014 A 
BRANCH  36  37
ATOM     37  C   UNL     1      -1.823  -3.765  -8.317  1.00  0.00     0.031 A 
ATOM     38  C   UNL     1      -2.965  -3.186  -9.096  1.00  0.00     0.074 A 
ATOM     39  C   UNL     1      -1.358  -5.003  -8.545  1.00  0.00     0.049 A 
ATOM     40  N   UNL     1      -3.727  -3.755  -9.989  1.00  0.00    -0.248 NA
ATOM     41  C   UNL     1      -3.299  -1.775  -8.826  1.00  0.00     0.031 C 
ATOM     42  C   UNL     1      -0.222  -5.617  -7.857  1.00  0.00     0.029 A 
ATOM     43  N   UNL     1      -1.795  -5.969  -9.409  1.00  0.00    -0.354 N 
ATOM     44  C   UNL     1      -4.638  -2.780 -10.378  1.00  0.00     0.074 A 
ATOM     45  C   UNL     1      -4.354  -1.592  -9.606  1.00  0.00     0.031 C 
ATOM     46  C   UNL     1      -0.062  -6.870  -8.317  1.00  0.00     0.029 A 
ATOM     47  C   UNL     1      -1.107  -7.152  -9.297  1.00  0.00     0.049 A 
ATOM     48  H   UNL     1      -2.530  -5.829 -10.048  1.00  0.00     0.167 HD
ATOM     49  C   UNL     1      -5.617  -2.876 -11.305  1.00  0.00     0.037 A 
ATOM     50  C   UNL     1      -1.327  -8.334  -9.902  1.00  0.00     0.037 A 
ATOM     51  C   UNL     1      -5.877  -4.075 -12.053  1.00  0.00     0.049 A 
ATOM     52  C   UNL     1      -2.467  -8.436 -10.882  1.00  0.00     0.074 A 
ATOM     53  C   UNL     1      -6.840  -4.298 -13.018  1.00  0.00     0.029 A 
ATOM     54  N   UNL     1      -5.164  -5.259 -11.912  1.00  0.00    -0.354 N 
ATOM     55  N   UNL     1      -3.320  -7.509 -11.252  1.00  0.00    -0.248 NA
ATOM     56  C   UNL     1      -2.677  -9.739 -11.527  1.00  0.00     0.031 C 
ATOM     57  C   UNL     1      -6.740  -5.631 -13.428  1.00  0.00     0.029 A 
ATOM     58  C   UNL     1      -5.676  -6.222 -12.761  1.00  0.00     0.049 A 
ATOM     59  H   UNL     1      -4.406  -5.393 -11.298  1.00  0.00     0.167 HD
ATOM     60  C   UNL     1      -4.143  -8.104 -12.201  1.00  0.00     0.074 A 
ATOM     61  C   UNL     1      -3.687  -9.473 -12.344  1.00  0.00     0.031 C 
ATOM     62  C   UNL     1      -5.176  -7.569 -12.897  1.00  0.00     0.037 A 
BRANCH  49  63
ATOM     63  C   UNL     1      -6.485  -1.670 -11.531  1.00  0.00     0.058 A 
ATOM     64  C   UNL     1      -5.997  -0.513 -12.159  1.00  0.00     0.135 A 
ATOM     65  C   UNL     1      -7.831  -1.677 -11.130  1.00  0.00     0.135 A 
ATOM     66  F   UNL     1      -4.711  -0.443 -12.542  1.00  0.00    -0.206 F 
ATOM     67  C   UNL     1      -6.804   0.601 -12.361  1.00  0.00     0.059 A 
ATOM     68  C   UNL     1      -8.665  -0.584 -11.347  1.00  0.00     0.059 A 
ATOM     69  F   UNL     1      -8.348  -2.754 -10.517  1.00  0.00    -0.206 F 
ATOM     70  C   UNL     1      -8.138   0.556 -11.953  1.00  0.00     0.060 A 
BRANCH  70  71
ATOM     71  S   UNL     1      -9.176   2.006 -12.233  1.00  0.00     0.124 S 
ATOM     72  O   UNL     1      -8.652   2.937 -11.240  1.00  0.00    -0.237 OA
ATOM     73  O   UNL     1      -8.884   2.333 -13.625  1.00  0.00    -0.237 OA
ATOM     74  O   UNL     1     -10.526   1.512 -11.979  1.00  0.00    -0.744 OA
ENDBRANCH  70  71
ENDBRANCH  49  63
BRANCH  50  75
ATOM     75  C   UNL     1      -0.461  -9.501  -9.592  1.00  0.00     0.058 A 
ATOM     76  C   UNL     1       0.428 -10.015 -10.545  1.00  0.00     0.135 A 
ATOM     77  C   UNL     1      -0.490 -10.112  -8.328  1.00  0.00     0.135 A 
ATOM     78  F   UNL     1       0.492  -9.467 -11.768  1.00  0.00    -0.206 F 
ATOM     79  C   UNL     1       1.246 -11.105 -10.265  1.00  0.00     0.059 A 
ATOM     80  C   UNL     1       0.336 -11.187  -8.015  1.00  0.00     0.059 A 
ATOM     81  F   UNL     1      -1.311  -9.647  -7.373  1.00  0.00    -0.206 F 
ATOM     82  C   UNL     1       1.194 -11.683  -8.995  1.00  0.00     0.060 A 
BRANCH  82  83
ATOM     83  S   UNL     1       2.291 -13.070  -8.630  1.00  0.00     0.124 S 
ATOM     84  O   UNL     1       1.675 -14.143  -9.402  1.00  0.00    -0.237 OA
ATOM     85  O   UNL     1       3.575 -12.583  -9.123  1.00  0.00    -0.237 OA
ATOM     86  O   UNL     1       2.195 -13.201  -7.179  1.00  0.00    -0.744 OA
ENDBRANCH  82  83
ENDBRANCH  50  75
BRANCH  62  87
ATOM     87  C   UNL     1      -5.848  -8.437 -13.922  1.00  0.00     0.058 A 
ATOM     88  C   UNL     1      -6.738  -9.457 -13.557  1.00  0.00     0.135 A 
ATOM     89  C   UNL     1      -5.678  -8.164 -15.289  1.00  0.00     0.135 A 
ATOM     90  F   UNL     1      -6.927  -9.760 -12.264  1.00  0.00    -0.206 F 
ATOM     91  C   UNL     1      -7.437 -10.181 -14.517  1.00  0.00     0.059 A 
ATOM     92  C   UNL     1      -6.387  -8.857 -16.263  1.00  0.00     0.059 A 
ATOM     93  F   UNL     1      -4.844  -7.190 -15.686  1.00  0.00    -0.206 F 
ATOM     94  C   UNL     1      -7.263  -9.866 -15.866  1.00  0.00     0.060 A 
BRANCH  94  95
ATOM     95  S   UNL     1      -8.237 -10.760 -17.095  1.00  0.00     0.124 S 
ATOM     96  O   UNL     1      -7.587 -12.066 -17.093  1.00  0.00    -0.237 OA
ATOM     97  O   UNL     1      -9.578 -10.718 -16.519  1.00  0.00    -0.237 OA
ATOM     98  O   UNL     1      -8.059  -9.971 -18.310  1.00  0.00    -0.744 OA
ENDBRANCH  94  95
ENDBRANCH  62  87
ENDBRANCH  36  37
ENDBRANCH  29  31
ENDBRANCH  28  29
ENDBRANCH  27  28
ENDBRANCH  26  27
ENDBRANCH  25  26
ENDBRANCH   1  25
TORSDOF 22
