REMARK SMILES CC[C@@H]1CC[C@H]([C@@H](C)C(=O)OCCOCCOC(=O)c2ccc(-c3c4nc(c(-c5c(F)cc(S(=O)(=O)[O-])cc5F)c5ccc([nH]5)c(-c5c(F)cc(S(=O)(=O)[O-])cc5F)c5nc(c(-c6c(F)cc(S(=O)(=O)[O-])cc6F)c6ccc3[nH]6)C=C5)C=C4)cc2)C1
REMARK SMILES IDX 15 1 14 2 13 3 12 4 11 5 9 6 10 7 7 8 8 9 6 10 3 11 4 12
REMARK SMILES IDX 86 13 5 14 2 15 1 16 16 17 17 18 18 19 19 20 20 21 21 22
REMARK SMILES IDX 85 23 22 24 84 25 23 26 24 27 25 28 78 29 26 30 83 31 77 32
REMARK SMILES IDX 79 33 27 34 82 35 76 36 75 37 28 39 62 40 41 41 61 42 42 43
REMARK SMILES IDX 45 44 60 45 80 46 43 47 44 48 59 50 81 51 46 52 29 53 30 54
REMARK SMILES IDX 39 55 31 56 32 57 38 58 40 59 33 60 34 61 35 62 36 63 37 64
REMARK SMILES IDX 63 65 64 66 73 67 65 68 66 69 72 70 74 71 67 72 68 73 69 74
REMARK SMILES IDX 70 75 71 76 47 77 48 78 57 79 49 80 50 81 56 82 58 83 51 84
REMARK SMILES IDX 52 85 53 86 54 87 55 88
REMARK H PARENT 79 38 45 49
REMARK Flexibility Score: inf
ROOT
ATOM      1  C   UNL     1       0.009  -4.236  -1.276  1.00  0.00     0.202 C 
ENDROOT
BRANCH   1   2
ATOM      2  O   UNL     1       0.014  -5.573  -1.776  1.00  0.00    -0.374 OA
BRANCH   2   3
ATOM      3  C   UNL     1       1.068  -5.926  -2.668  1.00  0.00     0.202 C 
BRANCH   3   4
ATOM      4  C   UNL     1       0.924  -5.460  -4.121  1.00  0.00     0.261 C 
BRANCH   4   5
ATOM      5  O   UNL     1       0.869  -4.032  -4.301  1.00  0.00    -0.463 OA
BRANCH   5   6
ATOM      6  C   UNL     1      -0.369  -3.537  -4.573  1.00  0.00     0.309 C 
ATOM      7  O   UNL     1      -1.411  -4.180  -4.503  1.00  0.00    -0.252 OA
BRANCH   6   8
ATOM      8  C   UNL     1      -0.346  -2.116  -5.112  1.00  0.00     0.099 C 
ATOM      9  C   UNL     1      -0.144  -2.230  -6.628  1.00  0.00     0.020 C 
BRANCH   8  10
ATOM     10  C   UNL     1       0.653  -1.132  -4.468  1.00  0.00     0.003 C 
ATOM     11  C   UNL     1       0.972   0.476  -2.677  1.00  0.00    -0.011 C 
ATOM     12  C   UNL     1       0.352   1.236  -3.841  1.00  0.00     0.004 C 
ATOM     13  C   UNL     1       0.506  -0.957  -2.946  1.00  0.00     0.008 C 
ATOM     14  C   UNL     1       0.501   0.300  -5.034  1.00  0.00     0.005 C 
BRANCH  11  15
ATOM     15  C   UNL     1       0.547   1.063  -1.329  1.00  0.00     0.000 C 
ATOM     16  C   UNL     1       1.145   0.331  -0.139  1.00  0.00     0.004 C 
ENDBRANCH  11  15
ENDBRANCH   8  10
ENDBRANCH   6   8
ENDBRANCH   5   6
ENDBRANCH   4   5
ENDBRANCH   3   4
ENDBRANCH   2   3
ENDBRANCH   1   2
BRANCH   1  17
ATOM     17  C   UNL     1       1.157  -3.893  -0.323  1.00  0.00     0.261 C 
BRANCH  17  18
ATOM     18  O   UNL     1       2.403  -3.787  -1.036  1.00  0.00    -0.460 OA
BRANCH  18  19
ATOM     19  C   UNL     1       3.470  -4.224  -0.332  1.00  0.00     0.338 C 
ATOM     20  O   UNL     1       3.502  -4.486   0.865  1.00  0.00    -0.246 OA
BRANCH  19  21
ATOM     21  C   UNL     1       4.583  -4.540  -1.240  1.00  0.00     0.060 A 
ATOM     22  C   UNL     1       4.927  -5.888  -1.397  1.00  0.00     0.016 A 
ATOM     23  C   UNL     1       5.359  -3.535  -1.821  1.00  0.00     0.016 A 
ATOM     24  C   UNL     1       6.091  -6.234  -2.081  1.00  0.00     0.010 A 
ATOM     25  C   UNL     1       6.530  -3.886  -2.506  1.00  0.00     0.010 A 
ATOM     26  C   UNL     1       6.926  -5.233  -2.599  1.00  0.00    -0.014 A 
BRANCH  26  27
ATOM     27  C   UNL     1       8.279  -5.602  -3.087  1.00  0.00     0.031 A 
ATOM     28  C   UNL     1       9.463  -5.430  -2.172  1.00  0.00     0.074 A 
ATOM     29  C   UNL     1       8.451  -6.137  -4.310  1.00  0.00     0.049 A 
ATOM     30  N   UNL     1      10.720  -5.728  -2.377  1.00  0.00    -0.248 NA
ATOM     31  C   UNL     1       9.191  -4.846  -0.849  1.00  0.00     0.031 C 
ATOM     32  C   UNL     1       7.386  -6.378  -5.281  1.00  0.00     0.029 A 
ATOM     33  N   UNL     1       9.589  -6.576  -4.939  1.00  0.00    -0.354 N 
ATOM     34  C   UNL     1      11.390  -5.370  -1.213  1.00  0.00     0.074 A 
ATOM     35  C   UNL     1      10.404  -4.802  -0.318  1.00  0.00     0.031 C 
ATOM     36  C   UNL     1       7.923  -6.919  -6.389  1.00  0.00     0.029 A 
ATOM     37  C   UNL     1       9.369  -7.045  -6.211  1.00  0.00     0.049 A 
ATOM     38  H   UNL     1      10.479  -6.556  -4.518  1.00  0.00     0.167 HD
ATOM     39  C   UNL     1      12.703  -5.510  -0.910  1.00  0.00     0.037 A 
ATOM     40  C   UNL     1      10.235  -7.513  -7.132  1.00  0.00     0.037 A 
ATOM     41  C   UNL     1      13.685  -6.075  -1.797  1.00  0.00     0.049 A 
ATOM     42  C   UNL     1      11.698  -7.618  -6.795  1.00  0.00     0.074 A 
ATOM     43  C   UNL     1      15.034  -6.287  -1.567  1.00  0.00     0.029 A 
ATOM     44  N   UNL     1      13.428  -6.508  -3.090  1.00  0.00    -0.354 N 
ATOM     45  N   UNL     1      12.309  -7.311  -5.675  1.00  0.00    -0.248 NA
ATOM     46  C   UNL     1      12.589  -8.137  -7.842  1.00  0.00     0.031 C 
ATOM     47  C   UNL     1      15.601  -6.809  -2.736  1.00  0.00     0.029 A 
ATOM     48  C   UNL     1      14.597  -6.960  -3.680  1.00  0.00     0.049 A 
ATOM     49  H   UNL     1      12.545  -6.495  -3.524  1.00  0.00     0.167 HD
ATOM     50  C   UNL     1      13.652  -7.615  -5.877  1.00  0.00     0.074 A 
ATOM     51  C   UNL     1      13.762  -8.140  -7.223  1.00  0.00     0.031 C 
ATOM     52  C   UNL     1      14.697  -7.475  -5.024  1.00  0.00     0.037 A 
BRANCH  39  53
ATOM     53  C   UNL     1      13.154  -5.017   0.437  1.00  0.00     0.058 A 
ATOM     54  C   UNL     1      12.841  -5.708   1.618  1.00  0.00     0.135 A 
ATOM     55  C   UNL     1      13.914  -3.841   0.546  1.00  0.00     0.135 A 
ATOM     56  F   UNL     1      12.105  -6.829   1.570  1.00  0.00    -0.206 F 
ATOM     57  C   UNL     1      13.235  -5.231   2.865  1.00  0.00     0.059 A 
ATOM     58  C   UNL     1      14.337  -3.358   1.780  1.00  0.00     0.059 A 
ATOM     59  F   UNL     1      14.240  -3.143  -0.553  1.00  0.00    -0.206 F 
ATOM     60  C   UNL     1      13.976  -4.050   2.936  1.00  0.00     0.060 A 
BRANCH  60  61
ATOM     61  S   UNL     1      14.460  -3.426   4.559  1.00  0.00     0.124 S 
ATOM     62  O   UNL     1      13.204  -2.857   5.037  1.00  0.00    -0.237 OA
ATOM     63  O   UNL     1      14.907  -4.636   5.242  1.00  0.00    -0.237 OA
ATOM     64  O   UNL     1      15.510  -2.461   4.252  1.00  0.00    -0.744 OA
ENDBRANCH  60  61
ENDBRANCH  39  53
BRANCH  40  65
ATOM     65  C   UNL     1       9.730  -7.918  -8.470  1.00  0.00     0.058 A 
ATOM     66  C   UNL     1       9.644  -9.268  -8.836  1.00  0.00     0.135 A 
ATOM     67  C   UNL     1       9.288  -6.958  -9.393  1.00  0.00     0.135 A 
ATOM     68  F   UNL     1      10.067 -10.221  -7.991  1.00  0.00    -0.206 F 
ATOM     69  C   UNL     1       9.133  -9.655 -10.070  1.00  0.00     0.059 A 
ATOM     70  C   UNL     1       8.754  -7.321 -10.625  1.00  0.00     0.059 A 
ATOM     71  F   UNL     1       9.343  -5.653  -9.084  1.00  0.00    -0.206 F 
ATOM     72  C   UNL     1       8.682  -8.673 -10.955  1.00  0.00     0.060 A 
BRANCH  72  73
ATOM     73  S   UNL     1       7.938  -9.187 -12.519  1.00  0.00     0.124 S 
ATOM     74  O   UNL     1       9.113  -9.566 -13.294  1.00  0.00    -0.237 OA
ATOM     75  O   UNL     1       7.068 -10.282 -12.100  1.00  0.00    -0.237 OA
ATOM     76  O   UNL     1       7.244  -7.984 -12.969  1.00  0.00    -0.744 OA
ENDBRANCH  72  73
ENDBRANCH  40  65
BRANCH  52  77
ATOM     77  C   UNL     1      16.053  -7.906  -5.509  1.00  0.00     0.058 A 
ATOM     78  C   UNL     1      16.784  -7.133  -6.425  1.00  0.00     0.135 A 
ATOM     79  C   UNL     1      16.651  -9.075  -5.012  1.00  0.00     0.135 A 
ATOM     80  F   UNL     1      16.255  -6.010  -6.934  1.00  0.00    -0.206 F 
ATOM     81  C   UNL     1      18.055  -7.515  -6.845  1.00  0.00     0.059 A 
ATOM     82  C   UNL     1      17.929  -9.464  -5.402  1.00  0.00     0.059 A 
ATOM     83  F   UNL     1      15.998  -9.844  -4.127  1.00  0.00    -0.206 F 
ATOM     84  C   UNL     1      18.619  -8.682  -6.328  1.00  0.00     0.060 A 
BRANCH  84  85
ATOM     85  S   UNL     1      20.283  -9.150  -6.853  1.00  0.00     0.124 S 
ATOM     86  O   UNL     1      20.029  -9.692  -8.184  1.00  0.00    -0.237 OA
ATOM     87  O   UNL     1      20.996  -7.877  -6.813  1.00  0.00    -0.237 OA
ATOM     88  O   UNL     1      20.695 -10.123  -5.846  1.00  0.00    -0.744 OA
ENDBRANCH  84  85
ENDBRANCH  52  77
ENDBRANCH  26  27
ENDBRANCH  19  21
ENDBRANCH  18  19
ENDBRANCH  17  18
ENDBRANCH   1  17
TORSDOF 19
