REMARK SMILES CS(=O)(=O)c1ccc(/C=C(/C(=O)OCCOCCOC(=O)c2ccc(-c3c4nc(c(-c5c(F)cc(S(=O)(=O)[O-])cc5F)c5ccc([nH]5)c(-c5c(F)cc(S(=O)(=O)[O-])cc5F)c5nc(c(-c6c(F)cc(S(=O)(=O)[O-])cc6F)c6ccc3[nH]6)C=C5)C=C4)cc2)c2ccc(O)cc2)cc1
REMARK SMILES IDX 17 1 16 2 15 3 14 4 13 5 11 6 12 7 10 8 9 9 8 10 5 11 6 12
REMARK SMILES IDX 96 13 7 14 95 15 2 16 1 17 3 18 4 19 88 20 89 21 94 22 90 23
REMARK SMILES IDX 93 24 91 25 92 26 18 28 19 29 20 30 21 31 22 32 23 33 87 34
REMARK SMILES IDX 24 35 86 36 25 37 26 38 27 39 80 40 28 41 85 42 79 43 81 44
REMARK SMILES IDX 29 45 84 46 78 47 77 48 30 50 64 51 43 52 63 53 44 54 47 55
REMARK SMILES IDX 62 56 82 57 45 58 46 59 61 61 83 62 48 63 31 64 32 65 41 66
REMARK SMILES IDX 33 67 34 68 40 69 42 70 35 71 36 72 37 73 38 74 39 75 65 76
REMARK SMILES IDX 66 77 75 78 67 79 68 80 74 81 76 82 69 83 70 84 71 85 72 86
REMARK SMILES IDX 73 87 49 88 50 89 59 90 51 91 52 92 58 93 60 94 53 95 54 96
REMARK SMILES IDX 55 97 56 98 57 99
REMARK H PARENT 92 27 81 49 47 60
REMARK Flexibility Score: inf
ROOT
ATOM      1  C   UNL     1       0.880   4.153   9.524  1.00  0.00     0.202 C 
ENDROOT
BRANCH   1   2
ATOM      2  O   UNL     1       1.819   4.815  10.364  1.00  0.00    -0.374 OA
BRANCH   2   3
ATOM      3  C   UNL     1       2.384   6.038   9.890  1.00  0.00     0.202 C 
BRANCH   3   4
ATOM      4  C   UNL     1       3.406   5.958   8.750  1.00  0.00     0.261 C 
BRANCH   4   5
ATOM      5  O   UNL     1       2.837   5.389   7.556  1.00  0.00    -0.460 OA
BRANCH   5   6
ATOM      6  C   UNL     1       3.409   4.225   7.153  1.00  0.00     0.338 C 
ATOM      7  O   UNL     1       4.420   3.726   7.628  1.00  0.00    -0.246 OA
BRANCH   6   8
ATOM      8  C   UNL     1       2.582   3.515   6.123  1.00  0.00     0.067 C 
ATOM      9  C   UNL     1       1.922   4.210   5.165  1.00  0.00     0.024 C 
BRANCH   9  10
ATOM     10  C   UNL     1       1.260   3.683   3.942  1.00  0.00    -0.025 A 
ATOM     11  C   UNL     1       0.438   2.637   1.460  1.00  0.00     0.067 A 
ATOM     12  C   UNL     1       0.268   1.884   2.618  1.00  0.00     0.021 A 
ATOM     13  C   UNL     1       0.906   3.948   1.540  1.00  0.00     0.021 A 
ATOM     14  C   UNL     1       0.649   2.423   3.851  1.00  0.00     0.009 A 
ATOM     15  C   UNL     1       1.310   4.466   2.778  1.00  0.00     0.009 A 
BRANCH  11  16
ATOM     16  S   UNL     1       0.113   1.906  -0.126  1.00  0.00     0.175 S 
ATOM     17  C   UNL     1       0.916   0.322  -0.081  1.00  0.00     0.163 C 
ATOM     18  O   UNL     1       0.811   2.696  -1.123  1.00  0.00    -0.224 OA
ATOM     19  O   UNL     1      -1.317   1.685  -0.207  1.00  0.00    -0.224 OA
ENDBRANCH  11  16
ENDBRANCH   9  10
BRANCH   8  20
ATOM     20  C   UNL     1       2.608   2.040   6.185  1.00  0.00    -0.011 A 
ATOM     21  C   UNL     1       1.762   1.371   7.087  1.00  0.00     0.013 A 
ATOM     22  C   UNL     1       3.416   1.295   5.320  1.00  0.00     0.013 A 
ATOM     23  C   UNL     1       1.697  -0.020   7.095  1.00  0.00     0.047 A 
ATOM     24  C   UNL     1       3.345  -0.100   5.324  1.00  0.00     0.047 A 
ATOM     25  C   UNL     1       2.476  -0.743   6.204  1.00  0.00     0.115 A 
BRANCH  25  26
ATOM     26  O   UNL     1       2.348  -2.100   6.210  1.00  0.00    -0.508 OA
ATOM     27  H   UNL     1       1.757  -2.511   6.811  1.00  0.00     0.293 HD
ENDBRANCH  25  26
ENDBRANCH   8  20
ENDBRANCH   6   8
ENDBRANCH   5   6
ENDBRANCH   4   5
ENDBRANCH   3   4
ENDBRANCH   2   3
ENDBRANCH   1   2
BRANCH   1  28
ATOM     28  C   UNL     1      -0.547   4.708   9.433  1.00  0.00     0.261 C 
BRANCH  28  29
ATOM     29  O   UNL     1      -0.597   6.087   9.046  1.00  0.00    -0.460 OA
BRANCH  29  30
ATOM     30  C   UNL     1      -0.850   6.939  10.068  1.00  0.00     0.338 C 
ATOM     31  O   UNL     1      -1.095   6.645  11.232  1.00  0.00    -0.246 OA
BRANCH  30  32
ATOM     32  C   UNL     1      -0.606   8.323   9.633  1.00  0.00     0.060 A 
ATOM     33  C   UNL     1       0.294   9.089  10.385  1.00  0.00     0.016 A 
ATOM     34  C   UNL     1      -1.278   8.877   8.542  1.00  0.00     0.016 A 
ATOM     35  C   UNL     1       0.494  10.430  10.074  1.00  0.00     0.010 A 
ATOM     36  C   UNL     1      -1.084  10.227   8.239  1.00  0.00     0.010 A 
ATOM     37  C   UNL     1      -0.222  11.016   9.023  1.00  0.00    -0.014 A 
BRANCH  37  38
ATOM     38  C   UNL     1      -0.172  12.484   8.831  1.00  0.00     0.031 A 
ATOM     39  C   UNL     1      -1.314  13.322   9.335  1.00  0.00     0.074 A 
ATOM     40  C   UNL     1       0.886  13.060   8.232  1.00  0.00     0.049 A 
ATOM     41  N   UNL     1      -1.507  14.610   9.228  1.00  0.00    -0.248 NA
ATOM     42  C   UNL     1      -2.384  12.611  10.054  1.00  0.00     0.031 C 
ATOM     43  C   UNL     1       2.066  12.350   7.740  1.00  0.00     0.029 A 
ATOM     44  N   UNL     1       1.132  14.374   7.928  1.00  0.00    -0.354 N 
ATOM     45  C   UNL     1      -2.721  14.864   9.855  1.00  0.00     0.074 A 
ATOM     46  C   UNL     1      -3.235  13.592  10.315  1.00  0.00     0.031 C 
ATOM     47  C   UNL     1       2.907  13.238   7.182  1.00  0.00     0.029 A 
ATOM     48  C   UNL     1       2.308  14.570   7.245  1.00  0.00     0.049 A 
ATOM     49  H   UNL     1       0.524  15.108   8.176  1.00  0.00     0.167 HD
ATOM     50  C   UNL     1      -3.345  16.052  10.037  1.00  0.00     0.037 A 
ATOM     51  C   UNL     1       2.827  15.692   6.709  1.00  0.00     0.037 A 
ATOM     52  C   UNL     1      -2.823  17.313   9.575  1.00  0.00     0.049 A 
ATOM     53  C   UNL     1       2.081  16.992   6.864  1.00  0.00     0.074 A 
ATOM     54  C   UNL     1      -3.366  18.576   9.725  1.00  0.00     0.029 A 
ATOM     55  N   UNL     1      -1.641  17.469   8.864  1.00  0.00    -0.354 N 
ATOM     56  N   UNL     1       0.945  17.224   7.479  1.00  0.00    -0.248 NA
ATOM     57  C   UNL     1       2.689  18.184   6.256  1.00  0.00     0.031 C 
ATOM     58  C   UNL     1      -2.542  19.488   9.058  1.00  0.00     0.029 A 
ATOM     59  C   UNL     1      -1.453  18.803   8.544  1.00  0.00     0.049 A 
ATOM     60  H   UNL     1      -1.026  16.738   8.623  1.00  0.00     0.167 HD
ATOM     61  C   UNL     1       0.716  18.591   7.355  1.00  0.00     0.074 A 
ATOM     62  C   UNL     1       1.838  19.135   6.617  1.00  0.00     0.031 C 
ATOM     63  C   UNL     1      -0.327  19.329   7.812  1.00  0.00     0.037 A 
BRANCH  50  64
ATOM     64  C   UNL     1      -4.675  16.043  10.740  1.00  0.00     0.058 A 
ATOM     65  C   UNL     1      -4.786  15.775  12.114  1.00  0.00     0.135 A 
ATOM     66  C   UNL     1      -5.853  16.341  10.035  1.00  0.00     0.135 A 
ATOM     67  F   UNL     1      -3.696  15.465  12.833  1.00  0.00    -0.206 F 
ATOM     68  C   UNL     1      -6.020  15.777  12.758  1.00  0.00     0.059 A 
ATOM     69  C   UNL     1      -7.093  16.378  10.664  1.00  0.00     0.059 A 
ATOM     70  F   UNL     1      -5.805  16.601   8.719  1.00  0.00    -0.206 F 
ATOM     71  C   UNL     1      -7.168  16.081  12.024  1.00  0.00     0.060 A 
BRANCH  71  72
ATOM     72  S   UNL     1      -8.759  16.088  12.876  1.00  0.00     0.124 S 
ATOM     73  O   UNL     1      -8.972  14.662  13.108  1.00  0.00    -0.237 OA
ATOM     74  O   UNL     1      -8.473  16.887  14.064  1.00  0.00    -0.237 OA
ATOM     75  O   UNL     1      -9.661  16.707  11.910  1.00  0.00    -0.744 OA
ENDBRANCH  71  72
ENDBRANCH  50  64
BRANCH  51  76
ATOM     76  C   UNL     1       4.112  15.632   5.963  1.00  0.00     0.058 A 
ATOM     77  C   UNL     1       5.274  16.234   6.468  1.00  0.00     0.135 A 
ATOM     78  C   UNL     1       4.205  14.966   4.730  1.00  0.00     0.135 A 
ATOM     79  F   UNL     1       5.234  16.892   7.637  1.00  0.00    -0.206 F 
ATOM     80  C   UNL     1       6.479  16.191   5.774  1.00  0.00     0.059 A 
ATOM     81  C   UNL     1       5.404  14.885   4.030  1.00  0.00     0.059 A 
ATOM     82  F   UNL     1       3.125  14.364   4.208  1.00  0.00    -0.206 F 
ATOM     83  C   UNL     1       6.534  15.509   4.556  1.00  0.00     0.060 A 
BRANCH  83  84
ATOM     84  S   UNL     1       8.116  15.412   3.689  1.00  0.00     0.124 S 
ATOM     85  O   UNL     1       8.268  16.778   3.203  1.00  0.00    -0.237 OA
ATOM     86  O   UNL     1       9.025  15.008   4.757  1.00  0.00    -0.237 OA
ATOM     87  O   UNL     1       7.875  14.400   2.666  1.00  0.00    -0.744 OA
ENDBRANCH  83  84
ENDBRANCH  51  76
BRANCH  63  88
ATOM     88  C   UNL     1      -0.289  20.813   7.561  1.00  0.00     0.058 A 
ATOM     89  C   UNL     1      -0.490  21.354   6.282  1.00  0.00     0.135 A 
ATOM     90  C   UNL     1      -0.102  21.708   8.628  1.00  0.00     0.135 A 
ATOM     91  F   UNL     1      -0.668  20.544   5.226  1.00  0.00    -0.206 F 
ATOM     92  C   UNL     1      -0.482  22.728   6.064  1.00  0.00     0.059 A 
ATOM     93  C   UNL     1      -0.121  23.086   8.438  1.00  0.00     0.059 A 
ATOM     94  F   UNL     1       0.083  21.245   9.875  1.00  0.00    -0.206 F 
ATOM     95  C   UNL     1      -0.298  23.587   7.150  1.00  0.00     0.060 A 
BRANCH  95  96
ATOM     96  S   UNL     1      -0.321  25.368   6.858  1.00  0.00     0.124 S 
ATOM     97  O   UNL     1       0.960  25.573   6.190  1.00  0.00    -0.237 OA
ATOM     98  O   UNL     1      -1.506  25.532   6.021  1.00  0.00    -0.237 OA
ATOM     99  O   UNL     1      -0.426  25.932   8.200  1.00  0.00    -0.744 OA
ENDBRANCH  95  96
ENDBRANCH  63  88
ENDBRANCH  37  38
ENDBRANCH  30  32
ENDBRANCH  29  30
ENDBRANCH  28  29
ENDBRANCH   1  28
TORSDOF 21
