REMARK SMILES CC(C)[C@@H](CNC(=O)[C@@H]1CC[C@@H]2CCCC[C@@H]2[NH2+]1)C(=O)OCCOCCOC(=O)c1ccc(-c2c3nc(c(-c4c(F)cc(S(=O)(=O)[O-])cc4F)c4ccc([nH]4)c(-c4c(F)cc(S(=O)(=O)[O-])cc4F)c4nc(c(-c5c(F)cc(S(=O)(=O)[O-])cc5F)c5ccc2[nH]5)C=C4)C=C3)cc1
REMARK SMILES IDX 24 1 23 2 22 3 21 4 19 5 20 6 4 7 2 8 1 9 3 10 5 11 6 12
REMARK SMILES IDX 7 13 8 15 9 16 10 17 18 18 11 19 17 20 12 23 16 24 13 25
REMARK SMILES IDX 15 26 14 27 25 28 26 29 27 30 28 31 29 32 30 33 31 34 95 35
REMARK SMILES IDX 32 36 94 37 33 38 34 39 35 40 88 41 36 42 93 43 87 44 89 45
REMARK SMILES IDX 37 46 92 47 86 48 85 49 38 51 72 52 51 53 71 54 52 55 55 56
REMARK SMILES IDX 70 57 90 58 53 59 54 60 69 62 91 63 56 64 39 65 40 66 49 67
REMARK SMILES IDX 41 68 42 69 48 70 50 71 43 72 44 73 45 74 46 75 47 76 73 77
REMARK SMILES IDX 74 78 83 79 75 80 76 81 82 82 84 83 77 84 78 85 79 86 80 87
REMARK SMILES IDX 81 88 57 89 58 90 67 91 59 92 60 93 66 94 68 95 61 96 62 97
REMARK SMILES IDX 63 98 64 99 65 100
REMARK H PARENT 6 14 18 21 18 22 89 50 55 61
REMARK Flexibility Score: inf
ROOT
ATOM      1  O   UNL     1      -1.394   3.863   3.962  1.00  0.00    -0.374 OA
ENDROOT
BRANCH   1   2
ATOM      2  C   UNL     1      -1.567   2.902   4.985  1.00  0.00     0.202 C 
BRANCH   2   3
ATOM      3  C   UNL     1      -1.351   1.414   4.675  1.00  0.00     0.261 C 
BRANCH   3   4
ATOM      4  O   UNL     1      -0.752   1.015   3.432  1.00  0.00    -0.463 OA
BRANCH   4   5
ATOM      5  C   UNL     1      -1.558   0.994   2.343  1.00  0.00     0.311 C 
ATOM      6  O   UNL     1      -2.697   1.450   2.313  1.00  0.00    -0.252 OA
BRANCH   5   7
ATOM      7  C   UNL     1      -0.948   0.280   1.139  1.00  0.00     0.121 C 
BRANCH   7   8
ATOM      8  C   UNL     1       0.595   0.057   1.113  1.00  0.00    -0.001 C 
ATOM      9  C   UNL     1       1.049  -0.521  -0.239  1.00  0.00     0.008 C 
ATOM     10  C   UNL     1       1.396   1.344   1.338  1.00  0.00     0.008 C 
ENDBRANCH   7   8
BRANCH   7  11
ATOM     11  C   UNL     1      -1.772  -1.009   0.904  1.00  0.00     0.131 C 
BRANCH  11  12
ATOM     12  N   UNL     1      -1.537  -2.067   1.874  1.00  0.00    -0.350 N 
ATOM     13  C   UNL     1      -2.347  -2.976   2.475  1.00  0.00     0.278 C 
ATOM     14  H   UNL     1      -0.595  -2.139   2.152  1.00  0.00     0.163 HD
ATOM     15  O   UNL     1      -1.763  -4.012   2.833  1.00  0.00    -0.268 OA
BRANCH  13  16
ATOM     16  C   UNL     1      -3.891  -2.860   2.686  1.00  0.00     0.272 C 
ATOM     17  C   UNL     1      -4.580  -1.504   2.709  1.00  0.00     0.076 C 
ATOM     18  N   UNL     1      -4.281  -3.610   3.922  1.00  0.00    -0.333 N 
ATOM     19  C   UNL     1      -4.172  -0.728   3.942  1.00  0.00     0.016 C 
ATOM     20  C   UNL     1      -4.110  -2.903   5.214  1.00  0.00     0.186 C 
ATOM     21  H   UNL     1      -3.717  -4.459   3.958  1.00  0.00     0.347 HD
ATOM     22  H   UNL     1      -5.285  -3.766   3.833  1.00  0.00     0.347 HD
ATOM     23  C   UNL     1      -4.644  -1.459   5.194  1.00  0.00     0.048 C 
ATOM     24  C   UNL     1      -2.707  -3.080   5.830  1.00  0.00     0.065 C 
ATOM     25  C   UNL     1      -4.344  -0.657   6.470  1.00  0.00     0.010 C 
ATOM     26  C   UNL     1      -2.063  -1.812   6.367  1.00  0.00     0.006 C 
ATOM     27  C   UNL     1      -3.021  -0.955   7.170  1.00  0.00     0.001 C 
ENDBRANCH  13  16
ENDBRANCH  11  12
ENDBRANCH   7  11
ENDBRANCH   5   7
ENDBRANCH   4   5
ENDBRANCH   3   4
ENDBRANCH   2   3
ENDBRANCH   1   2
BRANCH   1  28
ATOM     28  C   UNL     1      -0.113   3.954   3.354  1.00  0.00     0.202 C 
BRANCH  28  29
ATOM     29  C   UNL     1       1.108   4.023   4.277  1.00  0.00     0.261 C 
BRANCH  29  30
ATOM     30  O   UNL     1       1.350   2.787   4.989  1.00  0.00    -0.460 OA
BRANCH  30  31
ATOM     31  C   UNL     1       1.638   2.955   6.305  1.00  0.00     0.338 C 
ATOM     32  O   UNL     1       1.734   4.022   6.891  1.00  0.00    -0.246 OA
BRANCH  31  33
ATOM     33  C   UNL     1       1.703   1.674   7.040  1.00  0.00     0.060 A 
ATOM     34  C   UNL     1       0.909   1.561   8.187  1.00  0.00     0.016 A 
ATOM     35  C   UNL     1       2.653   0.693   6.745  1.00  0.00     0.016 A 
ATOM     36  C   UNL     1       1.128   0.522   9.092  1.00  0.00     0.010 A 
ATOM     37  C   UNL     1       2.871  -0.353   7.659  1.00  0.00     0.010 A 
ATOM     38  C   UNL     1       2.153  -0.408   8.868  1.00  0.00    -0.014 A 
BRANCH  38  39
ATOM     39  C   UNL     1       2.560  -1.298   9.993  1.00  0.00     0.031 A 
ATOM     40  C   UNL     1       3.749  -0.923  10.843  1.00  0.00     0.074 A 
ATOM     41  C   UNL     1       1.823  -2.373  10.332  1.00  0.00     0.049 A 
ATOM     42  N   UNL     1       4.186  -1.474  11.948  1.00  0.00    -0.248 NA
ATOM     43  C   UNL     1       4.548   0.226  10.391  1.00  0.00     0.031 C 
ATOM     44  C   UNL     1       0.645  -2.846   9.610  1.00  0.00     0.029 A 
ATOM     45  N   UNL     1       1.948  -3.251  11.380  1.00  0.00    -0.354 N 
ATOM     46  C   UNL     1       5.299  -0.734  12.330  1.00  0.00     0.074 A 
ATOM     47  C   UNL     1       5.498   0.278  11.314  1.00  0.00     0.031 C 
ATOM     48  C   UNL     1       0.147  -3.923  10.241  1.00  0.00     0.029 A 
ATOM     49  C   UNL     1       0.975  -4.221  11.409  1.00  0.00     0.049 A 
ATOM     50  H   UNL     1       2.668  -3.192  12.049  1.00  0.00     0.167 HD
ATOM     51  C   UNL     1       6.077  -0.868  13.432  1.00  0.00     0.037 A 
ATOM     52  C   UNL     1       0.766  -5.230  12.278  1.00  0.00     0.037 A 
ATOM     53  C   UNL     1       5.889  -1.872  14.448  1.00  0.00     0.049 A 
ATOM     54  C   UNL     1       1.662  -5.379  13.481  1.00  0.00     0.074 A 
ATOM     55  C   UNL     1       6.617  -2.068  15.611  1.00  0.00     0.029 A 
ATOM     56  N   UNL     1       4.910  -2.853  14.424  1.00  0.00    -0.354 N 
ATOM     57  N   UNL     1       2.680  -4.640  13.850  1.00  0.00    -0.248 NA
ATOM     58  C   UNL     1       1.366  -6.492  14.395  1.00  0.00     0.031 C 
ATOM     59  C   UNL     1       6.103  -3.192  16.268  1.00  0.00     0.029 A 
ATOM     60  C   UNL     1       5.027  -3.669  15.538  1.00  0.00     0.049 A 
ATOM     61  H   UNL     1       4.232  -2.956  13.718  1.00  0.00     0.167 HD
ATOM     62  C   UNL     1       3.129  -5.182  15.051  1.00  0.00     0.074 A 
ATOM     63  C   UNL     1       2.263  -6.302  15.353  1.00  0.00     0.031 C 
ATOM     64  C   UNL     1       4.164  -4.785  15.834  1.00  0.00     0.037 A 
BRANCH  51  65
ATOM     65  C   UNL     1       7.220   0.096  13.593  1.00  0.00     0.058 A 
ATOM     66  C   UNL     1       7.007   1.438  13.944  1.00  0.00     0.135 A 
ATOM     67  C   UNL     1       8.546  -0.335  13.425  1.00  0.00     0.135 A 
ATOM     68  F   UNL     1       5.758   1.906  14.101  1.00  0.00    -0.206 F 
ATOM     69  C   UNL     1       8.067   2.327  14.097  1.00  0.00     0.059 A 
ATOM     70  C   UNL     1       9.622   0.530  13.597  1.00  0.00     0.059 A 
ATOM     71  F   UNL     1       8.805  -1.609  13.090  1.00  0.00    -0.206 F 
ATOM     72  C   UNL     1       9.371   1.863  13.918  1.00  0.00     0.060 A 
BRANCH  72  73
ATOM     73  S   UNL     1      10.738   3.027  14.118  1.00  0.00     0.124 S 
ATOM     74  O   UNL     1      10.638   3.805  12.887  1.00  0.00    -0.237 OA
ATOM     75  O   UNL     1      10.374   3.731  15.344  1.00  0.00    -0.237 OA
ATOM     76  O   UNL     1      11.909   2.162  14.220  1.00  0.00    -0.744 OA
ENDBRANCH  72  73
ENDBRANCH  51  65
BRANCH  52  77
ATOM     77  C   UNL     1      -0.357  -6.179  12.055  1.00  0.00     0.058 A 
ATOM     78  C   UNL     1      -1.488  -6.177  12.884  1.00  0.00     0.135 A 
ATOM     79  C   UNL     1      -0.312  -7.114  11.010  1.00  0.00     0.135 A 
ATOM     80  F   UNL     1      -1.570  -5.310  13.905  1.00  0.00    -0.206 F 
ATOM     81  C   UNL     1      -2.530  -7.079  12.696  1.00  0.00     0.059 A 
ATOM     82  C   UNL     1      -1.353  -8.010  10.786  1.00  0.00     0.059 A 
ATOM     83  F   UNL     1       0.745  -7.150  10.184  1.00  0.00    -0.206 F 
ATOM     84  C   UNL     1      -2.453  -7.992  11.642  1.00  0.00     0.060 A 
BRANCH  84  85
ATOM     85  S   UNL     1      -3.831  -9.128  11.375  1.00  0.00     0.124 S 
ATOM     86  O   UNL     1      -3.625 -10.095  12.447  1.00  0.00    -0.237 OA
ATOM     87  O   UNL     1      -4.988  -8.249  11.522  1.00  0.00    -0.237 OA
ATOM     88  O   UNL     1      -3.598  -9.624  10.022  1.00  0.00    -0.744 OA
ENDBRANCH  84  85
ENDBRANCH  52  77
BRANCH  64  89
ATOM     89  C   UNL     1       4.397  -5.548  17.110  1.00  0.00     0.058 A 
ATOM     90  C   UNL     1       4.918  -6.853  17.107  1.00  0.00     0.135 A 
ATOM     91  C   UNL     1       4.107  -4.964  18.354  1.00  0.00     0.135 A 
ATOM     92  F   UNL     1       5.212  -7.460  15.947  1.00  0.00    -0.206 F 
ATOM     93  C   UNL     1       5.102  -7.565  18.288  1.00  0.00     0.059 A 
ATOM     94  C   UNL     1       4.308  -5.648  19.549  1.00  0.00     0.059 A 
ATOM     95  F   UNL     1       3.622  -3.714  18.416  1.00  0.00    -0.206 F 
ATOM     96  C   UNL     1       4.787  -6.957  19.505  1.00  0.00     0.060 A 
BRANCH  96  97
ATOM     97  S   UNL     1       5.021  -7.891  21.033  1.00  0.00     0.124 S 
ATOM     98  O   UNL     1       3.855  -8.767  21.023  1.00  0.00    -0.237 OA
ATOM     99  O   UNL     1       6.307  -8.545  20.810  1.00  0.00    -0.237 OA
ATOM    100  O   UNL     1       5.023  -6.857  22.064  1.00  0.00    -0.744 OA
ENDBRANCH  96  97
ENDBRANCH  64  89
ENDBRANCH  38  39
ENDBRANCH  31  33
ENDBRANCH  30  31
ENDBRANCH  29  30
ENDBRANCH  28  29
ENDBRANCH   1  28
TORSDOF 21
