REMARK SMILES Cc1ccc2cc(C[N@H+]3CC[NH2+][C@H](C(=O)OCCOCCOC(=O)c4ccc(-c5c6nc(c(-c7c(F)cc(S(=O)(=O)[O-])cc7F)c7ccc([nH]7)c(-c7c(F)cc(S(=O)(=O)[O-])cc7F)c7nc(c(-c8c(F)cc(S(=O)(=O)[O-])cc8F)c8ccc5[nH]8)C=C7)C=C6)cc4)C3)c(N3CCOCC3)nc2c1
REMARK SMILES IDX 19 1 18 2 17 3 16 4 14 5 15 6 13 7 9 8 10 9 91 10 11 12
REMARK SMILES IDX 12 13 8 16 7 17 1 18 2 19 3 20 101 21 4 22 100 23 5 24 99 25
REMARK SMILES IDX 6 26 92 27 93 28 94 29 98 30 95 31 97 32 96 33 20 34 21 35
REMARK SMILES IDX 22 36 23 37 24 38 25 39 26 40 90 41 27 42 89 43 28 44 29 45
REMARK SMILES IDX 30 46 83 47 31 48 88 49 82 50 84 51 32 52 87 53 81 54 80 55
REMARK SMILES IDX 33 57 67 58 46 59 66 60 47 61 50 62 65 63 85 64 48 65 49 66
REMARK SMILES IDX 64 68 86 69 51 70 34 71 35 72 44 73 36 74 37 75 43 76 45 77
REMARK SMILES IDX 38 78 39 79 40 80 41 81 42 82 68 83 69 84 78 85 70 86 71 87
REMARK SMILES IDX 77 88 79 89 72 90 73 91 74 92 75 93 76 94 52 95 53 96 62 97
REMARK SMILES IDX 54 98 55 99 61 100 63 101 56 102 57 103 58 104 59 105 60 106
REMARK H PARENT 9 11 12 14 12 15 84 56 50 67
REMARK Flexibility Score: inf
ROOT
ATOM      1  O   UNL     1      -2.190  -2.557   6.883  1.00  0.00    -0.374 OA
ENDROOT
BRANCH   1   2
ATOM      2  C   UNL     1      -2.703  -2.993   5.622  1.00  0.00     0.202 C 
BRANCH   2   3
ATOM      3  C   UNL     1      -3.880  -2.170   5.106  1.00  0.00     0.261 C 
BRANCH   3   4
ATOM      4  O   UNL     1      -3.442  -0.827   4.862  1.00  0.00    -0.459 OA
BRANCH   4   5
ATOM      5  C   UNL     1      -3.880   0.113   5.744  1.00  0.00     0.371 C 
ATOM      6  O   UNL     1      -4.707  -0.070   6.629  1.00  0.00    -0.245 OA
BRANCH   5   7
ATOM      7  C   UNL     1      -3.161   1.439   5.499  1.00  0.00     0.348 C 
ATOM      8  N   UNL     1      -2.153   3.357   6.901  1.00  0.00    -0.321 N 
ATOM      9  C   UNL     1      -2.998   4.238   6.083  1.00  0.00     0.324 C 
ATOM     10  C   UNL     1      -2.638   1.968   6.866  1.00  0.00     0.341 C 
ATOM     11  H   UNL     1      -2.269   3.647   7.872  1.00  0.00     0.348 HD
ATOM     12  C   UNL     1      -3.408   3.683   4.701  1.00  0.00     0.323 C 
ATOM     13  N   UNL     1      -4.071   2.375   4.799  1.00  0.00    -0.325 N 
ATOM     14  H   UNL     1      -4.276   2.022   3.864  1.00  0.00     0.347 HD
ATOM     15  H   UNL     1      -4.947   2.464   5.315  1.00  0.00     0.347 HD
BRANCH   8  16
ATOM     16  C   UNL     1      -0.702   3.565   6.759  1.00  0.00     0.303 C 
BRANCH  16  17
ATOM     17  C   UNL     1      -0.080   3.270   5.413  1.00  0.00     0.049 A 
ATOM     18  C   UNL     1       0.841   0.411  -0.337  1.00  0.00     0.044 C 
ATOM     19  C   UNL     1       0.629   0.841   1.085  1.00  0.00    -0.049 A 
ATOM     20  C   UNL     1       0.381  -0.127   2.052  1.00  0.00     0.004 A 
ATOM     21  C   UNL     1       0.710   2.190   1.478  1.00  0.00     0.032 A 
ATOM     22  C   UNL     1       0.270   0.233   3.384  1.00  0.00     0.010 A 
ATOM     23  C   UNL     1       0.519   2.594   2.803  1.00  0.00     0.073 A 
ATOM     24  C   UNL     1       0.342   1.578   3.755  1.00  0.00     0.001 A 
ATOM     25  N   UNL     1       0.466   3.901   3.153  1.00  0.00    -0.230 NA
ATOM     26  C   UNL     1       0.137   1.935   5.079  1.00  0.00     0.023 A 
ATOM     27  C   UNL     1       0.147   4.243   4.428  1.00  0.00     0.138 A 
BRANCH  27  28
ATOM     28  N   UNL     1      -0.056   5.577   4.720  1.00  0.00    -0.352 N 
ATOM     29  C   UNL     1       0.910   6.278   5.569  1.00  0.00     0.146 C 
ATOM     30  C   UNL     1      -0.691   6.442   3.725  1.00  0.00     0.146 C 
ATOM     31  C   UNL     1       0.163   7.419   6.282  1.00  0.00     0.181 C 
ATOM     32  C   UNL     1      -1.372   7.604   4.480  1.00  0.00     0.181 C 
ATOM     33  O   UNL     1      -0.453   8.314   5.335  1.00  0.00    -0.378 OA
ENDBRANCH  27  28
ENDBRANCH  16  17
ENDBRANCH   8  16
ENDBRANCH   5   7
ENDBRANCH   4   5
ENDBRANCH   3   4
ENDBRANCH   2   3
ENDBRANCH   1   2
BRANCH   1  34
ATOM     34  C   UNL     1      -1.086  -1.652   6.818  1.00  0.00     0.202 C 
BRANCH  34  35
ATOM     35  C   UNL     1       0.284  -2.316   6.612  1.00  0.00     0.261 C 
BRANCH  35  36
ATOM     36  O   UNL     1       0.460  -2.732   5.244  1.00  0.00    -0.460 OA
BRANCH  36  37
ATOM     37  C   UNL     1       0.329  -4.060   5.002  1.00  0.00     0.338 C 
ATOM     38  O   UNL     1       0.199  -4.944   5.832  1.00  0.00    -0.246 OA
BRANCH  37  39
ATOM     39  C   UNL     1       0.118  -4.261   3.550  1.00  0.00     0.060 A 
ATOM     40  C   UNL     1       0.927  -3.648   2.593  1.00  0.00     0.016 A 
ATOM     41  C   UNL     1      -0.949  -5.076   3.148  1.00  0.00     0.016 A 
ATOM     42  C   UNL     1       0.668  -3.858   1.233  1.00  0.00     0.010 A 
ATOM     43  C   UNL     1      -1.198  -5.294   1.791  1.00  0.00     0.010 A 
ATOM     44  C   UNL     1      -0.382  -4.701   0.819  1.00  0.00    -0.014 A 
BRANCH  44  45
ATOM     45  C   UNL     1      -0.515  -5.095  -0.610  1.00  0.00     0.031 A 
ATOM     46  C   UNL     1      -1.675  -4.662  -1.461  1.00  0.00     0.074 A 
ATOM     47  C   UNL     1       0.427  -5.909  -1.126  1.00  0.00     0.049 A 
ATOM     48  N   UNL     1      -1.913  -4.932  -2.720  1.00  0.00    -0.248 NA
ATOM     49  C   UNL     1      -2.703  -3.828  -0.822  1.00  0.00     0.031 C 
ATOM     50  C   UNL     1       1.579  -6.430  -0.387  1.00  0.00     0.029 A 
ATOM     51  N   UNL     1       0.572  -6.440  -2.383  1.00  0.00    -0.354 N 
ATOM     52  C   UNL     1      -3.107  -4.294  -3.034  1.00  0.00     0.074 A 
ATOM     53  C   UNL     1      -3.569  -3.659  -1.815  1.00  0.00     0.031 C 
ATOM     54  C   UNL     1       2.331  -7.174  -1.211  1.00  0.00     0.029 A 
ATOM     55  C   UNL     1       1.693  -7.224  -2.522  1.00  0.00     0.049 A 
ATOM     56  H   UNL     1      -0.066  -6.275  -3.115  1.00  0.00     0.167 HD
ATOM     57  C   UNL     1      -3.747  -4.231  -4.229  1.00  0.00     0.037 A 
ATOM     58  C   UNL     1       2.158  -7.914  -3.581  1.00  0.00     0.037 A 
ATOM     59  C   UNL     1      -3.287  -4.880  -5.434  1.00  0.00     0.049 A 
ATOM     60  C   UNL     1       1.405  -7.867  -4.879  1.00  0.00     0.074 A 
ATOM     61  C   UNL     1      -3.853  -4.843  -6.699  1.00  0.00     0.029 A 
ATOM     62  N   UNL     1      -2.165  -5.691  -5.529  1.00  0.00    -0.354 N 
ATOM     63  N   UNL     1       0.309  -7.208  -5.171  1.00  0.00    -0.248 NA
ATOM     64  C   UNL     1       1.950  -8.655  -5.992  1.00  0.00     0.031 C 
ATOM     65  C   UNL     1      -3.106  -5.672  -7.542  1.00  0.00     0.029 A 
ATOM     66  C   UNL     1      -2.039  -6.181  -6.821  1.00  0.00     0.049 A 
ATOM     67  H   UNL     1      -1.549  -5.889  -4.787  1.00  0.00     0.167 HD
ATOM     68  C   UNL     1       0.045  -7.485  -6.508  1.00  0.00     0.074 A 
ATOM     69  C   UNL     1       1.105  -8.357  -6.971  1.00  0.00     0.031 C 
ATOM     70  C   UNL     1      -0.984  -7.055  -7.278  1.00  0.00     0.037 A 
BRANCH  57  71
ATOM     71  C   UNL     1      -5.017  -3.423  -4.310  1.00  0.00     0.058 A 
ATOM     72  C   UNL     1      -4.997  -2.021  -4.240  1.00  0.00     0.135 A 
ATOM     73  C   UNL     1      -6.255  -4.047  -4.543  1.00  0.00     0.135 A 
ATOM     74  F   UNL     1      -3.845  -1.371  -4.014  1.00  0.00    -0.206 F 
ATOM     75  C   UNL     1      -6.160  -1.268  -4.377  1.00  0.00     0.059 A 
ATOM     76  C   UNL     1      -7.426  -3.312  -4.710  1.00  0.00     0.059 A 
ATOM     77  F   UNL     1      -6.333  -5.384  -4.626  1.00  0.00    -0.206 F 
ATOM     78  C   UNL     1      -7.370  -1.922  -4.615  1.00  0.00     0.060 A 
BRANCH  78  79
ATOM     79  S   UNL     1      -8.863  -0.925  -4.799  1.00  0.00     0.124 S 
ATOM     80  O   UNL     1      -9.036  -0.405  -3.446  1.00  0.00    -0.237 OA
ATOM     81  O   UNL     1      -8.461   0.052  -5.806  1.00  0.00    -0.237 OA
ATOM     82  O   UNL     1      -9.869  -1.890  -5.231  1.00  0.00    -0.744 OA
ENDBRANCH  78  79
ENDBRANCH  57  71
BRANCH  58  83
ATOM     83  C   UNL     1       3.424  -8.683  -3.454  1.00  0.00     0.058 A 
ATOM     84  C   UNL     1       4.589  -8.258  -4.107  1.00  0.00     0.135 A 
ATOM     85  C   UNL     1       3.506  -9.828  -2.645  1.00  0.00     0.135 A 
ATOM     86  F   UNL     1       4.558  -7.172  -4.895  1.00  0.00    -0.206 F 
ATOM     87  C   UNL     1       5.791  -8.942  -3.969  1.00  0.00     0.059 A 
ATOM     88  C   UNL     1       4.703 -10.512  -2.468  1.00  0.00     0.059 A 
ATOM     89  F   UNL     1       2.422 -10.264  -1.984  1.00  0.00    -0.206 F 
ATOM     90  C   UNL     1       5.840 -10.064  -3.140  1.00  0.00     0.060 A 
BRANCH  90  91
ATOM     91  S   UNL     1       7.423 -10.904  -2.921  1.00  0.00     0.124 S 
ATOM     92  O   UNL     1       7.630 -11.491  -4.240  1.00  0.00    -0.237 OA
ATOM     93  O   UNL     1       8.306  -9.797  -2.568  1.00  0.00    -0.237 OA
ATOM     94  O   UNL     1       7.155 -11.852  -1.843  1.00  0.00    -0.744 OA
ENDBRANCH  90  91
ENDBRANCH  58  83
BRANCH  70  95
ATOM     95  C   UNL     1      -1.015  -7.505  -8.714  1.00  0.00     0.058 A 
ATOM     96  C   UNL     1      -1.318  -8.830  -9.065  1.00  0.00     0.135 A 
ATOM     97  C   UNL     1      -0.797  -6.588  -9.756  1.00  0.00     0.135 A 
ATOM     98  F   UNL     1      -1.526  -9.751  -8.111  1.00  0.00    -0.206 F 
ATOM     99  C   UNL     1      -1.386  -9.234 -10.395  1.00  0.00     0.059 A 
ATOM    100  C   UNL     1      -0.889  -6.963 -11.094  1.00  0.00     0.059 A 
ATOM    101  F   UNL     1      -0.510  -5.306  -9.479  1.00  0.00    -0.206 F 
ATOM    102  C   UNL     1      -1.176  -8.291 -11.403  1.00  0.00     0.060 A 
BRANCH 102 103
ATOM    103  S   UNL     1      -1.308  -8.824 -13.123  1.00  0.00     0.124 S 
ATOM    104  O   UNL     1      -0.127  -9.670 -13.262  1.00  0.00    -0.237 OA
ATOM    105  O   UNL     1      -2.591  -9.520 -13.134  1.00  0.00    -0.237 OA
ATOM    106  O   UNL     1      -1.273  -7.572 -13.873  1.00  0.00    -0.744 OA
ENDBRANCH 102 103
ENDBRANCH  70  95
ENDBRANCH  44  45
ENDBRANCH  37  39
ENDBRANCH  36  37
ENDBRANCH  35  36
ENDBRANCH  34  35
ENDBRANCH   1  34
TORSDOF 20
