REMARK SMILES COc1cc(/C=C2\SC(=S)N(CC(=O)OCCOCCOC(=O)c3ccc(-c4c5nc(c(-c6c(F)cc(S(=O)(=O)[O-])cc6F)c6ccc([nH]6)c(-c6c(F)cc(S(=O)(=O)[O-])cc6F)c6nc(c(-c7c(F)cc(S(=O)(=O)[O-])cc7F)c7ccc4[nH]7)C=C6)C=C5)cc3)C2=O)cc2c1OCO2
REMARK SMILES IDX 18 1 17 2 16 3 15 4 13 5 14 6 12 7 11 8 6 9 7 10 8 11 90 12
REMARK SMILES IDX 9 13 91 14 10 15 5 16 3 17 4 18 94 19 93 20 95 21 92 22
REMARK SMILES IDX 97 23 96 24 2 25 1 26 19 27 20 28 21 29 22 30 23 31 24 32
REMARK SMILES IDX 25 33 89 34 26 35 88 36 27 37 28 38 29 39 82 40 30 41 87 42
REMARK SMILES IDX 81 43 83 44 31 45 86 46 80 47 79 48 32 50 66 51 45 52 65 53
REMARK SMILES IDX 46 54 49 55 64 56 84 57 47 58 48 59 63 61 85 62 50 63 33 64
REMARK SMILES IDX 34 65 43 66 35 67 36 68 42 69 44 70 37 71 38 72 39 73 40 74
REMARK SMILES IDX 41 75 67 76 68 77 77 78 69 79 70 80 76 81 78 82 71 83 72 84
REMARK SMILES IDX 73 85 74 86 75 87 51 88 52 89 61 90 53 91 54 92 60 93 62 94
REMARK SMILES IDX 55 95 56 96 57 97 58 98 59 99
REMARK H PARENT 83 49 49 60
REMARK Flexibility Score: inf
ROOT
ATOM      1  O   UNL     1      -6.109  -0.442  -8.631  1.00  0.00    -0.374 OA
ENDROOT
BRANCH   1   2
ATOM      2  C   UNL     1      -5.857  -1.830  -8.851  1.00  0.00     0.202 C 
BRANCH   2   3
ATOM      3  C   UNL     1      -4.929  -2.181 -10.020  1.00  0.00     0.261 C 
BRANCH   3   4
ATOM      4  O   UNL     1      -3.608  -1.630  -9.852  1.00  0.00    -0.462 OA
BRANCH   4   5
ATOM      5  C   UNL     1      -3.151  -0.883 -10.894  1.00  0.00     0.326 C 
ATOM      6  O   UNL     1      -3.736  -0.735 -11.962  1.00  0.00    -0.250 OA
BRANCH   5   7
ATOM      7  C   UNL     1      -1.838  -0.167 -10.603  1.00  0.00     0.250 C 
BRANCH   7   8
ATOM      8  N   UNL     1      -1.192  -0.430  -9.316  1.00  0.00    -0.282 N 
ATOM      9  C   UNL     1      -0.525   0.807  -5.984  1.00  0.00     0.029 C 
ATOM     10  C   UNL     1      -0.554   0.068  -7.102  1.00  0.00     0.081 C 
ATOM     11  S   UNL     1       0.352  -1.343  -7.465  1.00  0.00    -0.054 SA
ATOM     12  C   UNL     1      -1.388   0.452  -8.270  1.00  0.00     0.266 C 
ATOM     13  C   UNL     1      -0.310  -1.466  -9.091  1.00  0.00     0.148 C 
ATOM     14  O   UNL     1      -2.089   1.455  -8.295  1.00  0.00    -0.268 OA
ATOM     15  S   UNL     1       0.149  -2.665 -10.152  1.00  0.00    -0.052 S 
BRANCH   9  16
ATOM     16  C   UNL     1       0.389   0.603  -4.856  1.00  0.00    -0.017 A 
ATOM     17  C   UNL     1       0.781  -0.064  -2.533  1.00  0.00     0.165 A 
ATOM     18  C   UNL     1      -0.080   0.091  -3.631  1.00  0.00     0.058 A 
ATOM     19  C   UNL     1       2.114   0.267  -2.709  1.00  0.00     0.207 A 
ATOM     20  C   UNL     1       2.568   0.764  -3.912  1.00  0.00     0.170 A 
ATOM     21  O   UNL     1       3.130   0.153  -1.807  1.00  0.00    -0.450 OA
ATOM     22  C   UNL     1       1.736   0.957  -4.993  1.00  0.00     0.059 A 
ATOM     23  O   UNL     1       3.904   1.030  -3.906  1.00  0.00    -0.453 OA
ATOM     24  C   UNL     1       4.265   0.544  -2.600  1.00  0.00     0.468 C 
BRANCH  17  25
ATOM     25  O   UNL     1       0.198  -0.567  -1.407  1.00  0.00    -0.493 OA
ATOM     26  C   UNL     1       0.793  -0.179  -0.173  1.00  0.00     0.278 C 
ENDBRANCH  17  25
ENDBRANCH   9  16
ENDBRANCH   7   8
ENDBRANCH   5   7
ENDBRANCH   4   5
ENDBRANCH   3   4
ENDBRANCH   2   3
ENDBRANCH   1   2
BRANCH   1  27
ATOM     27  C   UNL     1      -5.048   0.332  -8.071  1.00  0.00     0.202 C 
BRANCH  27  28
ATOM     28  C   UNL     1      -4.747   0.116  -6.582  1.00  0.00     0.261 C 
BRANCH  28  29
ATOM     29  O   UNL     1      -4.286  -1.219  -6.297  1.00  0.00    -0.460 OA
BRANCH  29  30
ATOM     30  C   UNL     1      -5.078  -1.914  -5.443  1.00  0.00     0.338 C 
ATOM     31  O   UNL     1      -6.050  -1.487  -4.830  1.00  0.00    -0.246 OA
BRANCH  30  32
ATOM     32  C   UNL     1      -4.742  -3.349  -5.463  1.00  0.00     0.060 A 
ATOM     33  C   UNL     1      -5.775  -4.246  -5.769  1.00  0.00     0.016 A 
ATOM     34  C   UNL     1      -3.480  -3.821  -5.096  1.00  0.00     0.016 A 
ATOM     35  C   UNL     1      -5.564  -5.619  -5.663  1.00  0.00     0.010 A 
ATOM     36  C   UNL     1      -3.274  -5.202  -4.981  1.00  0.00     0.010 A 
ATOM     37  C   UNL     1      -4.324  -6.106  -5.231  1.00  0.00    -0.014 A 
BRANCH  37  38
ATOM     38  C   UNL     1      -4.177  -7.550  -4.917  1.00  0.00     0.031 A 
ATOM     39  C   UNL     1      -4.286  -8.005  -3.486  1.00  0.00     0.074 A 
ATOM     40  C   UNL     1      -3.990  -8.450  -5.900  1.00  0.00     0.049 A 
ATOM     41  N   UNL     1      -4.183  -9.210  -2.990  1.00  0.00    -0.248 NA
ATOM     42  C   UNL     1      -4.550  -6.961  -2.482  1.00  0.00     0.031 C 
ATOM     43  C   UNL     1      -3.911  -8.136  -7.326  1.00  0.00     0.029 A 
ATOM     44  N   UNL     1      -3.832  -9.812  -5.845  1.00  0.00    -0.354 N 
ATOM     45  C   UNL     1      -4.362  -9.073  -1.617  1.00  0.00     0.074 A 
ATOM     46  C   UNL     1      -4.556  -7.662  -1.357  1.00  0.00     0.031 C 
ATOM     47  C   UNL     1      -3.713  -9.275  -8.012  1.00  0.00     0.029 A 
ATOM     48  C   UNL     1      -3.620 -10.392  -7.073  1.00  0.00     0.049 A 
ATOM     49  H   UNL     1      -3.867 -10.325  -5.006  1.00  0.00     0.167 HD
ATOM     50  C   UNL     1      -4.369 -10.035  -0.664  1.00  0.00     0.037 A 
ATOM     51  C   UNL     1      -3.361 -11.674  -7.400  1.00  0.00     0.037 A 
ATOM     52  C   UNL     1      -4.178 -11.437  -0.929  1.00  0.00     0.049 A 
ATOM     53  C   UNL     1      -3.298 -12.715  -6.313  1.00  0.00     0.074 A 
ATOM     54  C   UNL     1      -4.204 -12.493  -0.035  1.00  0.00     0.029 A 
ATOM     55  N   UNL     1      -3.913 -11.978  -2.178  1.00  0.00    -0.354 N 
ATOM     56  N   UNL     1      -3.501 -12.574  -5.024  1.00  0.00    -0.248 NA
ATOM     57  C   UNL     1      -2.965 -14.087  -6.723  1.00  0.00     0.031 C 
ATOM     58  C   UNL     1      -3.905 -13.667  -0.736  1.00  0.00     0.029 A 
ATOM     59  C   UNL     1      -3.739 -13.348  -2.074  1.00  0.00     0.049 A 
ATOM     60  H   UNL     1      -3.858 -11.464  -3.016  1.00  0.00     0.167 HD
ATOM     61  C   UNL     1      -3.337 -13.841  -4.472  1.00  0.00     0.074 A 
ATOM     62  C   UNL     1      -3.033 -14.738  -5.569  1.00  0.00     0.031 C 
ATOM     63  C   UNL     1      -3.430 -14.227  -3.175  1.00  0.00     0.037 A 
BRANCH  50  64
ATOM     64  C   UNL     1      -4.562  -9.599   0.763  1.00  0.00     0.058 A 
ATOM     65  C   UNL     1      -5.809  -9.168   1.243  1.00  0.00     0.135 A 
ATOM     66  C   UNL     1      -3.491  -9.644   1.670  1.00  0.00     0.135 A 
ATOM     67  F   UNL     1      -6.862  -9.091   0.414  1.00  0.00    -0.206 F 
ATOM     68  C   UNL     1      -5.981  -8.772   2.566  1.00  0.00     0.059 A 
ATOM     69  C   UNL     1      -3.646  -9.275   3.003  1.00  0.00     0.059 A 
ATOM     70  F   UNL     1      -2.277 -10.048   1.263  1.00  0.00    -0.206 F 
ATOM     71  C   UNL     1      -4.892  -8.827   3.438  1.00  0.00     0.060 A 
BRANCH  71  72
ATOM     72  S   UNL     1      -5.130  -8.309   5.152  1.00  0.00     0.124 S 
ATOM     73  O   UNL     1      -5.215  -6.859   5.008  1.00  0.00    -0.237 OA
ATOM     74  O   UNL     1      -6.372  -8.984   5.513  1.00  0.00    -0.237 OA
ATOM     75  O   UNL     1      -3.933  -8.803   5.825  1.00  0.00    -0.744 OA
ENDBRANCH  71  72
ENDBRANCH  50  64
BRANCH  51  76
ATOM     76  C   UNL     1      -3.125 -12.045  -8.821  1.00  0.00     0.058 A 
ATOM     77  C   UNL     1      -4.056 -12.815  -9.533  1.00  0.00     0.135 A 
ATOM     78  C   UNL     1      -1.964 -11.634  -9.495  1.00  0.00     0.135 A 
ATOM     79  F   UNL     1      -5.175 -13.243  -8.927  1.00  0.00    -0.206 F 
ATOM     80  C   UNL     1      -3.844 -13.170 -10.861  1.00  0.00     0.059 A 
ATOM     81  C   UNL     1      -1.740 -11.957 -10.829  1.00  0.00     0.059 A 
ATOM     82  F   UNL     1      -1.045 -10.891  -8.860  1.00  0.00    -0.206 F 
ATOM     83  C   UNL     1      -2.683 -12.733 -11.502  1.00  0.00     0.060 A 
BRANCH  83  84
ATOM     84  S   UNL     1      -2.443 -13.153 -13.242  1.00  0.00     0.124 S 
ATOM     85  O   UNL     1      -2.099 -14.567 -13.159  1.00  0.00    -0.237 OA
ATOM     86  O   UNL     1      -3.751 -12.846 -13.815  1.00  0.00    -0.237 OA
ATOM     87  O   UNL     1      -1.363 -12.262 -13.656  1.00  0.00    -0.744 OA
ENDBRANCH  83  84
ENDBRANCH  51  76
BRANCH  63  88
ATOM     88  C   UNL     1      -3.212 -15.683  -2.868  1.00  0.00     0.058 A 
ATOM     89  C   UNL     1      -1.930 -16.253  -2.891  1.00  0.00     0.135 A 
ATOM     90  C   UNL     1      -4.288 -16.502  -2.489  1.00  0.00     0.135 A 
ATOM     91  F   UNL     1      -0.869 -15.515  -3.253  1.00  0.00    -0.206 F 
ATOM     92  C   UNL     1      -1.724 -17.590  -2.566  1.00  0.00     0.059 A 
ATOM     93  C   UNL     1      -4.101 -17.835  -2.136  1.00  0.00     0.059 A 
ATOM     94  F   UNL     1      -5.534 -16.004  -2.441  1.00  0.00    -0.206 F 
ATOM     95  C   UNL     1      -2.816 -18.373  -2.187  1.00  0.00     0.060 A 
BRANCH  95  96
ATOM     96  S   UNL     1      -2.529 -20.096  -1.728  1.00  0.00     0.124 S 
ATOM     97  O   UNL     1      -2.307 -20.714  -3.030  1.00  0.00    -0.237 OA
ATOM     98  O   UNL     1      -1.357 -19.999  -0.863  1.00  0.00    -0.237 OA
ATOM     99  O   UNL     1      -3.767 -20.478  -1.054  1.00  0.00    -0.744 OA
ENDBRANCH  95  96
ENDBRANCH  63  88
ENDBRANCH  37  38
ENDBRANCH  30  32
ENDBRANCH  29  30
ENDBRANCH  28  29
ENDBRANCH  27  28
ENDBRANCH   1  27
TORSDOF 20
