REMARK SMILES O=C(Cc1ccccc1C(=O)OCCOCCOC(=O)c1ccc(-c2c3nc(c(-c4c(F)cc(S(=O)(=O)[O-])cc4F)c4ccc([nH]4)c(-c4c(F)cc(S(=O)(=O)[O-])cc4F)c4nc(c(-c5c(F)cc(S(=O)(=O)[O-])cc5F)c5ccc2[nH]5)C=C4)C=C3)cc1)Nc1cccc(OC[C@@H]2CCCO2)c1
REMARK SMILES IDX 13 1 12 2 10 3 11 4 9 5 4 6 5 7 6 8 8 9 7 10 3 11 2 12 1 13
REMARK SMILES IDX 87 14 88 16 89 17 100 18 90 19 92 20 91 21 93 22 94 23 95 24
REMARK SMILES IDX 96 25 99 26 97 27 98 28 14 29 15 30 16 31 17 32 18 33 19 34
REMARK SMILES IDX 20 35 21 36 22 37 86 38 23 39 85 40 24 41 25 42 26 43 79 44
REMARK SMILES IDX 27 45 84 46 78 47 80 48 28 49 83 50 77 51 76 52 29 54 63 55
REMARK SMILES IDX 42 56 62 57 43 58 46 59 61 60 81 61 44 62 45 63 60 65 82 66
REMARK SMILES IDX 47 67 30 68 31 69 40 70 32 71 33 72 39 73 41 74 34 75 35 76
REMARK SMILES IDX 36 77 37 78 38 79 64 80 65 81 74 82 66 83 67 84 73 85 75 86
REMARK SMILES IDX 68 87 69 88 70 89 71 90 72 91 48 92 49 93 58 94 50 95 51 96
REMARK SMILES IDX 57 97 59 98 52 99 53 100 54 101 55 102 56 103
REMARK H PARENT 87 15 80 53 46 64
REMARK Flexibility Score: inf
ROOT
ATOM      1  C   UNL     1       6.087   3.294   2.346  1.00  0.00     0.261 C 
ENDROOT
BRANCH   1   2
ATOM      2  O   UNL     1       5.460   2.026   2.107  1.00  0.00    -0.460 OA
BRANCH   2   3
ATOM      3  C   UNL     1       6.276   0.948   2.100  1.00  0.00     0.338 C 
ATOM      4  O   UNL     1       7.496   0.963   2.151  1.00  0.00    -0.246 OA
BRANCH   3   5
ATOM      5  C   UNL     1       5.485  -0.314   2.195  1.00  0.00     0.063 A 
ATOM      6  C   UNL     1       4.212  -0.527   1.621  1.00  0.00    -0.024 A 
ATOM      7  C   UNL     1       3.586  -1.773   1.839  1.00  0.00     0.005 A 
ATOM      8  C   UNL     1       4.212  -2.784   2.570  1.00  0.00     0.000 A 
ATOM      9  C   UNL     1       6.091  -1.334   2.950  1.00  0.00     0.016 A 
ATOM     10  C   UNL     1       5.461  -2.563   3.134  1.00  0.00     0.001 A 
BRANCH   6  11
ATOM     11  C   UNL     1       3.488   0.557   0.849  1.00  0.00     0.136 C 
BRANCH  11  12
ATOM     12  C   UNL     1       2.521   0.077  -0.208  1.00  0.00     0.228 C 
ATOM     13  O   UNL     1       1.324   0.344  -0.132  1.00  0.00    -0.274 OA
ATOM     14  N   UNL     1       3.122  -0.673  -1.210  1.00  0.00    -0.326 N 
ATOM     15  H   UNL     1       4.059  -0.949  -1.086  1.00  0.00     0.169 HD
BRANCH  14  16
ATOM     16  C   UNL     1       2.467  -1.061  -2.391  1.00  0.00     0.044 A 
ATOM     17  C   UNL     1       2.829  -2.259  -3.004  1.00  0.00     0.026 A 
ATOM     18  C   UNL     1       1.455  -0.274  -2.942  1.00  0.00     0.072 A 
ATOM     19  C   UNL     1       2.107  -2.711  -4.109  1.00  0.00     0.006 A 
ATOM     20  C   UNL     1       0.701  -0.736  -4.013  1.00  0.00     0.121 A 
ATOM     21  C   UNL     1       1.037  -1.957  -4.599  1.00  0.00     0.046 A 
BRANCH  20  22
ATOM     22  O   UNL     1      -0.404  -0.121  -4.526  1.00  0.00    -0.491 OA
BRANCH  22  23
ATOM     23  C   UNL     1      -0.893   1.074  -3.900  1.00  0.00     0.261 C 
BRANCH  23  24
ATOM     24  C   UNL     1      -1.446   0.897  -2.474  1.00  0.00     0.156 C 
ATOM     25  C   UNL     1      -1.980  -0.482  -2.127  1.00  0.00     0.038 C 
ATOM     26  O   UNL     1      -2.535   1.812  -2.228  1.00  0.00    -0.375 OA
ATOM     27  C   UNL     1      -2.882  -0.166  -0.961  1.00  0.00     0.031 C 
ATOM     28  C   UNL     1      -3.487   1.157  -1.379  1.00  0.00     0.161 C 
ENDBRANCH  23  24
ENDBRANCH  22  23
ENDBRANCH  20  22
ENDBRANCH  14  16
ENDBRANCH  11  12
ENDBRANCH   6  11
ENDBRANCH   3   5
ENDBRANCH   2   3
ENDBRANCH   1   2
BRANCH   1  29
ATOM     29  C   UNL     1       5.522   3.942   3.613  1.00  0.00     0.202 C 
BRANCH  29  30
ATOM     30  O   UNL     1       5.685   3.212   4.830  1.00  0.00    -0.374 OA
BRANCH  30  31
ATOM     31  C   UNL     1       4.816   2.102   5.056  1.00  0.00     0.202 C 
BRANCH  31  32
ATOM     32  C   UNL     1       3.366   2.403   5.457  1.00  0.00     0.261 C 
BRANCH  32  33
ATOM     33  O   UNL     1       2.628   3.097   4.437  1.00  0.00    -0.460 OA
BRANCH  33  34
ATOM     34  C   UNL     1       2.357   4.396   4.714  1.00  0.00     0.338 C 
ATOM     35  O   UNL     1       2.644   5.010   5.733  1.00  0.00    -0.246 OA
BRANCH  34  36
ATOM     36  C   UNL     1       1.810   5.054   3.515  1.00  0.00     0.060 A 
ATOM     37  C   UNL     1       2.502   6.156   2.996  1.00  0.00     0.016 A 
ATOM     38  C   UNL     1       0.611   4.631   2.940  1.00  0.00     0.016 A 
ATOM     39  C   UNL     1       1.987   6.850   1.902  1.00  0.00     0.010 A 
ATOM     40  C   UNL     1       0.091   5.336   1.850  1.00  0.00     0.010 A 
ATOM     41  C   UNL     1       0.767   6.458   1.336  1.00  0.00    -0.014 A 
BRANCH  41  42
ATOM     42  C   UNL     1       0.154   7.257   0.249  1.00  0.00     0.031 A 
ATOM     43  C   UNL     1      -0.981   8.189   0.564  1.00  0.00     0.074 A 
ATOM     44  C   UNL     1       0.601   7.134  -1.014  1.00  0.00     0.049 A 
ATOM     45  N   UNL     1      -1.713   8.908  -0.246  1.00  0.00    -0.248 NA
ATOM     46  C   UNL     1      -1.337   8.330   1.985  1.00  0.00     0.031 C 
ATOM     47  C   UNL     1       1.723   6.295  -1.431  1.00  0.00     0.029 A 
ATOM     48  N   UNL     1       0.154   7.704  -2.179  1.00  0.00    -0.354 N 
ATOM     49  C   UNL     1      -2.624   9.580   0.560  1.00  0.00     0.074 A 
ATOM     50  C   UNL     1      -2.367   9.162   1.923  1.00  0.00     0.031 C 
ATOM     51  C   UNL     1       1.868   6.393  -2.763  1.00  0.00     0.029 A 
ATOM     52  C   UNL     1       0.823   7.265  -3.296  1.00  0.00     0.049 A 
ATOM     53  H   UNL     1      -0.575   8.365  -2.211  1.00  0.00     0.167 HD
ATOM     54  C   UNL     1      -3.582  10.466   0.196  1.00  0.00     0.037 A 
ATOM     55  C   UNL     1       0.595   7.511  -4.601  1.00  0.00     0.037 A 
ATOM     56  C   UNL     1      -3.837  10.860  -1.166  1.00  0.00     0.049 A 
ATOM     57  C   UNL     1      -0.541   8.419  -4.992  1.00  0.00     0.074 A 
ATOM     58  C   UNL     1      -4.771  11.765  -1.640  1.00  0.00     0.029 A 
ATOM     59  N   UNL     1      -3.171  10.357  -2.276  1.00  0.00    -0.354 N 
ATOM     60  N   UNL     1      -1.376   9.075  -4.221  1.00  0.00    -0.248 NA
ATOM     61  C   UNL     1      -0.771   8.616  -6.430  1.00  0.00     0.031 C 
ATOM     62  C   UNL     1      -4.710  11.765  -3.038  1.00  0.00     0.029 A 
ATOM     63  C   UNL     1      -3.698  10.905  -3.435  1.00  0.00     0.049 A 
ATOM     64  H   UNL     1      -2.433   9.707  -2.244  1.00  0.00     0.167 HD
ATOM     65  C   UNL     1      -2.217   9.777  -5.078  1.00  0.00     0.074 A 
ATOM     66  C   UNL     1      -1.781   9.476  -6.426  1.00  0.00     0.031 C 
ATOM     67  C   UNL     1      -3.256  10.595  -4.775  1.00  0.00     0.037 A 
BRANCH  54  68
ATOM     68  C   UNL     1      -4.447  11.040   1.286  1.00  0.00     0.058 A 
ATOM     69  C   UNL     1      -3.940  11.940   2.238  1.00  0.00     0.135 A 
ATOM     70  C   UNL     1      -5.805  10.695   1.375  1.00  0.00     0.135 A 
ATOM     71  F   UNL     1      -2.646  12.298   2.210  1.00  0.00    -0.206 F 
ATOM     72  C   UNL     1      -4.738  12.443   3.262  1.00  0.00     0.059 A 
ATOM     73  C   UNL     1      -6.629  11.209   2.372  1.00  0.00     0.059 A 
ATOM     74  F   UNL     1      -6.345   9.841   0.490  1.00  0.00    -0.206 F 
ATOM     75  C   UNL     1      -6.080  12.067   3.324  1.00  0.00     0.060 A 
BRANCH  75  76
ATOM     76  S   UNL     1      -7.095  12.707   4.673  1.00  0.00     0.124 S 
ATOM     77  O   UNL     1      -6.566  11.962   5.812  1.00  0.00    -0.237 OA
ATOM     78  O   UNL     1      -6.782  14.132   4.650  1.00  0.00    -0.237 OA
ATOM     79  O   UNL     1      -8.454  12.359   4.274  1.00  0.00    -0.744 OA
ENDBRANCH  75  76
ENDBRANCH  54  68
BRANCH  55  80
ATOM     80  C   UNL     1       1.462   6.880  -5.631  1.00  0.00     0.058 A 
ATOM     81  C   UNL     1       2.358   7.651  -6.385  1.00  0.00     0.135 A 
ATOM     82  C   UNL     1       1.439   5.494  -5.861  1.00  0.00     0.135 A 
ATOM     83  F   UNL     1       2.409   8.981  -6.212  1.00  0.00    -0.206 F 
ATOM     84  C   UNL     1       3.201   7.074  -7.329  1.00  0.00     0.059 A 
ATOM     85  C   UNL     1       2.290   4.890  -6.781  1.00  0.00     0.059 A 
ATOM     86  F   UNL     1       0.607   4.709  -5.158  1.00  0.00    -0.206 F 
ATOM     87  C   UNL     1       3.167   5.690  -7.513  1.00  0.00     0.060 A 
BRANCH  87  88
ATOM     88  S   UNL     1       4.325   4.948  -8.683  1.00  0.00     0.124 S 
ATOM     89  O   UNL     1       3.780   5.394  -9.960  1.00  0.00    -0.237 OA
ATOM     90  O   UNL     1       5.591   5.553  -8.282  1.00  0.00    -0.237 OA
ATOM     91  O   UNL     1       4.209   3.518  -8.411  1.00  0.00    -0.744 OA
ENDBRANCH  87  88
ENDBRANCH  55  80
BRANCH  67  92
ATOM     92  C   UNL     1      -3.990  11.244  -5.918  1.00  0.00     0.058 A 
ATOM     93  C   UNL     1      -4.851  10.513  -6.751  1.00  0.00     0.135 A 
ATOM     94  C   UNL     1      -3.887  12.628  -6.138  1.00  0.00     0.135 A 
ATOM     95  F   UNL     1      -4.979   9.186  -6.592  1.00  0.00    -0.206 F 
ATOM     96  C   UNL     1      -5.577  11.128  -7.767  1.00  0.00     0.059 A 
ATOM     97  C   UNL     1      -4.625  13.268  -7.129  1.00  0.00     0.059 A 
ATOM     98  F   UNL     1      -3.083  13.377  -5.367  1.00  0.00    -0.206 F 
ATOM     99  C   UNL     1      -5.463  12.508  -7.943  1.00  0.00     0.060 A 
BRANCH  99 100
ATOM    100  S   UNL     1      -6.456  13.300  -9.227  1.00  0.00     0.124 S 
ATOM    101  O   UNL     1      -5.793  12.836 -10.441  1.00  0.00    -0.237 OA
ATOM    102  O   UNL     1      -7.784  12.747  -8.979  1.00  0.00    -0.237 OA
ATOM    103  O   UNL     1      -6.314  14.724  -8.939  1.00  0.00    -0.744 OA
ENDBRANCH  99 100
ENDBRANCH  67  92
ENDBRANCH  41  42
ENDBRANCH  34  36
ENDBRANCH  33  34
ENDBRANCH  32  33
ENDBRANCH  31  32
ENDBRANCH  30  31
ENDBRANCH  29  30
ENDBRANCH   1  29
TORSDOF 23
