REMARK SMILES O=C(OCCOCCOC(=O)[C@H]1C[C@](O)(c2ccc(Cl)cc2)[C@@H](c2ccc(Cl)cc2)O1)c1ccc(-c2c3nc(c(-c4c(F)cc(S(=O)(=O)[O-])cc4F)c4ccc([nH]4)c(-c4c(F)cc(S(=O)(=O)[O-])cc4F)c4nc(c(-c5c(F)cc(S(=O)(=O)[O-])cc5F)c5ccc2[nH]5)C=C4)C=C3)cc1
REMARK SMILES IDX 5 1 4 2 3 3 2 4 1 5 32 6 33 7 97 8 34 9 96 10 35 11 36 12
REMARK SMILES IDX 37 13 90 14 38 15 95 16 89 17 91 18 39 19 94 20 88 21 87 22
REMARK SMILES IDX 40 24 74 25 53 26 73 27 54 28 57 29 72 30 92 31 55 32 56 33
REMARK SMILES IDX 71 35 93 36 58 37 41 38 42 39 51 40 43 41 44 42 50 43 52 44
REMARK SMILES IDX 45 45 46 46 47 47 48 48 49 49 75 50 76 51 85 52 77 53 78 54
REMARK SMILES IDX 84 55 86 56 79 57 80 58 81 59 82 60 83 61 59 62 60 63 69 64
REMARK SMILES IDX 61 65 62 66 68 67 70 68 63 69 64 70 65 71 66 72 67 73 6 74
REMARK SMILES IDX 7 75 8 76 9 77 10 78 11 79 12 80 13 81 31 82 14 83 23 84
REMARK SMILES IDX 16 85 17 86 22 87 18 88 21 89 19 90 20 91 15 92 24 94 25 95
REMARK SMILES IDX 30 96 26 97 29 98 27 99 28 100
REMARK H PARENT 91 23 57 34 15 93
REMARK Flexibility Score: inf
ROOT
ATOM      1  C   UNL     1       6.734  -0.852   1.980  1.00  0.00     0.202 C 
ENDROOT
BRANCH   1   2
ATOM      2  C   UNL     1       7.532  -0.792   0.675  1.00  0.00     0.261 C 
BRANCH   2   3
ATOM      3  O   UNL     1       8.187  -2.045   0.431  1.00  0.00    -0.460 OA
BRANCH   3   4
ATOM      4  C   UNL     1       9.417  -2.407   0.871  1.00  0.00     0.338 C 
ATOM      5  O   UNL     1       9.746  -3.590   0.786  1.00  0.00    -0.246 OA
BRANCH   4   6
ATOM      6  C   UNL     1      10.423  -1.433   1.394  1.00  0.00     0.060 A 
ATOM      7  C   UNL     1      10.139  -0.330   2.205  1.00  0.00     0.016 A 
ATOM      8  C   UNL     1      11.769  -1.726   1.122  1.00  0.00     0.016 A 
ATOM      9  C   UNL     1      11.145   0.484   2.703  1.00  0.00     0.010 A 
ATOM     10  C   UNL     1      12.791  -0.933   1.648  1.00  0.00     0.010 A 
ATOM     11  C   UNL     1      12.474   0.175   2.441  1.00  0.00    -0.014 A 
BRANCH  11  12
ATOM     12  C   UNL     1      13.516   1.063   2.976  1.00  0.00     0.031 A 
ATOM     13  C   UNL     1      14.200   1.998   2.033  1.00  0.00     0.074 A 
ATOM     14  C   UNL     1      13.772   1.052   4.297  1.00  0.00     0.049 A 
ATOM     15  N   UNL     1      15.229   2.769   2.244  1.00  0.00    -0.248 NA
ATOM     16  C   UNL     1      13.650   2.081   0.668  1.00  0.00     0.031 C 
ATOM     17  C   UNL     1      13.056   0.241   5.288  1.00  0.00     0.029 A 
ATOM     18  N   UNL     1      14.696   1.738   5.037  1.00  0.00    -0.354 N 
ATOM     19  C   UNL     1      15.480   3.393   1.030  1.00  0.00     0.074 A 
ATOM     20  C   UNL     1      14.486   2.930   0.089  1.00  0.00     0.031 C 
ATOM     21  C   UNL     1      13.576   0.472   6.504  1.00  0.00     0.029 A 
ATOM     22  C   UNL     1      14.706   1.381   6.365  1.00  0.00     0.049 A 
ATOM     23  H   UNL     1      15.295   2.420   4.655  1.00  0.00     0.167 HD
ATOM     24  C   UNL     1      16.474   4.260   0.741  1.00  0.00     0.037 A 
ATOM     25  C   UNL     1      15.578   1.709   7.337  1.00  0.00     0.037 A 
ATOM     26  C   UNL     1      17.428   4.705   1.721  1.00  0.00     0.049 A 
ATOM     27  C   UNL     1      16.723   2.614   6.964  1.00  0.00     0.074 A 
ATOM     28  C   UNL     1      18.484   5.580   1.560  1.00  0.00     0.029 A 
ATOM     29  N   UNL     1      17.439   4.295   3.048  1.00  0.00    -0.354 N 
ATOM     30  N   UNL     1      16.973   3.192   5.810  1.00  0.00    -0.248 NA
ATOM     31  C   UNL     1      17.719   2.895   8.005  1.00  0.00     0.031 C 
ATOM     32  C   UNL     1      19.169   5.653   2.776  1.00  0.00     0.029 A 
ATOM     33  C   UNL     1      18.509   4.866   3.709  1.00  0.00     0.049 A 
ATOM     34  H   UNL     1      16.781   3.687   3.457  1.00  0.00     0.167 HD
ATOM     35  C   UNL     1      18.150   3.906   5.987  1.00  0.00     0.074 A 
ATOM     36  C   UNL     1      18.547   3.712   7.368  1.00  0.00     0.031 C 
ATOM     37  C   UNL     1      18.853   4.644   5.093  1.00  0.00     0.037 A 
BRANCH  24  38
ATOM     38  C   UNL     1      16.623   4.714  -0.680  1.00  0.00     0.058 A 
ATOM     39  C   UNL     1      15.753   5.644  -1.268  1.00  0.00     0.135 A 
ATOM     40  C   UNL     1      17.687   4.227  -1.458  1.00  0.00     0.135 A 
ATOM     41  F   UNL     1      14.700   6.114  -0.582  1.00  0.00    -0.206 F 
ATOM     42  C   UNL     1      15.933   6.077  -2.579  1.00  0.00     0.059 A 
ATOM     43  C   UNL     1      17.898   4.662  -2.763  1.00  0.00     0.059 A 
ATOM     44  F   UNL     1      18.534   3.319  -0.950  1.00  0.00    -0.206 F 
ATOM     45  C   UNL     1      17.014   5.585  -3.316  1.00  0.00     0.060 A 
BRANCH  45  46
ATOM     46  S   UNL     1      17.259   6.190  -4.999  1.00  0.00     0.124 S 
ATOM     47  O   UNL     1      16.149   5.555  -5.703  1.00  0.00    -0.237 OA
ATOM     48  O   UNL     1      17.155   7.636  -4.827  1.00  0.00    -0.237 OA
ATOM     49  O   UNL     1      18.587   5.697  -5.349  1.00  0.00    -0.744 OA
ENDBRANCH  45  46
ENDBRANCH  24  38
BRANCH  25  50
ATOM     50  C   UNL     1      15.471   1.106   8.696  1.00  0.00     0.058 A 
ATOM     51  C   UNL     1      15.251   1.894   9.835  1.00  0.00     0.135 A 
ATOM     52  C   UNL     1      15.625  -0.278   8.888  1.00  0.00     0.135 A 
ATOM     53  F   UNL     1      15.104   3.222   9.714  1.00  0.00    -0.206 F 
ATOM     54  C   UNL     1      15.222   1.341  11.114  1.00  0.00     0.059 A 
ATOM     55  C   UNL     1      15.568  -0.859  10.151  1.00  0.00     0.059 A 
ATOM     56  F   UNL     1      15.830  -1.087   7.837  1.00  0.00    -0.206 F 
ATOM     57  C   UNL     1      15.388  -0.038  11.262  1.00  0.00     0.060 A 
BRANCH  57  58
ATOM     58  S   UNL     1      15.365  -0.748  12.922  1.00  0.00     0.124 S 
ATOM     59  O   UNL     1      16.655  -0.314  13.444  1.00  0.00    -0.237 OA
ATOM     60  O   UNL     1      14.191  -0.115  13.514  1.00  0.00    -0.237 OA
ATOM     61  O   UNL     1      15.235  -2.181  12.674  1.00  0.00    -0.744 OA
ENDBRANCH  57  58
ENDBRANCH  25  50
BRANCH  37  62
ATOM     62  C   UNL     1      20.109   5.296   5.587  1.00  0.00     0.058 A 
ATOM     63  C   UNL     1      21.277   4.552   5.803  1.00  0.00     0.135 A 
ATOM     64  C   UNL     1      20.168   6.689   5.753  1.00  0.00     0.135 A 
ATOM     65  F   UNL     1      21.264   3.216   5.667  1.00  0.00    -0.206 F 
ATOM     66  C   UNL     1      22.466   5.167   6.172  1.00  0.00     0.059 A 
ATOM     67  C   UNL     1      21.353   7.328   6.092  1.00  0.00     0.059 A 
ATOM     68  F   UNL     1      19.076   7.442   5.546  1.00  0.00    -0.206 F 
ATOM     69  C   UNL     1      22.496   6.557   6.303  1.00  0.00     0.060 A 
BRANCH  69  70
ATOM     70  S   UNL     1      24.066   7.349   6.707  1.00  0.00     0.124 S 
ATOM     71  O   UNL     1      24.222   6.993   8.113  1.00  0.00    -0.237 OA
ATOM     72  O   UNL     1      24.989   6.701   5.781  1.00  0.00    -0.237 OA
ATOM     73  O   UNL     1      23.811   8.762   6.442  1.00  0.00    -0.744 OA
ENDBRANCH  69  70
ENDBRANCH  37  62
ENDBRANCH  11  12
ENDBRANCH   4   6
ENDBRANCH   3   4
ENDBRANCH   2   3
ENDBRANCH   1   2
BRANCH   1  74
ATOM     74  O   UNL     1       7.500  -1.320   3.091  1.00  0.00    -0.374 OA
BRANCH  74  75
ATOM     75  C   UNL     1       7.436  -2.724   3.363  1.00  0.00     0.202 C 
BRANCH  75  76
ATOM     76  C   UNL     1       6.882  -2.954   4.772  1.00  0.00     0.261 C 
BRANCH  76  77
ATOM     77  O   UNL     1       5.640  -2.237   4.894  1.00  0.00    -0.461 OA
BRANCH  77  78
ATOM     78  C   UNL     1       5.844  -0.924   5.234  1.00  0.00     0.335 C 
ATOM     79  O   UNL     1       6.820  -0.520   5.830  1.00  0.00    -0.249 OA
BRANCH  78  80
ATOM     80  C   UNL     1       4.699  -0.060   4.688  1.00  0.00     0.232 C 
ATOM     81  C   UNL     1       3.543  -0.004   5.661  1.00  0.00     0.087 C 
ATOM     82  O   UNL     1       5.061   1.276   4.364  1.00  0.00    -0.355 OA
ATOM     83  C   UNL     1       3.501   1.439   6.201  1.00  0.00     0.123 C 
ATOM     84  C   UNL     1       4.658   2.162   5.433  1.00  0.00     0.186 C 
BRANCH  83  85
ATOM     85  C   UNL     1       2.073   1.994   6.021  1.00  0.00    -0.013 A 
ATOM     86  C   UNL     1       1.000   1.285   6.613  1.00  0.00     0.008 A 
ATOM     87  C   UNL     1       1.755   3.182   5.344  1.00  0.00     0.008 A 
ATOM     88  C   UNL     1      -0.320   1.733   6.521  1.00  0.00     0.021 A 
ATOM     89  C   UNL     1       0.432   3.635   5.252  1.00  0.00     0.021 A 
ATOM     90  C   UNL     1      -0.598   2.911   5.841  1.00  0.00     0.041 A 
ATOM     91  Cl  UNL     1      -2.216   3.484   5.743  1.00  0.00    -0.084 Cl
ENDBRANCH  83  85
BRANCH  83  92
ATOM     92  O   UNL     1       3.670   1.456   7.622  1.00  0.00    -0.382 OA
ATOM     93  H   UNL     1       4.551   1.120   7.846  1.00  0.00     0.212 HD
ENDBRANCH  83  92
BRANCH  84  94
ATOM     94  C   UNL     1       5.936   2.646   6.108  1.00  0.00    -0.016 A 
ATOM     95  C   UNL     1       6.606   1.929   7.106  1.00  0.00     0.008 A 
ATOM     96  C   UNL     1       6.572   3.798   5.601  1.00  0.00     0.008 A 
ATOM     97  C   UNL     1       7.901   2.275   7.508  1.00  0.00     0.021 A 
ATOM     98  C   UNL     1       7.851   4.172   6.030  1.00  0.00     0.021 A 
ATOM     99  C   UNL     1       8.524   3.388   6.959  1.00  0.00     0.041 A 
ATOM    100  Cl  UNL     1      10.137   3.775   7.406  1.00  0.00    -0.084 Cl
ENDBRANCH  84  94
ENDBRANCH  78  80
ENDBRANCH  77  78
ENDBRANCH  76  77
ENDBRANCH  75  76
ENDBRANCH  74  75
ENDBRANCH   1  74
TORSDOF 20
