REMARK SMILES O=C(/C=C/c1ccc(C(=O)NC2CC2)cc1)NC1(C(=O)OCCOCCOC(=O)c2ccc(-c3c4nc(c(-c5c(F)cc(S(=O)(=O)[O-])cc5F)c5ccc([nH]5)c(-c5c(F)cc(S(=O)(=O)[O-])cc5F)c5nc(c(-c6c(F)cc(S(=O)(=O)[O-])cc6F)c6ccc3[nH]6)C=C5)C=C4)cc2)CCCC1
REMARK SMILES IDX 23 1 22 2 21 3 19 4 20 5 18 6 96 7 99 8 97 9 98 10 17 11
REMARK SMILES IDX 1 12 2 13 3 15 4 16 5 17 6 18 16 19 7 20 15 21 8 22 9 23
REMARK SMILES IDX 10 24 11 25 12 27 13 28 14 29 24 30 25 31 26 32 27 33 28 34
REMARK SMILES IDX 29 35 30 36 31 37 95 38 32 39 94 40 33 41 34 42 35 43 88 44
REMARK SMILES IDX 36 45 93 46 87 47 89 48 37 49 92 50 86 51 85 52 38 54 72 55
REMARK SMILES IDX 51 56 71 57 52 58 55 59 70 60 90 61 53 62 54 63 69 65 91 66
REMARK SMILES IDX 56 67 39 68 40 69 49 70 41 71 42 72 48 73 50 74 43 75 44 76
REMARK SMILES IDX 45 77 46 78 47 79 73 80 74 81 83 82 75 83 76 84 82 85 84 86
REMARK SMILES IDX 77 87 78 88 79 89 80 90 81 91 57 92 58 93 67 94 59 95 60 96
REMARK SMILES IDX 66 97 68 98 61 99 62 100 63 101 64 102 65 103
REMARK H PARENT 17 14 11 26 89 53 55 64
REMARK Flexibility Score: inf
ROOT
ATOM      1  C   UNL     1      -1.949   0.418  -1.903  1.00  0.00     0.202 C 
ENDROOT
BRANCH   1   2
ATOM      2  C   UNL     1      -1.150   1.707  -1.669  1.00  0.00     0.261 C 
BRANCH   2   3
ATOM      3  O   UNL     1       0.127   1.636  -2.326  1.00  0.00    -0.461 OA
BRANCH   3   4
ATOM      4  C   UNL     1       1.115   2.364  -1.735  1.00  0.00     0.331 C 
ATOM      5  O   UNL     1       0.925   3.266  -0.924  1.00  0.00    -0.249 OA
BRANCH   4   6
ATOM      6  C   UNL     1       2.534   1.845  -2.133  1.00  0.00     0.138 C 
ATOM      7  C   UNL     1       3.299   3.036  -2.738  1.00  0.00     0.040 C 
ATOM      8  C   UNL     1       2.595   0.842  -3.300  1.00  0.00     0.040 C 
ATOM      9  C   UNL     1       2.779   3.120  -4.166  1.00  0.00     0.003 C 
ATOM     10  C   UNL     1       2.547   1.675  -4.586  1.00  0.00     0.003 C 
BRANCH   6  11
ATOM     11  N   UNL     1       3.254   1.350  -0.937  1.00  0.00    -0.337 N 
ATOM     12  O   UNL     1       1.458   0.285   0.008  1.00  0.00    -0.270 OA
ATOM     13  C   UNL     1       2.652   0.556  -0.004  1.00  0.00     0.244 C 
ATOM     14  H   UNL     1       4.197   1.602  -0.811  1.00  0.00     0.164 HD
BRANCH  13  15
ATOM     15  C   UNL     1       3.472   0.023   1.103  1.00  0.00     0.072 C 
ATOM     16  C   UNL     1       4.797  -0.172   1.143  1.00  0.00     0.014 C 
BRANCH  16  17
ATOM     17  C   UNL     1       5.442  -0.858   2.277  1.00  0.00    -0.025 A 
ATOM     18  C   UNL     1       6.766  -0.565   2.612  1.00  0.00     0.009 A 
ATOM     19  C   UNL     1       4.782  -1.856   3.007  1.00  0.00     0.009 A 
ATOM     20  C   UNL     1       7.410  -1.266   3.643  1.00  0.00     0.014 A 
ATOM     21  C   UNL     1       5.414  -2.528   4.057  1.00  0.00     0.014 A 
ATOM     22  C   UNL     1       6.750  -2.276   4.362  1.00  0.00     0.039 A 
BRANCH  22  23
ATOM     23  C   UNL     1       7.527  -2.999   5.414  1.00  0.00     0.251 C 
ATOM     24  O   UNL     1       8.558  -2.485   5.853  1.00  0.00    -0.269 OA
ATOM     25  N   UNL     1       7.173  -4.242   5.898  1.00  0.00    -0.349 N 
ATOM     26  H   UNL     1       7.793  -4.608   6.570  1.00  0.00     0.164 HD
BRANCH  25  27
ATOM     27  C   UNL     1       6.069  -5.086   5.596  1.00  0.00     0.082 C 
ATOM     28  C   UNL     1       5.922  -5.768   4.264  1.00  0.00     0.027 C 
ATOM     29  C   UNL     1       6.259  -6.575   5.479  1.00  0.00     0.027 C 
ENDBRANCH  25  27
ENDBRANCH  22  23
ENDBRANCH  16  17
ENDBRANCH  13  15
ENDBRANCH   6  11
ENDBRANCH   4   6
ENDBRANCH   3   4
ENDBRANCH   2   3
ENDBRANCH   1   2
BRANCH   1  30
ATOM     30  O   UNL     1      -1.491  -0.762  -1.234  1.00  0.00    -0.374 OA
BRANCH  30  31
ATOM     31  C   UNL     1      -0.277  -1.338  -1.712  1.00  0.00     0.202 C 
BRANCH  31  32
ATOM     32  C   UNL     1      -0.401  -2.281  -2.912  1.00  0.00     0.261 C 
BRANCH  32  33
ATOM     33  O   UNL     1      -0.919  -1.614  -4.074  1.00  0.00    -0.460 OA
BRANCH  33  34
ATOM     34  C   UNL     1      -2.203  -1.921  -4.372  1.00  0.00     0.338 C 
ATOM     35  O   UNL     1      -2.907  -2.768  -3.834  1.00  0.00    -0.246 OA
BRANCH  34  36
ATOM     36  C   UNL     1      -2.731  -0.957  -5.351  1.00  0.00     0.060 A 
ATOM     37  C   UNL     1      -3.906  -0.272  -5.013  1.00  0.00     0.016 A 
ATOM     38  C   UNL     1      -2.123  -0.761  -6.592  1.00  0.00     0.016 A 
ATOM     39  C   UNL     1      -4.499   0.589  -5.933  1.00  0.00     0.010 A 
ATOM     40  C   UNL     1      -2.730   0.090  -7.520  1.00  0.00     0.010 A 
ATOM     41  C   UNL     1      -3.934   0.746  -7.204  1.00  0.00    -0.014 A 
BRANCH  41  42
ATOM     42  C   UNL     1      -4.675   1.491  -8.249  1.00  0.00     0.031 A 
ATOM     43  C   UNL     1      -5.482   0.718  -9.255  1.00  0.00     0.074 A 
ATOM     44  C   UNL     1      -4.626   2.834  -8.296  1.00  0.00     0.049 A 
ATOM     45  N   UNL     1      -6.145   1.154 -10.293  1.00  0.00    -0.248 NA
ATOM     46  C   UNL     1      -5.549  -0.741  -9.067  1.00  0.00     0.031 C 
ATOM     47  C   UNL     1      -3.903   3.686  -7.353  1.00  0.00     0.029 A 
ATOM     48  N   UNL     1      -5.183   3.716  -9.188  1.00  0.00    -0.354 N 
ATOM     49  C   UNL     1      -6.692   0.026 -10.893  1.00  0.00     0.074 A 
ATOM     50  C   UNL     1      -6.275  -1.117 -10.110  1.00  0.00     0.031 C 
ATOM     51  C   UNL     1      -4.036   4.968  -7.734  1.00  0.00     0.029 A 
ATOM     52  C   UNL     1      -4.823   5.024  -8.964  1.00  0.00     0.049 A 
ATOM     53  H   UNL     1      -5.782   3.439  -9.918  1.00  0.00     0.167 HD
ATOM     54  C   UNL     1      -7.472  -0.046 -11.996  1.00  0.00     0.037 A 
ATOM     55  C   UNL     1      -5.070   6.132  -9.691  1.00  0.00     0.037 A 
ATOM     56  C   UNL     1      -7.895   1.100 -12.758  1.00  0.00     0.049 A 
ATOM     57  C   UNL     1      -5.893   6.017 -10.949  1.00  0.00     0.074 A 
ATOM     58  C   UNL     1      -8.736   1.138 -13.855  1.00  0.00     0.029 A 
ATOM     59  N   UNL     1      -7.497   2.405 -12.511  1.00  0.00    -0.354 N 
ATOM     60  N   UNL     1      -6.450   4.952 -11.475  1.00  0.00    -0.248 NA
ATOM     61  C   UNL     1      -6.116   7.251 -11.716  1.00  0.00     0.031 C 
ATOM     62  C   UNL     1      -8.802   2.460 -14.307  1.00  0.00     0.029 A 
ATOM     63  C   UNL     1      -8.041   3.252 -13.461  1.00  0.00     0.049 A 
ATOM     64  H   UNL     1      -6.913   2.688 -11.771  1.00  0.00     0.167 HD
ATOM     65  C   UNL     1      -7.102   5.390 -12.623  1.00  0.00     0.074 A 
ATOM     66  C   UNL     1      -6.884   6.819 -12.708  1.00  0.00     0.031 C 
ATOM     67  C   UNL     1      -7.815   4.674 -13.528  1.00  0.00     0.037 A 
BRANCH  54  68
ATOM     68  C   UNL     1      -7.900  -1.405 -12.470  1.00  0.00     0.058 A 
ATOM     69  C   UNL     1      -8.885  -2.149 -11.803  1.00  0.00     0.135 A 
ATOM     70  C   UNL     1      -7.358  -1.943 -13.649  1.00  0.00     0.135 A 
ATOM     71  F   UNL     1      -9.422  -1.689 -10.662  1.00  0.00    -0.206 F 
ATOM     72  C   UNL     1      -9.310  -3.384 -12.281  1.00  0.00     0.059 A 
ATOM     73  C   UNL     1      -7.784  -3.166 -14.158  1.00  0.00     0.059 A 
ATOM     74  F   UNL     1      -6.409  -1.275 -14.323  1.00  0.00    -0.206 F 
ATOM     75  C   UNL     1      -8.756  -3.883 -13.463  1.00  0.00     0.060 A 
BRANCH  75  76
ATOM     76  S   UNL     1      -9.340  -5.473 -14.087  1.00  0.00     0.124 S 
ATOM     77  O   UNL     1      -8.733  -6.400 -13.136  1.00  0.00    -0.237 OA
ATOM     78  O   UNL     1     -10.790  -5.331 -13.995  1.00  0.00    -0.237 OA
ATOM     79  O   UNL     1      -8.803  -5.526 -15.443  1.00  0.00    -0.744 OA
ENDBRANCH  75  76
ENDBRANCH  54  68
BRANCH  55  80
ATOM     80  C   UNL     1      -4.492   7.439  -9.277  1.00  0.00     0.058 A 
ATOM     81  C   UNL     1      -5.306   8.484  -8.818  1.00  0.00     0.135 A 
ATOM     82  C   UNL     1      -3.109   7.670  -9.349  1.00  0.00     0.135 A 
ATOM     83  F   UNL     1      -6.635   8.317  -8.743  1.00  0.00    -0.206 F 
ATOM     84  C   UNL     1      -4.772   9.720  -8.462  1.00  0.00     0.059 A 
ATOM     85  C   UNL     1      -2.550   8.887  -8.974  1.00  0.00     0.059 A 
ATOM     86  F   UNL     1      -2.285   6.699  -9.773  1.00  0.00    -0.206 F 
ATOM     87  C   UNL     1      -3.392   9.911  -8.544  1.00  0.00     0.060 A 
BRANCH  87  88
ATOM     88  S   UNL     1      -2.703  11.506  -8.050  1.00  0.00     0.124 S 
ATOM     89  O   UNL     1      -3.075  12.348  -9.182  1.00  0.00    -0.237 OA
ATOM     90  O   UNL     1      -3.406  11.770  -6.799  1.00  0.00    -0.237 OA
ATOM     91  O   UNL     1      -1.277  11.226  -7.912  1.00  0.00    -0.744 OA
ENDBRANCH  87  88
ENDBRANCH  55  80
BRANCH  67  92
ATOM     92  C   UNL     1      -8.425   5.419 -14.682  1.00  0.00     0.058 A 
ATOM     93  C   UNL     1      -7.644   5.875 -15.754  1.00  0.00     0.135 A 
ATOM     94  C   UNL     1      -9.816   5.604 -14.756  1.00  0.00     0.135 A 
ATOM     95  F   UNL     1      -6.310   5.730 -15.728  1.00  0.00    -0.206 F 
ATOM     96  C   UNL     1      -8.219   6.498 -16.857  1.00  0.00     0.059 A 
ATOM     97  C   UNL     1     -10.414   6.201 -15.861  1.00  0.00     0.059 A 
ATOM     98  F   UNL     1     -10.608   5.176 -13.761  1.00  0.00    -0.206 F 
ATOM     99  C   UNL     1      -9.606   6.651 -16.904  1.00  0.00     0.060 A 
BRANCH  99 100
ATOM    100  S   UNL     1     -10.344   7.407 -18.369  1.00  0.00     0.124 S 
ATOM    101  O   UNL     1      -9.991   8.811 -18.184  1.00  0.00    -0.237 OA
ATOM    102  O   UNL     1      -9.656   6.718 -19.456  1.00  0.00    -0.237 OA
ATOM    103  O   UNL     1     -11.763   7.093 -18.235  1.00  0.00    -0.744 OA
ENDBRANCH  99 100
ENDBRANCH  67  92
ENDBRANCH  41  42
ENDBRANCH  34  36
ENDBRANCH  33  34
ENDBRANCH  32  33
ENDBRANCH  31  32
ENDBRANCH  30  31
ENDBRANCH   1  30
TORSDOF 22
