REMARK SMILES C[C@H](Oc1ccc(/C=C2/SC(=S)N(c3ccc(F)c(Cl)c3)C2=O)cc1)C(=O)OCCOCCOC(=O)c1ccc(-c2c3nc(c(-c4c(F)cc(S(=O)(=O)[O-])cc4F)c4ccc([nH]4)c(-c4c(F)cc(S(=O)(=O)[O-])cc4F)c4nc(c(-c5c(F)cc(S(=O)(=O)[O-])cc5F)c5ccc2[nH]5)C=C4)C=C3)cc1
REMARK SMILES IDX 30 1 29 2 28 3 26 4 27 5 2 6 1 7 3 8 4 9 5 10 25 11 6 12
REMARK SMILES IDX 24 13 7 14 8 15 9 16 10 17 22 18 11 19 13 20 23 21 12 22
REMARK SMILES IDX 14 23 15 24 21 25 16 26 19 27 17 28 20 29 18 30 31 31 32 32
REMARK SMILES IDX 33 33 34 34 35 35 36 36 37 37 38 38 102 39 39 40 101 41
REMARK SMILES IDX 40 42 41 43 42 44 95 45 43 46 100 47 94 48 96 49 44 50 99 51
REMARK SMILES IDX 93 52 92 53 45 55 79 56 58 57 78 58 59 59 62 60 77 61 97 62
REMARK SMILES IDX 60 63 61 64 76 66 98 67 63 68 46 69 47 70 56 71 48 72 49 73
REMARK SMILES IDX 55 74 57 75 50 76 51 77 52 78 53 79 54 80 80 81 81 82 90 83
REMARK SMILES IDX 82 84 83 85 89 86 91 87 84 88 85 89 86 90 87 91 88 92 64 93
REMARK SMILES IDX 65 94 74 95 66 96 67 97 73 98 75 99 68 100 69 101 70 102
REMARK SMILES IDX 71 103 72 104
REMARK H PARENT 96 54 62 65
REMARK Flexibility Score: inf
ROOT
ATOM      1  C   UNL     1      -3.475  -0.809   0.116  1.00  0.00     0.202 C 
ENDROOT
BRANCH   1   2
ATOM      2  C   UNL     1      -2.867  -1.418   1.380  1.00  0.00     0.261 C 
BRANCH   2   3
ATOM      3  O   UNL     1      -1.472  -1.092   1.506  1.00  0.00    -0.461 OA
BRANCH   3   4
ATOM      4  C   UNL     1      -0.589  -2.127   1.408  1.00  0.00     0.347 C 
ATOM      5  O   UNL     1      -0.891  -3.302   1.227  1.00  0.00    -0.248 OA
BRANCH   4   6
ATOM      6  C   UNL     1       0.852  -1.656   1.618  1.00  0.00     0.279 C 
ATOM      7  C   UNL     1       0.992  -1.351   3.111  1.00  0.00     0.066 C 
BRANCH   6   8
ATOM      8  O   UNL     1       1.134  -0.540   0.767  1.00  0.00    -0.479 OA
BRANCH   8   9
ATOM      9  C   UNL     1       2.407  -0.036   0.758  1.00  0.00     0.120 A 
ATOM     10  C   UNL     1       3.534  -0.659   1.291  1.00  0.00     0.047 A 
ATOM     11  C   UNL     1       2.539   1.236   0.200  1.00  0.00     0.047 A 
ATOM     12  C   UNL     1       4.734   0.048   1.426  1.00  0.00     0.012 A 
ATOM     13  C   UNL     1       3.750   1.929   0.296  1.00  0.00     0.012 A 
ATOM     14  C   UNL     1       4.829   1.371   0.990  1.00  0.00    -0.024 A 
BRANCH  14  15
ATOM     15  C   UNL     1       6.045   2.135   1.298  1.00  0.00     0.029 C 
ATOM     16  C   UNL     1       6.099   3.311   1.946  1.00  0.00     0.081 C 
ATOM     17  S   UNL     1       7.587   4.129   2.238  1.00  0.00    -0.054 SA
ATOM     18  C   UNL     1       4.965   4.129   2.480  1.00  0.00     0.270 C 
ATOM     19  C   UNL     1       6.791   5.564   2.885  1.00  0.00     0.152 C 
ATOM     20  N   UNL     1       5.415   5.396   2.849  1.00  0.00    -0.261 N 
ATOM     21  O   UNL     1       3.815   3.719   2.539  1.00  0.00    -0.268 OA
ATOM     22  S   UNL     1       7.702   6.823   3.508  1.00  0.00    -0.051 S 
BRANCH  20  23
ATOM     23  C   UNL     1       4.459   6.429   3.121  1.00  0.00     0.052 A 
ATOM     24  C   UNL     1       3.300   6.169   3.873  1.00  0.00     0.030 A 
ATOM     25  C   UNL     1       4.605   7.701   2.543  1.00  0.00     0.050 A 
ATOM     26  C   UNL     1       2.321   7.152   4.051  1.00  0.00     0.043 A 
ATOM     27  C   UNL     1       3.620   8.679   2.714  1.00  0.00     0.078 A 
ATOM     28  C   UNL     1       2.485   8.401   3.467  1.00  0.00     0.141 A 
ATOM     29  Cl  UNL     1       3.816  10.209   1.947  1.00  0.00    -0.081 Cl
ATOM     30  F   UNL     1       1.526   9.323   3.628  1.00  0.00    -0.205 F 
ENDBRANCH  20  23
ENDBRANCH  14  15
ENDBRANCH   8   9
ENDBRANCH   6   8
ENDBRANCH   4   6
ENDBRANCH   3   4
ENDBRANCH   2   3
ENDBRANCH   1   2
BRANCH   1  31
ATOM     31  O   UNL     1      -3.010  -1.365  -1.115  1.00  0.00    -0.374 OA
BRANCH  31  32
ATOM     32  C   UNL     1      -1.744  -0.905  -1.587  1.00  0.00     0.202 C 
BRANCH  32  33
ATOM     33  C   UNL     1      -1.751   0.439  -2.325  1.00  0.00     0.261 C 
BRANCH  33  34
ATOM     34  O   UNL     1      -2.125   1.535  -1.470  1.00  0.00    -0.460 OA
BRANCH  34  35
ATOM     35  C   UNL     1      -3.346   2.058  -1.725  1.00  0.00     0.338 C 
ATOM     36  O   UNL     1      -4.104   1.744  -2.637  1.00  0.00    -0.246 OA
BRANCH  35  37
ATOM     37  C   UNL     1      -3.756   2.984  -0.652  1.00  0.00     0.060 A 
ATOM     38  C   UNL     1      -5.041   2.819  -0.122  1.00  0.00     0.016 A 
ATOM     39  C   UNL     1      -2.947   4.043  -0.226  1.00  0.00     0.016 A 
ATOM     40  C   UNL     1      -5.545   3.744   0.789  1.00  0.00     0.010 A 
ATOM     41  C   UNL     1      -3.458   4.974   0.688  1.00  0.00     0.010 A 
ATOM     42  C   UNL     1      -4.773   4.850   1.171  1.00  0.00    -0.014 A 
BRANCH  42  43
ATOM     43  C   UNL     1      -5.410   5.919   1.981  1.00  0.00     0.031 A 
ATOM     44  C   UNL     1      -5.915   7.163   1.299  1.00  0.00     0.074 A 
ATOM     45  C   UNL     1      -5.610   5.745   3.301  1.00  0.00     0.049 A 
ATOM     46  N   UNL     1      -6.564   8.180   1.806  1.00  0.00    -0.248 NA
ATOM     47  C   UNL     1      -5.661   7.274  -0.146  1.00  0.00     0.031 C 
ATOM     48  C   UNL     1      -5.181   4.578   4.072  1.00  0.00     0.029 A 
ATOM     49  N   UNL     1      -6.232   6.547   4.224  1.00  0.00    -0.354 N 
ATOM     50  C   UNL     1      -6.808   9.043   0.744  1.00  0.00     0.074 A 
ATOM     51  C   UNL     1      -6.200   8.451  -0.428  1.00  0.00     0.031 C 
ATOM     52  C   UNL     1      -5.550   4.742   5.354  1.00  0.00     0.029 A 
ATOM     53  C   UNL     1      -6.228   6.029   5.497  1.00  0.00     0.049 A 
ATOM     54  H   UNL     1      -6.642   7.412   3.996  1.00  0.00     0.167 HD
ATOM     55  C   UNL     1      -7.493  10.213   0.741  1.00  0.00     0.037 A 
ATOM     56  C   UNL     1      -6.709   6.539   6.648  1.00  0.00     0.037 A 
ATOM     57  C   UNL     1      -8.091  10.806   1.910  1.00  0.00     0.049 A 
ATOM     58  C   UNL     1      -7.430   7.861   6.626  1.00  0.00     0.074 A 
ATOM     59  C   UNL     1      -8.804  11.988   2.008  1.00  0.00     0.029 A 
ATOM     60  N   UNL     1      -8.045  10.263   3.185  1.00  0.00    -0.354 N 
ATOM     61  N   UNL     1      -7.674   8.652   5.608  1.00  0.00    -0.248 NA
ATOM     62  C   UNL     1      -7.955   8.353   7.908  1.00  0.00     0.031 C 
ATOM     63  C   UNL     1      -9.159  12.178   3.348  1.00  0.00     0.029 A 
ATOM     64  C   UNL     1      -8.704  11.092   4.079  1.00  0.00     0.049 A 
ATOM     65  H   UNL     1      -7.609   9.413   3.421  1.00  0.00     0.167 HD
ATOM     66  C   UNL     1      -8.391   9.726   6.123  1.00  0.00     0.074 A 
ATOM     67  C   UNL     1      -8.565   9.470   7.538  1.00  0.00     0.031 C 
ATOM     68  C   UNL     1      -8.861  10.828   5.486  1.00  0.00     0.037 A 
BRANCH  55  69
ATOM     69  C   UNL     1      -7.633  10.934  -0.571  1.00  0.00     0.058 A 
ATOM     70  C   UNL     1      -8.496  10.467  -1.575  1.00  0.00     0.135 A 
ATOM     71  C   UNL     1      -6.941  12.132  -0.809  1.00  0.00     0.135 A 
ATOM     72  F   UNL     1      -9.169   9.317  -1.406  1.00  0.00    -0.206 F 
ATOM     73  C   UNL     1      -8.658  11.153  -2.774  1.00  0.00     0.059 A 
ATOM     74  C   UNL     1      -7.104  12.848  -1.992  1.00  0.00     0.059 A 
ATOM     75  F   UNL     1      -6.101  12.622   0.116  1.00  0.00    -0.206 F 
ATOM     76  C   UNL     1      -7.958  12.345  -2.973  1.00  0.00     0.060 A 
BRANCH  76  77
ATOM     77  S   UNL     1      -8.197  13.237  -4.524  1.00  0.00     0.124 S 
ATOM     78  O   UNL     1      -7.470  12.389  -5.463  1.00  0.00    -0.237 OA
ATOM     79  O   UNL     1      -9.650  13.237  -4.665  1.00  0.00    -0.237 OA
ATOM     80  O   UNL     1      -7.596  14.542  -4.263  1.00  0.00    -0.744 OA
ENDBRANCH  76  77
ENDBRANCH  55  69
BRANCH  56  81
ATOM     81  C   UNL     1      -6.513   5.804   7.926  1.00  0.00     0.058 A 
ATOM     82  C   UNL     1      -7.590   5.216   8.606  1.00  0.00     0.135 A 
ATOM     83  C   UNL     1      -5.237   5.691   8.501  1.00  0.00     0.135 A 
ATOM     84  F   UNL     1      -8.830   5.304   8.102  1.00  0.00    -0.206 F 
ATOM     85  C   UNL     1      -7.414   4.562   9.822  1.00  0.00     0.059 A 
ATOM     86  C   UNL     1      -5.032   5.021   9.702  1.00  0.00     0.059 A 
ATOM     87  F   UNL     1      -4.171   6.225   7.883  1.00  0.00    -0.206 F 
ATOM     88  C   UNL     1      -6.130   4.472  10.363  1.00  0.00     0.060 A 
BRANCH  88  89
ATOM     89  S   UNL     1      -5.900   3.590  11.922  1.00  0.00     0.124 S 
ATOM     90  O   UNL     1      -6.396   4.565  12.886  1.00  0.00    -0.237 OA
ATOM     91  O   UNL     1      -6.726   2.402  11.730  1.00  0.00    -0.237 OA
ATOM     92  O   UNL     1      -4.461   3.342  11.956  1.00  0.00    -0.744 OA
ENDBRANCH  88  89
ENDBRANCH  56  81
BRANCH  68  93
ATOM     93  C   UNL     1      -9.620  11.828   6.316  1.00  0.00     0.058 A 
ATOM     94  C   UNL     1      -8.970  12.651   7.250  1.00  0.00     0.135 A 
ATOM     95  C   UNL     1     -11.009  11.970   6.172  1.00  0.00     0.135 A 
ATOM     96  F   UNL     1      -7.644  12.553   7.429  1.00  0.00    -0.206 F 
ATOM     97  C   UNL     1      -9.678  13.550   8.042  1.00  0.00     0.059 A 
ATOM     98  C   UNL     1     -11.733  12.882   6.934  1.00  0.00     0.059 A 
ATOM     99  F   UNL     1     -11.677  11.218   5.283  1.00  0.00    -0.206 F 
ATOM    100  C   UNL     1     -11.061  13.652   7.882  1.00  0.00     0.060 A 
BRANCH 100 101
ATOM    101  S   UNL     1     -11.972  14.814   8.922  1.00  0.00     0.124 S 
ATOM    102  O   UNL     1     -12.024  14.093  10.190  1.00  0.00    -0.237 OA
ATOM    103  O   UNL     1     -11.116  15.996   8.900  1.00  0.00    -0.237 OA
ATOM    104  O   UNL     1     -13.248  14.960   8.229  1.00  0.00    -0.744 OA
ENDBRANCH 100 101
ENDBRANCH  68  93
ENDBRANCH  42  43
ENDBRANCH  35  37
ENDBRANCH  34  35
ENDBRANCH  33  34
ENDBRANCH  32  33
ENDBRANCH  31  32
ENDBRANCH   1  31
TORSDOF 21
