REMARK SMILES COC(=O)c1cc(F)cc(-c2ccc(C(=O)OCCOCCOC(=O)c3ccc(-c4c5nc(c(-c6c(F)cc(S(=O)(=O)[O-])cc6F)c6ccc([nH]6)c(-c6c(F)cc(S(=O)(=O)[O-])cc6F)c6nc(c(-c7c(F)cc(S(=O)(=O)[O-])cc7F)c7ccc4[nH]7)C=C6)C=C5)cc3)cc2C)c1
REMARK SMILES IDX 20 1 19 2 18 3 17 4 15 5 16 6 14 7 11 8 12 9 93 10 13 11
REMARK SMILES IDX 92 12 94 13 10 14 5 15 6 16 95 17 7 18 8 19 9 20 3 21 4 22
REMARK SMILES IDX 2 23 1 24 21 25 22 26 23 27 24 28 25 29 26 30 27 31 91 32
REMARK SMILES IDX 28 33 90 34 29 35 30 36 31 37 84 38 32 39 89 40 83 41 85 42
REMARK SMILES IDX 33 43 88 44 82 45 81 46 34 48 68 49 47 50 67 51 48 52 51 53
REMARK SMILES IDX 66 54 86 55 49 56 50 57 65 59 87 60 52 61 35 62 36 63 45 64
REMARK SMILES IDX 37 65 38 66 44 67 46 68 39 69 40 70 41 71 42 72 43 73 69 74
REMARK SMILES IDX 70 75 79 76 71 77 72 78 78 79 80 80 73 81 74 82 75 83 76 84
REMARK SMILES IDX 77 85 53 86 54 87 63 88 55 89 56 90 62 91 64 92 57 93 58 94
REMARK SMILES IDX 59 95 60 96 61 97
REMARK H PARENT 85 47 51 58
REMARK Flexibility Score: inf
ROOT
ATOM      1  O   UNL     1       4.533 -10.794  -5.544  1.00  0.00    -0.374 OA
ENDROOT
BRANCH   1   2
ATOM      2  C   UNL     1       5.486 -10.633  -4.497  1.00  0.00     0.202 C 
BRANCH   2   3
ATOM      3  C   UNL     1       6.451  -9.538  -4.950  1.00  0.00     0.261 C 
BRANCH   3   4
ATOM      4  O   UNL     1       5.804  -8.275  -4.728  1.00  0.00    -0.460 OA
BRANCH   4   5
ATOM      5  C   UNL     1       4.840  -7.958  -5.627  1.00  0.00     0.338 C 
ATOM      6  O   UNL     1       4.836  -8.217  -6.822  1.00  0.00    -0.246 OA
BRANCH   5   7
ATOM      7  C   UNL     1       3.684  -7.380  -4.893  1.00  0.00     0.060 A 
ATOM      8  C   UNL     1       1.496  -6.201  -3.571  1.00  0.00    -0.015 A 
ATOM      9  C   UNL     1       2.649  -6.588  -2.863  1.00  0.00     0.010 A 
ATOM     10  C   UNL     1       1.396  -6.520  -4.942  1.00  0.00    -0.042 A 
ATOM     11  C   UNL     1       3.734  -7.161  -3.514  1.00  0.00     0.016 A 
ATOM     12  C   UNL     1       2.497  -7.115  -5.588  1.00  0.00     0.019 A 
ATOM     13  C   UNL     1       0.155  -6.263  -5.755  1.00  0.00     0.045 C 
BRANCH   8  14
ATOM     14  C   UNL     1       0.571  -5.287  -2.893  1.00  0.00    -0.014 A 
ATOM     15  C   UNL     1       0.251  -3.061  -1.933  1.00  0.00     0.063 A 
ATOM     16  C   UNL     1      -1.060  -3.390  -1.595  1.00  0.00     0.055 A 
ATOM     17  C   UNL     1       1.049  -3.999  -2.587  1.00  0.00     0.024 A 
ATOM     18  C   UNL     1      -1.539  -4.660  -1.907  1.00  0.00     0.124 A 
ATOM     19  F   UNL     1      -2.804  -4.974  -1.593  1.00  0.00    -0.207 F 
ATOM     20  C   UNL     1      -0.740  -5.613  -2.540  1.00  0.00     0.048 A 
BRANCH  15  21
ATOM     21  C   UNL     1       0.861  -1.747  -1.637  1.00  0.00     0.337 C 
ATOM     22  O   UNL     1       1.780  -1.271  -2.285  1.00  0.00    -0.246 OA
BRANCH  21  23
ATOM     23  O   UNL     1       0.321  -1.224  -0.510  1.00  0.00    -0.465 OA
ATOM     24  C   UNL     1       0.975  -0.029  -0.081  1.00  0.00     0.282 C 
ENDBRANCH  21  23
ENDBRANCH  15  21
ENDBRANCH   8  14
ENDBRANCH   5   7
ENDBRANCH   4   5
ENDBRANCH   3   4
ENDBRANCH   2   3
ENDBRANCH   1   2
BRANCH   1  25
ATOM     25  C   UNL     1       3.184 -10.959  -5.161  1.00  0.00     0.202 C 
BRANCH  25  26
ATOM     26  C   UNL     1       2.802 -12.381  -4.761  1.00  0.00     0.261 C 
BRANCH  26  27
ATOM     27  O   UNL     1       3.890 -13.223  -4.336  1.00  0.00    -0.460 OA
BRANCH  27  28
ATOM     28  C   UNL     1       4.628 -14.038  -5.138  1.00  0.00     0.338 C 
ATOM     29  O   UNL     1       4.989 -15.138  -4.727  1.00  0.00    -0.246 OA
BRANCH  28  30
ATOM     30  C   UNL     1       5.300 -13.475  -6.343  1.00  0.00     0.060 A 
ATOM     31  C   UNL     1       6.699 -13.616  -6.414  1.00  0.00     0.016 A 
ATOM     32  C   UNL     1       4.630 -12.834  -7.386  1.00  0.00     0.016 A 
ATOM     33  C   UNL     1       7.423 -13.081  -7.486  1.00  0.00     0.010 A 
ATOM     34  C   UNL     1       5.358 -12.252  -8.433  1.00  0.00     0.010 A 
ATOM     35  C   UNL     1       6.755 -12.390  -8.504  1.00  0.00    -0.014 A 
BRANCH  35  36
ATOM     36  C   UNL     1       7.437 -12.088  -9.787  1.00  0.00     0.031 A 
ATOM     37  C   UNL     1       8.066 -10.764 -10.097  1.00  0.00     0.074 A 
ATOM     38  C   UNL     1       7.380 -13.057 -10.721  1.00  0.00     0.049 A 
ATOM     39  N   UNL     1       8.665 -10.379 -11.196  1.00  0.00    -0.248 NA
ATOM     40  C   UNL     1       8.022  -9.737  -9.050  1.00  0.00     0.031 C 
ATOM     41  C   UNL     1       6.764 -14.372 -10.514  1.00  0.00     0.029 A 
ATOM     42  N   UNL     1       7.790 -13.082 -12.026  1.00  0.00    -0.354 N 
ATOM     43  C   UNL     1       9.081  -9.070 -10.974  1.00  0.00     0.074 A 
ATOM     44  C   UNL     1       8.646  -8.720  -9.637  1.00  0.00     0.031 C 
ATOM     45  C   UNL     1       6.784 -15.052 -11.667  1.00  0.00     0.029 A 
ATOM     46  C   UNL     1       7.414 -14.224 -12.689  1.00  0.00     0.049 A 
ATOM     47  H   UNL     1       8.304 -12.355 -12.447  1.00  0.00     0.167 HD
ATOM     48  C   UNL     1       9.757  -8.250 -11.817  1.00  0.00     0.037 A 
ATOM     49  C   UNL     1       7.544 -14.568 -13.982  1.00  0.00     0.037 A 
ATOM     50  C   UNL     1      10.134  -8.621 -13.162  1.00  0.00     0.049 A 
ATOM     51  C   UNL     1       8.273 -13.640 -14.902  1.00  0.00     0.074 A 
ATOM     52  C   UNL     1      10.886  -7.901 -14.076  1.00  0.00     0.029 A 
ATOM     53  N   UNL     1       9.761  -9.798 -13.799  1.00  0.00    -0.354 N 
ATOM     54  N   UNL     1       8.765 -12.452 -14.643  1.00  0.00    -0.248 NA
ATOM     55  C   UNL     1       8.493 -14.102 -16.276  1.00  0.00     0.031 C 
ATOM     56  C   UNL     1      10.909  -8.609 -15.282  1.00  0.00     0.029 A 
ATOM     57  C   UNL     1      10.230  -9.805 -15.104  1.00  0.00     0.049 A 
ATOM     58  H   UNL     1       9.239 -10.523 -13.384  1.00  0.00     0.167 HD
ATOM     59  C   UNL     1       9.374 -12.029 -15.816  1.00  0.00     0.074 A 
ATOM     60  C   UNL     1       9.195 -13.095 -16.783  1.00  0.00     0.031 C 
ATOM     61  C   UNL     1      10.027 -10.867 -16.063  1.00  0.00     0.037 A 
BRANCH  48  62
ATOM     62  C   UNL     1      10.136  -6.869 -11.338  1.00  0.00     0.058 A 
ATOM     63  C   UNL     1       9.587  -5.723 -11.938  1.00  0.00     0.135 A 
ATOM     64  C   UNL     1      11.126  -6.674 -10.360  1.00  0.00     0.135 A 
ATOM     65  F   UNL     1       8.641  -5.842 -12.883  1.00  0.00    -0.206 F 
ATOM     66  C   UNL     1      10.013  -4.440 -11.600  1.00  0.00     0.059 A 
ATOM     67  C   UNL     1      11.550  -5.398  -9.988  1.00  0.00     0.059 A 
ATOM     68  F   UNL     1      11.687  -7.728  -9.747  1.00  0.00    -0.206 F 
ATOM     69  C   UNL     1      10.998  -4.287 -10.624  1.00  0.00     0.060 A 
BRANCH  69  70
ATOM     70  S   UNL     1      11.529  -2.616 -10.184  1.00  0.00     0.124 S 
ATOM     71  O   UNL     1      12.222  -2.189 -11.393  1.00  0.00    -0.237 OA
ATOM     72  O   UNL     1      10.258  -1.953  -9.911  1.00  0.00    -0.237 OA
ATOM     73  O   UNL     1      12.378  -2.828  -9.014  1.00  0.00    -0.744 OA
ENDBRANCH  69  70
ENDBRANCH  48  62
BRANCH  49  74
ATOM     74  C   UNL     1       7.008 -15.879 -14.423  1.00  0.00     0.058 A 
ATOM     75  C   UNL     1       5.624 -16.108 -14.495  1.00  0.00     0.135 A 
ATOM     76  C   UNL     1       7.866 -16.966 -14.637  1.00  0.00     0.135 A 
ATOM     77  F   UNL     1       4.762 -15.104 -14.270  1.00  0.00    -0.206 F 
ATOM     78  C   UNL     1       5.109 -17.378 -14.726  1.00  0.00     0.059 A 
ATOM     79  C   UNL     1       7.375 -18.242 -14.892  1.00  0.00     0.059 A 
ATOM     80  F   UNL     1       9.195 -16.792 -14.573  1.00  0.00    -0.206 F 
ATOM     81  C   UNL     1       5.995 -18.442 -14.911  1.00  0.00     0.060 A 
BRANCH  81  82
ATOM     82  S   UNL     1       5.309 -20.095 -15.144  1.00  0.00     0.124 S 
ATOM     83  O   UNL     1       4.712 -20.352 -13.837  1.00  0.00    -0.237 OA
ATOM     84  O   UNL     1       4.370 -19.883 -16.240  1.00  0.00    -0.237 OA
ATOM     85  O   UNL     1       6.479 -20.904 -15.470  1.00  0.00    -0.744 OA
ENDBRANCH  81  82
ENDBRANCH  49  74
BRANCH  61  86
ATOM     86  C   UNL     1      10.602 -10.679 -17.440  1.00  0.00     0.058 A 
ATOM     87  C   UNL     1      11.992 -10.679 -17.637  1.00  0.00     0.135 A 
ATOM     88  C   UNL     1       9.780 -10.426 -18.549  1.00  0.00     0.135 A 
ATOM     89  F   UNL     1      12.822 -10.916 -16.610  1.00  0.00    -0.206 F 
ATOM     90  C   UNL     1      12.548 -10.411 -18.882  1.00  0.00     0.059 A 
ATOM     91  C   UNL     1      10.315 -10.184 -19.811  1.00  0.00     0.059 A 
ATOM     92  F   UNL     1       8.444 -10.432 -18.417  1.00  0.00    -0.206 F 
ATOM     93  C   UNL     1      11.701 -10.159 -19.963  1.00  0.00     0.060 A 
BRANCH  93  94
ATOM     94  S   UNL     1      12.443  -9.813 -21.572  1.00  0.00     0.124 S 
ATOM     95  O   UNL     1      13.044  -8.502 -21.349  1.00  0.00    -0.237 OA
ATOM     96  O   UNL     1      13.378 -10.923 -21.724  1.00  0.00    -0.237 OA
ATOM     97  O   UNL     1      11.302  -9.834 -22.483  1.00  0.00    -0.744 OA
ENDBRANCH  93  94
ENDBRANCH  61  86
ENDBRANCH  35  36
ENDBRANCH  28  30
ENDBRANCH  27  28
ENDBRANCH  26  27
ENDBRANCH  25  26
ENDBRANCH   1  25
TORSDOF 20
