REMARK SMILES CC[C@@](C)([NH2+]Cc1ccc(C(N)=O)cc1F)C(=O)OCCOCCOC(=O)c1ccc(-c2c3nc(c(-c4c(F)cc(S(=O)(=O)[O-])cc4F)c4ccc([nH]4)c(-c4c(F)cc(S(=O)(=O)[O-])cc4F)c4nc(c(-c5c(F)cc(S(=O)(=O)[O-])cc5F)c5ccc2[nH]5)C=C4)C=C3)cc1
REMARK SMILES IDX 21 1 20 2 19 3 17 4 18 5 3 6 4 7 2 8 1 9 5 10 6 13 7 14 8 15
REMARK SMILES IDX 15 16 9 17 14 18 16 19 10 20 11 21 12 22 13 23 22 26 23 27
REMARK SMILES IDX 24 28 25 29 26 30 27 31 28 32 29 33 93 34 30 35 92 36 31 37
REMARK SMILES IDX 32 38 33 39 86 40 34 41 91 42 85 43 87 44 35 45 90 46 84 47
REMARK SMILES IDX 83 48 36 50 70 51 49 52 69 53 50 54 53 55 68 56 88 57 51 58
REMARK SMILES IDX 52 59 67 61 89 62 54 63 37 64 38 65 47 66 39 67 40 68 46 69
REMARK SMILES IDX 48 70 41 71 42 72 43 73 44 74 45 75 71 76 72 77 81 78 73 79
REMARK SMILES IDX 74 80 80 81 82 82 75 83 76 84 77 85 78 86 79 87 55 88 56 89
REMARK SMILES IDX 65 90 57 91 58 92 64 93 66 94 59 95 60 96 61 97 62 98 63 99
REMARK H PARENT 5 11 5 12 12 24 12 25 87 49 53 60
REMARK Flexibility Score: inf
ROOT
ATOM      1  C   UNL     1       5.254  -0.136   3.158  1.00  0.00     0.202 C 
ENDROOT
BRANCH   1   2
ATOM      2  C   UNL     1       4.581   1.123   2.607  1.00  0.00     0.261 C 
BRANCH   2   3
ATOM      3  O   UNL     1       3.169   1.070   2.854  1.00  0.00    -0.459 OA
BRANCH   3   4
ATOM      4  C   UNL     1       2.365   1.121   1.767  1.00  0.00     0.367 C 
ATOM      5  O   UNL     1       2.766   1.425   0.646  1.00  0.00    -0.245 OA
BRANCH   4   6
ATOM      6  C   UNL     1       0.877   0.784   2.055  1.00  0.00     0.191 C 
ATOM      7  C   UNL     1       0.075   2.051   1.720  1.00  0.00     0.092 C 
BRANCH   6   8
ATOM      8  C   UNL     1       0.424  -0.390   1.120  1.00  0.00     0.077 C 
ATOM      9  C   UNL     1       0.618  -0.234  -0.385  1.00  0.00     0.011 C 
ENDBRANCH   6   8
BRANCH   6  10
ATOM     10  N   UNL     1       0.549   0.215   3.409  1.00  0.00    -0.329 N 
ATOM     11  H   UNL     1       0.976  -0.711   3.436  1.00  0.00     0.347 HD
ATOM     12  H   UNL     1      -0.467   0.304   3.430  1.00  0.00     0.347 HD
BRANCH  10  13
ATOM     13  C   UNL     1       0.933   0.876   4.660  1.00  0.00     0.301 C 
BRANCH  13  14
ATOM     14  C   UNL     1       0.365   2.253   4.848  1.00  0.00     0.042 A 
ATOM     15  C   UNL     1      -1.015   2.492   4.763  1.00  0.00     0.013 A 
ATOM     16  C   UNL     1       1.224   3.338   5.038  1.00  0.00     0.132 A 
ATOM     17  C   UNL     1      -1.498   3.801   4.706  1.00  0.00     0.014 A 
ATOM     18  C   UNL     1       0.751   4.643   5.001  1.00  0.00     0.053 A 
ATOM     19  F   UNL     1       2.539   3.131   5.195  1.00  0.00    -0.206 F 
ATOM     20  C   UNL     1      -0.607   4.881   4.771  1.00  0.00     0.042 A 
BRANCH  20  21
ATOM     21  C   UNL     1      -1.037   6.288   4.551  1.00  0.00     0.248 C 
ATOM     22  N   UNL     1      -2.246   6.506   3.952  1.00  0.00    -0.366 N 
ATOM     23  O   UNL     1      -0.314   7.233   4.837  1.00  0.00    -0.270 OA
ATOM     24  H   UNL     1      -2.826   5.745   3.722  1.00  0.00     0.159 HD
ATOM     25  H   UNL     1      -2.537   7.425   3.751  1.00  0.00     0.159 HD
ENDBRANCH  20  21
ENDBRANCH  13  14
ENDBRANCH  10  13
ENDBRANCH   6  10
ENDBRANCH   4   6
ENDBRANCH   3   4
ENDBRANCH   2   3
ENDBRANCH   1   2
BRANCH   1  26
ATOM     26  O   UNL     1       4.842  -1.377   2.580  1.00  0.00    -0.374 OA
BRANCH  26  27
ATOM     27  C   UNL     1       3.575  -1.900   2.983  1.00  0.00     0.202 C 
BRANCH  27  28
ATOM     28  C   UNL     1       3.498  -2.577   4.356  1.00  0.00     0.261 C 
BRANCH  28  29
ATOM     29  O   UNL     1       3.753  -1.663   5.437  1.00  0.00    -0.460 OA
BRANCH  29  30
ATOM     30  C   UNL     1       4.949  -1.843   6.042  1.00  0.00     0.338 C 
ATOM     31  O   UNL     1       5.757  -2.737   5.820  1.00  0.00    -0.246 OA
BRANCH  30  32
ATOM     32  C   UNL     1       5.271  -0.698   6.913  1.00  0.00     0.060 A 
ATOM     33  C   UNL     1       6.546  -0.138   6.776  1.00  0.00     0.016 A 
ATOM     34  C   UNL     1       4.398  -0.246   7.907  1.00  0.00     0.016 A 
ATOM     35  C   UNL     1       6.991   0.811   7.688  1.00  0.00     0.010 A 
ATOM     36  C   UNL     1       4.849   0.707   8.828  1.00  0.00     0.010 A 
ATOM     37  C   UNL     1       6.168   1.192   8.756  1.00  0.00    -0.014 A 
BRANCH  37  38
ATOM     38  C   UNL     1       6.785   1.920   9.892  1.00  0.00     0.031 A 
ATOM     39  C   UNL     1       7.220   1.131  11.099  1.00  0.00     0.074 A 
ATOM     40  C   UNL     1       7.054   3.234   9.806  1.00  0.00     0.049 A 
ATOM     41  N   UNL     1       7.847   1.536  12.173  1.00  0.00    -0.248 NA
ATOM     42  C   UNL     1       6.911  -0.309  11.092  1.00  0.00     0.031 C 
ATOM     43  C   UNL     1       6.726   4.090   8.668  1.00  0.00     0.029 A 
ATOM     44  N   UNL     1       7.686   4.073  10.689  1.00  0.00    -0.354 N 
ATOM     45  C   UNL     1       8.016   0.403  12.961  1.00  0.00     0.074 A 
ATOM     46  C   UNL     1       7.385  -0.697  12.266  1.00  0.00     0.031 C 
ATOM     47  C   UNL     1       7.170   5.333   8.916  1.00  0.00     0.029 A 
ATOM     48  C   UNL     1       7.797   5.366  10.238  1.00  0.00     0.049 A 
ATOM     49  H   UNL     1       8.028   3.777  11.563  1.00  0.00     0.167 HD
ATOM     50  C   UNL     1       8.656   0.285  14.149  1.00  0.00     0.037 A 
ATOM     51  C   UNL     1       8.342   6.450  10.824  1.00  0.00     0.037 A 
ATOM     52  C   UNL     1       9.283   1.381  14.837  1.00  0.00     0.049 A 
ATOM     53  C   UNL     1       8.998   6.310  12.172  1.00  0.00     0.074 A 
ATOM     54  C   UNL     1       9.944   1.369  16.053  1.00  0.00     0.029 A 
ATOM     55  N   UNL     1       9.329   2.687  14.370  1.00  0.00    -0.354 N 
ATOM     56  N   UNL     1       9.143   5.234  12.910  1.00  0.00    -0.248 NA
ATOM     57  C   UNL     1       9.571   7.526  12.765  1.00  0.00     0.031 C 
ATOM     58  C   UNL     1      10.356   2.675  16.338  1.00  0.00     0.029 A 
ATOM     59  C   UNL     1       9.995   3.492  15.278  1.00  0.00     0.049 A 
ATOM     60  H   UNL     1       8.944   2.995  13.518  1.00  0.00     0.167 HD
ATOM     61  C   UNL     1       9.846   5.638  14.041  1.00  0.00     0.074 A 
ATOM     62  C   UNL     1      10.103   7.056  13.886  1.00  0.00     0.031 C 
ATOM     63  C   UNL     1      10.246   4.902  15.107  1.00  0.00     0.037 A 
BRANCH  50  64
ATOM     64  C   UNL     1       8.696  -1.078  14.783  1.00  0.00     0.058 A 
ATOM     65  C   UNL     1       7.944  -1.352  15.935  1.00  0.00     0.135 A 
ATOM     66  C   UNL     1       9.499  -2.108  14.265  1.00  0.00     0.135 A 
ATOM     67  F   UNL     1       7.152  -0.407  16.466  1.00  0.00    -0.206 F 
ATOM     68  C   UNL     1       7.991  -2.595  16.557  1.00  0.00     0.059 A 
ATOM     69  C   UNL     1       9.542  -3.368  14.856  1.00  0.00     0.059 A 
ATOM     70  F   UNL     1      10.218  -1.908  13.149  1.00  0.00    -0.206 F 
ATOM     71  C   UNL     1       8.792  -3.598  16.009  1.00  0.00     0.060 A 
BRANCH  71  72
ATOM     72  S   UNL     1       8.800  -5.222  16.798  1.00  0.00     0.124 S 
ATOM     73  O   UNL     1       9.551  -4.959  18.020  1.00  0.00    -0.237 OA
ATOM     74  O   UNL     1       7.374  -5.486  16.971  1.00  0.00    -0.237 OA
ATOM     75  O   UNL     1       9.469  -6.072  15.817  1.00  0.00    -0.744 OA
ENDBRANCH  71  72
ENDBRANCH  50  64
BRANCH  51  76
ATOM     76  C   UNL     1       8.308   7.758  10.117  1.00  0.00     0.058 A 
ATOM     77  C   UNL     1       7.101   8.452   9.938  1.00  0.00     0.135 A 
ATOM     78  C   UNL     1       9.472   8.319   9.572  1.00  0.00     0.135 A 
ATOM     79  F   UNL     1       5.959   7.956  10.440  1.00  0.00    -0.206 F 
ATOM     80  C   UNL     1       7.043   9.638   9.216  1.00  0.00     0.059 A 
ATOM     81  C   UNL     1       9.443   9.518   8.864  1.00  0.00     0.059 A 
ATOM     82  F   UNL     1      10.652   7.701   9.731  1.00  0.00    -0.206 F 
ATOM     83  C   UNL     1       8.219  10.159   8.675  1.00  0.00     0.060 A 
BRANCH  83  84
ATOM     84  S   UNL     1       8.119  11.686   7.715  1.00  0.00     0.124 S 
ATOM     85  O   UNL     1       7.419  11.231   6.518  1.00  0.00    -0.237 OA
ATOM     86  O   UNL     1       7.358  12.558   8.604  1.00  0.00    -0.237 OA
ATOM     87  O   UNL     1       9.517  12.056   7.523  1.00  0.00    -0.744 OA
ENDBRANCH  83  84
ENDBRANCH  51  76
BRANCH  63  88
ATOM     88  C   UNL     1      11.028   5.600  16.186  1.00  0.00     0.058 A 
ATOM     89  C   UNL     1      12.394   5.326  16.362  1.00  0.00     0.135 A 
ATOM     90  C   UNL     1      10.415   6.483  17.088  1.00  0.00     0.135 A 
ATOM     91  F   UNL     1      13.028   4.483  15.533  1.00  0.00    -0.206 F 
ATOM     92  C   UNL     1      13.122   5.894  17.402  1.00  0.00     0.059 A 
ATOM     93  C   UNL     1      11.130   7.084  18.121  1.00  0.00     0.059 A 
ATOM     94  F   UNL     1       9.113   6.784  16.959  1.00  0.00    -0.206 F 
ATOM     95  C   UNL     1      12.481   6.771  18.278  1.00  0.00     0.060 A 
BRANCH  95  96
ATOM     96  S   UNL     1      13.447   7.521  19.607  1.00  0.00     0.124 S 
ATOM     97  O   UNL     1      13.629   6.395  20.516  1.00  0.00    -0.237 OA
ATOM     98  O   UNL     1      14.645   7.970  18.904  1.00  0.00    -0.237 OA
ATOM     99  O   UNL     1      12.579   8.589  20.094  1.00  0.00    -0.744 OA
ENDBRANCH  95  96
ENDBRANCH  63  88
ENDBRANCH  37  38
ENDBRANCH  30  32
ENDBRANCH  29  30
ENDBRANCH  28  29
ENDBRANCH  27  28
ENDBRANCH  26  27
ENDBRANCH   1  26
TORSDOF 22
