REMARK SMILES C#CC[N@H+](CC(=O)OCCOCCOC(=O)c1ccc(-c2c3nc(c(-c4c(F)cc(S(=O)(=O)[O-])cc4F)c4ccc([nH]4)c(-c4c(F)cc(S(=O)(=O)[O-])cc4F)c4nc(c(-c5c(F)cc(S(=O)(=O)[O-])cc5F)c5ccc2[nH]5)C=C4)C=C3)cc1)[C@H](C)c1cc(C)ccc1C
REMARK SMILES IDX 11 1 10 2 9 3 8 4 6 5 7 6 5 7 4 8 3 10 2 11 1 12 83 13 84 14
REMARK SMILES IDX 85 15 86 16 91 17 87 18 90 19 92 20 88 21 89 22 12 23 13 24
REMARK SMILES IDX 14 25 15 26 16 27 17 28 18 29 82 30 19 31 81 32 20 33 21 34
REMARK SMILES IDX 22 35 75 36 23 37 80 38 74 39 76 40 24 41 79 42 73 43 72 44
REMARK SMILES IDX 25 46 59 47 38 48 58 49 39 50 42 51 57 52 77 53 40 54 41 55
REMARK SMILES IDX 56 57 78 58 43 59 26 60 27 61 36 62 28 63 29 64 35 65 37 66
REMARK SMILES IDX 30 67 31 68 32 69 33 70 34 71 60 72 61 73 70 74 62 75 63 76
REMARK SMILES IDX 69 77 71 78 64 79 65 80 66 81 67 82 68 83 44 84 45 85 54 86
REMARK SMILES IDX 46 87 47 88 53 89 55 90 48 91 49 92 50 93 51 94 52 95
REMARK H PARENT 4 9 76 45 42 56
REMARK Flexibility Score: inf
ROOT
ATOM      1  O   UNL     1      -4.533  -6.024  -2.104  1.00  0.00    -0.374 OA
ENDROOT
BRANCH   1   2
ATOM      2  C   UNL     1      -4.629  -5.155  -3.229  1.00  0.00     0.202 C 
BRANCH   2   3
ATOM      3  C   UNL     1      -5.283  -3.788  -3.028  1.00  0.00     0.261 C 
BRANCH   3   4
ATOM      4  O   UNL     1      -4.508  -2.970  -2.141  1.00  0.00    -0.459 OA
BRANCH   4   5
ATOM      5  C   UNL     1      -4.947  -2.919  -0.864  1.00  0.00     0.361 C 
ATOM      6  O   UNL     1      -6.013  -3.397  -0.481  1.00  0.00    -0.245 OA
BRANCH   5   7
ATOM      7  C   UNL     1      -4.044  -2.141   0.079  1.00  0.00     0.387 C 
BRANCH   7   8
ATOM      8  N   UNL     1      -2.541  -2.324   0.050  1.00  0.00    -0.310 N 
ATOM      9  H   UNL     1      -2.276  -3.307  -0.001  1.00  0.00     0.349 HD
BRANCH   8  10
ATOM     10  C   UNL     1      -1.980  -1.704  -1.171  1.00  0.00     0.354 C 
BRANCH  10  11
ATOM     11  C   UNL     1      -0.552  -1.965  -1.411  1.00  0.00    -0.047 C 
ATOM     12  C   UNL     1       0.624  -2.128  -1.616  1.00  0.00     0.010 C 
ENDBRANCH  10  11
ENDBRANCH   8  10
BRANCH   8  13
ATOM     13  C   UNL     1      -1.983  -1.757   1.347  1.00  0.00     0.213 C 
ATOM     14  C   UNL     1      -2.718  -0.505   1.866  1.00  0.00     0.081 C 
BRANCH  13  15
ATOM     15  C   UNL     1      -0.445  -1.726   1.524  1.00  0.00     0.012 A 
ATOM     16  C   UNL     1       0.186  -2.993   1.697  1.00  0.00     0.013 A 
ATOM     17  C   UNL     1       0.395  -0.580   1.543  1.00  0.00    -0.042 A 
ATOM     18  C   UNL     1       1.575  -3.137   1.869  1.00  0.00    -0.051 A 
ATOM     19  C   UNL     1       1.790  -0.749   1.713  1.00  0.00     0.004 A 
ATOM     20  C   UNL     1       0.003   0.853   1.295  1.00  0.00     0.045 C 
ATOM     21  C   UNL     1       2.203  -4.492   2.009  1.00  0.00     0.044 C 
ATOM     22  C   UNL     1       2.372  -2.000   1.875  1.00  0.00     0.004 A 
ENDBRANCH  13  15
ENDBRANCH   8  13
ENDBRANCH   7   8
ENDBRANCH   5   7
ENDBRANCH   4   5
ENDBRANCH   3   4
ENDBRANCH   2   3
ENDBRANCH   1   2
BRANCH   1  23
ATOM     23  C   UNL     1      -3.514  -5.779  -1.134  1.00  0.00     0.202 C 
BRANCH  23  24
ATOM     24  C   UNL     1      -2.052  -6.055  -1.506  1.00  0.00     0.261 C 
BRANCH  24  25
ATOM     25  O   UNL     1      -1.564  -5.217  -2.564  1.00  0.00    -0.460 OA
BRANCH  25  26
ATOM     26  C   UNL     1      -1.462  -5.822  -3.773  1.00  0.00     0.338 C 
ATOM     27  O   UNL     1      -1.725  -6.981  -4.043  1.00  0.00    -0.246 OA
BRANCH  26  28
ATOM     28  C   UNL     1      -1.175  -4.802  -4.798  1.00  0.00     0.060 A 
ATOM     29  C   UNL     1      -2.057  -4.675  -5.881  1.00  0.00     0.016 A 
ATOM     30  C   UNL     1      -0.023  -4.023  -4.724  1.00  0.00     0.016 A 
ATOM     31  C   UNL     1      -1.766  -3.792  -6.920  1.00  0.00     0.010 A 
ATOM     32  C   UNL     1       0.272  -3.146  -5.768  1.00  0.00     0.010 A 
ATOM     33  C   UNL     1      -0.578  -3.052  -6.886  1.00  0.00    -0.014 A 
BRANCH  33  34
ATOM     34  C   UNL     1      -0.118  -2.297  -8.075  1.00  0.00     0.031 A 
ATOM     35  C   UNL     1       1.006  -2.869  -8.894  1.00  0.00     0.074 A 
ATOM     36  C   UNL     1      -0.657  -1.107  -8.395  1.00  0.00     0.049 A 
ATOM     37  N   UNL     1       1.697  -2.317  -9.855  1.00  0.00    -0.248 NA
ATOM     38  C   UNL     1       1.413  -4.248  -8.573  1.00  0.00     0.031 C 
ATOM     39  C   UNL     1      -1.786  -0.479  -7.710  1.00  0.00     0.029 A 
ATOM     40  N   UNL     1      -0.303  -0.201  -9.363  1.00  0.00    -0.354 N 
ATOM     41  C   UNL     1       2.635  -3.268 -10.239  1.00  0.00     0.074 A 
ATOM     42  C   UNL     1       2.443  -4.422  -9.388  1.00  0.00     0.031 C 
ATOM     43  C   UNL     1      -2.015   0.724  -8.264  1.00  0.00     0.029 A 
ATOM     44  C   UNL     1      -1.016   0.973  -9.303  1.00  0.00     0.049 A 
ATOM     45  H   UNL     1       0.395  -0.375 -10.035  1.00  0.00     0.167 HD
ATOM     46  C   UNL     1       3.570  -3.183 -11.214  1.00  0.00     0.037 A 
ATOM     47  C   UNL     1      -0.852   2.128  -9.978  1.00  0.00     0.037 A 
ATOM     48  C   UNL     1       3.750  -2.025 -12.050  1.00  0.00     0.049 A 
ATOM     49  C   UNL     1       0.255   2.236 -10.997  1.00  0.00     0.074 A 
ATOM     50  C   UNL     1       4.659  -1.840 -13.076  1.00  0.00     0.029 A 
ATOM     51  N   UNL     1       3.015  -0.852 -11.950  1.00  0.00    -0.354 N 
ATOM     52  N   UNL     1       1.135   1.331 -11.358  1.00  0.00    -0.248 NA
ATOM     53  C   UNL     1       0.396   3.519 -11.701  1.00  0.00     0.031 C 
ATOM     54  C   UNL     1       4.521  -0.533 -13.550  1.00  0.00     0.029 A 
ATOM     55  C   UNL     1       3.469   0.069 -12.878  1.00  0.00     0.049 A 
ATOM     56  H   UNL     1       2.279  -0.699 -11.315  1.00  0.00     0.167 HD
ATOM     57  C   UNL     1       1.899   1.919 -12.362  1.00  0.00     0.074 A 
ATOM     58  C   UNL     1       1.384   3.259 -12.547  1.00  0.00     0.031 C 
ATOM     59  C   UNL     1       2.926   1.392 -13.073  1.00  0.00     0.037 A 
BRANCH  46  60
ATOM     60  C   UNL     1       4.493  -4.356 -11.410  1.00  0.00     0.058 A 
ATOM     61  C   UNL     1       4.038  -5.585 -11.914  1.00  0.00     0.135 A 
ATOM     62  C   UNL     1       5.864  -4.234 -11.129  1.00  0.00     0.135 A 
ATOM     63  F   UNL     1       2.735  -5.766 -12.185  1.00  0.00    -0.206 F 
ATOM     64  C   UNL     1       4.903  -6.658 -12.107  1.00  0.00     0.059 A 
ATOM     65  C   UNL     1       6.753  -5.282 -11.348  1.00  0.00     0.059 A 
ATOM     66  F   UNL     1       6.355  -3.083 -10.643  1.00  0.00    -0.206 F 
ATOM     67  C   UNL     1       6.260  -6.495 -11.824  1.00  0.00     0.060 A 
BRANCH  67  68
ATOM     68  S   UNL     1       7.368  -7.894 -12.091  1.00  0.00     0.124 S 
ATOM     69  O   UNL     1       6.943  -8.808 -11.036  1.00  0.00    -0.237 OA
ATOM     70  O   UNL     1       7.034  -8.298 -13.453  1.00  0.00    -0.237 OA
ATOM     71  O   UNL     1       8.697  -7.315 -11.919  1.00  0.00    -0.744 OA
ENDBRANCH  67  68
ENDBRANCH  46  60
BRANCH  47  72
ATOM     72  C   UNL     1      -1.745   3.287  -9.701  1.00  0.00     0.058 A 
ATOM     73  C   UNL     1      -2.645   3.754 -10.670  1.00  0.00     0.135 A 
ATOM     74  C   UNL     1      -1.717   3.953  -8.464  1.00  0.00     0.135 A 
ATOM     75  F   UNL     1      -2.703   3.160 -11.872  1.00  0.00    -0.206 F 
ATOM     76  C   UNL     1      -3.470   4.848 -10.434  1.00  0.00     0.059 A 
ATOM     77  C   UNL     1      -2.556   5.029  -8.192  1.00  0.00     0.059 A 
ATOM     78  F   UNL     1      -0.883   3.542  -7.496  1.00  0.00    -0.206 F 
ATOM     79  C   UNL     1      -3.422   5.476  -9.188  1.00  0.00     0.060 A 
BRANCH  79  80
ATOM     80  S   UNL     1      -4.532   6.866  -8.879  1.00  0.00     0.124 S 
ATOM     81  O   UNL     1      -3.969   7.892  -9.749  1.00  0.00    -0.237 OA
ATOM     82  O   UNL     1      -5.823   6.320  -9.285  1.00  0.00    -0.237 OA
ATOM     83  O   UNL     1      -4.383   7.103  -7.446  1.00  0.00    -0.744 OA
ENDBRANCH  79  80
ENDBRANCH  47  72
BRANCH  59  84
ATOM     84  C   UNL     1       3.527   2.219 -14.179  1.00  0.00     0.058 A 
ATOM     85  C   UNL     1       4.350   3.325 -13.924  1.00  0.00     0.135 A 
ATOM     86  C   UNL     1       3.363   1.819 -15.517  1.00  0.00     0.135 A 
ATOM     87  F   UNL     1       4.533   3.758 -12.667  1.00  0.00    -0.206 F 
ATOM     88  C   UNL     1       4.992   4.005 -14.956  1.00  0.00     0.059 A 
ATOM     89  C   UNL     1       4.021   2.462 -16.560  1.00  0.00     0.059 A 
ATOM     90  F   UNL     1       2.591   0.762 -15.817  1.00  0.00    -0.206 F 
ATOM     91  C   UNL     1       4.833   3.556 -16.270  1.00  0.00     0.060 A 
BRANCH  91  92
ATOM     92  S   UNL     1       5.743   4.392 -17.586  1.00  0.00     0.124 S 
ATOM     93  O   UNL     1       5.064   5.682 -17.641  1.00  0.00    -0.237 OA
ATOM     94  O   UNL     1       7.103   4.413 -17.056  1.00  0.00    -0.237 OA
ATOM     95  O   UNL     1       5.540   3.527 -18.744  1.00  0.00    -0.744 OA
ENDBRANCH  91  92
ENDBRANCH  59  84
ENDBRANCH  33  34
ENDBRANCH  26  28
ENDBRANCH  25  26
ENDBRANCH  24  25
ENDBRANCH  23  24
ENDBRANCH   1  23
TORSDOF 22
