REMARK SMILES Cc1cc(C)c2c(=O)n(CCCC(=O)OCCOCCOC(=O)c3ccc(-c4c5nc(c(-c6c(F)cc(S(=O)(=O)[O-])cc6F)c6ccc([nH]6)c(-c6c(F)cc(S(=O)(=O)[O-])cc6F)c6nc(c(-c7c(F)cc(S(=O)(=O)[O-])cc7F)c7ccc4[nH]7)C=C6)C=C5)cc3)sc2n1
REMARK SMILES IDX 18 1 17 2 16 3 15 4 13 5 14 6 12 7 11 8 10 9 9 10 1 11 2 12
REMARK SMILES IDX 3 13 92 14 4 15 91 16 5 17 6 18 90 19 7 20 8 21 19 22 20 23
REMARK SMILES IDX 21 24 22 25 23 26 24 27 25 28 89 29 26 30 88 31 27 32 28 33
REMARK SMILES IDX 29 34 82 35 30 36 87 37 81 38 83 39 31 40 86 41 80 42 79 43
REMARK SMILES IDX 32 45 66 46 45 47 65 48 46 49 49 50 64 51 84 52 47 53 48 54
REMARK SMILES IDX 63 56 85 57 50 58 33 59 34 60 43 61 35 62 36 63 42 64 44 65
REMARK SMILES IDX 37 66 38 67 39 68 40 69 41 70 67 71 68 72 77 73 69 74 70 75
REMARK SMILES IDX 76 76 78 77 71 78 72 79 73 80 74 81 75 82 51 83 52 84 61 85
REMARK SMILES IDX 53 86 54 87 60 88 62 89 55 90 56 91 57 92 58 93 59 94
REMARK H PARENT 83 44 49 55
REMARK Flexibility Score: inf
ROOT
ATOM      1  O   UNL     1      -4.586   0.344   8.924  1.00  0.00    -0.374 OA
ENDROOT
BRANCH   1   2
ATOM      2  C   UNL     1      -5.054  -0.004   7.620  1.00  0.00     0.202 C 
BRANCH   2   3
ATOM      3  C   UNL     1      -4.163   0.385   6.446  1.00  0.00     0.261 C 
BRANCH   3   4
ATOM      4  O   UNL     1      -2.911  -0.312   6.523  1.00  0.00    -0.463 OA
BRANCH   4   5
ATOM      5  C   UNL     1      -1.794   0.445   6.625  1.00  0.00     0.305 C 
ATOM      6  O   UNL     1      -1.771   1.670   6.613  1.00  0.00    -0.252 OA
BRANCH   5   7
ATOM      7  C   UNL     1      -0.534  -0.382   6.792  1.00  0.00     0.124 C 
BRANCH   7   8
ATOM      8  C   UNL     1      -0.631  -1.901   6.984  1.00  0.00     0.035 C 
BRANCH   8   9
ATOM      9  C   UNL     1      -1.433  -2.742   5.979  1.00  0.00     0.139 C 
BRANCH   9  10
ATOM     10  N   UNL     1      -1.093  -2.542   4.587  1.00  0.00    -0.262 N 
ATOM     11  C   UNL     1       1.114  -0.094  -0.490  1.00  0.00     0.067 C 
ATOM     12  C   UNL     1       0.654  -1.103   0.514  1.00  0.00     0.039 A 
ATOM     13  C   UNL     1       1.089  -2.437   0.454  1.00  0.00     0.027 A 
ATOM     14  N   UNL     1      -0.177  -0.647   1.473  1.00  0.00    -0.241 NA
ATOM     15  C   UNL     1       0.729  -3.341   1.467  1.00  0.00    -0.033 A 
ATOM     16  C   UNL     1      -0.495  -1.533   2.428  1.00  0.00     0.146 A 
ATOM     17  C   UNL     1       1.139  -4.779   1.411  1.00  0.00     0.045 C 
ATOM     18  C   UNL     1      -0.028  -2.831   2.511  1.00  0.00     0.081 A 
ATOM     19  S   UNL     1      -1.571  -1.127   3.758  1.00  0.00    -0.035 S 
ATOM     20  C   UNL     1      -0.368  -3.442   3.816  1.00  0.00     0.270 A 
ATOM     21  O   UNL     1       0.018  -4.547   4.158  1.00  0.00    -0.268 OA
ENDBRANCH   9  10
ENDBRANCH   8   9
ENDBRANCH   7   8
ENDBRANCH   5   7
ENDBRANCH   4   5
ENDBRANCH   3   4
ENDBRANCH   2   3
ENDBRANCH   1   2
BRANCH   1  22
ATOM     22  C   UNL     1      -3.440  -0.312   9.461  1.00  0.00     0.202 C 
BRANCH  22  23
ATOM     23  C   UNL     1      -3.582  -1.764   9.894  1.00  0.00     0.261 C 
BRANCH  23  24
ATOM     24  O   UNL     1      -3.872  -2.626   8.802  1.00  0.00    -0.460 OA
BRANCH  24  25
ATOM     25  C   UNL     1      -5.177  -2.991   8.739  1.00  0.00     0.338 C 
ATOM     26  O   UNL     1      -6.110  -2.469   9.313  1.00  0.00    -0.246 OA
BRANCH  25  27
ATOM     27  C   UNL     1      -5.282  -4.236   7.971  1.00  0.00     0.060 A 
ATOM     28  C   UNL     1      -6.526  -4.859   8.015  1.00  0.00     0.016 A 
ATOM     29  C   UNL     1      -4.130  -4.901   7.524  1.00  0.00     0.016 A 
ATOM     30  C   UNL     1      -6.557  -6.225   7.883  1.00  0.00     0.010 A 
ATOM     31  C   UNL     1      -4.168  -6.263   7.361  1.00  0.00     0.010 A 
ATOM     32  C   UNL     1      -5.355  -6.913   7.661  1.00  0.00    -0.014 A 
BRANCH  32  33
ATOM     33  C   UNL     1      -5.409  -8.355   7.670  1.00  0.00     0.031 A 
ATOM     34  C   UNL     1      -6.201  -8.869   6.537  1.00  0.00     0.074 A 
ATOM     35  C   UNL     1      -4.804  -9.116   8.600  1.00  0.00     0.049 A 
ATOM     36  N   UNL     1      -7.418  -9.294   6.578  1.00  0.00    -0.248 NA
ATOM     37  C   UNL     1      -5.688  -8.631   5.180  1.00  0.00     0.031 C 
ATOM     38  C   UNL     1      -3.828  -8.734   9.622  1.00  0.00     0.029 A 
ATOM     39  N   UNL     1      -4.918 -10.458   8.780  1.00  0.00    -0.354 N 
ATOM     40  C   UNL     1      -7.734  -9.624   5.269  1.00  0.00     0.074 A 
ATOM     41  C   UNL     1      -6.741  -8.988   4.444  1.00  0.00     0.031 C 
ATOM     42  C   UNL     1      -3.277  -9.852  10.156  1.00  0.00     0.029 A 
ATOM     43  C   UNL     1      -3.966 -11.016   9.625  1.00  0.00     0.049 A 
ATOM     44  H   UNL     1      -5.621 -10.993   8.345  1.00  0.00     0.167 HD
ATOM     45  C   UNL     1      -8.612 -10.629   5.009  1.00  0.00     0.037 A 
ATOM     46  C   UNL     1      -3.753 -12.347   9.808  1.00  0.00     0.037 A 
ATOM     47  C   UNL     1      -9.428 -10.911   6.168  1.00  0.00     0.049 A 
ATOM     48  C   UNL     1      -5.016 -13.034   9.413  1.00  0.00     0.074 A 
ATOM     49  C   UNL     1     -10.325 -10.178   6.921  1.00  0.00     0.029 A 
ATOM     50  N   UNL     1      -9.075 -11.987   6.947  1.00  0.00    -0.354 N 
ATOM     51  N   UNL     1      -6.141 -12.899  10.066  1.00  0.00    -0.248 NA
ATOM     52  C   UNL     1      -5.149 -13.455   8.026  1.00  0.00     0.031 C 
ATOM     53  C   UNL     1     -10.103 -10.588   8.269  1.00  0.00     0.029 A 
ATOM     54  C   UNL     1      -9.137 -11.596   8.261  1.00  0.00     0.049 A 
ATOM     55  H   UNL     1      -8.822 -12.880   6.621  1.00  0.00     0.167 HD
ATOM     56  C   UNL     1      -7.117 -12.802   9.083  1.00  0.00     0.074 A 
ATOM     57  C   UNL     1      -6.450 -13.211   7.847  1.00  0.00     0.031 C 
ATOM     58  C   UNL     1      -8.285 -12.127   9.304  1.00  0.00     0.037 A 
BRANCH  45  59
ATOM     59  C   UNL     1      -8.427 -11.618   3.882  1.00  0.00     0.058 A 
ATOM     60  C   UNL     1      -9.422 -12.592   3.668  1.00  0.00     0.135 A 
ATOM     61  C   UNL     1      -7.205 -11.839   3.204  1.00  0.00     0.135 A 
ATOM     62  F   UNL     1     -10.625 -12.482   4.253  1.00  0.00    -0.206 F 
ATOM     63  C   UNL     1      -9.186 -13.746   2.921  1.00  0.00     0.059 A 
ATOM     64  C   UNL     1      -6.968 -12.955   2.414  1.00  0.00     0.059 A 
ATOM     65  F   UNL     1      -6.140 -11.043   3.342  1.00  0.00    -0.206 F 
ATOM     66  C   UNL     1      -7.947 -13.925   2.315  1.00  0.00     0.060 A 
BRANCH  66  67
ATOM     67  S   UNL     1      -7.599 -15.461   1.449  1.00  0.00     0.124 S 
ATOM     68  O   UNL     1      -7.621 -16.423   2.544  1.00  0.00    -0.237 OA
ATOM     69  O   UNL     1      -8.713 -15.531   0.509  1.00  0.00    -0.237 OA
ATOM     70  O   UNL     1      -6.291 -15.218   0.847  1.00  0.00    -0.744 OA
ENDBRANCH  66  67
ENDBRANCH  45  59
BRANCH  46  71
ATOM     71  C   UNL     1      -2.441 -13.057   9.854  1.00  0.00     0.058 A 
ATOM     72  C   UNL     1      -2.363 -14.426  10.178  1.00  0.00     0.135 A 
ATOM     73  C   UNL     1      -1.277 -12.491   9.296  1.00  0.00     0.135 A 
ATOM     74  F   UNL     1      -3.429 -15.056  10.697  1.00  0.00    -0.206 F 
ATOM     75  C   UNL     1      -1.223 -15.197   9.915  1.00  0.00     0.059 A 
ATOM     76  C   UNL     1      -0.128 -13.237   9.030  1.00  0.00     0.059 A 
ATOM     77  F   UNL     1      -1.249 -11.208   8.906  1.00  0.00    -0.206 F 
ATOM     78  C   UNL     1      -0.116 -14.597   9.317  1.00  0.00     0.060 A 
BRANCH  78  79
ATOM     79  S   UNL     1       1.296 -15.616   8.820  1.00  0.00     0.124 S 
ATOM     80  O   UNL     1       1.823 -16.052  10.108  1.00  0.00    -0.237 OA
ATOM     81  O   UNL     1       0.660 -16.649   8.009  1.00  0.00    -0.237 OA
ATOM     82  O   UNL     1       2.146 -14.684   8.083  1.00  0.00    -0.744 OA
ENDBRANCH  78  79
ENDBRANCH  46  71
BRANCH  58  83
ATOM     83  C   UNL     1      -8.624 -11.725  10.719  1.00  0.00     0.058 A 
ATOM     84  C   UNL     1      -7.906 -10.782  11.477  1.00  0.00     0.135 A 
ATOM     85  C   UNL     1      -9.832 -12.191  11.258  1.00  0.00     0.135 A 
ATOM     86  F   UNL     1      -6.790 -10.216  10.995  1.00  0.00    -0.206 F 
ATOM     87  C   UNL     1      -8.359 -10.344  12.726  1.00  0.00     0.059 A 
ATOM     88  C   UNL     1     -10.317 -11.747  12.485  1.00  0.00     0.059 A 
ATOM     89  F   UNL     1     -10.593 -13.049  10.558  1.00  0.00    -0.206 F 
ATOM     90  C   UNL     1      -9.571 -10.829  13.219  1.00  0.00     0.060 A 
BRANCH  90  91
ATOM     91  S   UNL     1     -10.199 -10.207  14.796  1.00  0.00     0.124 S 
ATOM     92  O   UNL     1      -9.238 -10.754  15.748  1.00  0.00    -0.237 OA
ATOM     93  O   UNL     1     -10.151  -8.760  14.606  1.00  0.00    -0.237 OA
ATOM     94  O   UNL     1     -11.544 -10.772  14.876  1.00  0.00    -0.744 OA
ENDBRANCH  90  91
ENDBRANCH  58  83
ENDBRANCH  32  33
ENDBRANCH  25  27
ENDBRANCH  24  25
ENDBRANCH  23  24
ENDBRANCH  22  23
ENDBRANCH   1  22
TORSDOF 20
