REMARK SMILES O=C(NCc1ccsc1)NC[C@H]1CC[C@@H](C(=O)OCCOCCOC(=O)c2ccc(-c3c4nc(c(-c5c(F)cc(S(=O)(=O)[O-])cc5F)c5ccc([nH]5)c(-c5c(F)cc(S(=O)(=O)[O-])cc5F)c5nc(c(-c6c(F)cc(S(=O)(=O)[O-])cc6F)c6ccc3[nH]6)C=C5)C=C4)cc2)CC1
REMARK SMILES IDX 20 1 19 2 18 3 16 4 17 5 15 6 12 7 13 8 94 9 14 10 93 11
REMARK SMILES IDX 11 12 10 13 1 14 2 15 3 16 4 19 5 20 6 21 9 22 7 23 8 24
REMARK SMILES IDX 21 25 22 26 23 27 24 28 25 29 26 30 27 31 28 32 92 33 29 34
REMARK SMILES IDX 91 35 30 36 31 37 32 38 85 39 33 40 90 41 84 42 86 43 34 44
REMARK SMILES IDX 89 45 83 46 82 47 35 49 69 50 48 51 68 52 49 53 52 54 67 55
REMARK SMILES IDX 87 56 50 57 51 58 66 60 88 61 53 62 36 63 37 64 46 65 38 66
REMARK SMILES IDX 39 67 45 68 47 69 40 70 41 71 42 72 43 73 44 74 70 75 71 76
REMARK SMILES IDX 80 77 72 78 73 79 79 80 81 81 74 82 75 83 76 84 77 85 78 86
REMARK SMILES IDX 54 87 55 88 64 89 56 90 57 91 63 92 65 93 58 94 59 95 60 96
REMARK SMILES IDX 61 97 62 98
REMARK H PARENT 3 17 10 18 86 48 52 59
REMARK Flexibility Score: inf
ROOT
ATOM      1  C   UNL     1       7.325   1.944  -2.548  1.00  0.00     0.202 C 
ENDROOT
BRANCH   1   2
ATOM      2  C   UNL     1       5.945   2.560  -2.796  1.00  0.00     0.261 C 
BRANCH   2   3
ATOM      3  O   UNL     1       5.083   1.626  -3.469  1.00  0.00    -0.463 OA
BRANCH   3   4
ATOM      4  C   UNL     1       4.458   2.066  -4.589  1.00  0.00     0.309 C 
ATOM      5  O   UNL     1       4.550   3.199  -5.046  1.00  0.00    -0.252 OA
BRANCH   4   6
ATOM      6  C   UNL     1       3.574   0.999  -5.223  1.00  0.00     0.099 C 
ATOM      7  C   UNL     1       2.415  -0.862  -3.189  1.00  0.00     0.008 C 
ATOM      8  C   UNL     1       1.952   0.598  -3.323  1.00  0.00     0.006 C 
ATOM      9  C   UNL     1       3.840  -1.075  -3.720  1.00  0.00     0.006 C 
ATOM     10  C   UNL     1       2.135   1.147  -4.734  1.00  0.00     0.015 C 
ATOM     11  C   UNL     1       4.058  -0.451  -5.098  1.00  0.00     0.015 C 
BRANCH   7  12
ATOM     12  C   UNL     1       2.284  -1.388  -1.745  1.00  0.00     0.121 C 
BRANCH  12  13
ATOM     13  N   UNL     1       2.913  -0.527  -0.757  1.00  0.00    -0.338 N 
ATOM     14  O   UNL     1       0.960   0.437  -0.102  1.00  0.00    -0.249 OA
ATOM     15  C   UNL     1       2.181   0.340  -0.009  1.00  0.00     0.315 C 
ATOM     16  N   UNL     1       2.830   1.146   0.855  1.00  0.00    -0.334 N 
ATOM     17  H   UNL     1       2.238   1.763   1.342  1.00  0.00     0.165 HD
ATOM     18  H   UNL     1       3.888  -0.573  -0.627  1.00  0.00     0.165 HD
BRANCH  16  19
ATOM     19  C   UNL     1       4.223   1.279   1.206  1.00  0.00     0.154 C 
BRANCH  19  20
ATOM     20  C   UNL     1       4.723   2.678   1.007  1.00  0.00    -0.018 A 
ATOM     21  C   UNL     1       6.124   3.008   0.960  1.00  0.00     0.017 A 
ATOM     22  C   UNL     1       3.960   3.829   0.915  1.00  0.00     0.070 A 
ATOM     23  C   UNL     1       6.353   4.357   0.807  1.00  0.00     0.065 A 
ATOM     24  S   UNL     1       4.899   5.246   0.732  1.00  0.00    -0.152 S 
ENDBRANCH  19  20
ENDBRANCH  16  19
ENDBRANCH  12  13
ENDBRANCH   7  12
ENDBRANCH   4   6
ENDBRANCH   3   4
ENDBRANCH   2   3
ENDBRANCH   1   2
BRANCH   1  25
ATOM     25  O   UNL     1       8.150   1.796  -3.707  1.00  0.00    -0.374 OA
BRANCH  25  26
ATOM     26  C   UNL     1       7.791   0.772  -4.630  1.00  0.00     0.202 C 
BRANCH  26  27
ATOM     27  C   UNL     1       8.240  -0.651  -4.274  1.00  0.00     0.261 C 
BRANCH  27  28
ATOM     28  O   UNL     1       7.700  -1.125  -3.026  1.00  0.00    -0.460 OA
BRANCH  28  29
ATOM     29  C   UNL     1       8.606  -1.185  -2.020  1.00  0.00     0.338 C 
ATOM     30  O   UNL     1       9.797  -0.906  -2.091  1.00  0.00    -0.246 OA
BRANCH  29  31
ATOM     31  C   UNL     1       7.966  -1.516  -0.732  1.00  0.00     0.060 A 
ATOM     32  C   UNL     1       8.344  -0.751   0.378  1.00  0.00     0.016 A 
ATOM     33  C   UNL     1       7.125  -2.623  -0.571  1.00  0.00     0.016 A 
ATOM     34  C   UNL     1       7.948  -1.133   1.658  1.00  0.00     0.010 A 
ATOM     35  C   UNL     1       6.732  -3.008   0.720  1.00  0.00     0.010 A 
ATOM     36  C   UNL     1       7.182  -2.293   1.844  1.00  0.00    -0.014 A 
BRANCH  36  37
ATOM     37  C   UNL     1       7.002  -2.806   3.228  1.00  0.00     0.031 A 
ATOM     38  C   UNL     1       7.934  -3.860   3.750  1.00  0.00     0.074 A 
ATOM     39  C   UNL     1       6.082  -2.266   4.047  1.00  0.00     0.049 A 
ATOM     40  N   UNL     1       8.012  -4.366   4.952  1.00  0.00    -0.248 NA
ATOM     41  C   UNL     1       8.897  -4.422   2.792  1.00  0.00     0.031 C 
ATOM     42  C   UNL     1       5.120  -1.254   3.641  1.00  0.00     0.029 A 
ATOM     43  N   UNL     1       5.814  -2.465   5.377  1.00  0.00    -0.354 N 
ATOM     44  C   UNL     1       9.026  -5.312   4.897  1.00  0.00     0.074 A 
ATOM     45  C   UNL     1       9.518  -5.326   3.536  1.00  0.00     0.031 C 
ATOM     46  C   UNL     1       4.399  -0.868   4.706  1.00  0.00     0.029 A 
ATOM     47  C   UNL     1       4.816  -1.651   5.866  1.00  0.00     0.049 A 
ATOM     48  H   UNL     1       6.289  -3.126   5.930  1.00  0.00     0.167 HD
ATOM     49  C   UNL     1       9.504  -6.095   5.894  1.00  0.00     0.037 A 
ATOM     50  C   UNL     1       4.292  -1.558   7.104  1.00  0.00     0.037 A 
ATOM     51  C   UNL     1       9.005  -6.082   7.244  1.00  0.00     0.049 A 
ATOM     52  C   UNL     1       4.828  -2.455   8.188  1.00  0.00     0.074 A 
ATOM     53  C   UNL     1       9.425  -6.838   8.324  1.00  0.00     0.029 A 
ATOM     54  N   UNL     1       7.972  -5.275   7.699  1.00  0.00    -0.354 N 
ATOM     55  N   UNL     1       5.802  -3.332   8.123  1.00  0.00    -0.248 NA
ATOM     56  C   UNL     1       4.187  -2.363   9.508  1.00  0.00     0.031 C 
ATOM     57  C   UNL     1       8.620  -6.517   9.423  1.00  0.00     0.029 A 
ATOM     58  C   UNL     1       7.727  -5.529   9.039  1.00  0.00     0.049 A 
ATOM     59  H   UNL     1       7.484  -4.620   7.151  1.00  0.00     0.167 HD
ATOM     60  C   UNL     1       5.895  -3.892   9.393  1.00  0.00     0.074 A 
ATOM     61  C   UNL     1       4.896  -3.235  10.212  1.00  0.00     0.031 C 
ATOM     62  C   UNL     1       6.726  -4.866   9.838  1.00  0.00     0.037 A 
BRANCH  49  63
ATOM     63  C   UNL     1      10.606  -7.053   5.542  1.00  0.00     0.058 A 
ATOM     64  C   UNL     1      11.915  -6.612   5.293  1.00  0.00     0.135 A 
ATOM     65  C   UNL     1      10.349  -8.431   5.458  1.00  0.00     0.135 A 
ATOM     66  F   UNL     1      12.207  -5.303   5.338  1.00  0.00    -0.206 F 
ATOM     67  C   UNL     1      12.926  -7.502   4.944  1.00  0.00     0.059 A 
ATOM     68  C   UNL     1      11.350  -9.341   5.134  1.00  0.00     0.059 A 
ATOM     69  F   UNL     1       9.112  -8.903   5.681  1.00  0.00    -0.206 F 
ATOM     70  C   UNL     1      12.632  -8.864   4.863  1.00  0.00     0.060 A 
BRANCH  70  71
ATOM     71  S   UNL     1      13.950 -10.005   4.396  1.00  0.00     0.124 S 
ATOM     72  O   UNL     1      14.071  -9.739   2.966  1.00  0.00    -0.237 OA
ATOM     73  O   UNL     1      15.064  -9.552   5.221  1.00  0.00    -0.237 OA
ATOM     74  O   UNL     1      13.406 -11.314   4.746  1.00  0.00    -0.744 OA
ENDBRANCH  70  71
ENDBRANCH  49  63
BRANCH  50  75
ATOM     75  C   UNL     1       3.193  -0.595   7.388  1.00  0.00     0.058 A 
ATOM     76  C   UNL     1       3.396   0.515   8.222  1.00  0.00     0.135 A 
ATOM     77  C   UNL     1       1.914  -0.769   6.835  1.00  0.00     0.135 A 
ATOM     78  F   UNL     1       4.597   0.721   8.784  1.00  0.00    -0.206 F 
ATOM     79  C   UNL     1       2.369   1.409   8.511  1.00  0.00     0.059 A 
ATOM     80  C   UNL     1       0.879   0.126   7.087  1.00  0.00     0.059 A 
ATOM     81  F   UNL     1       1.670  -1.808   6.022  1.00  0.00    -0.206 F 
ATOM     82  C   UNL     1       1.113   1.206   7.937  1.00  0.00     0.060 A 
BRANCH  82  83
ATOM     83  S   UNL     1      -0.203   2.395   8.279  1.00  0.00     0.124 S 
ATOM     84  O   UNL     1      -0.579   2.033   9.640  1.00  0.00    -0.237 OA
ATOM     85  O   UNL     1       0.489   3.671   8.125  1.00  0.00    -0.237 OA
ATOM     86  O   UNL     1      -1.194   2.101   7.248  1.00  0.00    -0.744 OA
ENDBRANCH  82  83
ENDBRANCH  50  75
BRANCH  62  87
ATOM     87  C   UNL     1       6.599  -5.270  11.280  1.00  0.00     0.058 A 
ATOM     88  C   UNL     1       5.517  -6.038  11.737  1.00  0.00     0.135 A 
ATOM     89  C   UNL     1       7.592  -4.917  12.208  1.00  0.00     0.135 A 
ATOM     90  F   UNL     1       4.538  -6.395  10.890  1.00  0.00    -0.206 F 
ATOM     91  C   UNL     1       5.410  -6.421  13.069  1.00  0.00     0.059 A 
ATOM     92  C   UNL     1       7.518  -5.310  13.540  1.00  0.00     0.059 A 
ATOM     93  F   UNL     1       8.653  -4.191  11.820  1.00  0.00    -0.206 F 
ATOM     94  C   UNL     1       6.415  -6.051  13.964  1.00  0.00     0.060 A 
BRANCH  94  95
ATOM     95  S   UNL     1       6.280  -6.575  15.687  1.00  0.00     0.124 S 
ATOM     96  O   UNL     1       5.271  -5.653  16.195  1.00  0.00    -0.237 OA
ATOM     97  O   UNL     1       5.860  -7.968  15.560  1.00  0.00    -0.237 OA
ATOM     98  O   UNL     1       7.630  -6.380  16.207  1.00  0.00    -0.744 OA
ENDBRANCH  94  95
ENDBRANCH  62  87
ENDBRANCH  36  37
ENDBRANCH  29  31
ENDBRANCH  28  29
ENDBRANCH  27  28
ENDBRANCH  26  27
ENDBRANCH  25  26
ENDBRANCH   1  25
TORSDOF 21
