REMARK SMILES COc1cc2c(cc1OC)C1=C(C#N)C[N@H+](CC(=O)OCCOCCOC(=O)c3ccc(-c4c5nc(c(-c6c(F)cc(S(=O)(=O)[O-])cc6F)c6ccc([nH]6)c(-c6c(F)cc(S(=O)(=O)[O-])cc6F)c6nc(c(-c7c(F)cc(S(=O)(=O)[O-])cc7F)c7ccc4[nH]7)C=C6)C=C5)cc3)CN1CC2
REMARK SMILES IDX 24 1 23 2 22 3 21 4 20 5 18 6 19 7 17 8 16 9 3 10 4 11 8 12
REMARK SMILES IDX 5 13 7 14 6 15 98 16 11 17 97 18 12 19 96 20 15 21 95 22
REMARK SMILES IDX 2 24 1 25 9 26 10 27 13 28 14 29 25 30 26 31 27 32 28 33
REMARK SMILES IDX 29 34 30 35 94 36 31 37 93 38 32 39 33 40 34 41 87 42 35 43
REMARK SMILES IDX 92 44 86 45 88 46 36 47 91 48 85 49 84 50 37 52 71 53 50 54
REMARK SMILES IDX 70 55 51 56 54 57 69 58 89 59 52 60 53 61 68 63 90 64 55 65
REMARK SMILES IDX 38 66 39 67 48 68 40 69 41 70 47 71 49 72 42 73 43 74 44 75
REMARK SMILES IDX 45 76 46 77 72 78 73 79 82 80 74 81 75 82 81 83 83 84 76 85
REMARK SMILES IDX 77 86 78 87 79 88 80 89 56 90 57 91 66 92 58 93 59 94 65 95
REMARK SMILES IDX 67 96 60 97 61 98 62 99 63 100 64 101
REMARK H PARENT 16 23 88 51 54 62
REMARK Flexibility Score: inf
ROOT
ATOM      1  C   UNL     1       4.707   2.499   7.014  1.00  0.00     0.202 C 
ENDROOT
BRANCH   1   2
ATOM      2  O   UNL     1       4.385   1.672   8.131  1.00  0.00    -0.374 OA
BRANCH   2   3
ATOM      3  C   UNL     1       3.004   1.587   8.489  1.00  0.00     0.202 C 
BRANCH   3   4
ATOM      4  C   UNL     1       2.447   2.781   9.277  1.00  0.00     0.261 C 
BRANCH   4   5
ATOM      5  O   UNL     1       2.533   3.991   8.514  1.00  0.00    -0.459 OA
BRANCH   5   6
ATOM      6  C   UNL     1       3.247   5.030   9.034  1.00  0.00     0.361 C 
ATOM      7  O   UNL     1       3.678   5.083  10.181  1.00  0.00    -0.245 OA
BRANCH   6   8
ATOM      8  C   UNL     1       3.523   6.137   7.997  1.00  0.00     0.388 C 
BRANCH   8   9
ATOM      9  N   UNL     1       3.053   5.746   6.672  1.00  0.00    -0.304 N 
ATOM     10  C   UNL     1       1.054   3.001   0.548  1.00  0.00     0.161 A 
ATOM     11  C   UNL     1       2.374   3.166   0.968  1.00  0.00     0.055 A 
ATOM     12  C   UNL     1       0.064   3.826   1.083  1.00  0.00     0.161 A 
ATOM     13  C   UNL     1       2.691   4.042   2.021  1.00  0.00    -0.033 A 
ATOM     14  C   UNL     1       0.394   4.688   2.152  1.00  0.00     0.061 A 
ATOM     15  C   UNL     1       1.673   4.710   2.732  1.00  0.00     0.006 A 
ATOM     16  C   UNL     1       4.135   4.230   2.400  1.00  0.00     0.058 C 
ATOM     17  C   UNL     1       2.013   5.312   4.079  1.00  0.00     0.068 C 
ATOM     18  C   UNL     1       4.339   5.543   3.159  1.00  0.00     0.127 C 
ATOM     19  C   UNL     1       1.169   5.441   5.145  1.00  0.00     0.108 C 
ATOM     20  N   UNL     1       3.372   5.654   4.248  1.00  0.00    -0.323 N 
ATOM     21  C   UNL     1       1.637   6.022   6.447  1.00  0.00     0.314 C 
ATOM     22  C   UNL     1       3.830   6.187   5.531  1.00  0.00     0.390 C 
ATOM     23  H   UNL     1       3.200   4.737   6.716  1.00  0.00     0.350 HD
BRANCH  10  24
ATOM     24  O   UNL     1       0.790   2.091  -0.441  1.00  0.00    -0.493 OA
ATOM     25  C   UNL     1       1.029   0.750   0.003  1.00  0.00     0.278 C 
ENDBRANCH  10  24
BRANCH  12  26
ATOM     26  O   UNL     1      -1.258   3.901   0.735  1.00  0.00    -0.493 OA
ATOM     27  C   UNL     1      -1.807   2.883  -0.091  1.00  0.00     0.278 C 
ENDBRANCH  12  26
BRANCH  19  28
ATOM     28  C   UNL     1      -0.319   5.150   5.038  1.00  0.00     0.103 C 
ATOM     29  N   UNL     1      -1.553   4.909   4.949  1.00  0.00    -0.192 NA
ENDBRANCH  19  28
ENDBRANCH   8   9
ENDBRANCH   6   8
ENDBRANCH   5   6
ENDBRANCH   4   5
ENDBRANCH   3   4
ENDBRANCH   2   3
ENDBRANCH   1   2
BRANCH   1  30
ATOM     30  C   UNL     1       4.308   1.966   5.636  1.00  0.00     0.261 C 
BRANCH  30  31
ATOM     31  O   UNL     1       2.885   1.927   5.432  1.00  0.00    -0.460 OA
BRANCH  31  32
ATOM     32  C   UNL     1       2.383   0.738   5.016  1.00  0.00     0.338 C 
ATOM     33  O   UNL     1       3.016  -0.278   4.756  1.00  0.00    -0.246 OA
BRANCH  32  34
ATOM     34  C   UNL     1       0.909   0.786   4.989  1.00  0.00     0.060 A 
ATOM     35  C   UNL     1       0.259   1.728   4.199  1.00  0.00     0.016 A 
ATOM     36  C   UNL     1       0.160  -0.160   5.690  1.00  0.00     0.016 A 
ATOM     37  C   UNL     1      -1.135   1.745   4.113  1.00  0.00     0.010 A 
ATOM     38  C   UNL     1      -1.239  -0.154   5.595  1.00  0.00     0.010 A 
ATOM     39  C   UNL     1      -1.902   0.796   4.801  1.00  0.00    -0.014 A 
BRANCH  39  40
ATOM     40  C   UNL     1      -3.384   0.788   4.661  1.00  0.00     0.031 A 
ATOM     41  C   UNL     1      -4.263   1.172   5.818  1.00  0.00     0.074 A 
ATOM     42  C   UNL     1      -3.946   0.455   3.481  1.00  0.00     0.049 A 
ATOM     43  N   UNL     1      -5.564   1.085   5.932  1.00  0.00    -0.248 NA
ATOM     44  C   UNL     1      -3.590   1.718   7.007  1.00  0.00     0.031 C 
ATOM     45  C   UNL     1      -3.209   0.120   2.261  1.00  0.00     0.029 A 
ATOM     46  N   UNL     1      -5.264   0.360   3.105  1.00  0.00    -0.354 N 
ATOM     47  C   UNL     1      -5.866   1.538   7.211  1.00  0.00     0.074 A 
ATOM     48  C   UNL     1      -4.609   1.891   7.839  1.00  0.00     0.031 C 
ATOM     49  C   UNL     1      -4.082  -0.098   1.264  1.00  0.00     0.029 A 
ATOM     50  C   UNL     1      -5.441   0.009   1.786  1.00  0.00     0.049 A 
ATOM     51  H   UNL     1      -6.013   0.527   3.722  1.00  0.00     0.167 HD
ATOM     52  C   UNL     1      -7.080   1.648   7.803  1.00  0.00     0.037 A 
ATOM     53  C   UNL     1      -6.568  -0.226   1.083  1.00  0.00     0.037 A 
ATOM     54  C   UNL     1      -8.330   1.329   7.161  1.00  0.00     0.049 A 
ATOM     55  C   UNL     1      -7.900  -0.146   1.780  1.00  0.00     0.074 A 
ATOM     56  C   UNL     1      -9.607   1.371   7.695  1.00  0.00     0.029 A 
ATOM     57  N   UNL     1      -8.464   0.932   5.839  1.00  0.00    -0.354 N 
ATOM     58  N   UNL     1      -8.163   0.199   3.018  1.00  0.00    -0.248 NA
ATOM     59  C   UNL     1      -9.087  -0.518   0.995  1.00  0.00     0.031 C 
ATOM     60  C   UNL     1     -10.511   0.970   6.704  1.00  0.00     0.029 A 
ATOM     61  C   UNL     1      -9.800   0.715   5.543  1.00  0.00     0.049 A 
ATOM     62  H   UNL     1      -7.720   0.820   5.205  1.00  0.00     0.167 HD
ATOM     63  C   UNL     1      -9.542   0.088   3.159  1.00  0.00     0.074 A 
ATOM     64  C   UNL     1     -10.062  -0.331   1.874  1.00  0.00     0.031 C 
ATOM     65  C   UNL     1     -10.305   0.300   4.258  1.00  0.00     0.037 A 
BRANCH  52  66
ATOM     66  C   UNL     1      -7.122   2.104   9.235  1.00  0.00     0.058 A 
ATOM     67  C   UNL     1      -6.937   3.448   9.589  1.00  0.00     0.135 A 
ATOM     68  C   UNL     1      -7.409   1.188  10.261  1.00  0.00     0.135 A 
ATOM     69  F   UNL     1      -6.646   4.361   8.649  1.00  0.00    -0.206 F 
ATOM     70  C   UNL     1      -7.021   3.868  10.913  1.00  0.00     0.059 A 
ATOM     71  C   UNL     1      -7.519   1.589  11.589  1.00  0.00     0.059 A 
ATOM     72  F   UNL     1      -7.595  -0.110   9.975  1.00  0.00    -0.206 F 
ATOM     73  C   UNL     1      -7.313   2.931  11.906  1.00  0.00     0.060 A 
BRANCH  73  74
ATOM     74  S   UNL     1      -7.429   3.493  13.618  1.00  0.00     0.124 S 
ATOM     75  O   UNL     1      -6.029   3.765  13.931  1.00  0.00    -0.237 OA
ATOM     76  O   UNL     1      -8.292   4.665  13.505  1.00  0.00    -0.237 OA
ATOM     77  O   UNL     1      -8.016   2.352  14.314  1.00  0.00    -0.744 OA
ENDBRANCH  73  74
ENDBRANCH  52  66
BRANCH  53  78
ATOM     78  C   UNL     1      -6.491  -0.591  -0.358  1.00  0.00     0.058 A 
ATOM     79  C   UNL     1      -6.966   0.282  -1.348  1.00  0.00     0.135 A 
ATOM     80  C   UNL     1      -5.950  -1.817  -0.775  1.00  0.00     0.135 A 
ATOM     81  F   UNL     1      -7.507   1.460  -1.000  1.00  0.00    -0.206 F 
ATOM     82  C   UNL     1      -6.918  -0.051  -2.699  1.00  0.00     0.059 A 
ATOM     83  C   UNL     1      -5.867  -2.161  -2.120  1.00  0.00     0.059 A 
ATOM     84  F   UNL     1      -5.475  -2.686   0.131  1.00  0.00    -0.206 F 
ATOM     85  C   UNL     1      -6.364  -1.275  -3.075  1.00  0.00     0.060 A 
BRANCH  85  86
ATOM     86  S   UNL     1      -6.263  -1.681  -4.832  1.00  0.00     0.124 S 
ATOM     87  O   UNL     1      -7.649  -2.018  -5.136  1.00  0.00    -0.237 OA
ATOM     88  O   UNL     1      -5.766  -0.436  -5.409  1.00  0.00    -0.237 OA
ATOM     89  O   UNL     1      -5.320  -2.796  -4.863  1.00  0.00    -0.744 OA
ENDBRANCH  85  86
ENDBRANCH  53  78
BRANCH  65  90
ATOM     90  C   UNL     1     -11.787   0.086   4.127  1.00  0.00     0.058 A 
ATOM     91  C   UNL     1     -12.337  -1.204   4.090  1.00  0.00     0.135 A 
ATOM     92  C   UNL     1     -12.670   1.178   4.113  1.00  0.00     0.135 A 
ATOM     93  F   UNL     1     -11.535  -2.281   4.093  1.00  0.00    -0.206 F 
ATOM     94  C   UNL     1     -13.712  -1.406   4.035  1.00  0.00     0.059 A 
ATOM     95  C   UNL     1     -14.050   0.999   4.080  1.00  0.00     0.059 A 
ATOM     96  F   UNL     1     -12.194   2.433   4.155  1.00  0.00    -0.206 F 
ATOM     97  C   UNL     1     -14.561  -0.298   4.036  1.00  0.00     0.060 A 
BRANCH  97  98
ATOM     98  S   UNL     1     -16.345  -0.577   4.019  1.00  0.00     0.124 S 
ATOM     99  O   UNL     1     -16.563  -1.012   2.644  1.00  0.00    -0.237 OA
ATOM    100  O   UNL     1     -16.510  -1.605   5.043  1.00  0.00    -0.237 OA
ATOM    101  O   UNL     1     -16.898   0.731   4.359  1.00  0.00    -0.744 OA
ENDBRANCH  97  98
ENDBRANCH  65  90
ENDBRANCH  39  40
ENDBRANCH  32  34
ENDBRANCH  31  32
ENDBRANCH  30  31
ENDBRANCH   1  30
TORSDOF 21
