REMARK SMILES CCNC(=O)N1CC[C@H](Cc2cccc(C(=O)OCCOCCOC(=O)c3ccc(-c4c5nc(c(-c6c(F)cc(S(=O)(=O)[O-])cc6F)c6ccc([nH]6)c(-c6c(F)cc(S(=O)(=O)[O-])cc6F)c6nc(c(-c7c(F)cc(S(=O)(=O)[O-])cc7F)c7ccc4[nH]7)C=C6)C=C5)cc3)c2)C1
REMARK SMILES IDX 20 1 19 2 18 3 16 4 17 5 15 6 11 7 12 8 93 9 13 10 14 11
REMARK SMILES IDX 10 12 9 13 6 14 7 15 94 16 8 17 4 18 3 19 5 21 2 22 1 23
REMARK SMILES IDX 21 24 22 25 23 26 24 27 25 28 26 29 27 30 28 31 92 32 29 33
REMARK SMILES IDX 91 34 30 35 31 36 32 37 85 38 33 39 90 40 84 41 86 42 34 43
REMARK SMILES IDX 89 44 83 45 82 46 35 48 69 49 48 50 68 51 49 52 52 53 67 54
REMARK SMILES IDX 87 55 50 56 51 57 66 59 88 60 53 61 36 62 37 63 46 64 38 65
REMARK SMILES IDX 39 66 45 67 47 68 40 69 41 70 42 71 43 72 44 73 70 74 71 75
REMARK SMILES IDX 80 76 72 77 73 78 79 79 81 80 74 81 75 82 76 83 77 84 78 85
REMARK SMILES IDX 54 86 55 87 64 88 56 89 57 90 63 91 65 92 58 93 59 94 60 95
REMARK SMILES IDX 61 96 62 97
REMARK H PARENT 3 20 86 47 52 58
REMARK Flexibility Score: inf
ROOT
ATOM      1  C   UNL     1     -10.941   1.559  -3.444  1.00  0.00     0.202 C 
ENDROOT
BRANCH   1   2
ATOM      2  C   UNL     1      -9.852   2.494  -2.906  1.00  0.00     0.261 C 
BRANCH   2   3
ATOM      3  O   UNL     1      -8.674   1.758  -2.544  1.00  0.00    -0.460 OA
BRANCH   3   4
ATOM      4  C   UNL     1      -8.433   1.662  -1.215  1.00  0.00     0.338 C 
ATOM      5  O   UNL     1      -9.013   2.256  -0.317  1.00  0.00    -0.246 OA
BRANCH   4   6
ATOM      6  C   UNL     1      -7.455   0.578  -0.962  1.00  0.00     0.060 A 
ATOM      7  C   UNL     1      -5.524  -0.761  -1.583  1.00  0.00    -0.047 A 
ATOM      8  C   UNL     1      -5.664  -1.482  -0.387  1.00  0.00     0.004 A 
ATOM      9  C   UNL     1      -6.460   0.240  -1.886  1.00  0.00     0.019 A 
ATOM     10  C   UNL     1      -6.683  -1.175   0.515  1.00  0.00     0.001 A 
ATOM     11  C   UNL     1      -7.565  -0.134   0.238  1.00  0.00     0.016 A 
BRANCH   7  12
ATOM     12  C   UNL     1      -4.350  -1.040  -2.496  1.00  0.00     0.041 C 
BRANCH  12  13
ATOM     13  C   UNL     1      -3.630   0.228  -2.979  1.00  0.00     0.015 C 
ATOM     14  N   UNL     1      -1.338   0.813  -3.024  1.00  0.00    -0.325 N 
ATOM     15  C   UNL     1      -2.045   1.910  -2.396  1.00  0.00     0.121 C 
ATOM     16  C   UNL     1      -2.287  -0.077  -3.668  1.00  0.00     0.125 C 
ATOM     17  C   UNL     1      -3.255   1.197  -1.836  1.00  0.00     0.027 C 
BRANCH  14  18
ATOM     18  C   UNL     1      -0.000   0.666  -3.200  1.00  0.00     0.317 C 
ATOM     19  N   UNL     1       0.843   1.159  -2.258  1.00  0.00    -0.338 N 
ATOM     20  H   UNL     1       1.693   1.532  -2.585  1.00  0.00     0.165 HD
ATOM     21  O   UNL     1       0.483   0.051  -4.149  1.00  0.00    -0.249 OA
BRANCH  19  22
ATOM     22  C   UNL     1       0.633   1.198  -0.821  1.00  0.00     0.114 C 
ATOM     23  C   UNL     1       1.308   0.019  -0.141  1.00  0.00     0.027 C 
ENDBRANCH  19  22
ENDBRANCH  14  18
ENDBRANCH  12  13
ENDBRANCH   7  12
ENDBRANCH   4   6
ENDBRANCH   3   4
ENDBRANCH   2   3
ENDBRANCH   1   2
BRANCH   1  24
ATOM     24  O   UNL     1     -11.460   0.592  -2.530  1.00  0.00    -0.374 OA
BRANCH  24  25
ATOM     25  C   UNL     1     -10.693  -0.596  -2.331  1.00  0.00     0.202 C 
BRANCH  25  26
ATOM     26  C   UNL     1     -10.785  -1.679  -3.413  1.00  0.00     0.261 C 
BRANCH  26  27
ATOM     27  O   UNL     1     -10.198  -1.262  -4.657  1.00  0.00    -0.460 OA
BRANCH  27  28
ATOM     28  C   UNL     1     -11.086  -0.979  -5.640  1.00  0.00     0.338 C 
ATOM     29  O   UNL     1     -12.303  -1.090  -5.589  1.00  0.00    -0.246 OA
BRANCH  28  30
ATOM     30  C   UNL     1     -10.391  -0.327  -6.764  1.00  0.00     0.060 A 
ATOM     31  C   UNL     1     -10.875   0.913  -7.202  1.00  0.00     0.016 A 
ATOM     32  C   UNL     1      -9.323  -0.945  -7.416  1.00  0.00     0.016 A 
ATOM     33  C   UNL     1     -10.315   1.525  -8.322  1.00  0.00     0.010 A 
ATOM     34  C   UNL     1      -8.770  -0.334  -8.545  1.00  0.00     0.010 A 
ATOM     35  C   UNL     1      -9.282   0.888  -9.021  1.00  0.00    -0.014 A 
BRANCH  35  36
ATOM     36  C   UNL     1      -8.815   1.424 -10.322  1.00  0.00     0.031 A 
ATOM     37  C   UNL     1      -9.279   0.759 -11.589  1.00  0.00     0.074 A 
ATOM     38  C   UNL     1      -7.969   2.469 -10.372  1.00  0.00     0.049 A 
ATOM     39  N   UNL     1      -8.902   0.972 -12.822  1.00  0.00    -0.248 NA
ATOM     40  C   UNL     1     -10.300  -0.292 -11.444  1.00  0.00     0.031 C 
ATOM     41  C   UNL     1      -7.477   3.213  -9.213  1.00  0.00     0.029 A 
ATOM     42  N   UNL     1      -7.351   3.067 -11.442  1.00  0.00    -0.354 N 
ATOM     43  C   UNL     1      -9.615   0.065 -13.597  1.00  0.00     0.074 A 
ATOM     44  C   UNL     1     -10.441  -0.708 -12.695  1.00  0.00     0.031 C 
ATOM     45  C   UNL     1      -6.606   4.147  -9.632  1.00  0.00     0.029 A 
ATOM     46  C   UNL     1      -6.449   4.041 -11.082  1.00  0.00     0.049 A 
ATOM     47  H   UNL     1      -7.536   2.823 -12.378  1.00  0.00     0.167 HD
ATOM     48  C   UNL     1      -9.579  -0.106 -14.940  1.00  0.00     0.037 A 
ATOM     49  C   UNL     1      -5.569   4.735 -11.830  1.00  0.00     0.037 A 
ATOM     50  C   UNL     1      -8.767   0.682 -15.829  1.00  0.00     0.049 A 
ATOM     51  C   UNL     1      -5.516   4.495 -13.318  1.00  0.00     0.074 A 
ATOM     52  C   UNL     1      -8.699   0.619 -17.210  1.00  0.00     0.029 A 
ATOM     53  N   UNL     1      -7.875   1.665 -15.428  1.00  0.00    -0.354 N 
ATOM     54  N   UNL     1      -6.226   3.664 -14.045  1.00  0.00    -0.248 NA
ATOM     55  C   UNL     1      -4.547   5.287 -14.090  1.00  0.00     0.031 C 
ATOM     56  C   UNL     1      -7.724   1.524 -17.640  1.00  0.00     0.029 A 
ATOM     57  C   UNL     1      -7.229   2.195 -16.533  1.00  0.00     0.049 A 
ATOM     58  H   UNL     1      -7.724   1.945 -14.497  1.00  0.00     0.167 HD
ATOM     59  C   UNL     1      -5.810   3.856 -15.360  1.00  0.00     0.074 A 
ATOM     60  C   UNL     1      -4.794   4.887 -15.330  1.00  0.00     0.031 C 
ATOM     61  C   UNL     1      -6.233   3.236 -16.489  1.00  0.00     0.037 A 
BRANCH  48  62
ATOM     62  C   UNL     1     -10.417  -1.203 -15.536  1.00  0.00     0.058 A 
ATOM     63  C   UNL     1     -11.814  -1.107 -15.627  1.00  0.00     0.135 A 
ATOM     64  C   UNL     1      -9.801  -2.337 -16.091  1.00  0.00     0.135 A 
ATOM     65  F   UNL     1     -12.456  -0.053 -15.097  1.00  0.00    -0.206 F 
ATOM     66  C   UNL     1     -12.572  -2.102 -16.236  1.00  0.00     0.059 A 
ATOM     67  C   UNL     1     -10.536  -3.331 -16.729  1.00  0.00     0.059 A 
ATOM     68  F   UNL     1      -8.468  -2.481 -16.027  1.00  0.00    -0.206 F 
ATOM     69  C   UNL     1     -11.923  -3.207 -16.790  1.00  0.00     0.060 A 
BRANCH  69  70
ATOM     70  S   UNL     1     -12.918  -4.471 -17.610  1.00  0.00     0.124 S 
ATOM     71  O   UNL     1     -13.579  -5.104 -16.472  1.00  0.00    -0.237 OA
ATOM     72  O   UNL     1     -13.778  -3.675 -18.479  1.00  0.00    -0.237 OA
ATOM     73  O   UNL     1     -11.927  -5.295 -18.296  1.00  0.00    -0.744 OA
ENDBRANCH  69  70
ENDBRANCH  48  62
BRANCH  49  74
ATOM     74  C   UNL     1      -4.635   5.697 -11.183  1.00  0.00     0.058 A 
ATOM     75  C   UNL     1      -4.739   7.077 -11.408  1.00  0.00     0.135 A 
ATOM     76  C   UNL     1      -3.608   5.250 -10.336  1.00  0.00     0.135 A 
ATOM     77  F   UNL     1      -5.697   7.554 -12.218  1.00  0.00    -0.206 F 
ATOM     78  C   UNL     1      -3.846   7.978 -10.836  1.00  0.00     0.059 A 
ATOM     79  C   UNL     1      -2.721   6.133  -9.729  1.00  0.00     0.059 A 
ATOM     80  F   UNL     1      -3.472   3.940 -10.077  1.00  0.00    -0.206 F 
ATOM     81  C   UNL     1      -2.841   7.496  -9.997  1.00  0.00     0.060 A 
BRANCH  81  82
ATOM     82  S   UNL     1      -1.710   8.678  -9.230  1.00  0.00     0.124 S 
ATOM     83  O   UNL     1      -0.879   9.067 -10.363  1.00  0.00    -0.237 OA
ATOM     84  O   UNL     1      -2.627   9.698  -8.730  1.00  0.00    -0.237 OA
ATOM     85  O   UNL     1      -1.045   7.886  -8.200  1.00  0.00    -0.744 OA
ENDBRANCH  81  82
ENDBRANCH  49  74
BRANCH  61  86
ATOM     86  C   UNL     1      -5.643   3.682 -17.799  1.00  0.00     0.058 A 
ATOM     87  C   UNL     1      -4.331   3.353 -18.172  1.00  0.00     0.135 A 
ATOM     88  C   UNL     1      -6.434   4.378 -18.730  1.00  0.00     0.135 A 
ATOM     89  F   UNL     1      -3.531   2.695 -17.319  1.00  0.00    -0.206 F 
ATOM     90  C   UNL     1      -3.820   3.707 -19.417  1.00  0.00     0.059 A 
ATOM     91  C   UNL     1      -5.953   4.716 -19.990  1.00  0.00     0.059 A 
ATOM     92  F   UNL     1      -7.699   4.709 -18.427  1.00  0.00    -0.206 F 
ATOM     93  C   UNL     1      -4.641   4.383 -20.322  1.00  0.00     0.060 A 
BRANCH  93  94
ATOM     94  S   UNL     1      -3.983   4.785 -21.955  1.00  0.00     0.124 S 
ATOM     95  O   UNL     1      -3.057   5.867 -21.641  1.00  0.00    -0.237 OA
ATOM     96  O   UNL     1      -3.372   3.525 -22.365  1.00  0.00    -0.237 OA
ATOM     97  O   UNL     1      -5.169   5.175 -22.713  1.00  0.00    -0.744 OA
ENDBRANCH  93  94
ENDBRANCH  61  86
ENDBRANCH  35  36
ENDBRANCH  28  30
ENDBRANCH  27  28
ENDBRANCH  26  27
ENDBRANCH  25  26
ENDBRANCH  24  25
ENDBRANCH   1  24
TORSDOF 21
