REMARK SMILES CC[C@]1(C(=O)OCCOCCOC(=O)c2ccc(-c3c4nc(c(-c5c(F)cc(S(=O)(=O)[O-])cc5F)c5ccc([nH]5)c(-c5c(F)cc(S(=O)(=O)[O-])cc5F)c5nc(c(-c6c(F)cc(S(=O)(=O)[O-])cc6F)c6ccc3[nH]6)C=C5)C=C4)cc2)CC[N@@H+](Cc2ccc(CC(C)C)cc2)C1
REMARK SMILES IDX 8 1 7 2 6 3 4 4 5 5 3 6 81 7 95 8 82 9 83 10 2 12 1 13 84 14
REMARK SMILES IDX 85 15 86 16 94 17 87 18 93 19 88 20 89 21 90 22 91 23 92 24
REMARK SMILES IDX 9 25 10 26 11 27 12 28 13 29 14 30 15 31 16 32 80 33 17 34
REMARK SMILES IDX 79 35 18 36 19 37 20 38 73 39 21 40 78 41 72 42 74 43 22 44
REMARK SMILES IDX 77 45 71 46 70 47 23 49 57 50 36 51 56 52 37 53 40 54 55 55
REMARK SMILES IDX 75 56 38 57 39 58 54 60 76 61 41 62 24 63 25 64 34 65 26 66
REMARK SMILES IDX 27 67 33 68 35 69 28 70 29 71 30 72 31 73 32 74 58 75 59 76
REMARK SMILES IDX 68 77 60 78 61 79 67 80 69 81 62 82 63 83 64 84 65 85 66 86
REMARK SMILES IDX 42 87 43 88 52 89 44 90 45 91 51 92 53 93 46 94 47 95 48 96
REMARK SMILES IDX 49 97 50 98
REMARK H PARENT 83 11 74 48 40 59
REMARK Flexibility Score: inf
ROOT
ATOM      1  C   UNL     1       0.009  -1.474   6.170  1.00  0.00     0.202 C 
ENDROOT
BRANCH   1   2
ATOM      2  C   UNL     1       1.304  -1.459   5.341  1.00  0.00     0.261 C 
BRANCH   2   3
ATOM      3  O   UNL     1       1.213  -0.428   4.337  1.00  0.00    -0.463 OA
BRANCH   3   4
ATOM      4  C   UNL     1       1.843  -0.651   3.159  1.00  0.00     0.318 C 
ATOM      5  O   UNL     1       2.644  -1.564   2.979  1.00  0.00    -0.251 OA
BRANCH   4   6
ATOM      6  C   UNL     1       1.391   0.298   2.032  1.00  0.00     0.122 C 
ATOM      7  C   UNL     1       0.420   1.417   2.438  1.00  0.00     0.086 C 
ATOM      8  C   UNL     1       2.635   1.086   1.566  1.00  0.00     0.281 C 
ATOM      9  C   UNL     1       0.814   2.606   1.577  1.00  0.00     0.263 C 
ATOM     10  N   UNL     1       2.257   2.501   1.342  1.00  0.00    -0.330 N 
ATOM     11  H   UNL     1       2.472   2.760   0.379  1.00  0.00     0.348 HD
BRANCH   6  12
ATOM     12  C   UNL     1       0.714  -0.600   0.952  1.00  0.00     0.021 C 
ATOM     13  C   UNL     1       0.799  -0.144  -0.497  1.00  0.00     0.005 C 
ENDBRANCH   6  12
BRANCH  10  14
ATOM     14  C   UNL     1       3.065   3.483   2.112  1.00  0.00     0.299 C 
BRANCH  14  15
ATOM     15  C   UNL     1       2.887   3.376   3.606  1.00  0.00     0.006 A 
ATOM     16  C   UNL     1       1.788   3.997   4.216  1.00  0.00     0.010 A 
ATOM     17  C   UNL     1       3.654   2.439   4.306  1.00  0.00     0.010 A 
ATOM     18  C   UNL     1       1.282   3.465   5.382  1.00  0.00     0.004 A 
ATOM     19  C   UNL     1       3.161   1.920   5.476  1.00  0.00     0.004 A 
ATOM     20  C   UNL     1       1.934   2.374   5.956  1.00  0.00    -0.048 A 
BRANCH  20  21
ATOM     21  C   UNL     1       1.395   1.719   7.170  1.00  0.00     0.038 C 
BRANCH  21  22
ATOM     22  C   UNL     1       2.182   2.225   8.358  1.00  0.00    -0.013 C 
ATOM     23  C   UNL     1       1.815   3.732   8.525  1.00  0.00     0.008 C 
ATOM     24  C   UNL     1       2.090   1.116   9.429  1.00  0.00     0.008 C 
ENDBRANCH  21  22
ENDBRANCH  20  21
ENDBRANCH  14  15
ENDBRANCH  10  14
ENDBRANCH   4   6
ENDBRANCH   3   4
ENDBRANCH   2   3
ENDBRANCH   1   2
BRANCH   1  25
ATOM     25  O   UNL     1      -1.144  -1.918   5.449  1.00  0.00    -0.374 OA
BRANCH  25  26
ATOM     26  C   UNL     1      -1.693  -0.973   4.534  1.00  0.00     0.202 C 
BRANCH  26  27
ATOM     27  C   UNL     1      -2.663   0.069   5.113  1.00  0.00     0.261 C 
BRANCH  27  28
ATOM     28  O   UNL     1      -2.138   0.865   6.201  1.00  0.00    -0.460 OA
BRANCH  28  29
ATOM     29  C   UNL     1      -2.631   0.565   7.435  1.00  0.00     0.338 C 
ATOM     30  O   UNL     1      -3.435  -0.323   7.687  1.00  0.00    -0.246 OA
BRANCH  29  31
ATOM     31  C   UNL     1      -1.981   1.375   8.507  1.00  0.00     0.060 A 
ATOM     32  C   UNL     1      -1.506   0.709   9.643  1.00  0.00     0.016 A 
ATOM     33  C   UNL     1      -1.845   2.764   8.447  1.00  0.00     0.016 A 
ATOM     34  C   UNL     1      -0.857   1.411  10.683  1.00  0.00     0.010 A 
ATOM     35  C   UNL     1      -1.168   3.460   9.486  1.00  0.00     0.010 A 
ATOM     36  C   UNL     1      -0.614   2.795  10.608  1.00  0.00    -0.014 A 
BRANCH  36  37
ATOM     37  C   UNL     1      -0.061   3.539  11.825  1.00  0.00     0.031 A 
ATOM     38  C   UNL     1      -1.125   4.160  12.694  1.00  0.00     0.074 A 
ATOM     39  C   UNL     1       1.233   3.672  12.251  1.00  0.00     0.049 A 
ATOM     40  N   UNL     1      -1.000   4.780  13.836  1.00  0.00    -0.248 NA
ATOM     41  C   UNL     1      -2.511   4.087  12.195  1.00  0.00     0.031 C 
ATOM     42  C   UNL     1       2.438   3.243  11.573  1.00  0.00     0.029 A 
ATOM     43  N   UNL     1       1.790   4.242  13.391  1.00  0.00    -0.354 N 
ATOM     44  C   UNL     1      -2.284   5.153  14.194  1.00  0.00     0.074 A 
ATOM     45  C   UNL     1      -3.166   4.766  13.118  1.00  0.00     0.031 C 
ATOM     46  C   UNL     1       3.553   3.503  12.248  1.00  0.00     0.029 A 
ATOM     47  C   UNL     1       3.179   4.161  13.463  1.00  0.00     0.049 A 
ATOM     48  H   UNL     1       1.246   4.669  14.092  1.00  0.00     0.167 HD
ATOM     49  C   UNL     1      -2.707   5.736  15.336  1.00  0.00     0.037 A 
ATOM     50  C   UNL     1       4.109   4.549  14.356  1.00  0.00     0.037 A 
ATOM     51  C   UNL     1      -1.841   6.154  16.400  1.00  0.00     0.049 A 
ATOM     52  C   UNL     1       3.622   5.203  15.596  1.00  0.00     0.074 A 
ATOM     53  C   UNL     1      -2.186   6.765  17.590  1.00  0.00     0.029 A 
ATOM     54  N   UNL     1      -0.460   6.024  16.399  1.00  0.00    -0.354 N 
ATOM     55  N   UNL     1       2.387   5.488  15.921  1.00  0.00    -0.248 NA
ATOM     56  C   UNL     1       4.629   5.580  16.590  1.00  0.00     0.031 C 
ATOM     57  C   UNL     1      -1.010   7.049  18.290  1.00  0.00     0.029 A 
ATOM     58  C   UNL     1       0.063   6.559  17.565  1.00  0.00     0.049 A 
ATOM     59  H   UNL     1       0.070   5.613  15.678  1.00  0.00     0.167 HD
ATOM     60  C   UNL     1       2.463   6.070  17.170  1.00  0.00     0.074 A 
ATOM     61  C   UNL     1       3.862   6.066  17.554  1.00  0.00     0.031 C 
ATOM     62  C   UNL     1       1.457   6.568  17.923  1.00  0.00     0.037 A 
BRANCH  49  63
ATOM     63  C   UNL     1      -4.183   5.966  15.446  1.00  0.00     0.058 A 
ATOM     64  C   UNL     1      -5.084   4.896  15.591  1.00  0.00     0.135 A 
ATOM     65  C   UNL     1      -4.706   7.261  15.336  1.00  0.00     0.135 A 
ATOM     66  F   UNL     1      -4.632   3.633  15.652  1.00  0.00    -0.206 F 
ATOM     67  C   UNL     1      -6.457   5.102  15.584  1.00  0.00     0.059 A 
ATOM     68  C   UNL     1      -6.075   7.493  15.360  1.00  0.00     0.059 A 
ATOM     69  F   UNL     1      -3.885   8.310  15.171  1.00  0.00    -0.206 F 
ATOM     70  C   UNL     1      -6.942   6.406  15.466  1.00  0.00     0.060 A 
BRANCH  70  71
ATOM     71  S   UNL     1      -8.727   6.659  15.447  1.00  0.00     0.124 S 
ATOM     72  O   UNL     1      -9.076   6.166  14.118  1.00  0.00    -0.237 OA
ATOM     73  O   UNL     1      -9.170   5.834  16.566  1.00  0.00    -0.237 OA
ATOM     74  O   UNL     1      -8.867   8.099  15.639  1.00  0.00    -0.744 OA
ENDBRANCH  70  71
ENDBRANCH  49  63
BRANCH  50  75
ATOM     75  C   UNL     1       5.571   4.298  14.130  1.00  0.00     0.058 A 
ATOM     76  C   UNL     1       6.276   3.355  14.896  1.00  0.00     0.135 A 
ATOM     77  C   UNL     1       6.292   4.974  13.129  1.00  0.00     0.135 A 
ATOM     78  F   UNL     1       5.644   2.674  15.865  1.00  0.00    -0.206 F 
ATOM     79  C   UNL     1       7.635   3.109  14.699  1.00  0.00     0.059 A 
ATOM     80  C   UNL     1       7.644   4.724  12.891  1.00  0.00     0.059 A 
ATOM     81  F   UNL     1       5.671   5.867  12.342  1.00  0.00    -0.206 F 
ATOM     82  C   UNL     1       8.312   3.799  13.692  1.00  0.00     0.060 A 
BRANCH  82  83
ATOM     83  S   UNL     1      10.064   3.443  13.416  1.00  0.00     0.124 S 
ATOM     84  O   UNL     1      10.683   4.103  14.560  1.00  0.00    -0.237 OA
ATOM     85  O   UNL     1      10.090   1.984  13.430  1.00  0.00    -0.237 OA
ATOM     86  O   UNL     1      10.330   4.053  12.117  1.00  0.00    -0.744 OA
ENDBRANCH  82  83
ENDBRANCH  50  75
BRANCH  62  87
ATOM     87  C   UNL     1       1.849   7.125  19.253  1.00  0.00     0.058 A 
ATOM     88  C   UNL     1       2.574   8.320  19.365  1.00  0.00     0.135 A 
ATOM     89  C   UNL     1       1.510   6.436  20.425  1.00  0.00     0.135 A 
ATOM     90  F   UNL     1       2.937   9.000  18.265  1.00  0.00    -0.206 F 
ATOM     91  C   UNL     1       2.988   8.795  20.601  1.00  0.00     0.059 A 
ATOM     92  C   UNL     1       1.883   6.911  21.674  1.00  0.00     0.059 A 
ATOM     93  F   UNL     1       0.817   5.288  20.362  1.00  0.00    -0.206 F 
ATOM     94  C   UNL     1       2.638   8.081  21.749  1.00  0.00     0.060 A 
BRANCH  94  95
ATOM     95  S   UNL     1       3.177   8.708  23.349  1.00  0.00     0.124 S 
ATOM     96  O   UNL     1       4.596   8.368  23.333  1.00  0.00    -0.237 OA
ATOM     97  O   UNL     1       2.863  10.130  23.248  1.00  0.00    -0.237 OA
ATOM     98  O   UNL     1       2.360   7.957  24.299  1.00  0.00    -0.744 OA
ENDBRANCH  94  95
ENDBRANCH  62  87
ENDBRANCH  36  37
ENDBRANCH  29  31
ENDBRANCH  28  29
ENDBRANCH  27  28
ENDBRANCH  26  27
ENDBRANCH  25  26
ENDBRANCH   1  25
TORSDOF 22
