REMARK SMILES CN1C(=O)[C@@H]2CC=CC[C@]2(C(=O)OCCOCCOC(=O)c2ccc(-c3c4nc(c(-c5c(F)cc(S(=O)(=O)[O-])cc5F)c5ccc([nH]5)c(-c5c(F)cc(S(=O)(=O)[O-])cc5F)c5nc(c(-c6c(F)cc(S(=O)(=O)[O-])cc6F)c6ccc3[nH]6)C=C5)C=C4)cc2)[C@H]1c1ccccc1
REMARK SMILES IDX 17 1 16 2 15 3 14 4 13 5 11 6 12 7 10 8 1 9 2 10 3 11 88 12
REMARK SMILES IDX 4 13 5 14 6 15 9 16 7 17 8 18 89 19 90 20 94 21 91 22 93 23
REMARK SMILES IDX 92 24 18 25 19 26 20 27 21 28 22 29 23 30 87 31 24 32 86 33
REMARK SMILES IDX 25 34 26 35 27 36 80 37 28 38 85 39 79 40 81 41 29 42 84 43
REMARK SMILES IDX 78 44 77 45 30 47 64 48 43 49 63 50 44 51 47 52 62 53 82 54
REMARK SMILES IDX 45 55 46 56 61 58 83 59 48 60 31 61 32 62 41 63 33 64 34 65
REMARK SMILES IDX 40 66 42 67 35 68 36 69 37 70 38 71 39 72 65 73 66 74 75 75
REMARK SMILES IDX 67 76 68 77 74 78 76 79 69 80 70 81 71 82 72 83 73 84 49 85
REMARK SMILES IDX 50 86 59 87 51 88 52 89 58 90 60 91 53 92 54 93 55 94 56 95
REMARK SMILES IDX 57 96
REMARK H PARENT 81 46 47 57
REMARK Flexibility Score: inf
ROOT
ATOM      1  C   UNL     1       2.182   5.189  -4.984  1.00  0.00     0.202 C 
ENDROOT
BRANCH   1   2
ATOM      2  O   UNL     1       0.831   5.178  -4.509  1.00  0.00    -0.374 OA
BRANCH   2   3
ATOM      3  C   UNL     1       0.530   6.005  -3.380  1.00  0.00     0.202 C 
BRANCH   3   4
ATOM      4  C   UNL     1      -0.814   5.554  -2.774  1.00  0.00     0.261 C 
BRANCH   4   5
ATOM      5  O   UNL     1      -0.649   4.164  -2.448  1.00  0.00    -0.463 OA
BRANCH   5   6
ATOM      6  C   UNL     1      -1.485   3.165  -2.892  1.00  0.00     0.315 C 
ATOM      7  O   UNL     1      -2.628   3.305  -3.289  1.00  0.00    -0.251 OA
BRANCH   6   8
ATOM      8  C   UNL     1      -0.607   1.901  -3.017  1.00  0.00     0.108 C 
ATOM      9  C   UNL     1       1.299  -0.071  -0.382  1.00  0.00     0.147 C 
ATOM     10  N   UNL     1       0.439   0.404  -1.451  1.00  0.00    -0.337 N 
ATOM     11  C   UNL     1      -0.344  -0.398  -2.245  1.00  0.00     0.227 C 
ATOM     12  C   UNL     1       0.146   1.800  -1.626  1.00  0.00     0.133 C 
ATOM     13  O   UNL     1      -0.389  -1.618  -2.177  1.00  0.00    -0.275 OA
ATOM     14  C   UNL     1      -1.181   0.469  -3.195  1.00  0.00     0.102 C 
ATOM     15  C   UNL     1      -1.105  -0.213  -4.581  1.00  0.00     0.041 C 
ATOM     16  C   UNL     1       0.212   2.339  -4.252  1.00  0.00     0.049 C 
ATOM     17  C   UNL     1       0.011   0.221  -5.474  1.00  0.00    -0.030 C 
ATOM     18  C   UNL     1       0.634   1.383  -5.302  1.00  0.00    -0.030 C 
BRANCH  12  19
ATOM     19  C   UNL     1      -0.694   2.296  -0.427  1.00  0.00    -0.024 A 
ATOM     20  C   UNL     1      -2.004   1.826  -0.215  1.00  0.00     0.006 A 
ATOM     21  C   UNL     1      -0.242   3.380   0.344  1.00  0.00     0.006 A 
ATOM     22  C   UNL     1      -2.888   2.525   0.605  1.00  0.00     0.000 A 
ATOM     23  C   UNL     1      -1.125   4.063   1.185  1.00  0.00     0.000 A 
ATOM     24  C   UNL     1      -2.456   3.659   1.282  1.00  0.00     0.000 A 
ENDBRANCH  12  19
ENDBRANCH   6   8
ENDBRANCH   5   6
ENDBRANCH   4   5
ENDBRANCH   3   4
ENDBRANCH   2   3
ENDBRANCH   1   2
BRANCH   1  25
ATOM     25  C   UNL     1       3.182   4.303  -4.203  1.00  0.00     0.261 C 
BRANCH  25  26
ATOM     26  O   UNL     1       3.401   4.749  -2.864  1.00  0.00    -0.460 OA
BRANCH  26  27
ATOM     27  C   UNL     1       4.115   5.894  -2.819  1.00  0.00     0.338 C 
ATOM     28  O   UNL     1       4.599   6.497  -3.758  1.00  0.00    -0.246 OA
BRANCH  27  29
ATOM     29  C   UNL     1       4.075   6.418  -1.455  1.00  0.00     0.060 A 
ATOM     30  C   UNL     1       3.510   7.682  -1.277  1.00  0.00     0.016 A 
ATOM     31  C   UNL     1       4.690   5.731  -0.407  1.00  0.00     0.016 A 
ATOM     32  C   UNL     1       3.654   8.319  -0.054  1.00  0.00     0.010 A 
ATOM     33  C   UNL     1       4.826   6.370   0.822  1.00  0.00     0.010 A 
ATOM     34  C   UNL     1       4.368   7.690   0.976  1.00  0.00    -0.014 A 
BRANCH  34  35
ATOM     35  C   UNL     1       4.812   8.507   2.124  1.00  0.00     0.031 A 
ATOM     36  C   UNL     1       6.235   8.998   2.152  1.00  0.00     0.074 A 
ATOM     37  C   UNL     1       3.935   8.864   3.077  1.00  0.00     0.049 A 
ATOM     38  N   UNL     1       6.831   9.759   3.030  1.00  0.00    -0.248 NA
ATOM     39  C   UNL     1       7.103   8.570   1.040  1.00  0.00     0.031 C 
ATOM     40  C   UNL     1       2.528   8.465   3.121  1.00  0.00     0.029 A 
ATOM     41  N   UNL     1       4.099   9.650   4.185  1.00  0.00    -0.354 N 
ATOM     42  C   UNL     1       8.140   9.898   2.582  1.00  0.00     0.074 A 
ATOM     43  C   UNL     1       8.265   9.107   1.379  1.00  0.00     0.031 C 
ATOM     44  C   UNL     1       1.954   9.016   4.203  1.00  0.00     0.029 A 
ATOM     45  C   UNL     1       2.959   9.781   4.938  1.00  0.00     0.049 A 
ATOM     46  H   UNL     1       4.953  10.081   4.419  1.00  0.00     0.167 HD
ATOM     47  C   UNL     1       9.142  10.633   3.120  1.00  0.00     0.037 A 
ATOM     48  C   UNL     1       2.758  10.441   6.094  1.00  0.00     0.037 A 
ATOM     49  C   UNL     1       8.999  11.418   4.317  1.00  0.00     0.049 A 
ATOM     50  C   UNL     1       3.899  11.221   6.693  1.00  0.00     0.074 A 
ATOM     51  C   UNL     1       9.943  12.208   4.949  1.00  0.00     0.029 A 
ATOM     52  N   UNL     1       7.834  11.511   5.067  1.00  0.00    -0.354 N 
ATOM     53  N   UNL     1       5.128  11.358   6.252  1.00  0.00    -0.248 NA
ATOM     54  C   UNL     1       3.619  11.950   7.935  1.00  0.00     0.031 C 
ATOM     55  C   UNL     1       9.364  12.737   6.108  1.00  0.00     0.029 A 
ATOM     56  C   UNL     1       8.040  12.331   6.163  1.00  0.00     0.049 A 
ATOM     57  H   UNL     1       6.986  11.060   4.850  1.00  0.00     0.167 HD
ATOM     58  C   UNL     1       5.758  12.219   7.144  1.00  0.00     0.074 A 
ATOM     59  C   UNL     1       4.768  12.579   8.140  1.00  0.00     0.031 C 
ATOM     60  C   UNL     1       7.036  12.678   7.140  1.00  0.00     0.037 A 
BRANCH  47  61
ATOM     61  C   UNL     1      10.481  10.598   2.432  1.00  0.00     0.058 A 
ATOM     62  C   UNL     1      10.689  11.194   1.177  1.00  0.00     0.135 A 
ATOM     63  C   UNL     1      11.580   9.977   3.047  1.00  0.00     0.135 A 
ATOM     64  F   UNL     1       9.670  11.783   0.530  1.00  0.00    -0.206 F 
ATOM     65  C   UNL     1      11.929  11.153   0.546  1.00  0.00     0.059 A 
ATOM     66  C   UNL     1      12.836   9.950   2.450  1.00  0.00     0.059 A 
ATOM     67  F   UNL     1      11.438   9.384   4.244  1.00  0.00    -0.206 F 
ATOM     68  C   UNL     1      12.998  10.529   1.192  1.00  0.00     0.060 A 
BRANCH  68  69
ATOM     69  S   UNL     1      14.602  10.490   0.365  1.00  0.00     0.124 S 
ATOM     70  O   UNL     1      14.353   9.534  -0.709  1.00  0.00    -0.237 OA
ATOM     71  O   UNL     1      14.771  11.879  -0.050  1.00  0.00    -0.237 OA
ATOM     72  O   UNL     1      15.513  10.035   1.410  1.00  0.00    -0.744 OA
ENDBRANCH  68  69
ENDBRANCH  47  61
BRANCH  48  73
ATOM     73  C   UNL     1       1.424  10.400   6.749  1.00  0.00     0.058 A 
ATOM     74  C   UNL     1       0.614  11.542   6.825  1.00  0.00     0.135 A 
ATOM     75  C   UNL     1       0.928   9.209   7.304  1.00  0.00     0.135 A 
ATOM     76  F   UNL     1       1.045  12.705   6.312  1.00  0.00    -0.206 F 
ATOM     77  C   UNL     1      -0.629  11.514   7.448  1.00  0.00     0.059 A 
ATOM     78  C   UNL     1      -0.324   9.148   7.905  1.00  0.00     0.059 A 
ATOM     79  F   UNL     1       1.655   8.083   7.240  1.00  0.00    -0.206 F 
ATOM     80  C   UNL     1      -1.091  10.310   7.983  1.00  0.00     0.060 A 
BRANCH  80  81
ATOM     81  S   UNL     1      -2.726  10.273   8.747  1.00  0.00     0.124 S 
ATOM     82  O   UNL     1      -2.491  11.012   9.981  1.00  0.00    -0.237 OA
ATOM     83  O   UNL     1      -3.546  10.945   7.744  1.00  0.00    -0.237 OA
ATOM     84  O   UNL     1      -2.990   8.845   8.905  1.00  0.00    -0.744 OA
ENDBRANCH  80  81
ENDBRANCH  48  73
BRANCH  60  85
ATOM     85  C   UNL     1       7.415  13.663   8.214  1.00  0.00     0.058 A 
ATOM     86  C   UNL     1       7.527  13.290   9.562  1.00  0.00     0.135 A 
ATOM     87  C   UNL     1       7.679  15.002   7.881  1.00  0.00     0.135 A 
ATOM     88  F   UNL     1       7.286  12.023   9.936  1.00  0.00    -0.206 F 
ATOM     89  C   UNL     1       7.835  14.220  10.550  1.00  0.00     0.059 A 
ATOM     90  C   UNL     1       8.024  15.941   8.846  1.00  0.00     0.059 A 
ATOM     91  F   UNL     1       7.605  15.409   6.604  1.00  0.00    -0.206 F 
ATOM     92  C   UNL     1       8.075  15.546  10.181  1.00  0.00     0.060 A 
BRANCH  92  93
ATOM     93  S   UNL     1       8.457  16.748  11.472  1.00  0.00     0.124 S 
ATOM     94  O   UNL     1       7.149  16.940  12.088  1.00  0.00    -0.237 OA
ATOM     95  O   UNL     1       9.442  16.037  12.281  1.00  0.00    -0.237 OA
ATOM     96  O   UNL     1       8.975  17.892  10.728  1.00  0.00    -0.744 OA
ENDBRANCH  92  93
ENDBRANCH  60  85
ENDBRANCH  34  35
ENDBRANCH  27  29
ENDBRANCH  26  27
ENDBRANCH  25  26
ENDBRANCH   1  25
TORSDOF 18
