REMARK SMILES O=C(CC1(C(=O)OCCOCCOC(=O)c2ccc(-c3c4nc(c(-c5c(F)cc(S(=O)(=O)[O-])cc5F)c5ccc([nH]5)c(-c5c(F)cc(S(=O)(=O)[O-])cc5F)c5nc(c(-c6c(F)cc(S(=O)(=O)[O-])cc6F)c6ccc3[nH]6)C=C5)C=C4)cc2)CCCCC1)Nc1ccc(N2CCOC2=O)cc1
REMARK SMILES IDX 9 1 8 2 7 3 5 4 6 5 4 6 82 7 86 8 83 9 85 10 84 11 3 12 2 13
REMARK SMILES IDX 1 14 87 15 88 17 89 18 99 19 90 20 98 21 91 22 92 23 93 24
REMARK SMILES IDX 96 25 94 26 95 27 97 28 10 29 11 30 12 31 13 32 14 33 15 34
REMARK SMILES IDX 16 35 17 36 81 37 18 38 80 39 19 40 20 41 21 42 74 43 22 44
REMARK SMILES IDX 79 45 73 46 75 47 23 48 78 49 72 50 71 51 24 53 58 54 37 55
REMARK SMILES IDX 57 56 38 57 41 58 56 59 76 60 39 61 40 62 55 64 77 65 42 66
REMARK SMILES IDX 25 67 26 68 35 69 27 70 28 71 34 72 36 73 29 74 30 75 31 76
REMARK SMILES IDX 32 77 33 78 59 79 60 80 69 81 61 82 62 83 68 84 70 85 63 86
REMARK SMILES IDX 64 87 65 88 66 89 67 90 43 91 44 92 53 93 45 94 46 95 52 96
REMARK SMILES IDX 54 97 47 98 48 99 49 100 50 101 51 102
REMARK H PARENT 87 16 75 52 41 63
REMARK Flexibility Score: inf
ROOT
ATOM      1  C   UNL     1       3.242  -1.327  -6.076  1.00  0.00     0.202 C 
ENDROOT
BRANCH   1   2
ATOM      2  C   UNL     1       2.953   0.024  -5.423  1.00  0.00     0.261 C 
BRANCH   2   3
ATOM      3  O   UNL     1       3.710   0.184  -4.214  1.00  0.00    -0.463 OA
BRANCH   3   4
ATOM      4  C   UNL     1       2.982   0.280  -3.076  1.00  0.00     0.312 C 
ATOM      5  O   UNL     1       1.758   0.329  -3.039  1.00  0.00    -0.252 OA
BRANCH   4   6
ATOM      6  C   UNL     1       3.850   0.359  -1.812  1.00  0.00     0.077 C 
ATOM      7  C   UNL     1       3.877   1.864  -1.450  1.00  0.00     0.019 C 
ATOM      8  C   UNL     1       5.314  -0.153  -1.938  1.00  0.00     0.019 C 
ATOM      9  C   UNL     1       4.767   2.689  -2.387  1.00  0.00     0.001 C 
ATOM     10  C   UNL     1       6.277   0.708  -2.750  1.00  0.00     0.001 C 
ATOM     11  C   UNL     1       6.201   2.176  -2.362  1.00  0.00     0.000 C 
BRANCH   6  12
ATOM     12  C   UNL     1       3.154  -0.632  -0.806  1.00  0.00     0.119 C 
BRANCH  12  13
ATOM     13  C   UNL     1       2.223  -0.049   0.237  1.00  0.00     0.225 C 
ATOM     14  O   UNL     1       1.019  -0.273   0.233  1.00  0.00    -0.275 OA
ATOM     15  N   UNL     1       2.905   0.720   1.158  1.00  0.00    -0.326 N 
ATOM     16  H   UNL     1       3.888   0.695   1.133  1.00  0.00     0.169 HD
BRANCH  15  17
ATOM     17  C   UNL     1       2.305   1.532   2.124  1.00  0.00     0.041 A 
ATOM     18  C   UNL     1       2.890   2.779   2.351  1.00  0.00     0.028 A 
ATOM     19  C   UNL     1       1.176   1.146   2.839  1.00  0.00     0.028 A 
ATOM     20  C   UNL     1       2.300   3.672   3.241  1.00  0.00     0.028 A 
ATOM     21  C   UNL     1       0.655   1.999   3.813  1.00  0.00     0.028 A 
ATOM     22  C   UNL     1       1.195   3.276   3.998  1.00  0.00     0.047 A 
BRANCH  22  23
ATOM     23  N   UNL     1       0.615   4.164   4.915  1.00  0.00    -0.274 N 
ATOM     24  C   UNL     1       0.495   5.565   4.681  1.00  0.00     0.171 C 
ATOM     25  C   UNL     1       0.151   3.841   6.170  1.00  0.00     0.414 C 
ATOM     26  C   UNL     1      -0.456   5.984   5.774  1.00  0.00     0.257 C 
ATOM     27  O   UNL     1      -0.356   4.963   6.772  1.00  0.00    -0.447 OA
ATOM     28  O   UNL     1       0.205   2.757   6.740  1.00  0.00    -0.224 OA
ENDBRANCH  22  23
ENDBRANCH  15  17
ENDBRANCH  12  13
ENDBRANCH   6  12
ENDBRANCH   4   6
ENDBRANCH   3   4
ENDBRANCH   2   3
ENDBRANCH   1   2
BRANCH   1  29
ATOM     29  O   UNL     1       2.927  -2.498  -5.327  1.00  0.00    -0.374 OA
BRANCH  29  30
ATOM     30  C   UNL     1       3.757  -2.835  -4.218  1.00  0.00     0.202 C 
BRANCH  30  31
ATOM     31  C   UNL     1       5.179  -3.337  -4.504  1.00  0.00     0.261 C 
BRANCH  31  32
ATOM     32  O   UNL     1       6.030  -2.337  -5.092  1.00  0.00    -0.460 OA
BRANCH  32  33
ATOM     33  C   UNL     1       6.335  -2.557  -6.396  1.00  0.00     0.338 C 
ATOM     34  O   UNL     1       5.987  -3.503  -7.082  1.00  0.00    -0.246 OA
BRANCH  33  35
ATOM     35  C   UNL     1       7.010  -1.377  -6.968  1.00  0.00     0.060 A 
ATOM     36  C   UNL     1       6.435  -0.778  -8.097  1.00  0.00     0.016 A 
ATOM     37  C   UNL     1       8.238  -0.935  -6.476  1.00  0.00     0.016 A 
ATOM     38  C   UNL     1       7.112   0.235  -8.774  1.00  0.00     0.010 A 
ATOM     39  C   UNL     1       8.920   0.074  -7.163  1.00  0.00     0.010 A 
ATOM     40  C   UNL     1       8.380   0.635  -8.336  1.00  0.00    -0.014 A 
BRANCH  40  41
ATOM     41  C   UNL     1       9.223   1.506  -9.192  1.00  0.00     0.031 A 
ATOM     42  C   UNL     1      10.335   0.874  -9.986  1.00  0.00     0.074 A 
ATOM     43  C   UNL     1       9.003   2.831  -9.267  1.00  0.00     0.049 A 
ATOM     44  N   UNL     1      11.276   1.441 -10.694  1.00  0.00    -0.248 NA
ATOM     45  C   UNL     1      10.395  -0.598  -9.973  1.00  0.00     0.031 C 
ATOM     46  C   UNL     1       7.919   3.548  -8.598  1.00  0.00     0.029 A 
ATOM     47  N   UNL     1       9.697   3.812  -9.931  1.00  0.00    -0.354 N 
ATOM     48  C   UNL     1      12.048   0.400 -11.199  1.00  0.00     0.074 A 
ATOM     49  C   UNL     1      11.484  -0.831 -10.690  1.00  0.00     0.031 C 
ATOM     50  C   UNL     1       8.031   4.859  -8.871  1.00  0.00     0.029 A 
ATOM     51  C   UNL     1       9.220   5.079  -9.693  1.00  0.00     0.049 A 
ATOM     52  H   UNL     1      10.463   3.625 -10.521  1.00  0.00     0.167 HD
ATOM     53  C   UNL     1      13.123   0.466 -12.020  1.00  0.00     0.037 A 
ATOM     54  C   UNL     1       9.710   6.278 -10.068  1.00  0.00     0.037 A 
ATOM     55  C   UNL     1      13.675   1.698 -12.522  1.00  0.00     0.049 A 
ATOM     56  C   UNL     1      10.966   6.333 -10.902  1.00  0.00     0.074 A 
ATOM     57  C   UNL     1      14.766   1.875 -13.354  1.00  0.00     0.029 A 
ATOM     58  N   UNL     1      13.178   2.962 -12.238  1.00  0.00    -0.354 N 
ATOM     59  N   UNL     1      11.694   5.345 -11.366  1.00  0.00    -0.248 NA
ATOM     60  C   UNL     1      11.469   7.667 -11.263  1.00  0.00     0.031 C 
ATOM     61  C   UNL     1      14.962   3.248 -13.530  1.00  0.00     0.029 A 
ATOM     62  C   UNL     1      13.953   3.925 -12.863  1.00  0.00     0.049 A 
ATOM     63  H   UNL     1      12.392   3.147 -11.675  1.00  0.00     0.167 HD
ATOM     64  C   UNL     1      12.711   5.936 -12.110  1.00  0.00     0.074 A 
ATOM     65  C   UNL     1      12.507   7.367 -12.033  1.00  0.00     0.031 C 
ATOM     66  C   UNL     1      13.718   5.347 -12.802  1.00  0.00     0.037 A 
BRANCH  53  67
ATOM     67  C   UNL     1      13.788  -0.826 -12.409  1.00  0.00     0.058 A 
ATOM     68  C   UNL     1      13.172  -1.745 -13.274  1.00  0.00     0.135 A 
ATOM     69  C   UNL     1      15.077  -1.132 -11.941  1.00  0.00     0.135 A 
ATOM     70  F   UNL     1      11.934  -1.513 -13.737  1.00  0.00    -0.206 F 
ATOM     71  C   UNL     1      13.799  -2.932 -13.640  1.00  0.00     0.059 A 
ATOM     72  C   UNL     1      15.735  -2.299 -12.319  1.00  0.00     0.059 A 
ATOM     73  F   UNL     1      15.712  -0.291 -11.109  1.00  0.00    -0.206 F 
ATOM     74  C   UNL     1      15.082  -3.199 -13.159  1.00  0.00     0.060 A 
BRANCH  74  75
ATOM     75  S   UNL     1      15.883  -4.740 -13.650  1.00  0.00     0.124 S 
ATOM     76  O   UNL     1      15.099  -5.724 -12.910  1.00  0.00    -0.237 OA
ATOM     77  O   UNL     1      15.695  -4.740 -15.098  1.00  0.00    -0.237 OA
ATOM     78  O   UNL     1      17.260  -4.568 -13.199  1.00  0.00    -0.744 OA
ENDBRANCH  74  75
ENDBRANCH  53  67
BRANCH  54  79
ATOM     79  C   UNL     1       9.027   7.532  -9.645  1.00  0.00     0.058 A 
ATOM     80  C   UNL     1       8.405   8.369 -10.584  1.00  0.00     0.135 A 
ATOM     81  C   UNL     1       8.998   7.928  -8.298  1.00  0.00     0.135 A 
ATOM     82  F   UNL     1       8.415   8.040 -11.884  1.00  0.00    -0.206 F 
ATOM     83  C   UNL     1       7.802   9.565 -10.208  1.00  0.00     0.059 A 
ATOM     84  C   UNL     1       8.374   9.105  -7.894  1.00  0.00     0.059 A 
ATOM     85  F   UNL     1       9.567   7.160  -7.357  1.00  0.00    -0.206 F 
ATOM     86  C   UNL     1       7.791   9.924  -8.860  1.00  0.00     0.060 A 
BRANCH  86  87
ATOM     87  S   UNL     1       6.978  11.463  -8.380  1.00  0.00     0.124 S 
ATOM     88  O   UNL     1       7.907  12.460  -8.901  1.00  0.00    -0.237 OA
ATOM     89  O   UNL     1       5.697  11.360  -9.070  1.00  0.00    -0.237 OA
ATOM     90  O   UNL     1       6.908  11.366  -6.925  1.00  0.00    -0.744 OA
ENDBRANCH  86  87
ENDBRANCH  54  79
BRANCH  66  91
ATOM     91  C   UNL     1      14.642   6.232 -13.594  1.00  0.00     0.058 A 
ATOM     92  C   UNL     1      15.605   7.046 -12.979  1.00  0.00     0.135 A 
ATOM     93  C   UNL     1      14.616   6.195 -14.999  1.00  0.00     0.135 A 
ATOM     94  F   UNL     1      15.669   7.125 -11.640  1.00  0.00    -0.206 F 
ATOM     95  C   UNL     1      16.502   7.802 -13.728  1.00  0.00     0.059 A 
ATOM     96  C   UNL     1      15.523   6.918 -15.767  1.00  0.00     0.059 A 
ATOM     97  F   UNL     1      13.721   5.426 -15.639  1.00  0.00    -0.206 F 
ATOM     98  C   UNL     1      16.459   7.724 -15.122  1.00  0.00     0.060 A 
BRANCH  98  99
ATOM     99  S   UNL     1      17.670   8.661 -16.079  1.00  0.00     0.124 S 
ATOM    100  O   UNL     1      17.199  10.030 -15.892  1.00  0.00    -0.237 OA
ATOM    101  O   UNL     1      18.922   8.324 -15.409  1.00  0.00    -0.237 OA
ATOM    102  O   UNL     1      17.524   8.127 -17.430  1.00  0.00    -0.744 OA
ENDBRANCH  98  99
ENDBRANCH  66  91
ENDBRANCH  40  41
ENDBRANCH  33  35
ENDBRANCH  32  33
ENDBRANCH  31  32
ENDBRANCH  30  31
ENDBRANCH  29  30
ENDBRANCH   1  29
TORSDOF 21
