REMARK SMILES Cc1ccc(-c2cc3cccnc3n2CCC(=O)OCCOCCOC(=O)c2ccc(-c3c4nc(c(-c5c(F)cc(S(=O)(=O)[O-])cc5F)c5ccc([nH]5)c(-c5c(F)cc(S(=O)(=O)[O-])cc5F)c5nc(c(-c6c(F)cc(S(=O)(=O)[O-])cc6F)c6ccc3[nH]6)C=C5)C=C4)cc2)cn1
REMARK SMILES IDX 22 1 21 2 20 3 19 4 17 5 18 6 16 7 15 8 14 9 6 10 7 11 8 12
REMARK SMILES IDX 13 13 9 14 12 15 10 16 11 17 5 18 1 19 2 20 3 21 95 22 4 23
REMARK SMILES IDX 94 24 23 25 24 26 25 27 26 28 27 29 28 30 29 31 93 32 30 33
REMARK SMILES IDX 92 34 31 35 32 36 33 37 86 38 34 39 91 40 85 41 87 42 35 43
REMARK SMILES IDX 90 44 84 45 83 46 36 48 70 49 49 50 69 51 50 52 53 53 68 54
REMARK SMILES IDX 88 55 51 56 52 57 67 59 89 60 54 61 37 62 38 63 47 64 39 65
REMARK SMILES IDX 40 66 46 67 48 68 41 69 42 70 43 71 44 72 45 73 71 74 72 75
REMARK SMILES IDX 81 76 73 77 74 78 80 79 82 80 75 81 76 82 77 83 78 84 79 85
REMARK SMILES IDX 55 86 56 87 65 88 57 89 58 90 64 91 66 92 59 93 60 94 61 95
REMARK SMILES IDX 62 96 63 97
REMARK H PARENT 87 47 53 58
REMARK Flexibility Score: inf
ROOT
ATOM      1  O   UNL     1       0.755  -0.240   1.539  1.00  0.00    -0.374 OA
ENDROOT
BRANCH   1   2
ATOM      2  C   UNL     1       0.011  -0.071   0.098  1.00  0.00     0.202 C 
BRANCH   2   3
ATOM      3  C   UNL     1      -0.772  -1.606  -1.241  1.00  0.00     0.261 C 
BRANCH   3   4
ATOM      4  O   UNL     1      -2.330  -2.339  -1.081  1.00  0.00    -0.463 OA
BRANCH   4   5
ATOM      5  C   UNL     1      -2.646  -3.382  -0.261  1.00  0.00     0.307 C 
ATOM      6  O   UNL     1      -2.050  -4.455  -0.312  1.00  0.00    -0.252 OA
BRANCH   5   7
ATOM      7  C   UNL     1      -3.767  -3.136   0.808  1.00  0.00     0.144 C 
BRANCH   7   8
ATOM      8  C   UNL     1      -4.069  -1.801   1.531  1.00  0.00     0.136 C 
BRANCH   8   9
ATOM      9  N   UNL     1      -4.400  -0.705   0.658  1.00  0.00    -0.325 N 
ATOM     10  C   UNL     1      -3.479  -0.050  -0.114  1.00  0.00     0.052 A 
ATOM     11  C   UNL     1      -4.209   0.735  -1.000  1.00  0.00     0.039 A 
ATOM     12  C   UNL     1      -5.573   0.650  -0.663  1.00  0.00     0.020 A 
ATOM     13  C   UNL     1      -5.660  -0.204   0.430  1.00  0.00     0.140 A 
ATOM     14  C   UNL     1      -6.753   1.197  -1.185  1.00  0.00     0.013 A 
ATOM     15  N   UNL     1      -6.784  -0.527   1.102  1.00  0.00    -0.238 NA
ATOM     16  C   UNL     1      -7.937   0.903  -0.520  1.00  0.00     0.021 A 
ATOM     17  C   UNL     1      -7.888   0.082   0.600  1.00  0.00     0.113 A 
BRANCH  10  18
ATOM     18  C   UNL     1      -2.046  -0.348  -0.169  1.00  0.00     0.017 A 
ATOM     19  C   UNL     1       2.789  -0.934  -1.109  1.00  0.00     0.066 C 
ATOM     20  C   UNL     1       1.303  -1.196  -1.099  1.00  0.00     0.037 A 
ATOM     21  C   UNL     1       0.582  -2.075   0.268  1.00  0.00     0.024 A 
ATOM     22  N   UNL     1       0.401  -0.005  -1.989  1.00  0.00    -0.261 NA
ATOM     23  C   UNL     1      -1.106  -1.623   0.763  1.00  0.00     0.014 A 
ATOM     24  C   UNL     1      -1.213   0.425  -1.530  1.00  0.00     0.121 A 
ENDBRANCH  10  18
ENDBRANCH   8   9
ENDBRANCH   7   8
ENDBRANCH   5   7
ENDBRANCH   4   5
ENDBRANCH   3   4
ENDBRANCH   2   3
ENDBRANCH   1   2
BRANCH   1  25
ATOM     25  C   UNL     1       0.015  -0.091   2.773  1.00  0.00     0.202 C 
BRANCH  25  26
ATOM     26  C   UNL     1      -0.196   1.309   3.328  1.00  0.00     0.261 C 
BRANCH  26  27
ATOM     27  O   UNL     1      -0.769   2.132   2.341  1.00  0.00    -0.460 OA
BRANCH  27  28
ATOM     28  C   UNL     1       0.113   2.649   1.451  1.00  0.00     0.338 C 
ATOM     29  O   UNL     1       1.327   2.648   1.519  1.00  0.00    -0.246 OA
BRANCH  28  30
ATOM     30  C   UNL     1      -0.702   3.254   0.373  1.00  0.00     0.060 A 
ATOM     31  C   UNL     1      -0.064   4.281  -0.299  1.00  0.00     0.016 A 
ATOM     32  C   UNL     1      -2.097   3.211   0.536  1.00  0.00     0.016 A 
ATOM     33  C   UNL     1      -0.716   5.483  -0.265  1.00  0.00     0.010 A 
ATOM     34  C   UNL     1      -2.745   4.403   0.582  1.00  0.00     0.010 A 
ATOM     35  C   UNL     1      -1.975   5.529   0.351  1.00  0.00    -0.014 A 
BRANCH  35  36
ATOM     36  C   UNL     1      -2.542   6.803   0.691  1.00  0.00     0.031 A 
ATOM     37  C   UNL     1      -3.126   7.395  -0.519  1.00  0.00     0.074 A 
ATOM     38  C   UNL     1      -2.512   7.309   1.940  1.00  0.00     0.049 A 
ATOM     39  N   UNL     1      -2.502   8.174  -1.336  1.00  0.00    -0.248 NA
ATOM     40  C   UNL     1      -4.349   6.797  -1.079  1.00  0.00     0.031 C 
ATOM     41  C   UNL     1      -2.122   6.684   3.207  1.00  0.00     0.029 A 
ATOM     42  N   UNL     1      -2.874   8.563   2.327  1.00  0.00    -0.354 N 
ATOM     43  C   UNL     1      -3.412   8.423  -2.345  1.00  0.00     0.074 A 
ATOM     44  C   UNL     1      -4.362   7.346  -2.296  1.00  0.00     0.031 C 
ATOM     45  C   UNL     1      -2.489   7.484   4.241  1.00  0.00     0.029 A 
ATOM     46  C   UNL     1      -2.993   8.738   3.711  1.00  0.00     0.049 A 
ATOM     47  H   UNL     1      -3.039   9.290   1.684  1.00  0.00     0.167 HD
ATOM     48  C   UNL     1      -3.497   9.675  -2.865  1.00  0.00     0.037 A 
ATOM     49  C   UNL     1      -3.496   9.853   4.315  1.00  0.00     0.037 A 
ATOM     50  C   UNL     1      -2.311  10.439  -2.539  1.00  0.00     0.049 A 
ATOM     51  C   UNL     1      -3.339  10.959   3.319  1.00  0.00     0.074 A 
ATOM     52  C   UNL     1      -0.963  10.283  -2.803  1.00  0.00     0.029 A 
ATOM     53  N   UNL     1      -2.391  11.284  -1.456  1.00  0.00    -0.354 N 
ATOM     54  N   UNL     1      -2.170  11.395   2.924  1.00  0.00    -0.248 NA
ATOM     55  C   UNL     1      -4.432  11.155   2.376  1.00  0.00     0.031 C 
ATOM     56  C   UNL     1      -0.299  10.669  -1.601  1.00  0.00     0.029 A 
ATOM     57  C   UNL     1      -1.255  11.138  -0.699  1.00  0.00     0.049 A 
ATOM     58  H   UNL     1      -3.139  11.893  -1.258  1.00  0.00     0.167 HD
ATOM     59  C   UNL     1      -2.283  11.518   1.544  1.00  0.00     0.074 A 
ATOM     60  C   UNL     1      -3.715  11.377   1.269  1.00  0.00     0.031 C 
ATOM     61  C   UNL     1      -1.194  11.403   0.725  1.00  0.00     0.037 A 
BRANCH  48  62
ATOM     62  C   UNL     1      -4.803  10.320  -3.249  1.00  0.00     0.058 A 
ATOM     63  C   UNL     1      -4.769  11.574  -3.886  1.00  0.00     0.135 A 
ATOM     64  C   UNL     1      -6.076   9.903  -2.792  1.00  0.00     0.135 A 
ATOM     65  F   UNL     1      -3.612  12.073  -4.350  1.00  0.00    -0.206 F 
ATOM     66  C   UNL     1      -5.899  12.380  -4.002  1.00  0.00     0.059 A 
ATOM     67  C   UNL     1      -7.223  10.667  -2.944  1.00  0.00     0.059 A 
ATOM     68  F   UNL     1      -6.270   8.780  -2.094  1.00  0.00    -0.206 F 
ATOM     69  C   UNL     1      -7.121  11.918  -3.521  1.00  0.00     0.060 A 
BRANCH  69  70
ATOM     70  S   UNL     1      -8.568  12.978  -3.618  1.00  0.00     0.124 S 
ATOM     71  O   UNL     1      -8.191  14.071  -2.730  1.00  0.00    -0.237 OA
ATOM     72  O   UNL     1      -8.607  13.292  -5.043  1.00  0.00    -0.237 OA
ATOM     73  O   UNL     1      -9.648  12.119  -3.141  1.00  0.00    -0.744 OA
ENDBRANCH  69  70
ENDBRANCH  48  62
BRANCH  49  74
ATOM     74  C   UNL     1      -4.502   9.924   5.421  1.00  0.00     0.058 A 
ATOM     75  C   UNL     1      -4.872  11.154   6.007  1.00  0.00     0.135 A 
ATOM     76  C   UNL     1      -5.342   8.833   5.715  1.00  0.00     0.135 A 
ATOM     77  F   UNL     1      -4.142  12.256   5.776  1.00  0.00    -0.206 F 
ATOM     78  C   UNL     1      -6.034  11.303   6.783  1.00  0.00     0.059 A 
ATOM     79  C   UNL     1      -6.502   8.956   6.484  1.00  0.00     0.059 A 
ATOM     80  F   UNL     1      -5.109   7.623   5.186  1.00  0.00    -0.206 F 
ATOM     81  C   UNL     1      -6.859  10.199   6.993  1.00  0.00     0.060 A 
BRANCH  81  82
ATOM     82  S   UNL     1      -8.451  10.409   7.835  1.00  0.00     0.124 S 
ATOM     83  O   UNL     1      -8.037  10.765   9.187  1.00  0.00    -0.237 OA
ATOM     84  O   UNL     1      -9.074  11.475   7.058  1.00  0.00    -0.237 OA
ATOM     85  O   UNL     1      -9.081   9.097   7.702  1.00  0.00    -0.744 OA
ENDBRANCH  81  82
ENDBRANCH  49  74
BRANCH  61  86
ATOM     86  C   UNL     1       0.182  11.391   1.351  1.00  0.00     0.058 A 
ATOM     87  C   UNL     1       0.693  10.363   2.167  1.00  0.00     0.135 A 
ATOM     88  C   UNL     1       1.080  12.392   0.954  1.00  0.00     0.135 A 
ATOM     89  F   UNL     1      -0.072   9.319   2.516  1.00  0.00    -0.206 F 
ATOM     90  C   UNL     1       2.029  10.351   2.589  1.00  0.00     0.059 A 
ATOM     91  C   UNL     1       2.417  12.386   1.337  1.00  0.00     0.059 A 
ATOM     92  F   UNL     1       0.670  13.368   0.128  1.00  0.00    -0.206 F 
ATOM     93  C   UNL     1       2.885  11.369   2.165  1.00  0.00     0.060 A 
BRANCH  93  94
ATOM     94  S   UNL     1       4.622  11.344   2.666  1.00  0.00     0.124 S 
ATOM     95  O   UNL     1       4.530  11.553   4.107  1.00  0.00    -0.237 OA
ATOM     96  O   UNL     1       5.053  10.014   2.244  1.00  0.00    -0.237 OA
ATOM     97  O   UNL     1       5.211  12.449   1.914  1.00  0.00    -0.744 OA
ENDBRANCH  93  94
ENDBRANCH  61  86
ENDBRANCH  35  36
ENDBRANCH  28  30
ENDBRANCH  27  28
ENDBRANCH  26  27
ENDBRANCH  25  26
ENDBRANCH   1  25
TORSDOF 20
