REMARK SMILES Cc1nc(-c2ccccc2)sc1C(=O)N[C@@H](CC1=c2ccccc2=NC1)C(=O)OCCOCCOC(=O)c1ccc(-c2c3nc(c(-c4c(F)cc(S(=O)(=O)[O-])cc4F)c4ccc([nH]4)c(-c4c(F)cc(S(=O)(=O)[O-])cc4F)c4nc(c(-c5c(F)cc(S(=O)(=O)[O-])cc5F)c5ccc2[nH]5)C=C4)C=C3)cc1
REMARK SMILES IDX 32 1 31 2 30 3 29 4 27 5 28 6 16 7 15 8 13 9 14 10 12 12
REMARK SMILES IDX 1 13 2 14 3 15 4 16 11 17 5 18 6 19 10 20 7 21 9 22 8 23
REMARK SMILES IDX 17 24 18 25 19 26 26 27 20 28 24 29 25 30 21 31 23 32 22 33
REMARK SMILES IDX 33 34 34 35 35 36 36 37 37 38 38 39 39 40 103 41 40 42
REMARK SMILES IDX 102 43 41 44 42 45 43 46 96 47 44 48 101 49 95 50 97 51
REMARK SMILES IDX 45 52 100 53 94 54 93 55 46 57 80 58 59 59 79 60 60 61 63 62
REMARK SMILES IDX 78 63 98 64 61 65 62 66 77 68 99 69 64 70 47 71 48 72 57 73
REMARK SMILES IDX 49 74 50 75 56 76 58 77 51 78 52 79 53 80 54 81 55 82 81 83
REMARK SMILES IDX 82 84 91 85 83 86 84 87 90 88 92 89 85 90 86 91 87 92 88 93
REMARK SMILES IDX 89 94 65 95 66 96 75 97 67 98 68 99 74 100 76 101 69 102
REMARK SMILES IDX 70 103 71 104 72 105 73 106
REMARK H PARENT 15 11 97 56 63 67
REMARK Flexibility Score: inf
ROOT
ATOM      1  O   UNL     1      -3.775  -1.836   4.380  1.00  0.00    -0.374 OA
ENDROOT
BRANCH   1   2
ATOM      2  C   UNL     1      -4.663  -2.950   4.323  1.00  0.00     0.202 C 
BRANCH   2   3
ATOM      3  C   UNL     1      -5.304  -3.255   2.962  1.00  0.00     0.261 C 
BRANCH   3   4
ATOM      4  O   UNL     1      -4.346  -3.242   1.892  1.00  0.00    -0.462 OA
BRANCH   4   5
ATOM      5  C   UNL     1      -4.727  -2.548   0.789  1.00  0.00     0.329 C 
ATOM      6  O   UNL     1      -5.862  -2.136   0.572  1.00  0.00    -0.250 OA
BRANCH   5   7
ATOM      7  C   UNL     1      -3.570  -2.274  -0.179  1.00  0.00     0.196 C 
BRANCH   7   8
ATOM      8  N   UNL     1      -2.224  -2.652   0.235  1.00  0.00    -0.338 N 
ATOM      9  C   UNL     1      -1.003  -2.025   0.234  1.00  0.00     0.264 C 
ATOM     10  O   UNL     1      -0.085  -2.808   0.513  1.00  0.00    -0.268 OA
ATOM     11  H   UNL     1      -2.181  -3.566   0.598  1.00  0.00     0.164 HD
BRANCH   9  12
ATOM     12  C   UNL     1      -0.747  -0.598  -0.011  1.00  0.00     0.115 A 
ATOM     13  C   UNL     1      -2.859   0.860  -0.677  1.00  0.00     0.068 C 
ATOM     14  C   UNL     1      -1.443   0.569  -0.340  1.00  0.00     0.062 A 
ATOM     15  N   UNL     1      -0.685   1.731  -0.343  1.00  0.00    -0.241 NA
ATOM     16  C   UNL     1       0.574   1.497  -0.091  1.00  0.00     0.124 A 
ATOM     17  S   UNL     1       0.955  -0.134   0.170  1.00  0.00    -0.108 S 
BRANCH  16  18
ATOM     18  C   UNL     1       1.559   2.572  -0.015  1.00  0.00     0.010 A 
ATOM     19  C   UNL     1       1.415   3.551   0.980  1.00  0.00     0.011 A 
ATOM     20  C   UNL     1       2.527   2.748  -1.011  1.00  0.00     0.011 A 
ATOM     21  C   UNL     1       2.215   4.694   0.973  1.00  0.00     0.001 A 
ATOM     22  C   UNL     1       3.321   3.898  -1.021  1.00  0.00     0.001 A 
ATOM     23  C   UNL     1       3.159   4.872  -0.035  1.00  0.00     0.000 A 
ENDBRANCH  16  18
ENDBRANCH   9  12
ENDBRANCH   7   8
BRANCH   7  24
ATOM     24  C   UNL     1      -3.889  -2.813  -1.583  1.00  0.00     0.070 C 
BRANCH  24  25
ATOM     25  C   UNL     1      -4.049  -4.301  -1.610  1.00  0.00    -0.037 C 
ATOM     26  C   UNL     1      -3.107  -5.232  -1.737  1.00  0.00     0.001 A 
ATOM     27  C   UNL     1      -5.401  -4.937  -1.444  1.00  0.00     0.174 C 
ATOM     28  C   UNL     1      -1.692  -5.226  -1.920  1.00  0.00     0.010 A 
ATOM     29  C   UNL     1      -3.860  -6.482  -1.545  1.00  0.00     0.065 A 
ATOM     30  N   UNL     1      -5.143  -6.390  -1.380  1.00  0.00    -0.280 NA
ATOM     31  C   UNL     1      -1.036  -6.398  -1.892  1.00  0.00     0.001 A 
ATOM     32  C   UNL     1      -3.069  -7.728  -1.519  1.00  0.00     0.028 A 
ATOM     33  C   UNL     1      -1.737  -7.654  -1.677  1.00  0.00     0.002 A 
ENDBRANCH  24  25
ENDBRANCH   7  24
ENDBRANCH   5   7
ENDBRANCH   4   5
ENDBRANCH   3   4
ENDBRANCH   2   3
ENDBRANCH   1   2
BRANCH   1  34
ATOM     34  C   UNL     1      -2.521  -1.953   3.701  1.00  0.00     0.202 C 
BRANCH  34  35
ATOM     35  C   UNL     1      -1.619  -3.144   4.058  1.00  0.00     0.261 C 
BRANCH  35  36
ATOM     36  O   UNL     1      -2.179  -4.417   3.671  1.00  0.00    -0.460 OA
BRANCH  36  37
ATOM     37  C   UNL     1      -2.152  -5.360   4.643  1.00  0.00     0.338 C 
ATOM     38  O   UNL     1      -1.665  -5.250   5.764  1.00  0.00    -0.246 OA
BRANCH  37  39
ATOM     39  C   UNL     1      -2.935  -6.545   4.258  1.00  0.00     0.060 A 
ATOM     40  C   UNL     1      -4.149  -6.778   4.917  1.00  0.00     0.016 A 
ATOM     41  C   UNL     1      -2.397  -7.507   3.402  1.00  0.00     0.016 A 
ATOM     42  C   UNL     1      -4.811  -7.994   4.750  1.00  0.00     0.010 A 
ATOM     43  C   UNL     1      -3.059  -8.731   3.244  1.00  0.00     0.010 A 
ATOM     44  C   UNL     1      -4.249  -8.995   3.945  1.00  0.00    -0.014 A 
BRANCH  44  45
ATOM     45  C   UNL     1      -4.842 -10.357   3.950  1.00  0.00     0.031 A 
ATOM     46  C   UNL     1      -4.251 -11.418   4.840  1.00  0.00     0.074 A 
ATOM     47  C   UNL     1      -5.921 -10.636   3.197  1.00  0.00     0.049 A 
ATOM     48  N   UNL     1      -4.608 -12.668   4.990  1.00  0.00    -0.248 NA
ATOM     49  C   UNL     1      -3.107 -11.015   5.673  1.00  0.00     0.031 C 
ATOM     50  C   UNL     1      -6.607  -9.686   2.322  1.00  0.00     0.029 A 
ATOM     51  N   UNL     1      -6.628 -11.803   3.048  1.00  0.00    -0.354 N 
ATOM     52  C   UNL     1      -3.734 -13.203   5.930  1.00  0.00     0.074 A 
ATOM     53  C   UNL     1      -2.814 -12.147   6.297  1.00  0.00     0.031 C 
ATOM     54  C   UNL     1      -7.635 -10.311   1.723  1.00  0.00     0.029 A 
ATOM     55  C   UNL     1      -7.663 -11.709   2.151  1.00  0.00     0.049 A 
ATOM     56  H   UNL     1      -6.413 -12.629   3.539  1.00  0.00     0.167 HD
ATOM     57  C   UNL     1      -3.705 -14.456   6.445  1.00  0.00     0.037 A 
ATOM     58  C   UNL     1      -8.525 -12.648   1.710  1.00  0.00     0.037 A 
ATOM     59  C   UNL     1      -4.618 -15.507   6.077  1.00  0.00     0.049 A 
ATOM     60  C   UNL     1      -8.433 -14.051   2.249  1.00  0.00     0.074 A 
ATOM     61  C   UNL     1      -4.675 -16.805   6.554  1.00  0.00     0.029 A 
ATOM     62  N   UNL     1      -5.629 -15.383   5.136  1.00  0.00    -0.354 N 
ATOM     63  N   UNL     1      -7.612 -14.538   3.148  1.00  0.00    -0.248 NA
ATOM     64  C   UNL     1      -9.385 -15.034   1.711  1.00  0.00     0.031 C 
ATOM     65  C   UNL     1      -5.697 -17.478   5.872  1.00  0.00     0.029 A 
ATOM     66  C   UNL     1      -6.301 -16.587   5.000  1.00  0.00     0.049 A 
ATOM     67  H   UNL     1      -5.838 -14.560   4.637  1.00  0.00     0.167 HD
ATOM     68  C   UNL     1      -7.958 -15.877   3.297  1.00  0.00     0.074 A 
ATOM     69  C   UNL     1      -9.071 -16.122   2.402  1.00  0.00     0.031 C 
ATOM     70  C   UNL     1      -7.405 -16.818   4.102  1.00  0.00     0.037 A 
BRANCH  57  71
ATOM     71  C   UNL     1      -2.628 -14.765   7.448  1.00  0.00     0.058 A 
ATOM     72  C   UNL     1      -2.683 -14.276   8.762  1.00  0.00     0.135 A 
ATOM     73  C   UNL     1      -1.536 -15.573   7.094  1.00  0.00     0.135 A 
ATOM     74  F   UNL     1      -3.698 -13.486   9.148  1.00  0.00    -0.206 F 
ATOM     75  C   UNL     1      -1.678 -14.553   9.684  1.00  0.00     0.059 A 
ATOM     76  C   UNL     1      -0.530 -15.881   8.006  1.00  0.00     0.059 A 
ATOM     77  F   UNL     1      -1.435 -16.067   5.850  1.00  0.00    -0.206 F 
ATOM     78  C   UNL     1      -0.601 -15.351   9.293  1.00  0.00     0.060 A 
BRANCH  78  79
ATOM     79  S   UNL     1       0.706 -15.692  10.492  1.00  0.00     0.124 S 
ATOM     80  O   UNL     1       1.430 -14.425  10.499  1.00  0.00    -0.237 OA
ATOM     81  O   UNL     1      -0.049 -15.996  11.704  1.00  0.00    -0.237 OA
ATOM     82  O   UNL     1       1.420 -16.820   9.904  1.00  0.00    -0.744 OA
ENDBRANCH  78  79
ENDBRANCH  57  71
BRANCH  58  83
ATOM     83  C   UNL     1      -9.547 -12.290   0.693  1.00  0.00     0.058 A 
ATOM     84  C   UNL     1     -10.904 -12.195   1.033  1.00  0.00     0.135 A 
ATOM     85  C   UNL     1      -9.183 -12.022  -0.635  1.00  0.00     0.135 A 
ATOM     86  F   UNL     1     -11.301 -12.456   2.288  1.00  0.00    -0.206 F 
ATOM     87  C   UNL     1     -11.867 -11.850   0.090  1.00  0.00     0.059 A 
ATOM     88  C   UNL     1     -10.125 -11.653  -1.591  1.00  0.00     0.059 A 
ATOM     89  F   UNL     1      -7.896 -12.096  -1.008  1.00  0.00    -0.206 F 
ATOM     90  C   UNL     1     -11.467 -11.577  -1.219  1.00  0.00     0.060 A 
BRANCH  90  91
ATOM     91  S   UNL     1     -12.716 -11.071  -2.422  1.00  0.00     0.124 S 
ATOM     92  O   UNL     1     -13.371 -12.341  -2.716  1.00  0.00    -0.237 OA
ATOM     93  O   UNL     1     -13.505 -10.107  -1.661  1.00  0.00    -0.237 OA
ATOM     94  O   UNL     1     -11.925 -10.502  -3.509  1.00  0.00    -0.744 OA
ENDBRANCH  90  91
ENDBRANCH  58  83
BRANCH  70  95
ATOM     95  C   UNL     1      -8.005 -18.196   4.069  1.00  0.00     0.058 A 
ATOM     96  C   UNL     1      -7.769 -19.074   3.000  1.00  0.00     0.135 A 
ATOM     97  C   UNL     1      -8.784 -18.661   5.141  1.00  0.00     0.135 A 
ATOM     98  F   UNL     1      -7.036 -18.675   1.948  1.00  0.00    -0.206 F 
ATOM     99  C   UNL     1      -8.299 -20.360   2.986  1.00  0.00     0.059 A 
ATOM    100  C   UNL     1      -9.306 -19.951   5.158  1.00  0.00     0.059 A 
ATOM    101  F   UNL     1      -9.031 -17.864   6.193  1.00  0.00    -0.206 F 
ATOM    102  C   UNL     1      -9.067 -20.790   4.070  1.00  0.00     0.060 A 
BRANCH 102 103
ATOM    103  S   UNL     1      -9.723 -22.473   4.058  1.00  0.00     0.124 S 
ATOM    104  O   UNL     1     -10.848 -22.343   3.137  1.00  0.00    -0.237 OA
ATOM    105  O   UNL     1      -8.589 -23.250   3.568  1.00  0.00    -0.237 OA
ATOM    106  O   UNL     1     -10.078 -22.708   5.454  1.00  0.00    -0.744 OA
ENDBRANCH 102 103
ENDBRANCH  70  95
ENDBRANCH  44  45
ENDBRANCH  37  39
ENDBRANCH  36  37
ENDBRANCH  35  36
ENDBRANCH  34  35
ENDBRANCH   1  34
TORSDOF 22
