REMARK SMILES Nc1c(Nc2ccc(I)cc2)ncnc1Nc1ccc(C(=O)OCCOCCOC(=O)c2ccc(-c3c4nc(c(-c5c(F)cc(S(=O)(=O)[O-])cc5F)c5ccc([nH]5)c(-c5c(F)cc(S(=O)(=O)[O-])cc5F)c5nc(c(-c6c(F)cc(S(=O)(=O)[O-])cc6F)c6ccc3[nH]6)C=C5)C=C4)cc2)cc1
REMARK SMILES IDX 25 1 24 2 23 3 21 4 22 5 20 6 17 7 18 8 99 9 19 10 98 11
REMARK SMILES IDX 16 12 15 14 2 15 3 16 12 17 14 18 13 19 1 20 4 23 5 25 6 26
REMARK SMILES IDX 11 27 7 28 10 29 8 30 9 31 26 32 27 33 28 34 29 35 30 36
REMARK SMILES IDX 31 37 32 38 33 39 97 40 34 41 96 42 35 43 36 44 37 45 90 46
REMARK SMILES IDX 38 47 95 48 89 49 91 50 39 51 94 52 88 53 87 54 40 56 74 57
REMARK SMILES IDX 53 58 73 59 54 60 57 61 72 62 92 63 55 64 56 65 71 67 93 68
REMARK SMILES IDX 58 69 41 70 42 71 51 72 43 73 44 74 50 75 52 76 45 77 46 78
REMARK SMILES IDX 47 79 48 80 49 81 75 82 76 83 85 84 77 85 78 86 84 87 86 88
REMARK SMILES IDX 79 89 80 90 81 91 82 92 83 93 59 94 60 95 69 96 61 97 62 98
REMARK SMILES IDX 68 99 70 100 63 101 64 102 65 103 66 104 67 105
REMARK H PARENT 16 13 1 21 1 22 4 24 91 55 57 66
REMARK Flexibility Score: inf
ROOT
ATOM      1  C   UNL     1       4.908   0.114 -10.444  1.00  0.00     0.202 C 
ENDROOT
BRANCH   1   2
ATOM      2  C   UNL     1       3.456   0.576 -10.286  1.00  0.00     0.261 C 
BRANCH   2   3
ATOM      3  O   UNL     1       3.147   0.855  -8.913  1.00  0.00    -0.460 OA
BRANCH   3   4
ATOM      4  C   UNL     1       2.333  -0.051  -8.324  1.00  0.00     0.338 C 
ATOM      5  O   UNL     1       1.732  -0.966  -8.870  1.00  0.00    -0.246 OA
BRANCH   4   6
ATOM      6  C   UNL     1       2.385   0.093  -6.853  1.00  0.00     0.060 A 
ATOM      7  C   UNL     1       2.224   0.228  -4.061  1.00  0.00     0.040 A 
ATOM      8  C   UNL     1       2.194  -1.012  -4.707  1.00  0.00     0.027 A 
ATOM      9  C   UNL     1       2.433   1.389  -4.823  1.00  0.00     0.027 A 
ATOM     10  C   UNL     1       2.264  -1.079  -6.096  1.00  0.00     0.018 A 
ATOM     11  C   UNL     1       2.523   1.328  -6.217  1.00  0.00     0.018 A 
BRANCH   7  12
ATOM     12  N   UNL     1       1.803   0.304  -2.715  1.00  0.00    -0.338 N 
ATOM     13  H   UNL     1       2.354  -0.127  -2.023  1.00  0.00     0.168 HD
BRANCH  12  14
ATOM     14  C   UNL     1       0.614   0.976  -2.320  1.00  0.00     0.159 A 
ATOM     15  C   UNL     1       0.206   0.924  -0.983  1.00  0.00     0.118 A 
ATOM     16  C   UNL     1      -0.992   1.599  -0.704  1.00  0.00     0.159 A 
ATOM     17  N   UNL     1      -1.729   2.204  -1.654  1.00  0.00    -0.217 NA
ATOM     18  N   UNL     1      -0.096   1.623  -3.265  1.00  0.00    -0.217 NA
ATOM     19  C   UNL     1      -1.235   2.199  -2.889  1.00  0.00     0.226 A 
BRANCH  15  20
ATOM     20  N   UNL     1       0.945   0.278   0.016  1.00  0.00    -0.393 N 
ATOM     21  H   UNL     1       0.615   0.269   0.944  1.00  0.00     0.156 HD
ATOM     22  H   UNL     1       1.794  -0.167  -0.209  1.00  0.00     0.156 HD
ENDBRANCH  15  20
BRANCH  16  23
ATOM     23  N   UNL     1      -1.433   1.665   0.643  1.00  0.00    -0.338 N 
ATOM     24  H   UNL     1      -0.840   1.280   1.329  1.00  0.00     0.168 HD
BRANCH  23  25
ATOM     25  C   UNL     1      -2.641   2.232   1.086  1.00  0.00     0.040 A 
ATOM     26  C   UNL     1      -2.620   3.210   2.088  1.00  0.00     0.027 A 
ATOM     27  C   UNL     1      -3.863   1.935   0.468  1.00  0.00     0.027 A 
ATOM     28  C   UNL     1      -3.787   3.889   2.450  1.00  0.00     0.017 A 
ATOM     29  C   UNL     1      -5.037   2.601   0.832  1.00  0.00     0.017 A 
ATOM     30  C   UNL     1      -4.991   3.584   1.817  1.00  0.00     0.013 A 
ATOM     31  I   UNL     1      -6.718   4.623   2.322  1.00  0.00    -0.044 I 
ENDBRANCH  23  25
ENDBRANCH  16  23
ENDBRANCH  12  14
ENDBRANCH   7  12
ENDBRANCH   4   6
ENDBRANCH   3   4
ENDBRANCH   2   3
ENDBRANCH   1   2
BRANCH   1  32
ATOM     32  O   UNL     1       5.272  -1.087  -9.762  1.00  0.00    -0.374 OA
BRANCH  32  33
ATOM     33  C   UNL     1       5.587  -0.978  -8.372  1.00  0.00     0.202 C 
BRANCH  33  34
ATOM     34  C   UNL     1       6.969  -0.418  -8.017  1.00  0.00     0.261 C 
BRANCH  34  35
ATOM     35  O   UNL     1       7.084   0.975  -8.354  1.00  0.00    -0.460 OA
BRANCH  35  36
ATOM     36  C   UNL     1       7.927   1.240  -9.378  1.00  0.00     0.338 C 
ATOM     37  O   UNL     1       8.653   0.446  -9.961  1.00  0.00    -0.246 OA
BRANCH  36  38
ATOM     38  C   UNL     1       7.725   2.620  -9.853  1.00  0.00     0.060 A 
ATOM     39  C   UNL     1       7.460   2.799 -11.218  1.00  0.00     0.016 A 
ATOM     40  C   UNL     1       7.872   3.720  -9.006  1.00  0.00     0.016 A 
ATOM     41  C   UNL     1       7.405   4.082 -11.755  1.00  0.00     0.010 A 
ATOM     42  C   UNL     1       7.833   5.008  -9.550  1.00  0.00     0.010 A 
ATOM     43  C   UNL     1       7.644   5.190 -10.932  1.00  0.00    -0.014 A 
BRANCH  43  44
ATOM     44  C   UNL     1       7.899   6.512 -11.551  1.00  0.00     0.031 A 
ATOM     45  C   UNL     1       9.327   6.928 -11.784  1.00  0.00     0.074 A 
ATOM     46  C   UNL     1       6.887   7.306 -11.940  1.00  0.00     0.049 A 
ATOM     47  N   UNL     1       9.798   8.055 -12.248  1.00  0.00    -0.248 NA
ATOM     48  C   UNL     1      10.362   5.934 -11.450  1.00  0.00     0.031 C 
ATOM     49  C   UNL     1       5.466   6.978 -11.833  1.00  0.00     0.029 A 
ATOM     50  N   UNL     1       6.904   8.555 -12.507  1.00  0.00    -0.354 N 
ATOM     51  C   UNL     1      11.180   7.909 -12.262  1.00  0.00     0.074 A 
ATOM     52  C   UNL     1      11.475   6.595 -11.734  1.00  0.00     0.031 C 
ATOM     53  C   UNL     1       4.746   8.008 -12.313  1.00  0.00     0.029 A 
ATOM     54  C   UNL     1       5.653   9.078 -12.725  1.00  0.00     0.049 A 
ATOM     55  H   UNL     1       7.735   9.032 -12.735  1.00  0.00     0.167 HD
ATOM     56  C   UNL     1      12.118   8.788 -12.687  1.00  0.00     0.037 A 
ATOM     57  C   UNL     1       5.286  10.291 -13.183  1.00  0.00     0.037 A 
ATOM     58  C   UNL     1      11.820  10.096 -13.206  1.00  0.00     0.049 A 
ATOM     59  C   UNL     1       6.350  11.291 -13.553  1.00  0.00     0.074 A 
ATOM     60  C   UNL     1      12.698  11.068 -13.650  1.00  0.00     0.029 A 
ATOM     61  N   UNL     1      10.542  10.617 -13.348  1.00  0.00    -0.354 N 
ATOM     62  N   UNL     1       7.655  11.153 -13.538  1.00  0.00    -0.248 NA
ATOM     63  C   UNL     1       5.892  12.616 -13.994  1.00  0.00     0.031 C 
ATOM     64  C   UNL     1      11.953  12.193 -14.021  1.00  0.00     0.029 A 
ATOM     65  C   UNL     1      10.608  11.905 -13.851  1.00  0.00     0.049 A 
ATOM     66  H   UNL     1       9.710  10.141 -13.124  1.00  0.00     0.167 HD
ATOM     67  C   UNL     1       8.173  12.367 -13.977  1.00  0.00     0.074 A 
ATOM     68  C   UNL     1       7.039  13.220 -14.271  1.00  0.00     0.031 C 
ATOM     69  C   UNL     1       9.468  12.745 -14.123  1.00  0.00     0.037 A 
BRANCH  56  70
ATOM     70  C   UNL     1      13.558   8.368 -12.585  1.00  0.00     0.058 A 
ATOM     71  C   UNL     1      14.109   7.412 -13.453  1.00  0.00     0.135 A 
ATOM     72  C   UNL     1      14.404   8.950 -11.628  1.00  0.00     0.135 A 
ATOM     73  F   UNL     1      13.338   6.808 -14.371  1.00  0.00    -0.206 F 
ATOM     74  C   UNL     1      15.445   7.036 -13.365  1.00  0.00     0.059 A 
ATOM     75  C   UNL     1      15.750   8.606 -11.537  1.00  0.00     0.059 A 
ATOM     76  F   UNL     1      13.925   9.863 -10.768  1.00  0.00    -0.206 F 
ATOM     77  C   UNL     1      16.259   7.640 -12.404  1.00  0.00     0.060 A 
BRANCH  77  78
ATOM     78  S   UNL     1      17.993   7.149 -12.313  1.00  0.00     0.124 S 
ATOM     79  O   UNL     1      17.886   5.797 -11.773  1.00  0.00    -0.237 OA
ATOM     80  O   UNL     1      18.417   7.244 -13.706  1.00  0.00    -0.237 OA
ATOM     81  O   UNL     1      18.581   8.137 -11.413  1.00  0.00    -0.744 OA
ENDBRANCH  77  78
ENDBRANCH  56  70
BRANCH  57  82
ATOM     82  C   UNL     1       3.844  10.636 -13.300  1.00  0.00     0.058 A 
ATOM     83  C   UNL     1       3.238  10.790 -14.555  1.00  0.00     0.135 A 
ATOM     84  C   UNL     1       3.044  10.815 -12.161  1.00  0.00     0.135 A 
ATOM     85  F   UNL     1       3.965  10.646 -15.673  1.00  0.00    -0.206 F 
ATOM     86  C   UNL     1       1.890  11.112 -14.678  1.00  0.00     0.059 A 
ATOM     87  C   UNL     1       1.688  11.113 -12.258  1.00  0.00     0.059 A 
ATOM     88  F   UNL     1       3.576  10.675 -10.936  1.00  0.00    -0.206 F 
ATOM     89  C   UNL     1       1.122  11.265 -13.523  1.00  0.00     0.060 A 
BRANCH  89  90
ATOM     90  S   UNL     1      -0.640  11.621 -13.697  1.00  0.00     0.124 S 
ATOM     91  O   UNL     1      -0.617  12.998 -14.177  1.00  0.00    -0.237 OA
ATOM     92  O   UNL     1      -1.060  10.614 -14.666  1.00  0.00    -0.237 OA
ATOM     93  O   UNL     1      -1.157  11.433 -12.345  1.00  0.00    -0.744 OA
ENDBRANCH  89  90
ENDBRANCH  57  82
BRANCH  69  94
ATOM     94  C   UNL     1       9.727  14.139 -14.624  1.00  0.00     0.058 A 
ATOM     95  C   UNL     1       9.515  15.262 -13.808  1.00  0.00     0.135 A 
ATOM     96  C   UNL     1      10.229  14.354 -15.918  1.00  0.00     0.135 A 
ATOM     97  F   UNL     1       9.033  15.112 -12.565  1.00  0.00    -0.206 F 
ATOM     98  C   UNL     1       9.763  16.551 -14.268  1.00  0.00     0.059 A 
ATOM     99  C   UNL     1      10.510  15.633 -16.389  1.00  0.00     0.059 A 
ATOM    100  F   UNL     1      10.463  13.314 -16.734  1.00  0.00    -0.206 F 
ATOM    101  C   UNL     1      10.259  16.726 -15.562  1.00  0.00     0.060 A 
BRANCH 101 102
ATOM    102  S   UNL     1      10.586  18.405 -16.141  1.00  0.00     0.124 S 
ATOM    103  O   UNL     1       9.234  18.913 -16.349  1.00  0.00    -0.237 OA
ATOM    104  O   UNL     1      11.316  18.986 -15.018  1.00  0.00    -0.237 OA
ATOM    105  O   UNL     1      11.373  18.199 -17.353  1.00  0.00    -0.744 OA
ENDBRANCH 101 102
ENDBRANCH  69  94
ENDBRANCH  43  44
ENDBRANCH  36  38
ENDBRANCH  35  36
ENDBRANCH  34  35
ENDBRANCH  33  34
ENDBRANCH  32  33
ENDBRANCH   1  32
TORSDOF 22
