REMARK SMILES Cc1c(CC(=O)OCCOCCOC(=O)c2ccc(-c3c4nc(c(-c5c(F)cc(S(=O)(=O)[O-])cc5F)c5ccc([nH]5)c(-c5c(F)cc(S(=O)(=O)[O-])cc5F)c5nc(c(-c6c(F)cc(S(=O)(=O)[O-])cc6F)c6ccc3[nH]6)C=C5)C=C4)cc2)cccc1-c1ccn(C(F)F)c(=O)c1
REMARK SMILES IDX 10 1 9 2 8 3 7 4 5 5 6 6 4 7 3 8 1 9 2 10 85 11 82 12 84 13
REMARK SMILES IDX 83 14 86 15 87 16 95 17 88 18 93 19 89 20 94 21 90 22 91 23
REMARK SMILES IDX 92 24 11 25 12 26 13 27 14 28 15 29 16 30 17 31 81 32 18 33
REMARK SMILES IDX 80 34 19 35 20 36 21 37 74 38 22 39 79 40 73 41 75 42 23 43
REMARK SMILES IDX 78 44 72 45 71 46 24 48 58 49 37 50 57 51 38 52 41 53 56 54
REMARK SMILES IDX 76 55 39 56 40 57 55 59 77 60 42 61 25 62 26 63 35 64 27 65
REMARK SMILES IDX 28 66 34 67 36 68 29 69 30 70 31 71 32 72 33 73 59 74 60 75
REMARK SMILES IDX 69 76 61 77 62 78 68 79 70 80 63 81 64 82 65 83 66 84 67 85
REMARK SMILES IDX 43 86 44 87 53 88 45 89 46 90 52 91 54 92 47 93 48 94 49 95
REMARK SMILES IDX 50 96 51 97
REMARK H PARENT 75 47 41 58
REMARK Flexibility Score: inf
ROOT
ATOM      1  O   UNL     1      -3.023  -4.032   0.942  1.00  0.00    -0.374 OA
ENDROOT
BRANCH   1   2
ATOM      2  C   UNL     1      -1.951  -4.929   1.218  1.00  0.00     0.202 C 
BRANCH   2   3
ATOM      3  C   UNL     1      -0.526  -4.392   1.327  1.00  0.00     0.261 C 
BRANCH   3   4
ATOM      4  O   UNL     1      -0.210  -3.391   0.359  1.00  0.00    -0.463 OA
BRANCH   4   5
ATOM      5  C   UNL     1       0.844  -3.585  -0.459  1.00  0.00     0.310 C 
ATOM      6  O   UNL     1       1.411  -4.660  -0.626  1.00  0.00    -0.252 OA
BRANCH   5   7
ATOM      7  C   UNL     1       1.222  -2.333  -1.225  1.00  0.00     0.158 C 
BRANCH   7   8
ATOM      8  C   UNL     1       0.507  -1.029  -0.877  1.00  0.00    -0.033 A 
ATOM      9  C   UNL     1       2.666   0.066  -0.122  1.00  0.00     0.045 C 
ATOM     10  C   UNL     1       1.185   0.127  -0.411  1.00  0.00    -0.039 A 
ATOM     11  C   UNL     1       0.463   1.341  -0.241  1.00  0.00    -0.015 A 
ATOM     12  C   UNL     1      -0.880  -0.953  -1.102  1.00  0.00     0.004 A 
ATOM     13  C   UNL     1      -0.929   1.353  -0.403  1.00  0.00     0.009 A 
ATOM     14  C   UNL     1      -1.597   0.208  -0.822  1.00  0.00     0.001 A 
BRANCH  11  15
ATOM     15  C   UNL     1       1.158   2.642  -0.069  1.00  0.00    -0.011 A 
ATOM     16  C   UNL     1       2.020   3.146  -1.125  1.00  0.00     0.027 A 
ATOM     17  C   UNL     1       0.997   3.381   1.043  1.00  0.00     0.080 A 
ATOM     18  C   UNL     1       2.737   4.258  -0.953  1.00  0.00     0.095 A 
ATOM     19  C   UNL     1       1.782   4.637   1.244  1.00  0.00     0.255 A 
ATOM     20  N   UNL     1       2.652   4.981   0.219  1.00  0.00    -0.258 N 
ATOM     21  O   UNL     1       1.634   5.281   2.278  1.00  0.00    -0.269 OA
BRANCH  20  22
ATOM     22  C   UNL     1       3.484   6.136   0.419  1.00  0.00     0.451 C 
ATOM     23  F   UNL     1       2.748   7.263   0.574  1.00  0.00    -0.185 F 
ATOM     24  F   UNL     1       4.277   5.997   1.509  1.00  0.00    -0.185 F 
ENDBRANCH  20  22
ENDBRANCH  11  15
ENDBRANCH   7   8
ENDBRANCH   5   7
ENDBRANCH   4   5
ENDBRANCH   3   4
ENDBRANCH   2   3
ENDBRANCH   1   2
BRANCH   1  25
ATOM     25  C   UNL     1      -2.916  -2.684   1.397  1.00  0.00     0.202 C 
BRANCH  25  26
ATOM     26  C   UNL     1      -3.132  -2.403   2.887  1.00  0.00     0.261 C 
BRANCH  26  27
ATOM     27  O   UNL     1      -2.266  -3.169   3.727  1.00  0.00    -0.460 OA
BRANCH  27  28
ATOM     28  C   UNL     1      -2.796  -3.672   4.877  1.00  0.00     0.338 C 
ATOM     29  O   UNL     1      -3.946  -3.637   5.279  1.00  0.00    -0.246 OA
BRANCH  28  30
ATOM     30  C   UNL     1      -1.752  -4.586   5.374  1.00  0.00     0.060 A 
ATOM     31  C   UNL     1      -0.577  -4.056   5.903  1.00  0.00     0.016 A 
ATOM     32  C   UNL     1      -1.764  -5.844   4.777  1.00  0.00     0.016 A 
ATOM     33  C   UNL     1       0.629  -4.628   5.523  1.00  0.00     0.010 A 
ATOM     34  C   UNL     1      -0.558  -6.375   4.361  1.00  0.00     0.010 A 
ATOM     35  C   UNL     1       0.612  -5.635   4.556  1.00  0.00    -0.014 A 
BRANCH  35  36
ATOM     36  C   UNL     1       1.686  -5.736   3.550  1.00  0.00     0.031 A 
ATOM     37  C   UNL     1       2.124  -7.071   3.133  1.00  0.00     0.074 A 
ATOM     38  C   UNL     1       2.234  -4.657   2.939  1.00  0.00     0.049 A 
ATOM     39  N   UNL     1       3.088  -7.737   3.673  1.00  0.00    -0.248 NA
ATOM     40  C   UNL     1       1.399  -7.779   2.075  1.00  0.00     0.031 C 
ATOM     41  C   UNL     1       3.340  -4.657   1.986  1.00  0.00     0.029 A 
ATOM     42  N   UNL     1       1.989  -3.300   3.141  1.00  0.00    -0.354 N 
ATOM     43  C   UNL     1       3.267  -8.824   2.841  1.00  0.00     0.074 A 
ATOM     44  C   UNL     1       2.057  -8.938   2.046  1.00  0.00     0.031 C 
ATOM     45  C   UNL     1       3.887  -3.426   1.980  1.00  0.00     0.029 A 
ATOM     46  C   UNL     1       3.176  -2.599   2.949  1.00  0.00     0.049 A 
ATOM     47  H   UNL     1       1.121  -2.903   3.380  1.00  0.00     0.167 HD
ATOM     48  C   UNL     1       4.502  -9.223   2.418  1.00  0.00     0.037 A 
ATOM     49  C   UNL     1       3.749  -1.883   3.960  1.00  0.00     0.037 A 
ATOM     50  C   UNL     1       5.452  -8.116   2.531  1.00  0.00     0.049 A 
ATOM     51  C   UNL     1       4.933  -2.631   4.540  1.00  0.00     0.074 A 
ATOM     52  C   UNL     1       5.928  -7.239   1.569  1.00  0.00     0.029 A 
ATOM     53  N   UNL     1       5.764  -7.548   3.763  1.00  0.00    -0.354 N 
ATOM     54  N   UNL     1       5.214  -3.869   4.224  1.00  0.00    -0.248 NA
ATOM     55  C   UNL     1       5.906  -2.076   5.478  1.00  0.00     0.031 C 
ATOM     56  C   UNL     1       6.484  -6.115   2.227  1.00  0.00     0.029 A 
ATOM     57  C   UNL     1       6.365  -6.310   3.592  1.00  0.00     0.049 A 
ATOM     58  H   UNL     1       5.583  -7.967   4.635  1.00  0.00     0.167 HD
ATOM     59  C   UNL     1       6.343  -4.282   4.877  1.00  0.00     0.074 A 
ATOM     60  C   UNL     1       6.747  -3.115   5.642  1.00  0.00     0.031 C 
ATOM     61  C   UNL     1       6.853  -5.542   4.731  1.00  0.00     0.037 A 
BRANCH  48  62
ATOM     62  C   UNL     1       4.657 -10.420   1.497  1.00  0.00     0.058 A 
ATOM     63  C   UNL     1       5.723 -10.551   0.589  1.00  0.00     0.135 A 
ATOM     64  C   UNL     1       3.758 -11.515   1.527  1.00  0.00     0.135 A 
ATOM     65  F   UNL     1       6.705  -9.642   0.528  1.00  0.00    -0.206 F 
ATOM     66  C   UNL     1       5.835 -11.631  -0.291  1.00  0.00     0.059 A 
ATOM     67  C   UNL     1       3.825 -12.584   0.630  1.00  0.00     0.059 A 
ATOM     68  F   UNL     1       2.773 -11.575   2.439  1.00  0.00    -0.206 F 
ATOM     69  C   UNL     1       4.871 -12.634  -0.279  1.00  0.00     0.060 A 
BRANCH  69  70
ATOM     70  S   UNL     1       5.023 -14.006  -1.440  1.00  0.00     0.124 S 
ATOM     71  O   UNL     1       5.157 -13.317  -2.720  1.00  0.00    -0.237 OA
ATOM     72  O   UNL     1       6.221 -14.681  -0.952  1.00  0.00    -0.237 OA
ATOM     73  O   UNL     1       3.774 -14.742  -1.262  1.00  0.00    -0.744 OA
ENDBRANCH  69  70
ENDBRANCH  48  62
BRANCH  49  74
ATOM     74  C   UNL     1       2.804  -0.930   4.617  1.00  0.00     0.058 A 
ATOM     75  C   UNL     1       2.371   0.143   3.812  1.00  0.00     0.135 A 
ATOM     76  C   UNL     1       2.003  -1.241   5.722  1.00  0.00     0.135 A 
ATOM     77  F   UNL     1       3.140   0.557   2.794  1.00  0.00    -0.206 F 
ATOM     78  C   UNL     1       1.113   0.719   3.953  1.00  0.00     0.059 A 
ATOM     79  C   UNL     1       0.736  -0.660   5.893  1.00  0.00     0.059 A 
ATOM     80  F   UNL     1       2.378  -2.202   6.577  1.00  0.00    -0.206 F 
ATOM     81  C   UNL     1       0.273   0.270   4.961  1.00  0.00     0.060 A 
BRANCH  81  82
ATOM     82  S   UNL     1      -1.477   0.744   4.928  1.00  0.00     0.124 S 
ATOM     83  O   UNL     1      -1.491   1.910   5.802  1.00  0.00    -0.237 OA
ATOM     84  O   UNL     1      -1.718   1.010   3.512  1.00  0.00    -0.237 OA
ATOM     85  O   UNL     1      -2.131  -0.452   5.449  1.00  0.00    -0.744 OA
ENDBRANCH  81  82
ENDBRANCH  49  74
BRANCH  61  86
ATOM     86  C   UNL     1       7.950  -6.141   5.574  1.00  0.00     0.058 A 
ATOM     87  C   UNL     1       8.145  -5.829   6.928  1.00  0.00     0.135 A 
ATOM     88  C   UNL     1       8.758  -7.187   5.061  1.00  0.00     0.135 A 
ATOM     89  F   UNL     1       7.371  -4.931   7.553  1.00  0.00    -0.206 F 
ATOM     90  C   UNL     1       9.117  -6.460   7.704  1.00  0.00     0.059 A 
ATOM     91  C   UNL     1       9.689  -7.872   5.834  1.00  0.00     0.059 A 
ATOM     92  F   UNL     1       8.659  -7.589   3.784  1.00  0.00    -0.206 F 
ATOM     93  C   UNL     1       9.884  -7.481   7.149  1.00  0.00     0.060 A 
BRANCH  93  94
ATOM     94  S   UNL     1      11.110  -8.324   8.162  1.00  0.00     0.124 S 
ATOM     95  O   UNL     1      12.271  -7.458   7.989  1.00  0.00    -0.237 OA
ATOM     96  O   UNL     1      10.499  -8.304   9.488  1.00  0.00    -0.237 OA
ATOM     97  O   UNL     1      11.206  -9.643   7.545  1.00  0.00    -0.744 OA
ENDBRANCH  93  94
ENDBRANCH  61  86
ENDBRANCH  35  36
ENDBRANCH  28  30
ENDBRANCH  27  28
ENDBRANCH  26  27
ENDBRANCH  25  26
ENDBRANCH   1  25
TORSDOF 20
