REMARK SMILES O=C(OCCOCCOC(=O)[C@@H]1CCCC[C@H]1C(=O)Nc1ccc(NC(=O)c2ccco2)cc1)c1ccc(-c2c3nc(c(-c4c(F)cc(S(=O)(=O)[O-])cc4F)c4ccc([nH]4)c(-c4c(F)cc(S(=O)(=O)[O-])cc4F)c4nc(c(-c5c(F)cc(S(=O)(=O)[O-])cc5F)c5ccc2[nH]5)C=C4)C=C3)cc1
REMARK SMILES IDX 7 1 6 2 5 3 4 4 3 5 2 6 1 7 35 8 36 9 100 10 37 11 99 12
REMARK SMILES IDX 38 13 39 14 40 15 93 16 41 17 98 18 92 19 94 20 42 21 97 22
REMARK SMILES IDX 91 23 90 24 43 26 77 27 56 28 76 29 57 30 60 31 75 32 95 33
REMARK SMILES IDX 58 34 59 35 74 37 96 38 61 39 44 40 45 41 54 42 46 43 47 44
REMARK SMILES IDX 53 45 55 46 48 47 49 48 50 49 51 50 52 51 78 52 79 53 88 54
REMARK SMILES IDX 80 55 81 56 87 57 89 58 82 59 83 60 84 61 85 62 86 63 62 64
REMARK SMILES IDX 63 65 72 66 64 67 65 68 71 69 73 70 66 71 67 72 68 73 69 74
REMARK SMILES IDX 70 75 8 76 9 77 10 78 11 79 12 80 13 81 17 82 14 83 16 84
REMARK SMILES IDX 15 85 18 86 19 87 20 88 21 90 22 91 34 92 23 93 33 94 24 95
REMARK SMILES IDX 25 96 26 97 27 99 28 100 29 101 32 102 30 103 31 104
REMARK H PARENT 94 25 60 36 20 89 25 98
REMARK Flexibility Score: inf
ROOT
ATOM      1  C   UNL     1       2.488  -1.137  -1.821  1.00  0.00     0.202 C 
ENDROOT
BRANCH   1   2
ATOM      2  O   UNL     1       3.824  -0.649  -1.675  1.00  0.00    -0.374 OA
BRANCH   2   3
ATOM      3  C   UNL     1       4.468  -1.013  -0.455  1.00  0.00     0.202 C 
BRANCH   3   4
ATOM      4  C   UNL     1       4.220  -0.103   0.760  1.00  0.00     0.261 C 
BRANCH   4   5
ATOM      5  O   UNL     1       2.816   0.138   0.963  1.00  0.00    -0.460 OA
BRANCH   5   6
ATOM      6  C   UNL     1       2.085   1.194   0.533  1.00  0.00     0.338 C 
ATOM      7  O   UNL     1       0.884   1.239   0.792  1.00  0.00    -0.246 OA
BRANCH   6   8
ATOM      8  C   UNL     1       2.691   2.333  -0.214  1.00  0.00     0.060 A 
ATOM      9  C   UNL     1       3.815   2.221  -1.029  1.00  0.00     0.016 A 
ATOM     10  C   UNL     1       2.063   3.584  -0.125  1.00  0.00     0.016 A 
ATOM     11  C   UNL     1       4.374   3.307  -1.658  1.00  0.00     0.010 A 
ATOM     12  C   UNL     1       2.590   4.690  -0.799  1.00  0.00     0.010 A 
ATOM     13  C   UNL     1       3.762   4.545  -1.546  1.00  0.00    -0.014 A 
BRANCH  13  14
ATOM     14  C   UNL     1       4.497   5.668  -2.130  1.00  0.00     0.031 A 
ATOM     15  C   UNL     1       5.296   6.527  -1.207  1.00  0.00     0.074 A 
ATOM     16  C   UNL     1       4.610   5.740  -3.467  1.00  0.00     0.049 A 
ATOM     17  N   UNL     1       5.983   7.599  -1.473  1.00  0.00    -0.248 NA
ATOM     18  C   UNL     1       5.345   6.109   0.206  1.00  0.00     0.031 C 
ATOM     19  C   UNL     1       4.012   4.790  -4.414  1.00  0.00     0.029 A 
ATOM     20  N   UNL     1       5.306   6.606  -4.259  1.00  0.00    -0.354 N 
ATOM     21  C   UNL     1       6.497   8.020  -0.254  1.00  0.00     0.074 A 
ATOM     22  C   UNL     1       6.078   7.068   0.748  1.00  0.00     0.031 C 
ATOM     23  C   UNL     1       4.394   5.113  -5.658  1.00  0.00     0.029 A 
ATOM     24  C   UNL     1       5.180   6.339  -5.601  1.00  0.00     0.049 A 
ATOM     25  H   UNL     1       5.845   7.349  -3.904  1.00  0.00     0.167 HD
ATOM     26  C   UNL     1       7.224   9.133  -0.011  1.00  0.00     0.037 A 
ATOM     27  C   UNL     1       5.612   7.049  -6.657  1.00  0.00     0.037 A 
ATOM     28  C   UNL     1       7.604  10.043  -1.054  1.00  0.00     0.049 A 
ATOM     29  C   UNL     1       6.352   8.324  -6.366  1.00  0.00     0.074 A 
ATOM     30  C   UNL     1       8.217  11.276  -0.958  1.00  0.00     0.029 A 
ATOM     31  N   UNL     1       7.399   9.796  -2.409  1.00  0.00    -0.354 N 
ATOM     32  N   UNL     1       6.701   8.817  -5.199  1.00  0.00    -0.248 NA
ATOM     33  C   UNL     1       6.725   9.156  -7.512  1.00  0.00     0.031 C 
ATOM     34  C   UNL     1       8.359  11.785  -2.255  1.00  0.00     0.029 A 
ATOM     35  C   UNL     1       7.870  10.854  -3.162  1.00  0.00     0.049 A 
ATOM     36  H   UNL     1       6.980   8.985  -2.777  1.00  0.00     0.167 HD
ATOM     37  C   UNL     1       7.330  10.024  -5.465  1.00  0.00     0.074 A 
ATOM     38  C   UNL     1       7.332  10.172  -6.911  1.00  0.00     0.031 C 
ATOM     39  C   UNL     1       7.847  10.935  -4.603  1.00  0.00     0.037 A 
BRANCH  26  40
ATOM     40  C   UNL     1       7.513   9.445   1.428  1.00  0.00     0.058 A 
ATOM     41  C   UNL     1       8.468   8.734   2.173  1.00  0.00     0.135 A 
ATOM     42  C   UNL     1       6.740  10.405   2.100  1.00  0.00     0.135 A 
ATOM     43  F   UNL     1       9.204   7.776   1.589  1.00  0.00    -0.206 F 
ATOM     44  C   UNL     1       8.617   8.937   3.543  1.00  0.00     0.059 A 
ATOM     45  C   UNL     1       6.885  10.637   3.464  1.00  0.00     0.059 A 
ATOM     46  F   UNL     1       5.799  11.098   1.439  1.00  0.00    -0.206 F 
ATOM     47  C   UNL     1       7.809   9.880   4.182  1.00  0.00     0.060 A 
BRANCH  47  48
ATOM     48  S   UNL     1       7.955  10.085   5.971  1.00  0.00     0.124 S 
ATOM     49  O   UNL     1       7.230   8.916   6.457  1.00  0.00    -0.237 OA
ATOM     50  O   UNL     1       9.400  10.063   6.175  1.00  0.00    -0.237 OA
ATOM     51  O   UNL     1       7.311  11.371   6.217  1.00  0.00    -0.744 OA
ENDBRANCH  47  48
ENDBRANCH  26  40
BRANCH  27  52
ATOM     52  C   UNL     1       5.273   6.606  -8.035  1.00  0.00     0.058 A 
ATOM     53  C   UNL     1       6.253   6.135  -8.919  1.00  0.00     0.135 A 
ATOM     54  C   UNL     1       3.937   6.574  -8.472  1.00  0.00     0.135 A 
ATOM     55  F   UNL     1       7.545   6.148  -8.556  1.00  0.00    -0.206 F 
ATOM     56  C   UNL     1       5.922   5.638 -10.178  1.00  0.00     0.059 A 
ATOM     57  C   UNL     1       3.578   6.060  -9.713  1.00  0.00     0.059 A 
ATOM     58  F   UNL     1       2.955   7.003  -7.662  1.00  0.00    -0.206 F 
ATOM     59  C   UNL     1       4.580   5.596 -10.563  1.00  0.00     0.060 A 
BRANCH  59  60
ATOM     60  S   UNL     1       4.145   4.871 -12.160  1.00  0.00     0.124 S 
ATOM     61  O   UNL     1       4.499   5.948 -13.077  1.00  0.00    -0.237 OA
ATOM     62  O   UNL     1       4.998   3.687 -12.206  1.00  0.00    -0.237 OA
ATOM     63  O   UNL     1       2.717   4.598 -12.025  1.00  0.00    -0.744 OA
ENDBRANCH  59  60
ENDBRANCH  27  52
BRANCH  39  64
ATOM     64  C   UNL     1       8.469  12.152  -5.211  1.00  0.00     0.058 A 
ATOM     65  C   UNL     1       7.682  13.225  -5.651  1.00  0.00     0.135 A 
ATOM     66  C   UNL     1       9.864  12.275  -5.266  1.00  0.00     0.135 A 
ATOM     67  F   UNL     1       6.343  13.142  -5.619  1.00  0.00    -0.206 F 
ATOM     68  C   UNL     1       8.264  14.390  -6.132  1.00  0.00     0.059 A 
ATOM     69  C   UNL     1      10.467  13.437  -5.728  1.00  0.00     0.059 A 
ATOM     70  F   UNL     1      10.650  11.271  -4.846  1.00  0.00    -0.206 F 
ATOM     71  C   UNL     1       9.658  14.488  -6.162  1.00  0.00     0.060 A 
BRANCH  71  72
ATOM     72  S   UNL     1      10.406  16.030  -6.723  1.00  0.00     0.124 S 
ATOM     73  O   UNL     1      10.283  15.904  -8.171  1.00  0.00    -0.237 OA
ATOM     74  O   UNL     1       9.555  17.039  -6.099  1.00  0.00    -0.237 OA
ATOM     75  O   UNL     1      11.765  15.955  -6.197  1.00  0.00    -0.744 OA
ENDBRANCH  71  72
ENDBRANCH  39  64
ENDBRANCH  13  14
ENDBRANCH   6   8
ENDBRANCH   5   6
ENDBRANCH   4   5
ENDBRANCH   3   4
ENDBRANCH   2   3
ENDBRANCH   1   2
BRANCH   1  76
ATOM     76  C   UNL     1       2.454  -2.398  -2.680  1.00  0.00     0.261 C 
BRANCH  76  77
ATOM     77  O   UNL     1       2.912  -3.534  -1.919  1.00  0.00    -0.463 OA
BRANCH  77  78
ATOM     78  C   UNL     1       4.226  -3.847  -2.041  1.00  0.00     0.309 C 
ATOM     79  O   UNL     1       5.026  -3.298  -2.787  1.00  0.00    -0.252 OA
BRANCH  78  80
ATOM     80  C   UNL     1       4.610  -5.026  -1.171  1.00  0.00     0.111 C 
ATOM     81  C   UNL     1       4.123  -6.302  -1.868  1.00  0.00     0.016 C 
ATOM     82  C   UNL     1       4.147  -4.946   0.292  1.00  0.00     0.093 C 
ATOM     83  C   UNL     1       4.555  -7.535  -1.084  1.00  0.00     0.001 C 
ATOM     84  C   UNL     1       4.500  -6.226   1.064  1.00  0.00     0.014 C 
ATOM     85  C   UNL     1       4.023  -7.480   0.341  1.00  0.00     0.001 C 
BRANCH  82  86
ATOM     86  C   UNL     1       4.495  -3.760   1.203  1.00  0.00     0.228 C 
ATOM     87  O   UNL     1       3.563  -3.213   1.814  1.00  0.00    -0.274 OA
ATOM     88  N   UNL     1       5.735  -3.329   1.559  1.00  0.00    -0.326 N 
ATOM     89  H   UNL     1       5.719  -2.645   2.267  1.00  0.00     0.169 HD
BRANCH  88  90
ATOM     90  C   UNL     1       7.024  -3.648   1.136  1.00  0.00     0.041 A 
ATOM     91  C   UNL     1       8.007  -3.774   2.111  1.00  0.00     0.028 A 
ATOM     92  C   UNL     1       7.398  -3.792  -0.188  1.00  0.00     0.028 A 
ATOM     93  C   UNL     1       9.248  -4.324   1.783  1.00  0.00     0.028 A 
ATOM     94  C   UNL     1       8.617  -4.391  -0.515  1.00  0.00     0.028 A 
ATOM     95  C   UNL     1       9.500  -4.776   0.491  1.00  0.00     0.041 A 
BRANCH  95  96
ATOM     96  N   UNL     1      10.557  -5.625   0.120  1.00  0.00    -0.319 N 
ATOM     97  C   UNL     1      11.420  -6.418   0.852  1.00  0.00     0.291 C 
ATOM     98  H   UNL     1      10.713  -5.661  -0.851  1.00  0.00     0.170 HD
ATOM     99  O   UNL     1      12.239  -7.090   0.217  1.00  0.00    -0.265 OA
BRANCH  97 100
ATOM    100  C   UNL     1      11.323  -6.482   2.289  1.00  0.00     0.191 A 
ATOM    101  C   UNL     1      10.356  -6.979   3.149  1.00  0.00     0.056 A 
ATOM    102  O   UNL     1      12.347  -5.946   3.020  1.00  0.00    -0.459 OA
ATOM    103  C   UNL     1      10.790  -6.672   4.464  1.00  0.00     0.043 A 
ATOM    104  C   UNL     1      12.009  -6.051   4.329  1.00  0.00     0.196 A 
ENDBRANCH  97 100
ENDBRANCH  95  96
ENDBRANCH  88  90
ENDBRANCH  82  86
ENDBRANCH  78  80
ENDBRANCH  77  78
ENDBRANCH  76  77
ENDBRANCH   1  76
TORSDOF 21
