REMARK SMILES Cn1ccc(NS(=O)(=O)c2ccc(C(=O)OCCOCCOC(=O)c3ccc(-c4c5nc(c(-c6c(F)cc(S(=O)(=O)[O-])cc6F)c6ccc([nH]6)c(-c6c(F)cc(S(=O)(=O)[O-])cc6F)c6nc(c(-c7c(F)cc(S(=O)(=O)[O-])cc7F)c7ccc4[nH]7)C=C6)C=C5)cc3)cc2F)n1
REMARK SMILES IDX 19 1 18 2 17 3 16 4 14 5 15 6 13 7 10 8 11 9 92 10 12 11
REMARK SMILES IDX 91 12 93 13 7 14 8 15 9 16 6 17 5 19 1 20 2 21 3 22 94 23
REMARK SMILES IDX 4 24 20 25 21 26 22 27 23 28 24 29 25 30 26 31 90 32 27 33
REMARK SMILES IDX 89 34 28 35 29 36 30 37 83 38 31 39 88 40 82 41 84 42 32 43
REMARK SMILES IDX 87 44 81 45 80 46 33 48 67 49 46 50 66 51 47 52 50 53 65 54
REMARK SMILES IDX 85 55 48 56 49 57 64 59 86 60 51 61 34 62 35 63 44 64 36 65
REMARK SMILES IDX 37 66 43 67 45 68 38 69 39 70 40 71 41 72 42 73 68 74 69 75
REMARK SMILES IDX 78 76 70 77 71 78 77 79 79 80 72 81 73 82 74 83 75 84 76 85
REMARK SMILES IDX 52 86 53 87 62 88 54 89 55 90 61 91 63 92 56 93 57 94 58 95
REMARK SMILES IDX 59 96 60 97
REMARK H PARENT 6 18 84 47 50 58
REMARK Flexibility Score: inf
ROOT
ATOM      1  O   UNL     1      -6.151   4.209  -0.807  1.00  0.00    -0.374 OA
ENDROOT
BRANCH   1   2
ATOM      2  C   UNL     1      -6.272   5.478  -0.158  1.00  0.00     0.202 C 
BRANCH   2   3
ATOM      3  C   UNL     1      -5.484   5.648   1.147  1.00  0.00     0.261 C 
BRANCH   3   4
ATOM      4  O   UNL     1      -4.065   5.651   0.903  1.00  0.00    -0.460 OA
BRANCH   4   5
ATOM      5  C   UNL     1      -3.401   4.590   1.405  1.00  0.00     0.338 C 
ATOM      6  O   UNL     1      -3.838   3.705   2.131  1.00  0.00    -0.246 OA
BRANCH   5   7
ATOM      7  C   UNL     1      -2.080   4.482   0.769  1.00  0.00     0.063 A 
ATOM      8  C   UNL     1       0.491   3.861  -0.060  1.00  0.00     0.123 A 
ATOM      9  C   UNL     1      -0.571   3.100  -0.529  1.00  0.00     0.026 A 
ATOM     10  C   UNL     1       0.236   5.046   0.637  1.00  0.00     0.144 A 
ATOM     11  C   UNL     1      -1.847   3.362  -0.040  1.00  0.00     0.017 A 
ATOM     12  C   UNL     1      -1.057   5.385   1.033  1.00  0.00     0.056 A 
ATOM     13  F   UNL     1       1.233   5.881   0.956  1.00  0.00    -0.205 F 
BRANCH   8  14
ATOM     14  S   UNL     1       2.159   3.291  -0.108  1.00  0.00     0.266 S 
ATOM     15  O   UNL     1       2.784   3.589   1.163  1.00  0.00    -0.201 OA
ATOM     16  O   UNL     1       2.718   3.810  -1.343  1.00  0.00    -0.201 OA
BRANCH  14  17
ATOM     17  N   UNL     1       2.261   1.633  -0.295  1.00  0.00    -0.262 N 
ATOM     18  H   UNL     1       3.057   1.334  -0.791  1.00  0.00     0.182 HD
BRANCH  17  19
ATOM     19  C   UNL     1       1.435   0.606   0.118  1.00  0.00     0.161 A 
ATOM     20  C   UNL     1      -1.789  -0.546   0.591  1.00  0.00     0.173 C 
ATOM     21  N   UNL     1      -0.348  -0.449   0.531  1.00  0.00    -0.274 N 
ATOM     22  C   UNL     1       0.513  -1.415   0.105  1.00  0.00     0.110 A 
ATOM     23  N   UNL     1       0.245   0.748   0.691  1.00  0.00    -0.155 NA
ATOM     24  C   UNL     1       1.691  -0.757  -0.168  1.00  0.00     0.069 A 
ENDBRANCH  17  19
ENDBRANCH  14  17
ENDBRANCH   8  14
ENDBRANCH   5   7
ENDBRANCH   4   5
ENDBRANCH   3   4
ENDBRANCH   2   3
ENDBRANCH   1   2
BRANCH   1  25
ATOM     25  C   UNL     1      -4.973   3.998  -1.584  1.00  0.00     0.202 C 
BRANCH  25  26
ATOM     26  C   UNL     1      -4.968   4.567  -3.004  1.00  0.00     0.261 C 
BRANCH  26  27
ATOM     27  O   UNL     1      -4.909   6.002  -2.989  1.00  0.00    -0.460 OA
BRANCH  27  28
ATOM     28  C   UNL     1      -6.058   6.619  -3.347  1.00  0.00     0.338 C 
ATOM     29  O   UNL     1      -7.079   6.086  -3.764  1.00  0.00    -0.246 OA
BRANCH  28  30
ATOM     30  C   UNL     1      -5.995   8.044  -2.981  1.00  0.00     0.060 A 
ATOM     31  C   UNL     1      -7.072   8.572  -2.258  1.00  0.00     0.016 A 
ATOM     32  C   UNL     1      -4.932   8.863  -3.371  1.00  0.00     0.016 A 
ATOM     33  C   UNL     1      -7.118   9.932  -1.968  1.00  0.00     0.010 A 
ATOM     34  C   UNL     1      -4.985  10.232  -3.088  1.00  0.00     0.010 A 
ATOM     35  C   UNL     1      -6.094  10.776  -2.416  1.00  0.00    -0.014 A 
BRANCH  35  36
ATOM     36  C   UNL     1      -6.259  12.244  -2.307  1.00  0.00     0.031 A 
ATOM     37  C   UNL     1      -6.727  13.013  -3.512  1.00  0.00     0.074 A 
ATOM     38  C   UNL     1      -6.032  12.876  -1.142  1.00  0.00     0.049 A 
ATOM     39  N   UNL     1      -6.907  14.300  -3.653  1.00  0.00    -0.248 NA
ATOM     40  C   UNL     1      -7.037  12.226  -4.717  1.00  0.00     0.031 C 
ATOM     41  C   UNL     1      -5.624  12.227   0.103  1.00  0.00     0.029 A 
ATOM     42  N   UNL     1      -6.113  14.207  -0.819  1.00  0.00    -0.354 N 
ATOM     43  C   UNL     1      -7.347  14.479  -4.959  1.00  0.00     0.074 A 
ATOM     44  C   UNL     1      -7.380  13.172  -5.579  1.00  0.00     0.031 C 
ATOM     45  C   UNL     1      -5.486  13.164   1.057  1.00  0.00     0.029 A 
ATOM     46  C   UNL     1      -5.763  14.480   0.482  1.00  0.00     0.049 A 
ATOM     47  H   UNL     1      -6.395  14.900  -1.458  1.00  0.00     0.167 HD
ATOM     48  C   UNL     1      -7.703  15.628  -5.580  1.00  0.00     0.037 A 
ATOM     49  C   UNL     1      -5.660  15.659   1.128  1.00  0.00     0.037 A 
ATOM     50  C   UNL     1      -7.670  16.924  -4.955  1.00  0.00     0.049 A 
ATOM     51  C   UNL     1      -5.986  16.933   0.394  1.00  0.00     0.074 A 
ATOM     52  C   UNL     1      -8.017  18.148  -5.499  1.00  0.00     0.029 A 
ATOM     53  N   UNL     1      -7.265  17.165  -3.651  1.00  0.00    -0.354 N 
ATOM     54  N   UNL     1      -6.401  17.088  -0.841  1.00  0.00    -0.248 NA
ATOM     55  C   UNL     1      -5.826  18.191   1.136  1.00  0.00     0.031 C 
ATOM     56  C   UNL     1      -7.779  19.135  -4.537  1.00  0.00     0.029 A 
ATOM     57  C   UNL     1      -7.331  18.521  -3.378  1.00  0.00     0.049 A 
ATOM     58  H   UNL     1      -6.973  16.475  -3.013  1.00  0.00     0.167 HD
ATOM     59  C   UNL     1      -6.573  18.457  -1.016  1.00  0.00     0.074 A 
ATOM     60  C   UNL     1      -6.225  19.086   0.241  1.00  0.00     0.031 C 
ATOM     61  C   UNL     1      -6.984  19.132  -2.118  1.00  0.00     0.037 A 
BRANCH  48  62
ATOM     62  C   UNL     1      -8.148  15.542  -7.012  1.00  0.00     0.058 A 
ATOM     63  C   UNL     1      -7.336  16.043  -8.042  1.00  0.00     0.135 A 
ATOM     64  C   UNL     1      -9.401  15.014  -7.363  1.00  0.00     0.135 A 
ATOM     65  F   UNL     1      -6.124  16.549  -7.763  1.00  0.00    -0.206 F 
ATOM     66  C   UNL     1      -7.757  16.040  -9.367  1.00  0.00     0.059 A 
ATOM     67  C   UNL     1      -9.833  14.979  -8.685  1.00  0.00     0.059 A 
ATOM     68  F   UNL     1     -10.204  14.499  -6.419  1.00  0.00    -0.206 F 
ATOM     69  C   UNL     1      -9.009  15.508  -9.679  1.00  0.00     0.060 A 
BRANCH  69  70
ATOM     70  S   UNL     1      -9.529  15.485 -11.408  1.00  0.00     0.124 S 
ATOM     71  O   UNL     1      -9.771  16.899 -11.668  1.00  0.00    -0.237 OA
ATOM     72  O   UNL     1      -8.364  14.905 -12.070  1.00  0.00    -0.237 OA
ATOM     73  O   UNL     1     -10.716  14.634 -11.393  1.00  0.00    -0.744 OA
ENDBRANCH  69  70
ENDBRANCH  48  62
BRANCH  49  74
ATOM     74  C   UNL     1      -5.229  15.683   2.550  1.00  0.00     0.058 A 
ATOM     75  C   UNL     1      -3.913  15.357   2.916  1.00  0.00     0.135 A 
ATOM     76  C   UNL     1      -6.133  16.001   3.574  1.00  0.00     0.135 A 
ATOM     77  F   UNL     1      -3.010  15.043   1.974  1.00  0.00    -0.206 F 
ATOM     78  C   UNL     1      -3.517  15.317   4.248  1.00  0.00     0.059 A 
ATOM     79  C   UNL     1      -5.754  15.990   4.913  1.00  0.00     0.059 A 
ATOM     80  F   UNL     1      -7.397  16.335   3.271  1.00  0.00    -0.206 F 
ATOM     81  C   UNL     1      -4.447  15.628   5.240  1.00  0.00     0.060 A 
BRANCH  81  82
ATOM     82  S   UNL     1      -3.920  15.544   6.965  1.00  0.00     0.124 S 
ATOM     83  O   UNL     1      -3.760  14.105   7.149  1.00  0.00    -0.237 OA
ATOM     84  O   UNL     1      -2.688  16.325   6.947  1.00  0.00    -0.237 OA
ATOM     85  O   UNL     1      -5.034  16.149   7.688  1.00  0.00    -0.744 OA
ENDBRANCH  81  82
ENDBRANCH  49  74
BRANCH  61  86
ATOM     86  C   UNL     1      -7.104  20.628  -2.023  1.00  0.00     0.058 A 
ATOM     87  C   UNL     1      -8.367  21.241  -2.022  1.00  0.00     0.135 A 
ATOM     88  C   UNL     1      -5.972  21.456  -2.025  1.00  0.00     0.135 A 
ATOM     89  F   UNL     1      -9.483  20.494  -2.024  1.00  0.00    -0.206 F 
ATOM     90  C   UNL     1      -8.504  22.624  -2.050  1.00  0.00     0.059 A 
ATOM     91  C   UNL     1      -6.085  22.844  -2.028  1.00  0.00     0.059 A 
ATOM     92  F   UNL     1      -4.742  20.919  -2.015  1.00  0.00    -0.206 F 
ATOM     93  C   UNL     1      -7.356  23.418  -2.059  1.00  0.00     0.060 A 
BRANCH  93  94
ATOM     94  S   UNL     1      -7.552  25.212  -2.097  1.00  0.00     0.124 S 
ATOM     95  O   UNL     1      -8.026  25.433  -3.458  1.00  0.00    -0.237 OA
ATOM     96  O   UNL     1      -8.532  25.439  -1.038  1.00  0.00    -0.237 OA
ATOM     97  O   UNL     1      -6.208  25.706  -1.811  1.00  0.00    -0.744 OA
ENDBRANCH  93  94
ENDBRANCH  61  86
ENDBRANCH  35  36
ENDBRANCH  28  30
ENDBRANCH  27  28
ENDBRANCH  26  27
ENDBRANCH  25  26
ENDBRANCH   1  25
TORSDOF 20
