REMARK SMILES O=C(OCCOCCOC(=O)[C@@H](Cc1ccc(O)cc1)Nc1c2ccccc2nc2ccccc12)c1ccc(-c2c3nc(c(-c4c(F)cc(S(=O)(=O)[O-])cc4F)c4ccc([nH]4)c(-c4c(F)cc(S(=O)(=O)[O-])cc4F)c4nc(c(-c5c(F)cc(S(=O)(=O)[O-])cc5F)c5ccc2[nH]5)C=C4)C=C3)cc1
REMARK SMILES IDX 6 1 5 2 4 3 3 4 2 5 1 6 36 7 37 8 101 9 38 10 100 11 39 12
REMARK SMILES IDX 40 13 41 14 94 15 42 16 99 17 93 18 95 19 43 20 98 21 92 22
REMARK SMILES IDX 91 23 44 25 78 26 57 27 77 28 58 29 61 30 76 31 96 32 59 33
REMARK SMILES IDX 60 34 75 36 97 37 62 38 45 39 46 40 55 41 47 42 48 43 54 44
REMARK SMILES IDX 56 45 49 46 50 47 51 48 52 49 53 50 79 51 80 52 89 53 81 54
REMARK SMILES IDX 82 55 88 56 90 57 83 58 84 59 85 60 86 61 87 62 63 63 64 64
REMARK SMILES IDX 73 65 65 66 66 67 72 68 74 69 67 70 68 71 69 72 70 73 71 74
REMARK SMILES IDX 7 75 8 76 9 77 10 78 11 79 12 80 13 81 14 82 15 83 20 84
REMARK SMILES IDX 16 85 19 86 17 87 18 88 21 90 22 92 23 93 35 94 24 95 28 96
REMARK SMILES IDX 30 97 34 98 25 99 27 100 29 101 31 102 33 103 26 104 32 105
REMARK H PARENT 95 24 61 35 18 89 21 91
REMARK Flexibility Score: inf
ROOT
ATOM      1  O   UNL     1       4.411   0.897  -1.547  1.00  0.00    -0.374 OA
ENDROOT
BRANCH   1   2
ATOM      2  C   UNL     1       4.615  -0.472  -1.199  1.00  0.00     0.202 C 
BRANCH   2   3
ATOM      3  C   UNL     1       4.184  -0.987   0.185  1.00  0.00     0.261 C 
BRANCH   3   4
ATOM      4  O   UNL     1       2.771  -0.812   0.390  1.00  0.00    -0.460 OA
BRANCH   4   5
ATOM      5  C   UNL     1       2.139   0.176   1.067  1.00  0.00     0.338 C 
ATOM      6  O   UNL     1       0.927   0.076   1.254  1.00  0.00    -0.246 OA
BRANCH   5   7
ATOM      7  C   UNL     1       2.832   1.413   1.537  1.00  0.00     0.060 A 
ATOM      8  C   UNL     1       4.111   1.792   1.143  1.00  0.00     0.016 A 
ATOM      9  C   UNL     1       2.127   2.290   2.380  1.00  0.00     0.016 A 
ATOM     10  C   UNL     1       4.687   2.973   1.534  1.00  0.00     0.010 A 
ATOM     11  C   UNL     1       2.705   3.492   2.806  1.00  0.00     0.010 A 
ATOM     12  C   UNL     1       3.993   3.820   2.378  1.00  0.00    -0.014 A 
BRANCH  12  13
ATOM     13  C   UNL     1       4.808   4.911   2.912  1.00  0.00     0.031 A 
ATOM     14  C   UNL     1       5.517   4.652   4.202  1.00  0.00     0.074 A 
ATOM     15  C   UNL     1       5.139   5.919   2.086  1.00  0.00     0.049 A 
ATOM     16  N   UNL     1       6.380   5.394   4.832  1.00  0.00    -0.248 NA
ATOM     17  C   UNL     1       5.252   3.351   4.848  1.00  0.00     0.031 C 
ATOM     18  C   UNL     1       4.656   6.070   0.707  1.00  0.00     0.029 A 
ATOM     19  N   UNL     1       6.017   6.951   2.245  1.00  0.00    -0.354 N 
ATOM     20  C   UNL     1       6.726   4.676   5.969  1.00  0.00     0.074 A 
ATOM     21  C   UNL     1       6.009   3.424   5.931  1.00  0.00     0.031 C 
ATOM     22  C   UNL     1       5.270   7.120   0.141  1.00  0.00     0.029 A 
ATOM     23  C   UNL     1       6.127   7.753   1.135  1.00  0.00     0.049 A 
ATOM     24  H   UNL     1       6.523   7.106   3.076  1.00  0.00     0.167 HD
ATOM     25  C   UNL     1       7.552   5.061   6.966  1.00  0.00     0.037 A 
ATOM     26  C   UNL     1       6.824   8.892   0.973  1.00  0.00     0.037 A 
ATOM     27  C   UNL     1       8.234   6.325   6.950  1.00  0.00     0.049 A 
ATOM     28  C   UNL     1       7.636   9.364   2.147  1.00  0.00     0.074 A 
ATOM     29  C   UNL     1       9.005   6.909   7.934  1.00  0.00     0.029 A 
ATOM     30  N   UNL     1       8.216   7.204   5.871  1.00  0.00    -0.354 N 
ATOM     31  N   UNL     1       7.850   8.759   3.295  1.00  0.00    -0.248 NA
ATOM     32  C   UNL     1       8.279  10.675   2.026  1.00  0.00     0.031 C 
ATOM     33  C   UNL     1       9.414   8.164   7.466  1.00  0.00     0.029 A 
ATOM     34  C   UNL     1       8.947   8.336   6.170  1.00  0.00     0.049 A 
ATOM     35  H   UNL     1       7.750   7.042   5.019  1.00  0.00     0.167 HD
ATOM     36  C   UNL     1       8.668   9.605   4.028  1.00  0.00     0.074 A 
ATOM     37  C   UNL     1       8.919  10.761   3.184  1.00  0.00     0.031 C 
ATOM     38  C   UNL     1       9.169   9.452   5.280  1.00  0.00     0.037 A 
BRANCH  25  39
ATOM     39  C   UNL     1       7.622   4.168   8.171  1.00  0.00     0.058 A 
ATOM     40  C   UNL     1       8.277   2.926   8.158  1.00  0.00     0.135 A 
ATOM     41  C   UNL     1       6.935   4.532   9.341  1.00  0.00     0.135 A 
ATOM     42  F   UNL     1       8.911   2.507   7.051  1.00  0.00    -0.206 F 
ATOM     43  C   UNL     1       8.217   2.061   9.248  1.00  0.00     0.059 A 
ATOM     44  C   UNL     1       6.882   3.695  10.450  1.00  0.00     0.059 A 
ATOM     45  F   UNL     1       6.273   5.698   9.399  1.00  0.00    -0.206 F 
ATOM     46  C   UNL     1       7.507   2.451  10.387  1.00  0.00     0.060 A 
BRANCH  46  47
ATOM     47  S   UNL     1       7.391   1.303  11.775  1.00  0.00     0.124 S 
ATOM     48  O   UNL     1       6.446   0.318  11.259  1.00  0.00    -0.237 OA
ATOM     49  O   UNL     1       8.768   0.845  11.920  1.00  0.00    -0.237 OA
ATOM     50  O   UNL     1       6.893   2.139  12.865  1.00  0.00    -0.744 OA
ENDBRANCH  46  47
ENDBRANCH  25  39
BRANCH  26  51
ATOM     51  C   UNL     1       6.723   9.667  -0.293  1.00  0.00     0.058 A 
ATOM     52  C   UNL     1       7.832   9.868  -1.127  1.00  0.00     0.135 A 
ATOM     53  C   UNL     1       5.496  10.220  -0.703  1.00  0.00     0.135 A 
ATOM     54  F   UNL     1       9.028   9.369  -0.783  1.00  0.00    -0.206 F 
ATOM     55  C   UNL     1       7.733  10.593  -2.313  1.00  0.00     0.059 A 
ATOM     56  C   UNL     1       5.366  10.923  -1.897  1.00  0.00     0.059 A 
ATOM     57  F   UNL     1       4.398  10.056   0.050  1.00  0.00    -0.206 F 
ATOM     58  C   UNL     1       6.494  11.115  -2.691  1.00  0.00     0.060 A 
BRANCH  58  59
ATOM     59  S   UNL     1       6.364  12.022  -4.247  1.00  0.00     0.124 S 
ATOM     60  O   UNL     1       7.049  13.267  -3.919  1.00  0.00    -0.237 OA
ATOM     61  O   UNL     1       7.056  11.136  -5.178  1.00  0.00    -0.237 OA
ATOM     62  O   UNL     1       4.922  12.132  -4.453  1.00  0.00    -0.744 OA
ENDBRANCH  58  59
ENDBRANCH  26  51
BRANCH  38  63
ATOM     63  C   UNL     1      10.072  10.539   5.778  1.00  0.00     0.058 A 
ATOM     64  C   UNL     1       9.572  11.784   6.185  1.00  0.00     0.135 A 
ATOM     65  C   UNL     1      11.450  10.300   5.900  1.00  0.00     0.135 A 
ATOM     66  F   UNL     1       8.262  12.055   6.080  1.00  0.00    -0.206 F 
ATOM     67  C   UNL     1      10.416  12.771   6.677  1.00  0.00     0.059 A 
ATOM     68  C   UNL     1      12.307  11.262   6.416  1.00  0.00     0.059 A 
ATOM     69  F   UNL     1      11.967   9.117   5.534  1.00  0.00    -0.206 F 
ATOM     70  C   UNL     1      11.782  12.499   6.790  1.00  0.00     0.060 A 
BRANCH  70  71
ATOM     71  S   UNL     1      12.864  13.774   7.463  1.00  0.00     0.124 S 
ATOM     72  O   UNL     1      12.975  14.689   6.333  1.00  0.00    -0.237 OA
ATOM     73  O   UNL     1      12.098  14.264   8.604  1.00  0.00    -0.237 OA
ATOM     74  O   UNL     1      14.080  13.041   7.802  1.00  0.00    -0.744 OA
ENDBRANCH  70  71
ENDBRANCH  38  63
ENDBRANCH  12  13
ENDBRANCH   5   7
ENDBRANCH   4   5
ENDBRANCH   3   4
ENDBRANCH   2   3
ENDBRANCH   1   2
BRANCH   1  75
ATOM     75  C   UNL     1       3.133   1.265  -2.076  1.00  0.00     0.202 C 
BRANCH  75  76
ATOM     76  C   UNL     1       3.026   1.153  -3.606  1.00  0.00     0.261 C 
BRANCH  76  77
ATOM     77  O   UNL     1       3.126  -0.218  -4.041  1.00  0.00    -0.462 OA
BRANCH  77  78
ATOM     78  C   UNL     1       4.390  -0.670  -4.232  1.00  0.00     0.328 C 
ATOM     79  O   UNL     1       5.369   0.063  -4.340  1.00  0.00    -0.250 OA
BRANCH  78  80
ATOM     80  C   UNL     1       4.497  -2.208  -4.284  1.00  0.00     0.194 C 
BRANCH  80  81
ATOM     81  C   UNL     1       3.800  -3.134  -3.244  1.00  0.00     0.072 C 
BRANCH  81  82
ATOM     82  C   UNL     1       2.295  -3.236  -3.105  1.00  0.00    -0.045 A 
ATOM     83  C   UNL     1       1.505  -2.176  -2.648  1.00  0.00     0.007 A 
ATOM     84  C   UNL     1       1.660  -4.473  -3.289  1.00  0.00     0.007 A 
ATOM     85  C   UNL     1       0.124  -2.293  -2.483  1.00  0.00     0.046 A 
ATOM     86  C   UNL     1       0.281  -4.612  -3.093  1.00  0.00     0.046 A 
ATOM     87  C   UNL     1      -0.481  -3.515  -2.719  1.00  0.00     0.115 A 
BRANCH  87  88
ATOM     88  O   UNL     1      -1.826  -3.674  -2.576  1.00  0.00    -0.508 OA
ATOM     89  H   UNL     1      -2.360  -2.947  -2.324  1.00  0.00     0.293 HD
ENDBRANCH  87  88
ENDBRANCH  81  82
ENDBRANCH  80  81
BRANCH  80  90
ATOM     90  N   UNL     1       4.251  -2.713  -5.642  1.00  0.00    -0.371 N 
ATOM     91  H   UNL     1       3.394  -3.132  -5.885  1.00  0.00     0.161 HD
BRANCH  90  92
ATOM     92  C   UNL     1       5.293  -2.571  -6.585  1.00  0.00     0.054 A 
ATOM     93  C   UNL     1       6.521  -3.289  -6.439  1.00  0.00     0.024 A 
ATOM     94  C   UNL     1       5.159  -1.631  -7.643  1.00  0.00     0.024 A 
ATOM     95  C   UNL     1       6.827  -4.177  -5.371  1.00  0.00     0.012 A 
ATOM     96  C   UNL     1       7.498  -3.099  -7.431  1.00  0.00     0.073 A 
ATOM     97  C   UNL     1       6.200  -1.572  -8.587  1.00  0.00     0.073 A 
ATOM     98  C   UNL     1       4.069  -0.731  -7.787  1.00  0.00     0.012 A 
ATOM     99  C   UNL     1       8.075  -4.783  -5.246  1.00  0.00     0.001 A 
ATOM    100  C   UNL     1       8.719  -3.753  -7.315  1.00  0.00     0.029 A 
ATOM    101  N   UNL     1       7.316  -2.307  -8.495  1.00  0.00    -0.248 NA
ATOM    102  C   UNL     1       6.091  -0.696  -9.659  1.00  0.00     0.029 A 
ATOM    103  C   UNL     1       4.003   0.171  -8.848  1.00  0.00     0.001 A 
ATOM    104  C   UNL     1       9.027  -4.572  -6.227  1.00  0.00     0.002 A 
ATOM    105  C   UNL     1       5.009   0.174  -9.800  1.00  0.00     0.002 A 
ENDBRANCH  90  92
ENDBRANCH  80  90
ENDBRANCH  78  80
ENDBRANCH  77  78
ENDBRANCH  76  77
ENDBRANCH  75  76
ENDBRANCH   1  75
TORSDOF 22
