REMARK SMILES O=C(OCCOCCOC(=O)c1cc(SCCn2cccn2)cs1)c1ccc(-c2c3nc(c(-c4c(F)cc(S(=O)(=O)[O-])cc4F)c4ccc([nH]4)c(-c4c(F)cc(S(=O)(=O)[O-])cc4F)c4nc(c(-c5c(F)cc(S(=O)(=O)[O-])cc5F)c5ccc2[nH]5)C=C4)C=C3)cc1
REMARK SMILES IDX 7 1 6 2 5 3 4 4 3 5 2 6 1 7 25 8 26 9 90 10 27 11 89 12
REMARK SMILES IDX 28 13 29 14 30 15 83 16 31 17 88 18 82 19 84 20 32 21 87 22
REMARK SMILES IDX 81 23 80 24 33 26 67 27 46 28 66 29 47 30 50 31 65 32 85 33
REMARK SMILES IDX 48 34 49 35 64 37 86 38 51 39 34 40 35 41 44 42 36 43 37 44
REMARK SMILES IDX 43 45 45 46 38 47 39 48 40 49 41 50 42 51 68 52 69 53 78 54
REMARK SMILES IDX 70 55 71 56 77 57 79 58 72 59 73 60 74 61 75 62 76 63 52 64
REMARK SMILES IDX 53 65 62 66 54 67 55 68 61 69 63 70 56 71 57 72 58 73 59 74
REMARK SMILES IDX 60 75 8 76 9 77 10 78 11 79 12 80 13 81 24 82 14 83 23 84
REMARK SMILES IDX 15 85 16 86 17 87 18 88 19 89 22 90 20 91 21 92
REMARK H PARENT 84 25 50 36
REMARK Flexibility Score: inf
ROOT
ATOM      1  C   UNL     1       3.209  -1.519   1.567  1.00  0.00     0.202 C 
ENDROOT
BRANCH   1   2
ATOM      2  O   UNL     1       4.283  -1.022   0.758  1.00  0.00    -0.374 OA
BRANCH   2   3
ATOM      3  C   UNL     1       4.741   0.286   1.098  1.00  0.00     0.202 C 
BRANCH   3   4
ATOM      4  C   UNL     1       4.447   1.352   0.042  1.00  0.00     0.261 C 
BRANCH   4   5
ATOM      5  O   UNL     1       3.048   1.677  -0.099  1.00  0.00    -0.460 OA
BRANCH   5   6
ATOM      6  C   UNL     1       2.086   0.742  -0.284  1.00  0.00     0.338 C 
ATOM      7  O   UNL     1       1.116   0.674   0.466  1.00  0.00    -0.246 OA
BRANCH   6   8
ATOM      8  C   UNL     1       2.066   0.042  -1.590  1.00  0.00     0.060 A 
ATOM      9  C   UNL     1       3.207  -0.315  -2.305  1.00  0.00     0.016 A 
ATOM     10  C   UNL     1       0.801  -0.222  -2.137  1.00  0.00     0.016 A 
ATOM     11  C   UNL     1       3.098  -0.721  -3.623  1.00  0.00     0.010 A 
ATOM     12  C   UNL     1       0.686  -0.698  -3.436  1.00  0.00     0.010 A 
ATOM     13  C   UNL     1       1.837  -0.859  -4.204  1.00  0.00    -0.014 A 
BRANCH  13  14
ATOM     14  C   UNL     1       1.802  -1.189  -5.623  1.00  0.00     0.031 A 
ATOM     15  C   UNL     1       2.517  -2.434  -6.028  1.00  0.00     0.074 A 
ATOM     16  C   UNL     1       1.122  -0.453  -6.523  1.00  0.00     0.049 A 
ATOM     17  N   UNL     1       3.504  -2.575  -6.854  1.00  0.00    -0.248 NA
ATOM     18  C   UNL     1       2.125  -3.676  -5.343  1.00  0.00     0.031 C 
ATOM     19  C   UNL     1       0.160   0.626  -6.282  1.00  0.00     0.029 A 
ATOM     20  N   UNL     1       1.090  -0.601  -7.874  1.00  0.00    -0.354 N 
ATOM     21  C   UNL     1       3.752  -3.945  -6.928  1.00  0.00     0.074 A 
ATOM     22  C   UNL     1       2.953  -4.561  -5.897  1.00  0.00     0.031 C 
ATOM     23  C   UNL     1      -0.525   0.869  -7.420  1.00  0.00     0.029 A 
ATOM     24  C   UNL     1       0.049   0.072  -8.490  1.00  0.00     0.049 A 
ATOM     25  H   UNL     1       1.748  -1.139  -8.370  1.00  0.00     0.167 HD
ATOM     26  C   UNL     1       4.476  -4.518  -7.930  1.00  0.00     0.037 A 
ATOM     27  C   UNL     1      -0.364  -0.088  -9.770  1.00  0.00     0.037 A 
ATOM     28  C   UNL     1       5.306  -3.566  -8.614  1.00  0.00     0.049 A 
ATOM     29  C   UNL     1       0.764  -0.682 -10.534  1.00  0.00     0.074 A 
ATOM     30  C   UNL     1       6.363  -2.760  -8.237  1.00  0.00     0.029 A 
ATOM     31  N   UNL     1       4.891  -3.080  -9.829  1.00  0.00    -0.354 N 
ATOM     32  N   UNL     1       1.889  -0.066 -10.781  1.00  0.00    -0.248 NA
ATOM     33  C   UNL     1       0.807  -2.129 -10.674  1.00  0.00     0.031 C 
ATOM     34  C   UNL     1       6.200  -1.557  -8.985  1.00  0.00     0.029 A 
ATOM     35  C   UNL     1       5.073  -1.719  -9.792  1.00  0.00     0.049 A 
ATOM     36  H   UNL     1       4.534  -3.605 -10.581  1.00  0.00     0.167 HD
ATOM     37  C   UNL     1       2.864  -1.051 -10.711  1.00  0.00     0.074 A 
ATOM     38  C   UNL     1       2.128  -2.312 -10.742  1.00  0.00     0.031 C 
ATOM     39  C   UNL     1       4.154  -0.759 -10.369  1.00  0.00     0.037 A 
BRANCH  26  40
ATOM     40  C   UNL     1       4.225  -5.912  -8.446  1.00  0.00     0.058 A 
ATOM     41  C   UNL     1       5.177  -6.564  -9.252  1.00  0.00     0.135 A 
ATOM     42  C   UNL     1       2.958  -6.534  -8.371  1.00  0.00     0.135 A 
ATOM     43  F   UNL     1       6.404  -6.044  -9.418  1.00  0.00    -0.206 F 
ATOM     44  C   UNL     1       4.881  -7.732  -9.961  1.00  0.00     0.059 A 
ATOM     45  C   UNL     1       2.657  -7.724  -9.024  1.00  0.00     0.059 A 
ATOM     46  F   UNL     1       1.928  -5.962  -7.733  1.00  0.00    -0.206 F 
ATOM     47  C   UNL     1       3.612  -8.296  -9.849  1.00  0.00     0.060 A 
BRANCH  47  48
ATOM     48  S   UNL     1       3.187  -9.740 -10.841  1.00  0.00     0.124 S 
ATOM     49  O   UNL     1       3.090  -9.157 -12.174  1.00  0.00    -0.237 OA
ATOM     50  O   UNL     1       4.329 -10.619 -10.608  1.00  0.00    -0.237 OA
ATOM     51  O   UNL     1       1.929 -10.191 -10.254  1.00  0.00    -0.744 OA
ENDBRANCH  47  48
ENDBRANCH  26  40
BRANCH  27  52
ATOM     52  C   UNL     1      -1.772  -0.116 -10.238  1.00  0.00     0.058 A 
ATOM     53  C   UNL     1      -2.089  -0.006 -11.601  1.00  0.00     0.135 A 
ATOM     54  C   UNL     1      -2.821  -0.512  -9.381  1.00  0.00     0.135 A 
ATOM     55  F   UNL     1      -1.142   0.332 -12.489  1.00  0.00    -0.206 F 
ATOM     56  C   UNL     1      -3.365  -0.305 -12.091  1.00  0.00     0.059 A 
ATOM     57  C   UNL     1      -4.101  -0.799  -9.844  1.00  0.00     0.059 A 
ATOM     58  F   UNL     1      -2.609  -0.723  -8.073  1.00  0.00    -0.206 F 
ATOM     59  C   UNL     1      -4.361  -0.716 -11.205  1.00  0.00     0.060 A 
BRANCH  59  60
ATOM     60  S   UNL     1      -5.959  -1.260 -11.850  1.00  0.00     0.124 S 
ATOM     61  O   UNL     1      -6.535  -0.006 -12.321  1.00  0.00    -0.237 OA
ATOM     62  O   UNL     1      -5.565  -2.211 -12.884  1.00  0.00    -0.237 OA
ATOM     63  O   UNL     1      -6.613  -1.849 -10.684  1.00  0.00    -0.744 OA
ENDBRANCH  59  60
ENDBRANCH  27  52
BRANCH  39  64
ATOM     64  C   UNL     1       4.569   0.691 -10.322  1.00  0.00     0.058 A 
ATOM     65  C   UNL     1       4.032   1.628  -9.420  1.00  0.00     0.135 A 
ATOM     66  C   UNL     1       5.656   1.112 -11.103  1.00  0.00     0.135 A 
ATOM     67  F   UNL     1       3.069   1.278  -8.557  1.00  0.00    -0.206 F 
ATOM     68  C   UNL     1       4.521   2.933  -9.331  1.00  0.00     0.059 A 
ATOM     69  C   UNL     1       6.182   2.400 -11.008  1.00  0.00     0.059 A 
ATOM     70  F   UNL     1       6.260   0.248 -11.935  1.00  0.00    -0.206 F 
ATOM     71  C   UNL     1       5.600   3.310 -10.128  1.00  0.00     0.060 A 
BRANCH  71  72
ATOM     72  S   UNL     1       6.288   4.970  -9.941  1.00  0.00     0.124 S 
ATOM     73  O   UNL     1       5.278   5.798 -10.590  1.00  0.00    -0.237 OA
ATOM     74  O   UNL     1       6.388   5.113  -8.491  1.00  0.00    -0.237 OA
ATOM     75  O   UNL     1       7.570   4.888 -10.637  1.00  0.00    -0.744 OA
ENDBRANCH  71  72
ENDBRANCH  39  64
ENDBRANCH  13  14
ENDBRANCH   6   8
ENDBRANCH   5   6
ENDBRANCH   4   5
ENDBRANCH   3   4
ENDBRANCH   2   3
ENDBRANCH   1   2
BRANCH   1  76
ATOM     76  C   UNL     1       3.618  -2.136   2.908  1.00  0.00     0.261 C 
BRANCH  76  77
ATOM     77  O   UNL     1       3.977  -1.116   3.857  1.00  0.00    -0.459 OA
BRANCH  77  78
ATOM     78  C   UNL     1       5.315  -0.865   3.994  1.00  0.00     0.348 C 
ATOM     79  O   UNL     1       6.200  -1.544   3.523  1.00  0.00    -0.245 OA
BRANCH  78  80
ATOM     80  C   UNL     1       5.477   0.409   4.673  1.00  0.00     0.113 A 
ATOM     81  C   UNL     1       4.728   0.973   5.689  1.00  0.00     0.042 A 
ATOM     82  S   UNL     1       6.726   1.462   4.160  1.00  0.00    -0.136 S 
ATOM     83  C   UNL     1       5.153   2.292   6.015  1.00  0.00     0.019 A 
ATOM     84  C   UNL     1       6.208   2.693   5.224  1.00  0.00     0.080 A 
BRANCH  83  85
ATOM     85  S   UNL     1       4.495   3.345   7.260  1.00  0.00    -0.123 SA
BRANCH  85  86
ATOM     86  C   UNL     1       2.927   2.577   7.767  1.00  0.00     0.098 C 
BRANCH  86  87
ATOM     87  C   UNL     1       1.727   3.023   6.939  1.00  0.00     0.155 C 
BRANCH  87  88
ATOM     88  N   UNL     1       1.674   2.448   5.614  1.00  0.00    -0.272 N 
ATOM     89  C   UNL     1       2.034   3.052   4.445  1.00  0.00     0.108 A 
ATOM     90  N   UNL     1       1.186   1.203   5.448  1.00  0.00    -0.182 NA
ATOM     91  C   UNL     1       1.750   2.148   3.451  1.00  0.00     0.042 A 
ATOM     92  C   UNL     1       1.217   1.033   4.122  1.00  0.00     0.135 A 
ENDBRANCH  87  88
ENDBRANCH  86  87
ENDBRANCH  85  86
ENDBRANCH  83  85
ENDBRANCH  78  80
ENDBRANCH  77  78
ENDBRANCH  76  77
ENDBRANCH   1  76
TORSDOF 21
