REMARK SMILES O=C(OCCOCCOC(=O)c1cnc(OCC2CC2)c(Cl)c1)c1ccc(-c2c3nc(c(-c4c(F)cc(S(=O)(=O)[O-])cc4F)c4ccc([nH]4)c(-c4c(F)cc(S(=O)(=O)[O-])cc4F)c4nc(c(-c5c(F)cc(S(=O)(=O)[O-])cc5F)c5ccc2[nH]5)C=C4)C=C3)cc1
REMARK SMILES IDX 6 1 5 2 4 3 3 4 2 5 1 6 24 7 25 8 89 9 26 10 88 11 27 12
REMARK SMILES IDX 28 13 29 14 82 15 30 16 87 17 81 18 83 19 31 20 86 21 80 22
REMARK SMILES IDX 79 23 32 25 66 26 45 27 65 28 46 29 49 30 64 31 84 32 47 33
REMARK SMILES IDX 48 34 63 36 85 37 50 38 33 39 34 40 43 41 35 42 36 43 42 44
REMARK SMILES IDX 44 45 37 46 38 47 39 48 40 49 41 50 67 51 68 52 77 53 69 54
REMARK SMILES IDX 70 55 76 56 78 57 71 58 72 59 73 60 74 61 75 62 51 63 52 64
REMARK SMILES IDX 61 65 53 66 54 67 60 68 62 69 55 70 56 71 57 72 58 73 59 74
REMARK SMILES IDX 7 75 8 76 9 77 10 78 11 79 12 80 13 81 23 82 14 83 21 84
REMARK SMILES IDX 15 85 22 86 16 87 17 88 18 89 19 90 20 91
REMARK H PARENT 83 24 49 35
REMARK Flexibility Score: inf
ROOT
ATOM      1  O   UNL     1       4.047   1.548   0.454  1.00  0.00    -0.374 OA
ENDROOT
BRANCH   1   2
ATOM      2  C   UNL     1       4.327   1.343  -0.930  1.00  0.00     0.202 C 
BRANCH   2   3
ATOM      3  C   UNL     1       3.982  -0.049  -1.474  1.00  0.00     0.261 C 
BRANCH   3   4
ATOM      4  O   UNL     1       2.605  -0.375  -1.215  1.00  0.00    -0.460 OA
BRANCH   4   5
ATOM      5  C   UNL     1       2.112  -1.194  -0.252  1.00  0.00     0.338 C 
ATOM      6  O   UNL     1       0.900  -1.397  -0.210  1.00  0.00    -0.246 OA
BRANCH   5   7
ATOM      7  C   UNL     1       2.975  -1.858   0.769  1.00  0.00     0.060 A 
ATOM      8  C   UNL     1       4.183  -1.333   1.219  1.00  0.00     0.016 A 
ATOM      9  C   UNL     1       2.508  -3.036   1.373  1.00  0.00     0.016 A 
ATOM     10  C   UNL     1       4.955  -1.973   2.159  1.00  0.00     0.010 A 
ATOM     11  C   UNL     1       3.249  -3.661   2.385  1.00  0.00     0.010 A 
ATOM     12  C   UNL     1       4.484  -3.126   2.770  1.00  0.00    -0.014 A 
BRANCH  12  13
ATOM     13  C   UNL     1       5.403  -3.752   3.730  1.00  0.00     0.031 A 
ATOM     14  C   UNL     1       6.137  -4.981   3.303  1.00  0.00     0.074 A 
ATOM     15  C   UNL     1       5.727  -3.069   4.846  1.00  0.00     0.049 A 
ATOM     16  N   UNL     1       7.025  -5.675   3.956  1.00  0.00    -0.248 NA
ATOM     17  C   UNL     1       5.852  -5.484   1.947  1.00  0.00     0.031 C 
ATOM     18  C   UNL     1       5.153  -1.774   5.238  1.00  0.00     0.029 A 
ATOM     19  N   UNL     1       6.653  -3.324   5.819  1.00  0.00    -0.354 N 
ATOM     20  C   UNL     1       7.392  -6.705   3.102  1.00  0.00     0.074 A 
ATOM     21  C   UNL     1       6.619  -6.561   1.890  1.00  0.00     0.031 C 
ATOM     22  C   UNL     1       5.764  -1.338   6.350  1.00  0.00     0.029 A 
ATOM     23  C   UNL     1       6.703  -2.357   6.796  1.00  0.00     0.049 A 
ATOM     24  H   UNL     1       7.229  -4.122   5.820  1.00  0.00     0.167 HD
ATOM     25  C   UNL     1       8.302  -7.679   3.324  1.00  0.00     0.037 A 
ATOM     26  C   UNL     1       7.401  -2.330   7.946  1.00  0.00     0.037 A 
ATOM     27  C   UNL     1       9.048  -7.781   4.548  1.00  0.00     0.049 A 
ATOM     28  C   UNL     1       8.314  -3.494   8.220  1.00  0.00     0.074 A 
ATOM     29  C   UNL     1       9.926  -8.770   4.947  1.00  0.00     0.029 A 
ATOM     30  N   UNL     1       9.003  -6.843   5.574  1.00  0.00    -0.354 N 
ATOM     31  N   UNL     1       8.582  -4.528   7.453  1.00  0.00    -0.248 NA
ATOM     32  C   UNL     1       9.009  -3.503   9.510  1.00  0.00     0.031 C 
ATOM     33  C   UNL     1      10.375  -8.453   6.234  1.00  0.00     0.029 A 
ATOM     34  C   UNL     1       9.826  -7.235   6.612  1.00  0.00     0.049 A 
ATOM     35  H   UNL     1       8.464  -6.019   5.561  1.00  0.00     0.167 HD
ATOM     36  C   UNL     1       9.487  -5.305   8.162  1.00  0.00     0.074 A 
ATOM     37  C   UNL     1       9.744  -4.601   9.405  1.00  0.00     0.031 C 
ATOM     38  C   UNL     1      10.050  -6.494   7.831  1.00  0.00     0.037 A 
BRANCH  25  39
ATOM     39  C   UNL     1       8.469  -8.720   2.256  1.00  0.00     0.058 A 
ATOM     40  C   UNL     1       9.093  -8.438   1.030  1.00  0.00     0.135 A 
ATOM     41  C   UNL     1       7.974 -10.019   2.454  1.00  0.00     0.135 A 
ATOM     42  F   UNL     1       9.546  -7.201   0.771  1.00  0.00    -0.206 F 
ATOM     43  C   UNL     1       9.207  -9.403   0.034  1.00  0.00     0.059 A 
ATOM     44  C   UNL     1       8.100 -11.007   1.482  1.00  0.00     0.059 A 
ATOM     45  F   UNL     1       7.347 -10.336   3.598  1.00  0.00    -0.206 F 
ATOM     46  C   UNL     1       8.710 -10.686   0.271  1.00  0.00     0.060 A 
BRANCH  46  47
ATOM     47  S   UNL     1       8.880 -11.929  -1.026  1.00  0.00     0.124 S 
ATOM     48  O   UNL     1       7.938 -11.438  -2.027  1.00  0.00    -0.237 OA
ATOM     49  O   UNL     1      10.292 -11.819  -1.377  1.00  0.00    -0.237 OA
ATOM     50  O   UNL     1       8.496 -13.171  -0.361  1.00  0.00    -0.744 OA
ENDBRANCH  46  47
ENDBRANCH  25  39
BRANCH  26  51
ATOM     51  C   UNL     1       7.193  -1.239   8.939  1.00  0.00     0.058 A 
ATOM     52  C   UNL     1       8.232  -0.385   9.335  1.00  0.00     0.135 A 
ATOM     53  C   UNL     1       5.937  -1.050   9.544  1.00  0.00     0.135 A 
ATOM     54  F   UNL     1       9.453  -0.518   8.796  1.00  0.00    -0.206 F 
ATOM     55  C   UNL     1       8.046   0.589  10.316  1.00  0.00     0.059 A 
ATOM     56  C   UNL     1       5.716  -0.062  10.498  1.00  0.00     0.059 A 
ATOM     57  F   UNL     1       4.898  -1.828   9.200  1.00  0.00    -0.206 F 
ATOM     58  C   UNL     1       6.784   0.739  10.894  1.00  0.00     0.060 A 
BRANCH  58  59
ATOM     59  S   UNL     1       6.550   1.996  12.169  1.00  0.00     0.124 S 
ATOM     60  O   UNL     1       7.274   1.412  13.293  1.00  0.00    -0.237 OA
ATOM     61  O   UNL     1       7.161   3.172  11.558  1.00  0.00    -0.237 OA
ATOM     62  O   UNL     1       5.099   2.058  12.318  1.00  0.00    -0.744 OA
ENDBRANCH  58  59
ENDBRANCH  26  51
BRANCH  38  63
ATOM     63  C   UNL     1      11.018  -7.076   8.819  1.00  0.00     0.058 A 
ATOM     64  C   UNL     1      10.590  -7.603  10.047  1.00  0.00     0.135 A 
ATOM     65  C   UNL     1      12.386  -7.134   8.514  1.00  0.00     0.135 A 
ATOM     66  F   UNL     1       9.291  -7.564  10.385  1.00  0.00    -0.206 F 
ATOM     67  C   UNL     1      11.494  -8.133  10.959  1.00  0.00     0.059 A 
ATOM     68  C   UNL     1      13.303  -7.694   9.395  1.00  0.00     0.059 A 
ATOM     69  F   UNL     1      12.842  -6.656   7.345  1.00  0.00    -0.206 F 
ATOM     70  C   UNL     1      12.848  -8.174  10.623  1.00  0.00     0.060 A 
BRANCH  70  71
ATOM     71  S   UNL     1      14.009  -8.878  11.809  1.00  0.00     0.124 S 
ATOM     72  O   UNL     1      14.064  -7.830  12.822  1.00  0.00    -0.237 OA
ATOM     73  O   UNL     1      13.337 -10.111  12.207  1.00  0.00    -0.237 OA
ATOM     74  O   UNL     1      15.227  -9.060  11.025  1.00  0.00    -0.744 OA
ENDBRANCH  70  71
ENDBRANCH  38  63
ENDBRANCH  12  13
ENDBRANCH   5   7
ENDBRANCH   4   5
ENDBRANCH   3   4
ENDBRANCH   2   3
ENDBRANCH   1   2
BRANCH   1  75
ATOM     75  C   UNL     1       2.697   1.869   0.801  1.00  0.00     0.202 C 
BRANCH  75  76
ATOM     76  C   UNL     1       2.690   3.102   1.707  1.00  0.00     0.261 C 
BRANCH  76  77
ATOM     77  O   UNL     1       3.294   4.192   0.993  1.00  0.00    -0.460 OA
BRANCH  77  78
ATOM     78  C   UNL     1       4.649   4.217   1.054  1.00  0.00     0.339 C 
ATOM     79  O   UNL     1       5.386   3.652   1.846  1.00  0.00    -0.246 OA
BRANCH  78  80
ATOM     80  C   UNL     1       5.126   4.917  -0.136  1.00  0.00     0.080 A 
ATOM     81  C   UNL     1       6.150   4.379  -0.886  1.00  0.00     0.131 A 
ATOM     82  C   UNL     1       4.572   6.123  -0.536  1.00  0.00     0.043 A 
ATOM     83  N   UNL     1       6.594   4.946  -2.031  1.00  0.00    -0.220 NA
ATOM     84  C   UNL     1       5.086   6.782  -1.655  1.00  0.00     0.104 A 
ATOM     85  C   UNL     1       6.071   6.143  -2.418  1.00  0.00     0.232 A 
ATOM     86  Cl  UNL     1       4.477   8.383  -1.862  1.00  0.00    -0.078 Cl
BRANCH  85  87
ATOM     87  O   UNL     1       6.664   6.529  -3.572  1.00  0.00    -0.476 OA
BRANCH  87  88
ATOM     88  C   UNL     1       6.278   7.677  -4.310  1.00  0.00     0.235 C 
BRANCH  88  89
ATOM     89  C   UNL     1       4.959   7.490  -5.005  1.00  0.00     0.027 C 
ATOM     90  C   UNL     1       4.825   7.762  -6.480  1.00  0.00     0.007 C 
ATOM     91  C   UNL     1       4.736   6.352  -5.965  1.00  0.00     0.007 C 
ENDBRANCH  88  89
ENDBRANCH  87  88
ENDBRANCH  85  87
ENDBRANCH  78  80
ENDBRANCH  77  78
ENDBRANCH  76  77
ENDBRANCH  75  76
ENDBRANCH   1  75
TORSDOF 20
