REMARK SMILES O=C(OCCOCCOC(=O)c1cccn1CC(=O)N1CCS(=O)CC1)c1ccc(-c2c3nc(c(-c4c(F)cc(S(=O)(=O)[O-])cc4F)c4ccc([nH]4)c(-c4c(F)cc(S(=O)(=O)[O-])cc4F)c4nc(c(-c5c(F)cc(S(=O)(=O)[O-])cc5F)c5ccc2[nH]5)C=C4)C=C3)cc1
REMARK SMILES IDX 5 1 4 2 3 3 2 4 1 5 27 6 28 7 92 8 29 9 91 10 30 11 31 12
REMARK SMILES IDX 32 13 85 14 33 15 90 16 84 17 86 18 34 19 89 20 83 21 82 22
REMARK SMILES IDX 35 24 69 25 48 26 68 27 49 28 52 29 67 30 87 31 50 32 51 33
REMARK SMILES IDX 66 35 88 36 53 37 36 38 37 39 46 40 38 41 39 42 45 43 47 44
REMARK SMILES IDX 40 45 41 46 42 47 43 48 44 49 70 50 71 51 80 52 72 53 73 54
REMARK SMILES IDX 79 55 81 56 74 57 75 58 76 59 77 60 78 61 54 62 55 63 64 64
REMARK SMILES IDX 56 65 57 66 63 67 65 68 58 69 59 70 60 71 61 72 62 73 6 74
REMARK SMILES IDX 7 75 8 76 9 77 10 78 11 79 12 80 13 81 16 82 14 83 15 84
REMARK SMILES IDX 17 85 18 86 19 87 20 88 21 89 26 90 22 91 25 92 23 93 24 94
REMARK H PARENT 86 23 52 34
REMARK Flexibility Score: inf
ROOT
ATOM      1  C   UNL     1       5.083   1.373  -0.507  1.00  0.00     0.202 C 
ENDROOT
BRANCH   1   2
ATOM      2  C   UNL     1       4.492   0.016  -0.140  1.00  0.00     0.261 C 
BRANCH   2   3
ATOM      3  O   UNL     1       3.067  -0.057  -0.299  1.00  0.00    -0.460 OA
BRANCH   3   4
ATOM      4  C   UNL     1       2.114   0.332   0.589  1.00  0.00     0.338 C 
ATOM      5  O   UNL     1       1.039   0.791   0.223  1.00  0.00    -0.246 OA
BRANCH   4   6
ATOM      6  C   UNL     1       2.259  -0.219   1.931  1.00  0.00     0.060 A 
ATOM      7  C   UNL     1       3.472  -0.167   2.602  1.00  0.00     0.016 A 
ATOM      8  C   UNL     1       1.167  -0.935   2.438  1.00  0.00     0.016 A 
ATOM      9  C   UNL     1       3.709  -1.080   3.594  1.00  0.00     0.010 A 
ATOM     10  C   UNL     1       1.342  -1.718   3.560  1.00  0.00     0.010 A 
ATOM     11  C   UNL     1       2.627  -1.814   4.097  1.00  0.00    -0.014 A 
BRANCH  11  12
ATOM     12  C   UNL     1       2.843  -2.324   5.451  1.00  0.00     0.031 A 
ATOM     13  C   UNL     1       3.070  -1.100   6.373  1.00  0.00     0.074 A 
ATOM     14  C   UNL     1       2.910  -3.678   5.590  1.00  0.00     0.049 A 
ATOM     15  N   UNL     1       3.965  -0.900   7.290  1.00  0.00    -0.248 NA
ATOM     16  C   UNL     1       2.331   0.171   6.073  1.00  0.00     0.031 C 
ATOM     17  C   UNL     1       2.675  -4.668   4.514  1.00  0.00     0.029 A 
ATOM     18  N   UNL     1       3.195  -4.502   6.651  1.00  0.00    -0.354 N 
ATOM     19  C   UNL     1       3.702   0.377   7.839  1.00  0.00     0.074 A 
ATOM     20  C   UNL     1       2.890   1.065   6.889  1.00  0.00     0.031 C 
ATOM     21  C   UNL     1       2.899  -5.927   4.957  1.00  0.00     0.029 A 
ATOM     22  C   UNL     1       3.273  -5.889   6.357  1.00  0.00     0.049 A 
ATOM     23  H   UNL     1       3.337  -4.152   7.560  1.00  0.00     0.167 HD
ATOM     24  C   UNL     1       3.944   0.693   9.146  1.00  0.00     0.037 A 
ATOM     25  C   UNL     1       3.655  -6.910   7.191  1.00  0.00     0.037 A 
ATOM     26  C   UNL     1       4.456  -0.462   9.809  1.00  0.00     0.049 A 
ATOM     27  C   UNL     1       3.798  -6.268   8.510  1.00  0.00     0.074 A 
ATOM     28  C   UNL     1       5.652  -1.123   9.716  1.00  0.00     0.029 A 
ATOM     29  N   UNL     1       3.514  -1.298  10.371  1.00  0.00    -0.354 N 
ATOM     30  N   UNL     1       2.813  -5.812   9.224  1.00  0.00    -0.248 NA
ATOM     31  C   UNL     1       5.150  -5.987   9.008  1.00  0.00     0.031 C 
ATOM     32  C   UNL     1       5.267  -2.478   9.759  1.00  0.00     0.029 A 
ATOM     33  C   UNL     1       3.924  -2.588  10.148  1.00  0.00     0.049 A 
ATOM     34  H   UNL     1       2.697  -1.020  10.845  1.00  0.00     0.167 HD
ATOM     35  C   UNL     1       3.438  -4.912  10.053  1.00  0.00     0.074 A 
ATOM     36  C   UNL     1       4.835  -5.294  10.099  1.00  0.00     0.031 C 
ATOM     37  C   UNL     1       2.939  -3.652  10.174  1.00  0.00     0.037 A 
BRANCH  24  38
ATOM     38  C   UNL     1       3.461   1.818  10.027  1.00  0.00     0.058 A 
ATOM     39  C   UNL     1       4.094   1.964  11.288  1.00  0.00     0.135 A 
ATOM     40  C   UNL     1       2.239   2.489   9.873  1.00  0.00     0.135 A 
ATOM     41  F   UNL     1       5.311   1.439  11.511  1.00  0.00    -0.206 F 
ATOM     42  C   UNL     1       3.467   2.562  12.374  1.00  0.00     0.059 A 
ATOM     43  C   UNL     1       1.615   3.142  10.938  1.00  0.00     0.059 A 
ATOM     44  F   UNL     1       1.564   2.466   8.718  1.00  0.00    -0.206 F 
ATOM     45  C   UNL     1       2.204   3.109  12.198  1.00  0.00     0.060 A 
BRANCH  45  46
ATOM     46  S   UNL     1       1.326   3.723  13.647  1.00  0.00     0.124 S 
ATOM     47  O   UNL     1       0.929   2.479  14.297  1.00  0.00    -0.237 OA
ATOM     48  O   UNL     1       2.360   4.493  14.332  1.00  0.00    -0.237 OA
ATOM     49  O   UNL     1       0.244   4.516  13.071  1.00  0.00    -0.744 OA
ENDBRANCH  45  46
ENDBRANCH  24  38
BRANCH  25  50
ATOM     50  C   UNL     1       4.072  -8.366   7.104  1.00  0.00     0.058 A 
ATOM     51  C   UNL     1       4.074  -9.171   5.958  1.00  0.00     0.135 A 
ATOM     52  C   UNL     1       4.670  -8.985   8.242  1.00  0.00     0.135 A 
ATOM     53  F   UNL     1       3.422  -8.796   4.850  1.00  0.00    -0.206 F 
ATOM     54  C   UNL     1       4.766 -10.398   5.898  1.00  0.00     0.059 A 
ATOM     55  C   UNL     1       5.410 -10.162   8.195  1.00  0.00     0.059 A 
ATOM     56  F   UNL     1       4.597  -8.438   9.464  1.00  0.00    -0.206 F 
ATOM     57  C   UNL     1       5.487 -10.851   7.003  1.00  0.00     0.060 A 
BRANCH  57  58
ATOM     58  S   UNL     1       6.631 -12.242   6.870  1.00  0.00     0.124 S 
ATOM     59  O   UNL     1       5.752 -13.384   7.089  1.00  0.00    -0.237 OA
ATOM     60  O   UNL     1       7.156 -12.090   5.516  1.00  0.00    -0.237 OA
ATOM     61  O   UNL     1       7.599 -11.979   7.933  1.00  0.00    -0.744 OA
ENDBRANCH  57  58
ENDBRANCH  25  50
BRANCH  37  62
ATOM     62  C   UNL     1       1.437  -3.524   9.928  1.00  0.00     0.058 A 
ATOM     63  C   UNL     1       0.523  -4.273  10.687  1.00  0.00     0.135 A 
ATOM     64  C   UNL     1       0.864  -2.745   8.909  1.00  0.00     0.135 A 
ATOM     65  F   UNL     1       0.964  -5.028  11.706  1.00  0.00    -0.206 F 
ATOM     66  C   UNL     1      -0.857  -4.259  10.437  1.00  0.00     0.059 A 
ATOM     67  C   UNL     1      -0.506  -2.715   8.626  1.00  0.00     0.059 A 
ATOM     68  F   UNL     1       1.631  -1.965   8.157  1.00  0.00    -0.206 F 
ATOM     69  C   UNL     1      -1.366  -3.478   9.401  1.00  0.00     0.060 A 
BRANCH  69  70
ATOM     70  S   UNL     1      -3.150  -3.445   9.108  1.00  0.00     0.124 S 
ATOM     71  O   UNL     1      -3.455  -4.851   8.863  1.00  0.00    -0.237 OA
ATOM     72  O   UNL     1      -3.654  -2.899  10.363  1.00  0.00    -0.237 OA
ATOM     73  O   UNL     1      -3.294  -2.570   7.946  1.00  0.00    -0.744 OA
ENDBRANCH  69  70
ENDBRANCH  37  62
ENDBRANCH  11  12
ENDBRANCH   4   6
ENDBRANCH   3   4
ENDBRANCH   2   3
ENDBRANCH   1   2
BRANCH   1  74
ATOM     74  O   UNL     1       4.233   2.499  -0.377  1.00  0.00    -0.374 OA
BRANCH  74  75
ATOM     75  C   UNL     1       3.167   2.652  -1.320  1.00  0.00     0.202 C 
BRANCH  75  76
ATOM     76  C   UNL     1       3.523   2.780  -2.799  1.00  0.00     0.261 C 
BRANCH  76  77
ATOM     77  O   UNL     1       3.717   1.490  -3.430  1.00  0.00    -0.459 OA
BRANCH  77  78
ATOM     78  C   UNL     1       4.966   1.222  -3.900  1.00  0.00     0.355 C 
ATOM     79  O   UNL     1       5.954   1.915  -3.724  1.00  0.00    -0.244 OA
BRANCH  78  80
ATOM     80  C   UNL     1       4.967  -0.019  -4.641  1.00  0.00     0.128 A 
ATOM     81  C   UNL     1       4.400  -0.238  -5.887  1.00  0.00     0.035 A 
ATOM     82  N   UNL     1       5.636  -1.187  -4.306  1.00  0.00    -0.333 N 
ATOM     83  C   UNL     1       4.879  -1.476  -6.376  1.00  0.00     0.020 A 
ATOM     84  C   UNL     1       5.677  -2.020  -5.398  1.00  0.00     0.087 A 
BRANCH  82  85
ATOM     85  C   UNL     1       6.301  -1.483  -3.050  1.00  0.00     0.222 C 
BRANCH  85  86
ATOM     86  C   UNL     1       5.896  -2.728  -2.248  1.00  0.00     0.242 C 
ATOM     87  O   UNL     1       6.819  -3.325  -1.671  1.00  0.00    -0.273 OA
ATOM     88  N   UNL     1       4.574  -3.068  -1.960  1.00  0.00    -0.339 N 
ATOM     89  C   UNL     1       4.323  -3.995  -0.837  1.00  0.00     0.133 C 
ATOM     90  C   UNL     1       3.434  -2.951  -2.876  1.00  0.00     0.133 C 
ATOM     91  C   UNL     1       3.155  -3.562   0.039  1.00  0.00     0.126 C 
ATOM     92  C   UNL     1       2.158  -2.439  -2.232  1.00  0.00     0.126 C 
ATOM     93  S   UNL     1       1.587  -3.481  -0.868  1.00  0.00     0.025 S 
ATOM     94  O   UNL     1       1.297  -4.841  -1.430  1.00  0.00    -0.259 OA
ENDBRANCH  85  86
ENDBRANCH  82  85
ENDBRANCH  78  80
ENDBRANCH  77  78
ENDBRANCH  76  77
ENDBRANCH  75  76
ENDBRANCH  74  75
ENDBRANCH   1  74
TORSDOF 19
