REMARK SMILES CCC[N@H+](CC(=O)OCCOCCOC(=O)c1ccc(-c2c3nc(c(-c4c(F)cc(S(=O)(=O)[O-])cc4F)c4ccc([nH]4)c(-c4c(F)cc(S(=O)(=O)[O-])cc4F)c4nc(c(-c5c(F)cc(S(=O)(=O)[O-])cc5F)c5ccc2[nH]5)C=C4)C=C3)cc1)[C@H]1CCOC2(CCCCC2)C1
REMARK SMILES IDX 11 1 10 2 9 3 8 4 6 5 7 6 5 7 4 8 3 10 2 11 1 12 83 13 84 14
REMARK SMILES IDX 93 15 85 16 87 17 86 18 88 19 92 20 89 21 91 22 90 23 12 24
REMARK SMILES IDX 13 25 14 26 15 27 16 28 17 29 18 30 82 31 19 32 81 33 20 34
REMARK SMILES IDX 21 35 22 36 75 37 23 38 80 39 74 40 76 41 24 42 79 43 73 44
REMARK SMILES IDX 72 45 25 47 59 48 38 49 58 50 39 51 42 52 57 53 77 54 40 55
REMARK SMILES IDX 41 56 56 58 78 59 43 60 26 61 27 62 36 63 28 64 29 65 35 66
REMARK SMILES IDX 37 67 30 68 31 69 32 70 33 71 34 72 60 73 61 74 70 75 62 76
REMARK SMILES IDX 63 77 69 78 71 79 64 80 65 81 66 82 67 83 68 84 44 85 45 86
REMARK SMILES IDX 54 87 46 88 47 89 53 90 55 91 48 92 49 93 50 94 51 95 52 96
REMARK H PARENT 4 9 76 46 42 57
REMARK Flexibility Score: inf
ROOT
ATOM      1  O   UNL     1      -3.080   0.282  -3.351  1.00  0.00    -0.374 OA
ENDROOT
BRANCH   1   2
ATOM      2  C   UNL     1      -4.076   1.171  -2.842  1.00  0.00     0.202 C 
BRANCH   2   3
ATOM      3  C   UNL     1      -4.341   1.059  -1.338  1.00  0.00     0.261 C 
BRANCH   3   4
ATOM      4  O   UNL     1      -3.277   1.655  -0.572  1.00  0.00    -0.459 OA
BRANCH   4   5
ATOM      5  C   UNL     1      -2.451   0.803   0.086  1.00  0.00     0.361 C 
ATOM      6  O   UNL     1      -2.608  -0.414   0.141  1.00  0.00    -0.245 OA
BRANCH   5   7
ATOM      7  C   UNL     1      -1.333   1.510   0.841  1.00  0.00     0.386 C 
BRANCH   7   8
ATOM      8  N   UNL     1      -0.384   2.397   0.055  1.00  0.00    -0.323 N 
ATOM      9  H   UNL     1      -0.113   2.035  -0.860  1.00  0.00     0.348 HD
BRANCH   8  10
ATOM     10  C   UNL     1      -1.067   3.666  -0.293  1.00  0.00     0.262 C 
BRANCH  10  11
ATOM     11  C   UNL     1      -0.352   4.818  -1.034  1.00  0.00     0.058 C 
ATOM     12  C   UNL     1       0.542   4.435  -2.202  1.00  0.00     0.010 C 
ENDBRANCH  10  11
ENDBRANCH   8  10
BRANCH   8  13
ATOM     13  C   UNL     1       0.876   2.474   0.859  1.00  0.00     0.189 C 
ATOM     14  C   UNL     1       1.869   1.432   0.312  1.00  0.00     0.093 C 
ATOM     15  C   UNL     1       1.624   3.801   0.980  1.00  0.00     0.100 C 
ATOM     16  C   UNL     1       3.129   1.382   1.169  1.00  0.00     0.167 C 
ATOM     17  C   UNL     1       2.900   3.699   1.835  1.00  0.00     0.074 C 
ATOM     18  O   UNL     1       3.745   2.659   1.321  1.00  0.00    -0.375 OA
ATOM     19  C   UNL     1       2.565   3.479   3.327  1.00  0.00     0.036 C 
ATOM     20  C   UNL     1       3.674   5.029   1.661  1.00  0.00     0.036 C 
ATOM     21  C   UNL     1       3.788   3.604   4.233  1.00  0.00     0.003 C 
ATOM     22  C   UNL     1       4.879   5.154   2.589  1.00  0.00     0.003 C 
ATOM     23  C   UNL     1       4.478   4.948   4.044  1.00  0.00     0.000 C 
ENDBRANCH   8  13
ENDBRANCH   7   8
ENDBRANCH   5   7
ENDBRANCH   4   5
ENDBRANCH   3   4
ENDBRANCH   2   3
ENDBRANCH   1   2
BRANCH   1  24
ATOM     24  C   UNL     1      -1.717   0.664  -3.160  1.00  0.00     0.202 C 
BRANCH  24  25
ATOM     25  C   UNL     1      -1.189   1.704  -4.149  1.00  0.00     0.261 C 
BRANCH  25  26
ATOM     26  O   UNL     1      -1.837   2.975  -3.960  1.00  0.00    -0.460 OA
BRANCH  26  27
ATOM     27  C   UNL     1      -2.497   3.459  -5.034  1.00  0.00     0.338 C 
ATOM     28  O   UNL     1      -2.548   2.969  -6.153  1.00  0.00    -0.246 OA
BRANCH  27  29
ATOM     29  C   UNL     1      -3.308   4.624  -4.637  1.00  0.00     0.060 A 
ATOM     30  C   UNL     1      -4.681   4.569  -4.893  1.00  0.00     0.016 A 
ATOM     31  C   UNL     1      -2.733   5.783  -4.106  1.00  0.00     0.016 A 
ATOM     32  C   UNL     1      -5.476   5.691  -4.667  1.00  0.00     0.010 A 
ATOM     33  C   UNL     1      -3.536   6.907  -3.873  1.00  0.00     0.010 A 
ATOM     34  C   UNL     1      -4.905   6.879  -4.189  1.00  0.00    -0.014 A 
BRANCH  34  35
ATOM     35  C   UNL     1      -5.730   8.113  -4.147  1.00  0.00     0.031 A 
ATOM     36  C   UNL     1      -5.588   9.135  -5.245  1.00  0.00     0.074 A 
ATOM     37  C   UNL     1      -6.643   8.290  -3.174  1.00  0.00     0.049 A 
ATOM     38  N   UNL     1      -6.246  10.251  -5.426  1.00  0.00    -0.248 NA
ATOM     39  C   UNL     1      -4.571   8.864  -6.274  1.00  0.00     0.031 C 
ATOM     40  C   UNL     1      -6.883   7.369  -2.063  1.00  0.00     0.029 A 
ATOM     41  N   UNL     1      -7.542   9.307  -2.968  1.00  0.00    -0.354 N 
ATOM     42  C   UNL     1      -5.734  10.809  -6.592  1.00  0.00     0.074 A 
ATOM     43  C   UNL     1      -4.680   9.932  -7.053  1.00  0.00     0.031 C 
ATOM     44  C   UNL     1      -7.867   7.864  -1.292  1.00  0.00     0.029 A 
ATOM     45  C   UNL     1      -8.314   9.141  -1.843  1.00  0.00     0.049 A 
ATOM     46  H   UNL     1      -7.625  10.082  -3.569  1.00  0.00     0.167 HD
ATOM     47  C   UNL     1      -6.119  11.940  -7.231  1.00  0.00     0.037 A 
ATOM     48  C   UNL     1      -9.268   9.933  -1.315  1.00  0.00     0.037 A 
ATOM     49  C   UNL     1      -7.170  12.812  -6.776  1.00  0.00     0.049 A 
ATOM     50  C   UNL     1      -9.648  11.208  -2.023  1.00  0.00     0.074 A 
ATOM     51  C   UNL     1      -7.642  13.973  -7.365  1.00  0.00     0.029 A 
ATOM     52  N   UNL     1      -7.913  12.623  -5.621  1.00  0.00    -0.354 N 
ATOM     53  N   UNL     1      -9.175  11.703  -3.142  1.00  0.00    -0.248 NA
ATOM     54  C   UNL     1     -10.699  12.026  -1.401  1.00  0.00     0.031 C 
ATOM     55  C   UNL     1      -8.645  14.505  -6.547  1.00  0.00     0.029 A 
ATOM     56  C   UNL     1      -8.826  13.653  -5.470  1.00  0.00     0.049 A 
ATOM     57  H   UNL     1      -7.807  11.867  -4.999  1.00  0.00     0.167 HD
ATOM     58  C   UNL     1      -9.885  12.879  -3.367  1.00  0.00     0.074 A 
ATOM     59  C   UNL     1     -10.832  13.010  -2.280  1.00  0.00     0.031 C 
ATOM     60  C   UNL     1      -9.763  13.771  -4.382  1.00  0.00     0.037 A 
BRANCH  47  61
ATOM     61  C   UNL     1      -5.400  12.304  -8.499  1.00  0.00     0.058 A 
ATOM     62  C   UNL     1      -5.629  11.608  -9.697  1.00  0.00     0.135 A 
ATOM     63  C   UNL     1      -4.517  13.395  -8.533  1.00  0.00     0.135 A 
ATOM     64  F   UNL     1      -6.450  10.546  -9.715  1.00  0.00    -0.206 F 
ATOM     65  C   UNL     1      -5.000  11.974 -10.882  1.00  0.00     0.059 A 
ATOM     66  C   UNL     1      -3.893  13.793  -9.712  1.00  0.00     0.059 A 
ATOM     67  F   UNL     1      -4.260  14.091  -7.415  1.00  0.00    -0.206 F 
ATOM     68  C   UNL     1      -4.135  13.070 -10.880  1.00  0.00     0.060 A 
BRANCH  68  69
ATOM     69  S   UNL     1      -3.348  13.551 -12.433  1.00  0.00     0.124 S 
ATOM     70  O   UNL     1      -2.353  12.494 -12.594  1.00  0.00    -0.237 OA
ATOM     71  O   UNL     1      -4.464  13.519 -13.372  1.00  0.00    -0.237 OA
ATOM     72  O   UNL     1      -2.812  14.878 -12.145  1.00  0.00    -0.744 OA
ENDBRANCH  68  69
ENDBRANCH  47  61
BRANCH  48  73
ATOM     73  C   UNL     1      -9.931   9.555  -0.039  1.00  0.00     0.058 A 
ATOM     74  C   UNL     1     -11.278   9.167  -0.004  1.00  0.00     0.135 A 
ATOM     75  C   UNL     1      -9.231   9.602   1.177  1.00  0.00     0.135 A 
ATOM     76  F   UNL     1     -11.991   9.116  -1.139  1.00  0.00    -0.206 F 
ATOM     77  C   UNL     1     -11.917   8.862   1.194  1.00  0.00     0.059 A 
ATOM     78  C   UNL     1      -9.841   9.278   2.384  1.00  0.00     0.059 A 
ATOM     79  F   UNL     1      -7.936   9.955   1.195  1.00  0.00    -0.206 F 
ATOM     80  C   UNL     1     -11.189   8.924   2.384  1.00  0.00     0.060 A 
BRANCH  80  81
ATOM     81  S   UNL     1     -12.014   8.501   3.934  1.00  0.00     0.124 S 
ATOM     82  O   UNL     1     -12.794   9.706   4.189  1.00  0.00    -0.237 OA
ATOM     83  O   UNL     1     -12.776   7.312   3.564  1.00  0.00    -0.237 OA
ATOM     84  O   UNL     1     -10.901   8.262   4.848  1.00  0.00    -0.744 OA
ENDBRANCH  80  81
ENDBRANCH  48  73
BRANCH  60  85
ATOM     85  C   UNL     1     -10.690  14.954  -4.372  1.00  0.00     0.058 A 
ATOM     86  C   UNL     1     -10.525  16.011  -3.463  1.00  0.00     0.135 A 
ATOM     87  C   UNL     1     -11.741  15.045  -5.300  1.00  0.00     0.135 A 
ATOM     88  F   UNL     1      -9.539  15.970  -2.553  1.00  0.00    -0.206 F 
ATOM     89  C   UNL     1     -11.390  17.100  -3.450  1.00  0.00     0.059 A 
ATOM     90  C   UNL     1     -12.602  16.138  -5.322  1.00  0.00     0.059 A 
ATOM     91  F   UNL     1     -11.935  14.069  -6.200  1.00  0.00    -0.206 F 
ATOM     92  C   UNL     1     -12.430  17.152  -4.381  1.00  0.00     0.060 A 
BRANCH  92  93
ATOM     93  S   UNL     1     -13.543  18.574  -4.361  1.00  0.00     0.124 S 
ATOM     94  O   UNL     1     -14.393  18.264  -3.216  1.00  0.00    -0.237 OA
ATOM     95  O   UNL     1     -12.622  19.693  -4.183  1.00  0.00    -0.237 OA
ATOM     96  O   UNL     1     -14.196  18.511  -5.665  1.00  0.00    -0.744 OA
ENDBRANCH  92  93
ENDBRANCH  60  85
ENDBRANCH  34  35
ENDBRANCH  27  29
ENDBRANCH  26  27
ENDBRANCH  25  26
ENDBRANCH  24  25
ENDBRANCH   1  24
TORSDOF 21
