REMARK SMILES CCCc1c(C(=O)OCCOCCOC(=O)c2ccc(-c3c4nc(c(-c5c(F)cc(S(=O)(=O)[O-])cc5F)c5ccc([nH]5)c(-c5c(F)cc(S(=O)(=O)[O-])cc5F)c5nc(c(-c6c(F)cc(S(=O)(=O)[O-])cc6F)c6ccc3[nH]6)C=C5)C=C4)cc2)nnn1-c1ccccc1[N+](=O)[O-]
REMARK SMILES IDX 12 1 11 2 10 3 9 4 8 5 6 6 7 7 5 8 4 9 85 10 83 11 84 12
REMARK SMILES IDX 3 13 2 14 1 15 86 16 87 17 91 18 88 19 90 20 89 21 92 22
REMARK SMILES IDX 93 23 94 24 13 25 14 26 15 27 16 28 17 29 18 30 82 31 19 32
REMARK SMILES IDX 81 33 20 34 21 35 22 36 75 37 23 38 80 39 74 40 76 41 24 42
REMARK SMILES IDX 79 43 73 44 72 45 25 47 59 48 38 49 58 50 39 51 42 52 57 53
REMARK SMILES IDX 77 54 40 55 41 56 56 58 78 59 43 60 26 61 27 62 36 63 28 64
REMARK SMILES IDX 29 65 35 66 37 67 30 68 31 69 32 70 33 71 34 72 60 73 61 74
REMARK SMILES IDX 70 75 62 76 63 77 69 78 71 79 64 80 65 81 66 82 67 83 68 84
REMARK SMILES IDX 44 85 45 86 54 87 46 88 47 89 53 90 55 91 48 92 49 93 50 94
REMARK SMILES IDX 51 95 52 96
REMARK H PARENT 76 46 42 57
REMARK Flexibility Score: inf
ROOT
ATOM      1  C   UNL     1      -0.307  -2.957  -2.470  1.00  0.00     0.202 C 
ENDROOT
BRANCH   1   2
ATOM      2  O   UNL     1       0.727  -3.787  -1.943  1.00  0.00    -0.374 OA
BRANCH   2   3
ATOM      3  C   UNL     1       1.515  -3.269  -0.867  1.00  0.00     0.202 C 
BRANCH   3   4
ATOM      4  C   UNL     1       2.699  -2.395  -1.296  1.00  0.00     0.261 C 
BRANCH   4   5
ATOM      5  O   UNL     1       2.265  -1.053  -1.603  1.00  0.00    -0.458 OA
BRANCH   5   6
ATOM      6  C   UNL     1       2.080  -0.771  -2.919  1.00  0.00     0.360 C 
ATOM      7  O   UNL     1       2.494  -1.480  -3.829  1.00  0.00    -0.244 OA
BRANCH   6   8
ATOM      8  C   UNL     1       1.191   0.366  -3.149  1.00  0.00     0.194 A 
ATOM      9  C   UNL     1       0.926   1.535  -2.432  1.00  0.00     0.080 A 
ATOM     10  N   UNL     1       0.157   2.262  -3.342  1.00  0.00    -0.210 N 
ATOM     11  N   UNL     1       0.353   0.325  -4.243  1.00  0.00    -0.122 NA
ATOM     12  N   UNL     1      -0.373   1.425  -4.257  1.00  0.00    -0.061 NA
BRANCH   9  13
ATOM     13  C   UNL     1       1.359   2.082  -1.105  1.00  0.00     0.059 C 
BRANCH  13  14
ATOM     14  C   UNL     1       0.559   1.602   0.108  1.00  0.00     0.003 C 
ATOM     15  C   UNL     1       1.068   0.296   0.682  1.00  0.00     0.004 C 
ENDBRANCH  13  14
ENDBRANCH   9  13
BRANCH  10  16
ATOM     16  C   UNL     1      -0.063   3.653  -3.474  1.00  0.00     0.144 A 
ATOM     17  C   UNL     1      -1.350   4.083  -3.837  1.00  0.00     0.036 A 
ATOM     18  C   UNL     1       0.948   4.613  -3.307  1.00  0.00     0.294 A 
ATOM     19  C   UNL     1      -1.633   5.449  -3.939  1.00  0.00     0.003 A 
ATOM     20  C   UNL     1       0.661   5.984  -3.405  1.00  0.00     0.088 A 
ATOM     21  C   UNL     1      -0.636   6.396  -3.707  1.00  0.00     0.007 A 
BRANCH  18  22
ATOM     22  N   UNL     1       2.358   4.254  -3.191  1.00  0.00     0.065 N 
ATOM     23  O   UNL     1       3.031   4.869  -2.353  1.00  0.00    -0.258 OA
ATOM     24  O   UNL     1       2.793   3.374  -3.944  1.00  0.00    -0.258 OA
ENDBRANCH  18  22
ENDBRANCH  10  16
ENDBRANCH   6   8
ENDBRANCH   5   6
ENDBRANCH   4   5
ENDBRANCH   3   4
ENDBRANCH   2   3
ENDBRANCH   1   2
BRANCH   1  25
ATOM     25  C   UNL     1      -1.641  -3.006  -1.743  1.00  0.00     0.261 C 
BRANCH  25  26
ATOM     26  O   UNL     1      -1.498  -2.448  -0.449  1.00  0.00    -0.460 OA
BRANCH  26  27
ATOM     27  C   UNL     1      -1.262  -3.322   0.560  1.00  0.00     0.338 C 
ATOM     28  O   UNL     1      -1.067  -4.511   0.489  1.00  0.00    -0.246 OA
BRANCH  27  29
ATOM     29  C   UNL     1      -1.427  -2.555   1.805  1.00  0.00     0.060 A 
ATOM     30  C   UNL     1      -1.658  -3.297   2.961  1.00  0.00     0.016 A 
ATOM     31  C   UNL     1      -1.721  -1.186   1.720  1.00  0.00     0.016 A 
ATOM     32  C   UNL     1      -2.498  -2.749   3.900  1.00  0.00     0.010 A 
ATOM     33  C   UNL     1      -2.531  -0.634   2.662  1.00  0.00     0.010 A 
ATOM     34  C   UNL     1      -3.019  -1.479   3.648  1.00  0.00    -0.014 A 
BRANCH  34  35
ATOM     35  C   UNL     1      -4.123  -0.994   4.432  1.00  0.00     0.031 A 
ATOM     36  C   UNL     1      -3.654  -0.382   5.684  1.00  0.00     0.074 A 
ATOM     37  C   UNL     1      -5.371  -0.974   3.929  1.00  0.00     0.049 A 
ATOM     38  N   UNL     1      -3.618  -0.936   6.850  1.00  0.00    -0.248 NA
ATOM     39  C   UNL     1      -2.833   0.838   5.575  1.00  0.00     0.031 C 
ATOM     40  C   UNL     1      -5.824  -1.300   2.572  1.00  0.00     0.029 A 
ATOM     41  N   UNL     1      -6.501  -0.516   4.527  1.00  0.00    -0.354 N 
ATOM     42  C   UNL     1      -3.040   0.027   7.664  1.00  0.00     0.074 A 
ATOM     43  C   UNL     1      -2.277   0.864   6.786  1.00  0.00     0.031 C 
ATOM     44  C   UNL     1      -7.067  -0.800   2.386  1.00  0.00     0.029 A 
ATOM     45  C   UNL     1      -7.533  -0.221   3.632  1.00  0.00     0.049 A 
ATOM     46  H   UNL     1      -6.586  -0.402   5.501  1.00  0.00     0.167 HD
ATOM     47  C   UNL     1      -3.559   0.296   8.894  1.00  0.00     0.037 A 
ATOM     48  C   UNL     1      -8.589   0.580   3.937  1.00  0.00     0.037 A 
ATOM     49  C   UNL     1      -4.445  -0.772   9.309  1.00  0.00     0.049 A 
ATOM     50  C   UNL     1      -8.675   0.594   5.436  1.00  0.00     0.074 A 
ATOM     51  C   UNL     1      -4.305  -2.142   9.446  1.00  0.00     0.029 A 
ATOM     52  N   UNL     1      -5.802  -0.542   9.231  1.00  0.00    -0.354 N 
ATOM     53  N   UNL     1      -8.931  -0.478   6.148  1.00  0.00    -0.248 NA
ATOM     54  C   UNL     1      -7.926   1.633   6.136  1.00  0.00     0.031 C 
ATOM     55  C   UNL     1      -5.523  -2.690   8.946  1.00  0.00     0.029 A 
ATOM     56  C   UNL     1      -6.377  -1.633   8.628  1.00  0.00     0.049 A 
ATOM     57  H   UNL     1      -6.274   0.261   9.551  1.00  0.00     0.167 HD
ATOM     58  C   UNL     1      -8.032  -0.431   7.210  1.00  0.00     0.074 A 
ATOM     59  C   UNL     1      -7.466   0.917   7.168  1.00  0.00     0.031 C 
ATOM     60  C   UNL     1      -7.589  -1.565   7.836  1.00  0.00     0.037 A 
BRANCH  47  61
ATOM     61  C   UNL     1      -3.628   1.687   9.497  1.00  0.00     0.058 A 
ATOM     62  C   UNL     1      -4.159   1.816  10.796  1.00  0.00     0.135 A 
ATOM     63  C   UNL     1      -3.465   2.905   8.794  1.00  0.00     0.135 A 
ATOM     64  F   UNL     1      -4.325   0.737  11.578  1.00  0.00    -0.206 F 
ATOM     65  C   UNL     1      -4.612   3.033  11.302  1.00  0.00     0.059 A 
ATOM     66  C   UNL     1      -3.866   4.133   9.298  1.00  0.00     0.059 A 
ATOM     67  F   UNL     1      -2.985   2.989   7.551  1.00  0.00    -0.206 F 
ATOM     68  C   UNL     1      -4.484   4.182  10.531  1.00  0.00     0.060 A 
BRANCH  68  69
ATOM     69  S   UNL     1      -5.170   5.733  11.121  1.00  0.00     0.124 S 
ATOM     70  O   UNL     1      -6.600   5.450  11.079  1.00  0.00    -0.237 OA
ATOM     71  O   UNL     1      -4.572   5.836  12.448  1.00  0.00    -0.237 OA
ATOM     72  O   UNL     1      -4.689   6.706  10.145  1.00  0.00    -0.744 OA
ENDBRANCH  68  69
ENDBRANCH  47  61
BRANCH  48  73
ATOM     73  C   UNL     1      -9.171   1.640   3.058  1.00  0.00     0.058 A 
ATOM     74  C   UNL     1     -10.370   2.305   3.377  1.00  0.00     0.135 A 
ATOM     75  C   UNL     1      -8.431   2.199   1.994  1.00  0.00     0.135 A 
ATOM     76  F   UNL     1     -11.131   1.869   4.393  1.00  0.00    -0.206 F 
ATOM     77  C   UNL     1     -10.791   3.463   2.700  1.00  0.00     0.059 A 
ATOM     78  C   UNL     1      -8.835   3.337   1.299  1.00  0.00     0.059 A 
ATOM     79  F   UNL     1      -7.233   1.711   1.643  1.00  0.00    -0.206 F 
ATOM     80  C   UNL     1     -10.005   3.980   1.669  1.00  0.00     0.060 A 
BRANCH  80  81
ATOM     81  S   UNL     1     -10.444   5.551   0.884  1.00  0.00     0.124 S 
ATOM     82  O   UNL     1     -11.667   5.203   0.169  1.00  0.00    -0.237 OA
ATOM     83  O   UNL     1     -10.603   6.438   2.031  1.00  0.00    -0.237 OA
ATOM     84  O   UNL     1      -9.289   5.840   0.035  1.00  0.00    -0.744 OA
ENDBRANCH  80  81
ENDBRANCH  48  73
BRANCH  60  85
ATOM     85  C   UNL     1      -8.254  -2.887   7.534  1.00  0.00     0.058 A 
ATOM     86  C   UNL     1      -8.239  -3.520   6.278  1.00  0.00     0.135 A 
ATOM     87  C   UNL     1      -8.741  -3.636   8.617  1.00  0.00     0.135 A 
ATOM     88  F   UNL     1      -7.690  -2.920   5.213  1.00  0.00    -0.206 F 
ATOM     89  C   UNL     1      -8.718  -4.821   6.101  1.00  0.00     0.059 A 
ATOM     90  C   UNL     1      -9.192  -4.944   8.471  1.00  0.00     0.059 A 
ATOM     91  F   UNL     1      -8.719  -3.117   9.855  1.00  0.00    -0.206 F 
ATOM     92  C   UNL     1      -9.190  -5.528   7.207  1.00  0.00     0.060 A 
BRANCH  92  93
ATOM     93  S   UNL     1      -9.746  -7.234   6.997  1.00  0.00     0.124 S 
ATOM     94  O   UNL     1     -10.972  -7.063   6.226  1.00  0.00    -0.237 OA
ATOM     95  O   UNL     1      -8.628  -7.846   6.285  1.00  0.00    -0.237 OA
ATOM     96  O   UNL     1      -9.932  -7.704   8.368  1.00  0.00    -0.744 OA
ENDBRANCH  92  93
ENDBRANCH  60  85
ENDBRANCH  34  35
ENDBRANCH  27  29
ENDBRANCH  26  27
ENDBRANCH  25  26
ENDBRANCH   1  25
TORSDOF 21
