REMARK SMILES C[C@@H](CC(=O)OCCOCCOC(=O)c1ccc(-c2c3nc(c(-c4c(F)cc(S(=O)(=O)[O-])cc4F)c4ccc([nH]4)c(-c4c(F)cc(S(=O)(=O)[O-])cc4F)c4nc(c(-c5c(F)cc(S(=O)(=O)[O-])cc5F)c5ccc2[nH]5)C=C4)C=C3)cc1)NC(=O)[C@@H]1CCCN(C(N)=O)C1
REMARK SMILES IDX 8 1 7 2 6 3 4 4 5 5 3 6 2 7 1 8 81 9 82 10 83 12 84 13 85 14
REMARK SMILES IDX 92 15 86 16 88 17 87 18 89 19 90 20 91 21 9 24 10 25 11 26
REMARK SMILES IDX 12 27 13 28 14 29 15 30 16 31 80 32 17 33 79 34 18 35 19 36
REMARK SMILES IDX 20 37 73 38 21 39 78 40 72 41 74 42 22 43 77 44 71 45 70 46
REMARK SMILES IDX 23 48 57 49 36 50 56 51 37 52 40 53 55 54 75 55 38 56 39 57
REMARK SMILES IDX 54 59 76 60 41 61 24 62 25 63 34 64 26 65 27 66 33 67 35 68
REMARK SMILES IDX 28 69 29 70 30 71 31 72 32 73 58 74 59 75 68 76 60 77 61 78
REMARK SMILES IDX 67 79 69 80 62 81 63 82 64 83 65 84 66 85 42 86 43 87 52 88
REMARK SMILES IDX 44 89 45 90 51 91 53 92 46 93 47 94 48 95 49 96 50 97
REMARK H PARENT 81 11 90 22 90 23 74 47 40 58
REMARK Flexibility Score: inf
ROOT
ATOM      1  C   UNL     1      -0.802  -2.088   4.310  1.00  0.00     0.202 C 
ENDROOT
BRANCH   1   2
ATOM      2  C   UNL     1       0.632  -2.416   3.892  1.00  0.00     0.261 C 
BRANCH   2   3
ATOM      3  O   UNL     1       0.892  -1.927   2.562  1.00  0.00    -0.463 OA
BRANCH   3   4
ATOM      4  C   UNL     1       1.171  -2.842   1.609  1.00  0.00     0.307 C 
ATOM      5  O   UNL     1       1.282  -4.047   1.805  1.00  0.00    -0.252 OA
BRANCH   4   6
ATOM      6  C   UNL     1       1.408  -2.234   0.245  1.00  0.00     0.147 C 
BRANCH   6   7
ATOM      7  C   UNL     1       0.739  -0.911  -0.165  1.00  0.00     0.090 C 
ATOM      8  C   UNL     1       0.952   0.258   0.792  1.00  0.00     0.031 C 
BRANCH   7   9
ATOM      9  N   UNL     1      -0.673  -1.054  -0.504  1.00  0.00    -0.353 N 
ATOM     10  C   UNL     1      -1.336  -1.290  -1.662  1.00  0.00     0.225 C 
ATOM     11  H   UNL     1      -1.270  -0.959   0.272  1.00  0.00     0.163 HD
ATOM     12  O   UNL     1      -2.572  -1.331  -1.568  1.00  0.00    -0.275 OA
BRANCH  10  13
ATOM     13  C   UNL     1      -0.714  -1.400  -3.058  1.00  0.00     0.098 C 
ATOM     14  C   UNL     1       0.565  -2.203  -3.287  1.00  0.00     0.017 C 
ATOM     15  C   UNL     1      -0.638  -0.034  -3.720  1.00  0.00     0.134 C 
ATOM     16  C   UNL     1       1.887  -1.422  -3.343  1.00  0.00     0.022 C 
ATOM     17  N   UNL     1       0.526   0.687  -3.239  1.00  0.00    -0.324 N 
ATOM     18  C   UNL     1       1.805   0.091  -3.603  1.00  0.00     0.121 C 
BRANCH  17  19
ATOM     19  C   UNL     1       0.506   1.881  -2.557  1.00  0.00     0.314 C 
ATOM     20  N   UNL     1      -0.702   2.371  -2.201  1.00  0.00    -0.351 N 
ATOM     21  O   UNL     1       1.514   2.507  -2.247  1.00  0.00    -0.249 OA
ATOM     22  H   UNL     1      -1.522   1.882  -2.442  1.00  0.00     0.161 HD
ATOM     23  H   UNL     1      -0.762   3.217  -1.701  1.00  0.00     0.161 HD
ENDBRANCH  17  19
ENDBRANCH  10  13
ENDBRANCH   7   9
ENDBRANCH   6   7
ENDBRANCH   4   6
ENDBRANCH   3   4
ENDBRANCH   2   3
ENDBRANCH   1   2
BRANCH   1  24
ATOM     24  O   UNL     1      -1.801  -2.927   3.728  1.00  0.00    -0.374 OA
BRANCH  24  25
ATOM     25  C   UNL     1      -2.175  -2.660   2.375  1.00  0.00     0.202 C 
BRANCH  25  26
ATOM     26  C   UNL     1      -3.080  -1.439   2.191  1.00  0.00     0.261 C 
BRANCH  26  27
ATOM     27  O   UNL     1      -2.335  -0.218   2.387  1.00  0.00    -0.460 OA
BRANCH  27  28
ATOM     28  C   UNL     1      -2.928   0.653   3.238  1.00  0.00     0.338 C 
ATOM     29  O   UNL     1      -4.062   0.570   3.697  1.00  0.00    -0.246 OA
BRANCH  28  30
ATOM     30  C   UNL     1      -1.976   1.667   3.723  1.00  0.00     0.060 A 
ATOM     31  C   UNL     1      -1.759   1.716   5.105  1.00  0.00     0.016 A 
ATOM     32  C   UNL     1      -1.447   2.655   2.888  1.00  0.00     0.016 A 
ATOM     33  C   UNL     1      -1.095   2.802   5.669  1.00  0.00     0.010 A 
ATOM     34  C   UNL     1      -0.774   3.747   3.460  1.00  0.00     0.010 A 
ATOM     35  C   UNL     1      -0.653   3.857   4.858  1.00  0.00    -0.014 A 
BRANCH  35  36
ATOM     36  C   UNL     1      -0.277   5.137   5.519  1.00  0.00     0.031 A 
ATOM     37  C   UNL     1      -1.292   6.253   5.583  1.00  0.00     0.074 A 
ATOM     38  C   UNL     1       0.898   5.271   6.162  1.00  0.00     0.049 A 
ATOM     39  N   UNL     1      -1.225   7.403   6.205  1.00  0.00    -0.248 NA
ATOM     40  C   UNL     1      -2.554   6.038   4.856  1.00  0.00     0.031 C 
ATOM     41  C   UNL     1       1.955   4.262   6.212  1.00  0.00     0.029 A 
ATOM     42  N   UNL     1       1.389   6.309   6.916  1.00  0.00    -0.354 N 
ATOM     43  C   UNL     1      -2.433   8.044   5.950  1.00  0.00     0.074 A 
ATOM     44  C   UNL     1      -3.197   7.174   5.083  1.00  0.00     0.031 C 
ATOM     45  C   UNL     1       2.966   4.726   6.967  1.00  0.00     0.029 A 
ATOM     46  C   UNL     1       2.636   6.069   7.443  1.00  0.00     0.049 A 
ATOM     47  H   UNL     1       0.893   7.146   7.066  1.00  0.00     0.167 HD
ATOM     48  C   UNL     1      -2.879   9.239   6.409  1.00  0.00     0.037 A 
ATOM     49  C   UNL     1       3.421   6.842   8.220  1.00  0.00     0.037 A 
ATOM     50  C   UNL     1      -2.130  10.108   7.279  1.00  0.00     0.049 A 
ATOM     51  C   UNL     1       2.924   8.189   8.680  1.00  0.00     0.074 A 
ATOM     52  C   UNL     1      -2.506  11.332   7.805  1.00  0.00     0.029 A 
ATOM     53  N   UNL     1      -0.853   9.848   7.750  1.00  0.00    -0.354 N 
ATOM     54  N   UNL     1       1.769   8.767   8.449  1.00  0.00    -0.248 NA
ATOM     55  C   UNL     1       3.835   8.983   9.517  1.00  0.00     0.031 C 
ATOM     56  C   UNL     1      -1.440  11.830   8.563  1.00  0.00     0.029 A 
ATOM     57  C   UNL     1      -0.417  10.897   8.544  1.00  0.00     0.049 A 
ATOM     58  H   UNL     1      -0.331   9.037   7.549  1.00  0.00     0.167 HD
ATOM     59  C   UNL     1       1.808   9.980   9.131  1.00  0.00     0.074 A 
ATOM     60  C   UNL     1       3.093  10.045   9.795  1.00  0.00     0.031 C 
ATOM     61  C   UNL     1       0.864  10.953   9.201  1.00  0.00     0.037 A 
BRANCH  48  62
ATOM     62  C   UNL     1      -4.244   9.684   5.962  1.00  0.00     0.058 A 
ATOM     63  C   UNL     1      -5.413   9.092   6.465  1.00  0.00     0.135 A 
ATOM     64  C   UNL     1      -4.384  10.732   5.038  1.00  0.00     0.135 A 
ATOM     65  F   UNL     1      -5.335   8.075   7.337  1.00  0.00    -0.206 F 
ATOM     66  C   UNL     1      -6.674   9.504   6.045  1.00  0.00     0.059 A 
ATOM     67  C   UNL     1      -5.635  11.176   4.623  1.00  0.00     0.059 A 
ATOM     68  F   UNL     1      -3.297  11.331   4.526  1.00  0.00    -0.206 F 
ATOM     69  C   UNL     1      -6.775  10.546   5.121  1.00  0.00     0.060 A 
BRANCH  69  70
ATOM     70  S   UNL     1      -8.416  11.069   4.582  1.00  0.00     0.124 S 
ATOM     71  O   UNL     1      -8.788   9.979   3.684  1.00  0.00    -0.237 OA
ATOM     72  O   UNL     1      -9.154  11.133   5.839  1.00  0.00    -0.237 OA
ATOM     73  O   UNL     1      -8.168  12.355   3.938  1.00  0.00    -0.744 OA
ENDBRANCH  69  70
ENDBRANCH  48  62
BRANCH  49  74
ATOM     74  C   UNL     1       4.769   6.362   8.623  1.00  0.00     0.058 A 
ATOM     75  C   UNL     1       5.051   6.007   9.950  1.00  0.00     0.135 A 
ATOM     76  C   UNL     1       5.809   6.268   7.686  1.00  0.00     0.135 A 
ATOM     77  F   UNL     1       4.093   6.094  10.886  1.00  0.00    -0.206 F 
ATOM     78  C   UNL     1       6.320   5.590  10.339  1.00  0.00     0.059 A 
ATOM     79  C   UNL     1       7.080   5.830   8.045  1.00  0.00     0.059 A 
ATOM     80  F   UNL     1       5.588   6.589   6.402  1.00  0.00    -0.206 F 
ATOM     81  C   UNL     1       7.329   5.504   9.377  1.00  0.00     0.060 A 
BRANCH  81  82
ATOM     82  S   UNL     1       8.961   4.917   9.879  1.00  0.00     0.124 S 
ATOM     83  O   UNL     1       9.495   6.086  10.568  1.00  0.00    -0.237 OA
ATOM     84  O   UNL     1       8.632   3.772  10.722  1.00  0.00    -0.237 OA
ATOM     85  O   UNL     1       9.601   4.585   8.609  1.00  0.00    -0.744 OA
ENDBRANCH  81  82
ENDBRANCH  49  74
BRANCH  61  86
ATOM     86  C   UNL     1       1.175  12.158  10.047  1.00  0.00     0.058 A 
ATOM     87  C   UNL     1       2.108  13.124   9.640  1.00  0.00     0.135 A 
ATOM     88  C   UNL     1       0.514  12.361  11.270  1.00  0.00     0.135 A 
ATOM     89  F   UNL     1       2.769  12.978   8.481  1.00  0.00    -0.206 F 
ATOM     90  C   UNL     1       2.404  14.229  10.432  1.00  0.00     0.059 A 
ATOM     91  C   UNL     1       0.775  13.472  12.066  1.00  0.00     0.059 A 
ATOM     92  F   UNL     1      -0.399  11.476  11.700  1.00  0.00    -0.206 F 
ATOM     93  C   UNL     1       1.737  14.392  11.648  1.00  0.00     0.060 A 
BRANCH  93  94
ATOM     94  S   UNL     1       2.126  15.829  12.669  1.00  0.00     0.124 S 
ATOM     95  O   UNL     1       3.397  15.430  13.264  1.00  0.00    -0.237 OA
ATOM     96  O   UNL     1       2.197  16.906  11.686  1.00  0.00    -0.237 OA
ATOM     97  O   UNL     1       0.996  15.905  13.591  1.00  0.00    -0.744 OA
ENDBRANCH  93  94
ENDBRANCH  61  86
ENDBRANCH  35  36
ENDBRANCH  28  30
ENDBRANCH  27  28
ENDBRANCH  26  27
ENDBRANCH  25  26
ENDBRANCH  24  25
ENDBRANCH   1  24
TORSDOF 21
