REMARK SMILES O=C(OCCOCCOC(=O)[C@H]1CC[C@@H](C[NH2+][C@H]2CCC[C@H](C3CC3)C2)CC1)c1ccc(-c2c3nc(c(-c4c(F)cc(S(=O)(=O)[O-])cc4F)c4ccc([nH]4)c(-c4c(F)cc(S(=O)(=O)[O-])cc4F)c4nc(c(-c5c(F)cc(S(=O)(=O)[O-])cc5F)c5ccc2[nH]5)C=C4)C=C3)cc1
REMARK SMILES IDX 7 1 6 2 5 3 4 4 3 5 2 6 1 7 29 8 30 9 94 10 31 11 93 12
REMARK SMILES IDX 32 13 33 14 34 15 87 16 35 17 92 18 86 19 88 20 36 21 91 22
REMARK SMILES IDX 85 23 84 24 37 26 71 27 50 28 70 29 51 30 54 31 69 32 89 33
REMARK SMILES IDX 52 34 53 35 68 37 90 38 55 39 38 40 39 41 48 42 40 43 41 44
REMARK SMILES IDX 47 45 49 46 42 47 43 48 44 49 45 50 46 51 72 52 73 53 82 54
REMARK SMILES IDX 74 55 75 56 81 57 83 58 76 59 77 60 78 61 79 62 80 63 56 64
REMARK SMILES IDX 57 65 66 66 58 67 59 68 65 69 67 70 60 71 61 72 62 73 63 74
REMARK SMILES IDX 64 75 8 76 9 77 10 78 11 79 12 80 28 81 13 82 27 83 14 84
REMARK SMILES IDX 15 85 16 86 17 87 18 90 19 91 26 92 20 93 22 94 21 95 23 96
REMARK SMILES IDX 24 97 25 98
REMARK H PARENT 88 25 54 36 17 88 17 89
REMARK Flexibility Score: inf
ROOT
ATOM      1  C   UNL     1      11.614   5.068  10.154  1.00  0.00     0.202 C 
ENDROOT
BRANCH   1   2
ATOM      2  O   UNL     1      11.740   6.385   9.603  1.00  0.00    -0.374 OA
BRANCH   2   3
ATOM      3  C   UNL     1      13.032   6.780   9.136  1.00  0.00     0.202 C 
BRANCH   3   4
ATOM      4  C   UNL     1      14.090   7.135  10.186  1.00  0.00     0.261 C 
BRANCH   4   5
ATOM      5  O   UNL     1      14.226   6.085  11.157  1.00  0.00    -0.460 OA
BRANCH   5   6
ATOM      6  C   UNL     1      13.706   6.055  12.409  1.00  0.00     0.338 C 
ATOM      7  O   UNL     1      13.956   5.096  13.135  1.00  0.00    -0.246 OA
BRANCH   6   8
ATOM      8  C   UNL     1      12.834   7.144  12.940  1.00  0.00     0.060 A 
ATOM      9  C   UNL     1      12.029   7.950  12.139  1.00  0.00     0.016 A 
ATOM     10  C   UNL     1      12.763   7.320  14.330  1.00  0.00     0.016 A 
ATOM     11  C   UNL     1      11.261   8.963  12.659  1.00  0.00     0.010 A 
ATOM     12  C   UNL     1      11.924   8.297  14.880  1.00  0.00     0.010 A 
ATOM     13  C   UNL     1      11.182   9.126  14.033  1.00  0.00    -0.014 A 
BRANCH  13  14
ATOM     14  C   UNL     1      10.360  10.257  14.480  1.00  0.00     0.031 A 
ATOM     15  C   UNL     1      11.060  11.496  14.935  1.00  0.00     0.074 A 
ATOM     16  C   UNL     1       9.038  10.224  14.223  1.00  0.00     0.049 A 
ATOM     17  N   UNL     1      10.550  12.630  15.323  1.00  0.00    -0.248 NA
ATOM     18  C   UNL     1      12.534  11.467  14.925  1.00  0.00     0.031 C 
ATOM     19  C   UNL     1       8.326   9.091  13.614  1.00  0.00     0.029 A 
ATOM     20  N   UNL     1       8.071  11.177  14.370  1.00  0.00    -0.354 N 
ATOM     21  C   UNL     1      11.634  13.441  15.623  1.00  0.00     0.074 A 
ATOM     22  C   UNL     1      12.833  12.673  15.382  1.00  0.00     0.031 C 
ATOM     23  C   UNL     1       7.045   9.431  13.412  1.00  0.00     0.029 A 
ATOM     24  C   UNL     1       6.826  10.764  13.956  1.00  0.00     0.049 A 
ATOM     25  H   UNL     1       8.247  12.073  14.737  1.00  0.00     0.167 HD
ATOM     26  C   UNL     1      11.611  14.719  16.063  1.00  0.00     0.037 A 
ATOM     27  C   UNL     1       5.637  11.385  14.056  1.00  0.00     0.037 A 
ATOM     28  C   UNL     1      10.389  15.441  16.288  1.00  0.00     0.049 A 
ATOM     29  C   UNL     1       5.634  12.759  14.669  1.00  0.00     0.074 A 
ATOM     30  C   UNL     1      10.214  16.698  16.832  1.00  0.00     0.029 A 
ATOM     31  N   UNL     1       9.125  14.958  15.967  1.00  0.00    -0.354 N 
ATOM     32  N   UNL     1       6.656  13.486  15.061  1.00  0.00    -0.248 NA
ATOM     33  C   UNL     1       4.328  13.392  14.871  1.00  0.00     0.031 C 
ATOM     34  C   UNL     1       8.839  16.957  16.880  1.00  0.00     0.029 A 
ATOM     35  C   UNL     1       8.162  15.886  16.314  1.00  0.00     0.049 A 
ATOM     36  H   UNL     1       8.943  14.084  15.553  1.00  0.00     0.167 HD
ATOM     37  C   UNL     1       6.118  14.669  15.549  1.00  0.00     0.074 A 
ATOM     38  C   UNL     1       4.681  14.569  15.368  1.00  0.00     0.031 C 
ATOM     39  C   UNL     1       6.742  15.736  16.108  1.00  0.00     0.037 A 
BRANCH  26  40
ATOM     40  C   UNL     1      12.928  15.359  16.388  1.00  0.00     0.058 A 
ATOM     41  C   UNL     1      13.829  15.761  15.389  1.00  0.00     0.135 A 
ATOM     42  C   UNL     1      13.304  15.556  17.726  1.00  0.00     0.135 A 
ATOM     43  F   UNL     1      13.540  15.556  14.094  1.00  0.00    -0.206 F 
ATOM     44  C   UNL     1      15.060  16.328  15.707  1.00  0.00     0.059 A 
ATOM     45  C   UNL     1      14.519  16.142  18.067  1.00  0.00     0.059 A 
ATOM     46  F   UNL     1      12.491  15.165  18.720  1.00  0.00    -0.206 F 
ATOM     47  C   UNL     1      15.394  16.518  17.049  1.00  0.00     0.060 A 
BRANCH  47  48
ATOM     48  S   UNL     1      16.986  17.270  17.444  1.00  0.00     0.124 S 
ATOM     49  O   UNL     1      17.913  16.205  17.075  1.00  0.00    -0.237 OA
ATOM     50  O   UNL     1      16.996  18.446  16.579  1.00  0.00    -0.237 OA
ATOM     51  O   UNL     1      16.888  17.548  18.873  1.00  0.00    -0.744 OA
ENDBRANCH  47  48
ENDBRANCH  26  40
BRANCH  27  52
ATOM     52  C   UNL     1       4.377  10.689  13.673  1.00  0.00     0.058 A 
ATOM     53  C   UNL     1       3.531  11.182  12.669  1.00  0.00     0.135 A 
ATOM     54  C   UNL     1       3.970   9.521  14.343  1.00  0.00     0.135 A 
ATOM     55  F   UNL     1       3.866  12.295  11.997  1.00  0.00    -0.206 F 
ATOM     56  C   UNL     1       2.316  10.570  12.370  1.00  0.00     0.059 A 
ATOM     57  C   UNL     1       2.780   8.871  14.038  1.00  0.00     0.059 A 
ATOM     58  F   UNL     1       4.741   8.992  15.306  1.00  0.00    -0.206 F 
ATOM     59  C   UNL     1       1.946   9.417  13.066  1.00  0.00     0.060 A 
BRANCH  59  60
ATOM     60  S   UNL     1       0.363   8.636  12.687  1.00  0.00     0.124 S 
ATOM     61  O   UNL     1      -0.577   9.576  13.287  1.00  0.00    -0.237 OA
ATOM     62  O   UNL     1       0.381   8.592  11.229  1.00  0.00    -0.237 OA
ATOM     63  O   UNL     1       0.462   7.337  13.347  1.00  0.00    -0.744 OA
ENDBRANCH  59  60
ENDBRANCH  27  52
BRANCH  39  64
ATOM     64  C   UNL     1       5.864  16.877  16.529  1.00  0.00     0.058 A 
ATOM     65  C   UNL     1       5.018  16.780  17.644  1.00  0.00     0.135 A 
ATOM     66  C   UNL     1       5.895  18.090  15.823  1.00  0.00     0.135 A 
ATOM     67  F   UNL     1       4.950  15.637  18.346  1.00  0.00    -0.206 F 
ATOM     68  C   UNL     1       4.202  17.837  18.024  1.00  0.00     0.059 A 
ATOM     69  C   UNL     1       5.114  19.171  16.207  1.00  0.00     0.059 A 
ATOM     70  F   UNL     1       6.699  18.233  14.758  1.00  0.00    -0.206 F 
ATOM     71  C   UNL     1       4.257  19.029  17.298  1.00  0.00     0.060 A 
BRANCH  71  72
ATOM     72  S   UNL     1       3.205  20.400  17.811  1.00  0.00     0.124 S 
ATOM     73  O   UNL     1       1.895  19.949  17.354  1.00  0.00    -0.237 OA
ATOM     74  O   UNL     1       3.400  20.419  19.257  1.00  0.00    -0.237 OA
ATOM     75  O   UNL     1       3.763  21.542  17.093  1.00  0.00    -0.744 OA
ENDBRANCH  71  72
ENDBRANCH  39  64
ENDBRANCH  13  14
ENDBRANCH   6   8
ENDBRANCH   5   6
ENDBRANCH   4   5
ENDBRANCH   3   4
ENDBRANCH   2   3
ENDBRANCH   1   2
BRANCH   1  76
ATOM     76  C   UNL     1      10.410   4.349   9.537  1.00  0.00     0.261 C 
BRANCH  76  77
ATOM     77  O   UNL     1      10.716   4.126   8.155  1.00  0.00    -0.463 OA
BRANCH  77  78
ATOM     78  C   UNL     1      10.484   5.229   7.389  1.00  0.00     0.309 C 
ATOM     79  O   UNL     1       9.609   6.057   7.604  1.00  0.00    -0.252 OA
BRANCH  78  80
ATOM     80  C   UNL     1      11.570   5.344   6.333  1.00  0.00     0.099 C 
ATOM     81  C   UNL     1      11.478   4.178   5.346  1.00  0.00     0.016 C 
ATOM     82  C   UNL     1      11.565   6.767   5.749  1.00  0.00     0.016 C 
ATOM     83  C   UNL     1      12.175   4.449   4.013  1.00  0.00     0.010 C 
ATOM     84  C   UNL     1      12.291   6.880   4.421  1.00  0.00     0.010 C 
ATOM     85  C   UNL     1      11.795   5.821   3.427  1.00  0.00     0.044 C 
BRANCH  85  86
ATOM     86  C   UNL     1      10.268   5.865   3.136  1.00  0.00     0.264 C 
BRANCH  86  87
ATOM     87  N   UNL     1       9.751   7.198   2.860  1.00  0.00    -0.344 N 
ATOM     88  H   UNL     1      10.128   7.500   1.962  1.00  0.00     0.346 HD
ATOM     89  H   UNL     1      10.042   7.776   3.649  1.00  0.00     0.346 HD
BRANCH  87  90
ATOM     90  C   UNL     1       8.277   7.319   2.797  1.00  0.00     0.182 C 
ATOM     91  C   UNL     1       7.410   6.344   3.624  1.00  0.00     0.065 C 
ATOM     92  C   UNL     1       7.886   8.763   3.185  1.00  0.00     0.069 C 
ATOM     93  C   UNL     1       7.469   6.594   5.127  1.00  0.00     0.006 C 
ATOM     94  C   UNL     1       8.010   9.039   4.703  1.00  0.00    -0.002 C 
ATOM     95  C   UNL     1       7.148   8.040   5.487  1.00  0.00     0.004 C 
BRANCH  94  96
ATOM     96  C   UNL     1       7.717  10.496   5.001  1.00  0.00    -0.008 C 
ATOM     97  C   UNL     1       6.527  10.983   5.793  1.00  0.00     0.004 C 
ATOM     98  C   UNL     1       7.899  11.024   6.405  1.00  0.00     0.004 C 
ENDBRANCH  94  96
ENDBRANCH  87  90
ENDBRANCH  86  87
ENDBRANCH  85  86
ENDBRANCH  78  80
ENDBRANCH  77  78
ENDBRANCH  76  77
ENDBRANCH   1  76
TORSDOF 21
