REMARK SMILES CC(C)(C)c1ccc(OCC(=O)NNC(=O)[C@H]2[C@@H](C(=O)OCCOCCOC(=O)c3ccc(-c4c5nc(c(-c6c(F)cc(S(=O)(=O)[O-])cc6F)c6ccc([nH]6)c(-c6c(F)cc(S(=O)(=O)[O-])cc6F)c6nc(c(-c7c(F)cc(S(=O)(=O)[O-])cc7F)c7ccc4[nH]7)C=C6)C=C5)cc3)[C@@H]3C=C[C@H]2C3)cc1
REMARK SMILES IDX 22 1 21 2 19 3 20 4 18 5 17 6 99 7 96 8 98 9 100 10 97 11
REMARK SMILES IDX 15 12 14 13 16 15 13 16 11 17 12 18 10 20 9 21 8 22 5 23
REMARK SMILES IDX 6 24 102 25 7 26 101 27 2 28 1 29 3 30 4 31 23 32 24 33
REMARK SMILES IDX 25 34 26 35 27 36 28 37 29 38 30 39 31 40 95 41 32 42 94 43
REMARK SMILES IDX 33 44 34 45 35 46 88 47 36 48 93 49 87 50 89 51 37 52 92 53
REMARK SMILES IDX 86 54 85 55 38 57 72 58 51 59 71 60 52 61 55 62 70 63 90 64
REMARK SMILES IDX 53 65 54 66 69 68 91 69 56 70 39 71 40 72 49 73 41 74 42 75
REMARK SMILES IDX 48 76 50 77 43 78 44 79 45 80 46 81 47 82 73 83 74 84 83 85
REMARK SMILES IDX 75 86 76 87 82 88 84 89 77 90 78 91 79 92 80 93 81 94 57 95
REMARK SMILES IDX 58 96 67 97 59 98 60 99 66 100 68 101 61 102 62 103 63 104
REMARK SMILES IDX 64 105 65 106
REMARK H PARENT 14 14 13 19 89 56 55 67
REMARK Flexibility Score: inf
ROOT
ATOM      1  C   UNL     1      -4.578   0.730 -11.769  1.00  0.00     0.261 C 
ENDROOT
BRANCH   1   2
ATOM      2  O   UNL     1      -4.090   1.523 -10.672  1.00  0.00    -0.463 OA
BRANCH   2   3
ATOM      3  C   UNL     1      -2.812   1.971 -10.785  1.00  0.00     0.310 C 
ATOM      4  O   UNL     1      -2.120   1.896 -11.794  1.00  0.00    -0.252 OA
BRANCH   3   5
ATOM      5  C   UNL     1      -2.308   2.627  -9.516  1.00  0.00     0.119 C 
ATOM      6  C   UNL     1      -2.008   1.722  -8.268  1.00  0.00     0.102 C 
ATOM      7  C   UNL     1      -2.825   2.445  -7.155  1.00  0.00     0.025 C 
ATOM      8  C   UNL     1      -3.281   3.694  -8.950  1.00  0.00     0.027 C 
ATOM      9  C   UNL     1      -2.196   3.807  -6.928  1.00  0.00    -0.027 C 
ATOM     10  C   UNL     1      -4.075   2.899  -7.911  1.00  0.00     0.017 C 
ATOM     11  C   UNL     1      -2.480   4.560  -8.001  1.00  0.00    -0.027 C 
BRANCH   6  12
ATOM     12  C   UNL     1      -2.333   0.235  -8.404  1.00  0.00     0.242 C 
ATOM     13  N   UNL     1      -2.233  -0.581  -7.313  1.00  0.00    -0.267 N 
ATOM     14  H   UNL     1      -2.626  -1.480  -7.387  1.00  0.00     0.191 HD
ATOM     15  O   UNL     1      -2.597  -0.306  -9.476  1.00  0.00    -0.273 OA
BRANCH  13  16
ATOM     16  N   UNL     1      -1.626  -0.254  -6.112  1.00  0.00    -0.265 N 
ATOM     17  C   UNL     1      -1.634  -1.087  -5.017  1.00  0.00     0.276 C 
ATOM     18  O   UNL     1      -1.008  -0.760  -4.007  1.00  0.00    -0.269 OA
ATOM     19  H   UNL     1      -1.168   0.614  -6.038  1.00  0.00     0.191 HD
BRANCH  17  20
ATOM     20  C   UNL     1      -2.379  -2.427  -5.117  1.00  0.00     0.331 C 
BRANCH  20  21
ATOM     21  O   UNL     1      -3.690  -2.373  -5.662  1.00  0.00    -0.484 OA
BRANCH  21  22
ATOM     22  C   UNL     1      -4.670  -1.806  -4.894  1.00  0.00     0.120 A 
ATOM     23  C   UNL     1      -6.872  -0.624  -3.536  1.00  0.00    -0.042 A 
ATOM     24  C   UNL     1      -7.028  -1.216  -4.798  1.00  0.00     0.008 A 
ATOM     25  C   UNL     1      -5.585  -0.659  -2.970  1.00  0.00     0.008 A 
ATOM     26  C   UNL     1      -5.941  -1.794  -5.467  1.00  0.00     0.047 A 
ATOM     27  C   UNL     1      -4.502  -1.248  -3.632  1.00  0.00     0.047 A 
BRANCH  23  28
ATOM     28  C   UNL     1      -8.027   0.048  -2.775  1.00  0.00    -0.013 C 
ATOM     29  C   UNL     1      -8.193  -0.599  -1.383  1.00  0.00     0.016 C 
ATOM     30  C   UNL     1      -9.392  -0.054  -3.488  1.00  0.00     0.016 C 
ATOM     31  C   UNL     1      -7.706   1.549  -2.604  1.00  0.00     0.016 C 
ENDBRANCH  23  28
ENDBRANCH  21  22
ENDBRANCH  20  21
ENDBRANCH  17  20
ENDBRANCH  13  16
ENDBRANCH   6  12
ENDBRANCH   3   5
ENDBRANCH   2   3
ENDBRANCH   1   2
BRANCH   1  32
ATOM     32  C   UNL     1      -5.894   1.281 -12.316  1.00  0.00     0.202 C 
BRANCH  32  33
ATOM     33  O   UNL     1      -5.821   2.543 -12.980  1.00  0.00    -0.374 OA
BRANCH  33  34
ATOM     34  C   UNL     1      -5.588   3.693 -12.171  1.00  0.00     0.202 C 
BRANCH  34  35
ATOM     35  C   UNL     1      -6.788   4.238 -11.386  1.00  0.00     0.261 C 
BRANCH  35  36
ATOM     36  O   UNL     1      -7.324   3.297 -10.438  1.00  0.00    -0.460 OA
BRANCH  36  37
ATOM     37  C   UNL     1      -8.527   2.783 -10.789  1.00  0.00     0.338 C 
ATOM     38  O   UNL     1      -9.190   3.078 -11.780  1.00  0.00    -0.246 OA
BRANCH  37  39
ATOM     39  C   UNL     1      -8.925   1.682  -9.895  1.00  0.00     0.060 A 
ATOM     40  C   UNL     1      -9.357   0.493 -10.496  1.00  0.00     0.016 A 
ATOM     41  C   UNL     1      -9.013   1.847  -8.511  1.00  0.00     0.016 A 
ATOM     42  C   UNL     1      -9.952  -0.504  -9.728  1.00  0.00     0.010 A 
ATOM     43  C   UNL     1      -9.619   0.845  -7.741  1.00  0.00     0.010 A 
ATOM     44  C   UNL     1     -10.136  -0.312  -8.353  1.00  0.00    -0.014 A 
BRANCH  44  45
ATOM     45  C   UNL     1     -11.036  -1.233  -7.613  1.00  0.00     0.031 A 
ATOM     46  C   UNL     1     -12.461  -0.811  -7.361  1.00  0.00     0.074 A 
ATOM     47  C   UNL     1     -10.618  -2.453  -7.232  1.00  0.00     0.049 A 
ATOM     48  N   UNL     1     -13.427  -1.463  -6.765  1.00  0.00    -0.248 NA
ATOM     49  C   UNL     1     -12.850   0.522  -7.851  1.00  0.00     0.031 C 
ATOM     50  C   UNL     1      -9.280  -2.996  -7.456  1.00  0.00     0.029 A 
ATOM     51  N   UNL     1     -11.284  -3.459  -6.577  1.00  0.00    -0.354 N 
ATOM     52  C   UNL     1     -14.534  -0.623  -6.809  1.00  0.00     0.074 A 
ATOM     53  C   UNL     1     -14.112   0.600  -7.456  1.00  0.00     0.031 C 
ATOM     54  C   UNL     1      -9.218  -4.234  -6.934  1.00  0.00     0.029 A 
ATOM     55  C   UNL     1     -10.508  -4.566  -6.332  1.00  0.00     0.049 A 
ATOM     56  H   UNL     1     -12.229  -3.393  -6.308  1.00  0.00     0.167 HD
ATOM     57  C   UNL     1     -15.793  -0.853  -6.365  1.00  0.00     0.037 A 
ATOM     58  C   UNL     1     -10.804  -5.715  -5.691  1.00  0.00     0.037 A 
ATOM     59  C   UNL     1     -16.217  -2.073  -5.730  1.00  0.00     0.049 A 
ATOM     60  C   UNL     1     -12.199  -5.933  -5.165  1.00  0.00     0.074 A 
ATOM     61  C   UNL     1     -17.474  -2.405  -5.254  1.00  0.00     0.029 A 
ATOM     62  N   UNL     1     -15.396  -3.163  -5.483  1.00  0.00    -0.354 N 
ATOM     63  N   UNL     1     -13.239  -5.135  -5.230  1.00  0.00    -0.248 NA
ATOM     64  C   UNL     1     -12.465  -7.212  -4.491  1.00  0.00     0.031 C 
ATOM     65  C   UNL     1     -17.403  -3.682  -4.686  1.00  0.00     0.029 A 
ATOM     66  C   UNL     1     -16.113  -4.162  -4.846  1.00  0.00     0.049 A 
ATOM     67  H   UNL     1     -14.443  -3.218  -5.725  1.00  0.00     0.167 HD
ATOM     68  C   UNL     1     -14.288  -5.828  -4.633  1.00  0.00     0.074 A 
ATOM     69  C   UNL     1     -13.759  -7.111  -4.218  1.00  0.00     0.031 C 
ATOM     70  C   UNL     1     -15.575  -5.439  -4.449  1.00  0.00     0.037 A 
BRANCH  57  71
ATOM     71  C   UNL     1     -16.800   0.251  -6.534  1.00  0.00     0.058 A 
ATOM     72  C   UNL     1     -17.340   0.572  -7.789  1.00  0.00     0.135 A 
ATOM     73  C   UNL     1     -17.246   0.983  -5.422  1.00  0.00     0.135 A 
ATOM     74  F   UNL     1     -16.933  -0.085  -8.887  1.00  0.00    -0.206 F 
ATOM     75  C   UNL     1     -18.267   1.598  -7.941  1.00  0.00     0.059 A 
ATOM     76  C   UNL     1     -18.191   1.997  -5.546  1.00  0.00     0.059 A 
ATOM     77  F   UNL     1     -16.760   0.718  -4.199  1.00  0.00    -0.206 F 
ATOM     78  C   UNL     1     -18.684   2.307  -6.813  1.00  0.00     0.060 A 
BRANCH  78  79
ATOM     79  S   UNL     1     -19.885   3.639  -7.022  1.00  0.00     0.124 S 
ATOM     80  O   UNL     1     -19.055   4.689  -7.605  1.00  0.00    -0.237 OA
ATOM     81  O   UNL     1     -20.868   3.038  -7.918  1.00  0.00    -0.237 OA
ATOM     82  O   UNL     1     -20.352   3.891  -5.663  1.00  0.00    -0.744 OA
ENDBRANCH  78  79
ENDBRANCH  57  71
BRANCH  58  83
ATOM     83  C   UNL     1      -9.755  -6.754  -5.515  1.00  0.00     0.058 A 
ATOM     84  C   UNL     1      -9.803  -7.965  -6.221  1.00  0.00     0.135 A 
ATOM     85  C   UNL     1      -8.681  -6.550  -4.635  1.00  0.00     0.135 A 
ATOM     86  F   UNL     1     -10.816  -8.209  -7.065  1.00  0.00    -0.206 F 
ATOM     87  C   UNL     1      -8.828  -8.943  -6.054  1.00  0.00     0.059 A 
ATOM     88  C   UNL     1      -7.682  -7.504  -4.468  1.00  0.00     0.059 A 
ATOM     89  F   UNL     1      -8.587  -5.404  -3.943  1.00  0.00    -0.206 F 
ATOM     90  C   UNL     1      -7.769  -8.702  -5.176  1.00  0.00     0.060 A 
BRANCH  90  91
ATOM     91  S   UNL     1      -6.479  -9.954  -5.005  1.00  0.00     0.124 S 
ATOM     92  O   UNL     1      -7.148 -10.956  -4.184  1.00  0.00    -0.237 OA
ATOM     93  O   UNL     1      -6.228 -10.330  -6.393  1.00  0.00    -0.237 OA
ATOM     94  O   UNL     1      -5.391  -9.228  -4.356  1.00  0.00    -0.744 OA
ENDBRANCH  90  91
ENDBRANCH  58  83
BRANCH  70  95
ATOM     95  C   UNL     1     -16.513  -6.422  -3.807  1.00  0.00     0.058 A 
ATOM     96  C   UNL     1     -16.461  -6.703  -2.433  1.00  0.00     0.135 A 
ATOM     97  C   UNL     1     -17.509  -7.054  -4.569  1.00  0.00     0.135 A 
ATOM     98  F   UNL     1     -15.526  -6.128  -1.661  1.00  0.00    -0.206 F 
ATOM     99  C   UNL     1     -17.349  -7.596  -1.841  1.00  0.00     0.059 A 
ATOM    100  C   UNL     1     -18.422  -7.933  -3.994  1.00  0.00     0.059 A 
ATOM    101  F   UNL     1     -17.609  -6.811  -5.886  1.00  0.00    -0.206 F 
ATOM    102  C   UNL     1     -18.325  -8.207  -2.630  1.00  0.00     0.060 A 
BRANCH 102 103
ATOM    103  S   UNL     1     -19.489  -9.345  -1.848  1.00  0.00     0.124 S 
ATOM    104  O   UNL     1     -18.668 -10.539  -1.685  1.00  0.00    -0.237 OA
ATOM    105  O   UNL     1     -19.837  -8.642  -0.616  1.00  0.00    -0.237 OA
ATOM    106  O   UNL     1     -20.568  -9.451  -2.826  1.00  0.00    -0.744 OA
ENDBRANCH 102 103
ENDBRANCH  70  95
ENDBRANCH  44  45
ENDBRANCH  37  39
ENDBRANCH  36  37
ENDBRANCH  35  36
ENDBRANCH  34  35
ENDBRANCH  33  34
ENDBRANCH  32  33
ENDBRANCH   1  32
TORSDOF 23
