REMARK SMILES CCCOc1ccc(N[C@H](C)[C@H](C)C(=O)OCCOCCOC(=O)c2ccc(-c3c4nc(c(-c5c(F)cc(S(=O)(=O)[O-])cc5F)c5ccc([nH]5)c(-c5c(F)cc(S(=O)(=O)[O-])cc5F)c5nc(c(-c6c(F)cc(S(=O)(=O)[O-])cc6F)c6ccc3[nH]6)C=C5)C=C4)cc2)cc1
REMARK SMILES IDX 17 1 16 2 14 3 15 4 12 5 13 6 10 7 11 8 9 9 8 11 5 12 6 13
REMARK SMILES IDX 92 14 7 15 91 16 4 17 3 18 2 19 1 20 18 21 19 22 20 23 21 24
REMARK SMILES IDX 22 25 23 26 24 27 25 28 26 29 90 30 27 31 89 32 28 33 29 34
REMARK SMILES IDX 30 35 83 36 31 37 88 38 82 39 84 40 32 41 87 42 81 43 80 44
REMARK SMILES IDX 33 46 67 47 46 48 66 49 47 50 50 51 65 52 85 53 48 54 49 55
REMARK SMILES IDX 64 57 86 58 51 59 34 60 35 61 44 62 36 63 37 64 43 65 45 66
REMARK SMILES IDX 38 67 39 68 40 69 41 70 42 71 68 72 69 73 78 74 70 75 71 76
REMARK SMILES IDX 77 77 79 78 72 79 73 80 74 81 75 82 76 83 52 84 53 85 62 86
REMARK SMILES IDX 54 87 55 88 61 89 63 90 56 91 57 92 58 93 59 94 60 95
REMARK H PARENT 9 10 84 45 50 56
REMARK Flexibility Score: inf
ROOT
ATOM      1  C   UNL     1       2.438   4.179  -9.653  1.00  0.00     0.261 C 
ENDROOT
BRANCH   1   2
ATOM      2  O   UNL     1       2.239   3.451  -8.430  1.00  0.00    -0.463 OA
BRANCH   2   3
ATOM      3  C   UNL     1       1.643   2.238  -8.569  1.00  0.00     0.310 C 
ATOM      4  O   UNL     1       1.308   1.734  -9.637  1.00  0.00    -0.252 OA
BRANCH   3   5
ATOM      5  C   UNL     1       1.354   1.555  -7.245  1.00  0.00     0.118 C 
ATOM      6  C   UNL     1       2.545   1.548  -6.289  1.00  0.00     0.022 C 
BRANCH   5   7
ATOM      7  C   UNL     1       0.043   2.104  -6.640  1.00  0.00     0.090 C 
ATOM      8  C   UNL     1       0.214   3.475  -5.974  1.00  0.00     0.031 C 
BRANCH   7   9
ATOM      9  N   UNL     1      -0.997   2.073  -7.678  1.00  0.00    -0.382 N 
ATOM     10  H   UNL     1      -0.968   1.348  -8.344  1.00  0.00     0.160 HD
BRANCH   9  11
ATOM     11  C   UNL     1      -2.014   3.004  -7.771  1.00  0.00     0.034 A 
ATOM     12  C   UNL     1      -4.057   4.876  -8.046  1.00  0.00     0.119 A 
ATOM     13  C   UNL     1      -4.003   4.080  -6.906  1.00  0.00     0.048 A 
ATOM     14  C   UNL     1      -3.045   4.827  -8.996  1.00  0.00     0.048 A 
ATOM     15  C   UNL     1      -2.972   3.151  -6.767  1.00  0.00     0.029 A 
ATOM     16  C   UNL     1      -2.041   3.871  -8.871  1.00  0.00     0.029 A 
BRANCH  12  17
ATOM     17  O   UNL     1      -5.101   5.733  -8.242  1.00  0.00    -0.494 OA
BRANCH  17  18
ATOM     18  C   UNL     1      -6.232   5.054  -8.815  1.00  0.00     0.229 C 
BRANCH  18  19
ATOM     19  C   UNL     1      -6.178   5.074 -10.347  1.00  0.00     0.038 C 
ATOM     20  C   UNL     1      -5.665   3.770 -10.948  1.00  0.00     0.007 C 
ENDBRANCH  18  19
ENDBRANCH  17  18
ENDBRANCH  12  17
ENDBRANCH   9  11
ENDBRANCH   7   9
ENDBRANCH   5   7
ENDBRANCH   3   5
ENDBRANCH   2   3
ENDBRANCH   1   2
BRANCH   1  21
ATOM     21  C   UNL     1       3.909   4.258 -10.073  1.00  0.00     0.202 C 
BRANCH  21  22
ATOM     22  O   UNL     1       4.595   3.027 -10.287  1.00  0.00    -0.374 OA
BRANCH  22  23
ATOM     23  C   UNL     1       4.951   2.250  -9.146  1.00  0.00     0.202 C 
BRANCH  23  24
ATOM     24  C   UNL     1       6.040   2.804  -8.220  1.00  0.00     0.261 C 
BRANCH  24  25
ATOM     25  O   UNL     1       5.644   4.018  -7.555  1.00  0.00    -0.460 OA
BRANCH  25  26
ATOM     26  C   UNL     1       6.418   5.093  -7.853  1.00  0.00     0.338 C 
ATOM     27  O   UNL     1       7.415   5.104  -8.557  1.00  0.00    -0.246 OA
BRANCH  26  28
ATOM     28  C   UNL     1       5.810   6.338  -7.348  1.00  0.00     0.060 A 
ATOM     29  C   UNL     1       5.614   7.374  -8.270  1.00  0.00     0.016 A 
ATOM     30  C   UNL     1       5.562   6.542  -5.989  1.00  0.00     0.016 A 
ATOM     31  C   UNL     1       5.237   8.640  -7.829  1.00  0.00     0.010 A 
ATOM     32  C   UNL     1       5.190   7.818  -5.546  1.00  0.00     0.010 A 
ATOM     33  C   UNL     1       5.072   8.882  -6.459  1.00  0.00    -0.014 A 
BRANCH  33  34
ATOM     34  C   UNL     1       4.948  10.284  -5.987  1.00  0.00     0.031 A 
ATOM     35  C   UNL     1       6.176  10.992  -5.476  1.00  0.00     0.074 A 
ATOM     36  C   UNL     1       3.776  10.938  -6.067  1.00  0.00     0.049 A 
ATOM     37  N   UNL     1       6.303  12.216  -5.032  1.00  0.00    -0.248 NA
ATOM     38  C   UNL     1       7.427  10.217  -5.467  1.00  0.00     0.031 C 
ATOM     39  C   UNL     1       2.527  10.374  -6.579  1.00  0.00     0.029 A 
ATOM     40  N   UNL     1       3.447  12.225  -5.721  1.00  0.00    -0.354 N 
ATOM     41  C   UNL     1       7.643  12.358  -4.690  1.00  0.00     0.074 A 
ATOM     42  C   UNL     1       8.282  11.086  -4.949  1.00  0.00     0.031 C 
ATOM     43  C   UNL     1       1.565  11.310  -6.507  1.00  0.00     0.029 A 
ATOM     44  C   UNL     1       2.123  12.530  -5.925  1.00  0.00     0.049 A 
ATOM     45  H   UNL     1       4.099  12.868  -5.359  1.00  0.00     0.167 HD
ATOM     46  C   UNL     1       8.285  13.451  -4.213  1.00  0.00     0.037 A 
ATOM     47  C   UNL     1       1.438  13.660  -5.660  1.00  0.00     0.037 A 
ATOM     48  C   UNL     1       7.649  14.717  -3.961  1.00  0.00     0.049 A 
ATOM     49  C   UNL     1       2.162  14.847  -5.081  1.00  0.00     0.074 A 
ATOM     50  C   UNL     1       8.218  15.889  -3.491  1.00  0.00     0.029 A 
ATOM     51  N   UNL     1       6.301  14.978  -4.154  1.00  0.00    -0.354 N 
ATOM     52  N   UNL     1       3.433  14.972  -4.780  1.00  0.00    -0.248 NA
ATOM     53  C   UNL     1       1.360  16.049  -4.808  1.00  0.00     0.031 C 
ATOM     54  C   UNL     1       7.205  16.846  -3.363  1.00  0.00     0.029 A 
ATOM     55  C   UNL     1       6.014  16.284  -3.794  1.00  0.00     0.049 A 
ATOM     56  H   UNL     1       5.644  14.329  -4.496  1.00  0.00     0.167 HD
ATOM     57  C   UNL     1       3.588  16.272  -4.310  1.00  0.00     0.074 A 
ATOM     58  C   UNL     1       2.282  16.896  -4.371  1.00  0.00     0.031 C 
ATOM     59  C   UNL     1       4.710  16.894  -3.869  1.00  0.00     0.037 A 
BRANCH  46  60
ATOM     60  C   UNL     1       9.752  13.318  -3.912  1.00  0.00     0.058 A 
ATOM     61  C   UNL     1      10.711  13.251  -4.934  1.00  0.00     0.135 A 
ATOM     62  C   UNL     1      10.205  13.282  -2.584  1.00  0.00     0.135 A 
ATOM     63  F   UNL     1      10.329  13.263  -6.221  1.00  0.00    -0.206 F 
ATOM     64  C   UNL     1      12.068  13.128  -4.651  1.00  0.00     0.059 A 
ATOM     65  C   UNL     1      11.559  13.183  -2.276  1.00  0.00     0.059 A 
ATOM     66  F   UNL     1       9.329  13.340  -1.569  1.00  0.00    -0.206 F 
ATOM     67  C   UNL     1      12.482  13.092  -3.318  1.00  0.00     0.060 A 
BRANCH  67  68
ATOM     68  S   UNL     1      14.244  12.930  -2.963  1.00  0.00     0.124 S 
ATOM     69  O   UNL     1      14.474  11.521  -3.268  1.00  0.00    -0.237 OA
ATOM     70  O   UNL     1      14.841  13.885  -3.891  1.00  0.00    -0.237 OA
ATOM     71  O   UNL     1      14.341  13.289  -1.551  1.00  0.00    -0.744 OA
ENDBRANCH  67  68
ENDBRANCH  46  60
BRANCH  47  72
ATOM     72  C   UNL     1      -0.021  13.723  -5.937  1.00  0.00     0.058 A 
ATOM     73  C   UNL     1      -0.529  14.506  -6.983  1.00  0.00     0.135 A 
ATOM     74  C   UNL     1      -0.937  12.996  -5.160  1.00  0.00     0.135 A 
ATOM     75  F   UNL     1       0.306  15.227  -7.747  1.00  0.00    -0.206 F 
ATOM     76  C   UNL     1      -1.894  14.578  -7.242  1.00  0.00     0.059 A 
ATOM     77  C   UNL     1      -2.304  13.034  -5.413  1.00  0.00     0.059 A 
ATOM     78  F   UNL     1      -0.499  12.224  -4.152  1.00  0.00    -0.206 F 
ATOM     79  C   UNL     1      -2.774  13.837  -6.452  1.00  0.00     0.060 A 
BRANCH  79  80
ATOM     80  S   UNL     1      -4.540  13.902  -6.823  1.00  0.00     0.124 S 
ATOM     81  O   UNL     1      -4.899  15.218  -6.308  1.00  0.00    -0.237 OA
ATOM     82  O   UNL     1      -4.555  13.760  -8.276  1.00  0.00    -0.237 OA
ATOM     83  O   UNL     1      -5.080  12.765  -6.084  1.00  0.00    -0.744 OA
ENDBRANCH  79  80
ENDBRANCH  47  72
BRANCH  59  84
ATOM     84  C   UNL     1       4.588  18.332  -3.450  1.00  0.00     0.058 A 
ATOM     85  C   UNL     1       3.989  18.698  -2.235  1.00  0.00     0.135 A 
ATOM     86  C   UNL     1       5.130  19.353  -4.248  1.00  0.00     0.135 A 
ATOM     87  F   UNL     1       3.451  17.761  -1.438  1.00  0.00    -0.206 F 
ATOM     88  C   UNL     1       3.913  20.028  -1.835  1.00  0.00     0.059 A 
ATOM     89  C   UNL     1       5.086  20.687  -3.856  1.00  0.00     0.059 A 
ATOM     90  F   UNL     1       5.725  19.055  -5.414  1.00  0.00    -0.206 F 
ATOM     91  C   UNL     1       4.465  21.016  -2.652  1.00  0.00     0.060 A 
BRANCH  91  92
ATOM     92  S   UNL     1       4.393  22.736  -2.106  1.00  0.00     0.124 S 
ATOM     93  O   UNL     1       3.001  23.074  -2.383  1.00  0.00    -0.237 OA
ATOM     94  O   UNL     1       4.752  22.634  -0.695  1.00  0.00    -0.237 OA
ATOM     95  O   UNL     1       5.381  23.401  -2.950  1.00  0.00    -0.744 OA
ENDBRANCH  91  92
ENDBRANCH  59  84
ENDBRANCH  33  34
ENDBRANCH  26  28
ENDBRANCH  25  26
ENDBRANCH  24  25
ENDBRANCH  23  24
ENDBRANCH  22  23
ENDBRANCH  21  22
ENDBRANCH   1  21
TORSDOF 23
