REMARK SMILES CC(C)(NC(=O)[C@]1(C)CCCO1)C(C)(C)C(=O)OCCOCCOC(=O)c1ccc(-c2c3nc(c(-c4c(F)cc(S(=O)(=O)[O-])cc4F)c4ccc([nH]4)c(-c4c(F)cc(S(=O)(=O)[O-])cc4F)c4nc(c(-c5c(F)cc(S(=O)(=O)[O-])cc5F)c5ccc2[nH]5)C=C4)C=C3)cc1
REMARK SMILES IDX 21 1 20 2 19 3 18 4 16 5 17 6 13 7 14 8 15 9 2 10 1 11 3 12
REMARK SMILES IDX 4 13 5 14 6 16 7 17 9 18 12 19 8 20 10 21 11 22 22 23 23 24
REMARK SMILES IDX 24 25 25 26 26 27 27 28 28 29 92 30 29 31 91 32 30 33 31 34
REMARK SMILES IDX 32 35 85 36 33 37 90 38 84 39 86 40 34 41 89 42 83 43 82 44
REMARK SMILES IDX 35 46 69 47 48 48 68 49 49 50 52 51 67 52 87 53 50 54 51 55
REMARK SMILES IDX 66 57 88 58 53 59 36 60 37 61 46 62 38 63 39 64 45 65 47 66
REMARK SMILES IDX 40 67 41 68 42 69 43 70 44 71 70 72 71 73 80 74 72 75 73 76
REMARK SMILES IDX 79 77 81 78 74 79 75 80 76 81 77 82 78 83 54 84 55 85 64 86
REMARK SMILES IDX 56 87 57 88 63 89 65 90 58 91 59 92 60 93 61 94 62 95
REMARK H PARENT 4 15 86 45 52 56
REMARK Flexibility Score: inf
ROOT
ATOM      1  O   UNL     1      -5.362   5.439  -2.864  1.00  0.00    -0.374 OA
ENDROOT
BRANCH   1   2
ATOM      2  C   UNL     1      -5.272   4.682  -1.671  1.00  0.00     0.202 C 
BRANCH   2   3
ATOM      3  C   UNL     1      -3.952   4.538  -0.885  1.00  0.00     0.261 C 
BRANCH   3   4
ATOM      4  O   UNL     1      -2.912   5.505  -1.123  1.00  0.00    -0.463 OA
BRANCH   4   5
ATOM      5  C   UNL     1      -2.087   5.139  -2.141  1.00  0.00     0.313 C 
ATOM      6  O   UNL     1      -2.336   4.161  -2.838  1.00  0.00    -0.252 OA
BRANCH   5   7
ATOM      7  C   UNL     1      -0.810   6.016  -2.279  1.00  0.00     0.085 C 
ATOM      8  C   UNL     1       0.217   5.905  -1.132  1.00  0.00     0.026 C 
ATOM      9  C   UNL     1      -1.240   7.505  -2.246  1.00  0.00     0.026 C 
BRANCH   7  10
ATOM     10  C   UNL     1      -0.124   5.571  -3.618  1.00  0.00     0.050 C 
ATOM     11  C   UNL     1       1.185   6.351  -3.912  1.00  0.00     0.035 C 
ATOM     12  C   UNL     1      -1.051   5.900  -4.837  1.00  0.00     0.035 C 
BRANCH  10  13
ATOM     13  N   UNL     1       0.241   4.107  -3.720  1.00  0.00    -0.348 N 
ATOM     14  C   UNL     1       0.188   2.888  -3.132  1.00  0.00     0.252 C 
ATOM     15  H   UNL     1       0.719   3.991  -4.573  1.00  0.00     0.164 HD
ATOM     16  O   UNL     1       0.393   2.015  -4.008  1.00  0.00    -0.272 OA
BRANCH  14  17
ATOM     17  C   UNL     1       0.105   2.386  -1.618  1.00  0.00     0.143 C 
ATOM     18  C   UNL     1      -0.722   2.951  -0.463  1.00  0.00     0.048 C 
ATOM     19  O   UNL     1       1.474   2.433  -1.133  1.00  0.00    -0.365 OA
ATOM     20  C   UNL     1      -0.328   0.894  -1.690  1.00  0.00     0.053 C 
ATOM     21  C   UNL     1       0.168   2.953   0.764  1.00  0.00     0.032 C 
ATOM     22  C   UNL     1       1.476   2.378   0.295  1.00  0.00     0.162 C 
ENDBRANCH  14  17
ENDBRANCH  10  13
ENDBRANCH   7  10
ENDBRANCH   5   7
ENDBRANCH   4   5
ENDBRANCH   3   4
ENDBRANCH   2   3
ENDBRANCH   1   2
BRANCH   1  23
ATOM     23  C   UNL     1      -4.847   6.757  -2.912  1.00  0.00     0.202 C 
BRANCH  23  24
ATOM     24  C   UNL     1      -5.215   7.792  -1.839  1.00  0.00     0.261 C 
BRANCH  24  25
ATOM     25  O   UNL     1      -5.090   7.340  -0.482  1.00  0.00    -0.460 OA
BRANCH  25  26
ATOM     26  C   UNL     1      -6.271   7.170   0.158  1.00  0.00     0.338 C 
ATOM     27  O   UNL     1      -7.388   7.366  -0.305  1.00  0.00    -0.246 OA
BRANCH  26  28
ATOM     28  C   UNL     1      -6.078   6.540   1.476  1.00  0.00     0.060 A 
ATOM     29  C   UNL     1      -6.844   5.402   1.765  1.00  0.00     0.016 A 
ATOM     30  C   UNL     1      -5.279   7.126   2.460  1.00  0.00     0.016 A 
ATOM     31  C   UNL     1      -6.877   4.893   3.060  1.00  0.00     0.010 A 
ATOM     32  C   UNL     1      -5.328   6.624   3.766  1.00  0.00     0.010 A 
ATOM     33  C   UNL     1      -6.170   5.541   4.080  1.00  0.00    -0.014 A 
BRANCH  33  34
ATOM     34  C   UNL     1      -6.507   5.230   5.491  1.00  0.00     0.031 A 
ATOM     35  C   UNL     1      -7.529   6.092   6.187  1.00  0.00     0.074 A 
ATOM     36  C   UNL     1      -5.970   4.171   6.121  1.00  0.00     0.049 A 
ATOM     37  N   UNL     1      -7.972   6.027   7.415  1.00  0.00    -0.248 NA
ATOM     38  C   UNL     1      -8.135   7.170   5.386  1.00  0.00     0.031 C 
ATOM     39  C   UNL     1      -5.019   3.229   5.533  1.00  0.00     0.029 A 
ATOM     40  N   UNL     1      -6.155   3.710   7.400  1.00  0.00    -0.354 N 
ATOM     41  C   UNL     1      -8.906   7.050   7.535  1.00  0.00     0.074 A 
ATOM     42  C   UNL     1      -8.947   7.740   6.265  1.00  0.00     0.031 C 
ATOM     43  C   UNL     1      -4.694   2.307   6.456  1.00  0.00     0.029 A 
ATOM     44  C   UNL     1      -5.394   2.608   7.705  1.00  0.00     0.049 A 
ATOM     45  H   UNL     1      -6.776   4.130   8.039  1.00  0.00     0.167 HD
ATOM     46  C   UNL     1      -9.669   7.380   8.604  1.00  0.00     0.037 A 
ATOM     47  C   UNL     1      -5.264   1.934   8.865  1.00  0.00     0.037 A 
ATOM     48  C   UNL     1      -9.627   6.693   9.867  1.00  0.00     0.049 A 
ATOM     49  C   UNL     1      -6.069   2.366  10.065  1.00  0.00     0.074 A 
ATOM     50  C   UNL     1     -10.351   6.958  11.016  1.00  0.00     0.029 A 
ATOM     51  N   UNL     1      -8.816   5.604  10.146  1.00  0.00    -0.354 N 
ATOM     52  N   UNL     1      -6.943   3.339  10.165  1.00  0.00    -0.248 NA
ATOM     53  C   UNL     1      -5.870   1.608  11.309  1.00  0.00     0.031 C 
ATOM     54  C   UNL     1      -9.951   6.050  12.002  1.00  0.00     0.029 A 
ATOM     55  C   UNL     1      -9.010   5.194  11.454  1.00  0.00     0.049 A 
ATOM     56  H   UNL     1      -8.195   5.184   9.509  1.00  0.00     0.167 HD
ATOM     57  C   UNL     1      -7.418   3.292  11.472  1.00  0.00     0.074 A 
ATOM     58  C   UNL     1      -6.739   2.191  12.123  1.00  0.00     0.031 C 
ATOM     59  C   UNL     1      -8.334   4.086  12.079  1.00  0.00     0.037 A 
BRANCH  46  60
ATOM     60  C   UNL     1     -10.599   8.551   8.458  1.00  0.00     0.058 A 
ATOM     61  C   UNL     1     -11.783   8.462   7.709  1.00  0.00     0.135 A 
ATOM     62  C   UNL     1     -10.317   9.768   9.099  1.00  0.00     0.135 A 
ATOM     63  F   UNL     1     -12.087   7.327   7.059  1.00  0.00    -0.206 F 
ATOM     64  C   UNL     1     -12.647   9.545   7.586  1.00  0.00     0.059 A 
ATOM     65  C   UNL     1     -11.178  10.857   9.007  1.00  0.00     0.059 A 
ATOM     66  F   UNL     1      -9.194   9.907   9.821  1.00  0.00    -0.206 F 
ATOM     67  C   UNL     1     -12.335  10.739   8.238  1.00  0.00     0.060 A 
BRANCH  67  68
ATOM     68  S   UNL     1     -13.468  12.135   8.076  1.00  0.00     0.124 S 
ATOM     69  O   UNL     1     -13.191  12.578   6.713  1.00  0.00    -0.237 OA
ATOM     70  O   UNL     1     -14.770  11.509   8.286  1.00  0.00    -0.237 OA
ATOM     71  O   UNL     1     -13.038  13.046   9.132  1.00  0.00    -0.744 OA
ENDBRANCH  67  68
ENDBRANCH  46  60
BRANCH  47  72
ATOM     72  C   UNL     1      -4.321   0.789   8.961  1.00  0.00     0.058 A 
ATOM     73  C   UNL     1      -4.785  -0.526   9.108  1.00  0.00     0.135 A 
ATOM     74  C   UNL     1      -2.932   0.993   8.927  1.00  0.00     0.135 A 
ATOM     75  F   UNL     1      -6.103  -0.770   9.158  1.00  0.00    -0.206 F 
ATOM     76  C   UNL     1      -3.907  -1.598   9.235  1.00  0.00     0.059 A 
ATOM     77  C   UNL     1      -2.035  -0.065   9.029  1.00  0.00     0.059 A 
ATOM     78  F   UNL     1      -2.438   2.232   8.778  1.00  0.00    -0.206 F 
ATOM     79  C   UNL     1      -2.533  -1.356   9.195  1.00  0.00     0.060 A 
BRANCH  79  80
ATOM     80  S   UNL     1      -1.397  -2.755   9.323  1.00  0.00     0.124 S 
ATOM     81  O   UNL     1      -1.456  -3.050  10.750  1.00  0.00    -0.237 OA
ATOM     82  O   UNL     1      -2.018  -3.738   8.441  1.00  0.00    -0.237 OA
ATOM     83  O   UNL     1      -0.134  -2.203   8.842  1.00  0.00    -0.744 OA
ENDBRANCH  79  80
ENDBRANCH  47  72
BRANCH  59  84
ATOM     84  C   UNL     1      -8.689   3.773  13.506  1.00  0.00     0.058 A 
ATOM     85  C   UNL     1      -7.825   4.087  14.565  1.00  0.00     0.135 A 
ATOM     86  C   UNL     1      -9.936   3.207  13.819  1.00  0.00     0.135 A 
ATOM     87  F   UNL     1      -6.621   4.625  14.318  1.00  0.00    -0.206 F 
ATOM     88  C   UNL     1      -8.178   3.835  15.887  1.00  0.00     0.059 A 
ATOM     89  C   UNL     1     -10.318   2.968  15.134  1.00  0.00     0.059 A 
ATOM     90  F   UNL     1     -10.803   2.899  12.841  1.00  0.00    -0.206 F 
ATOM     91  C   UNL     1      -9.428   3.276  16.162  1.00  0.00     0.060 A 
BRANCH  91  92
ATOM     92  S   UNL     1      -9.891   2.988  17.883  1.00  0.00     0.124 S 
ATOM     93  O   UNL     1      -9.120   1.790  18.198  1.00  0.00    -0.237 OA
ATOM     94  O   UNL     1      -9.449   4.216  18.537  1.00  0.00    -0.237 OA
ATOM     95  O   UNL     1     -11.338   2.806  17.819  1.00  0.00    -0.744 OA
ENDBRANCH  91  92
ENDBRANCH  59  84
ENDBRANCH  33  34
ENDBRANCH  26  28
ENDBRANCH  25  26
ENDBRANCH  24  25
ENDBRANCH  23  24
ENDBRANCH   1  23
TORSDOF 20
