REMARK SMILES C[C@H]1CC[C@@]1(C(=O)OCCOCCOC(=O)c1ccc(-c2c3nc(c(-c4c(F)cc(S(=O)(=O)[O-])cc4F)c4ccc([nH]4)c(-c4c(F)cc(S(=O)(=O)[O-])cc4F)c4nc(c(-c5c(F)cc(S(=O)(=O)[O-])cc5F)c5ccc2[nH]5)C=C4)C=C3)cc1)c1cc(F)cc(F)c1
REMARK SMILES IDX 12 1 11 2 10 3 9 4 8 5 6 6 7 7 5 8 1 9 2 10 3 11 4 12 83 13
REMARK SMILES IDX 84 14 90 15 85 16 88 17 86 18 87 19 89 20 13 21 14 22 15 23
REMARK SMILES IDX 16 24 17 25 18 26 82 27 19 28 81 29 20 30 21 31 22 32 75 33
REMARK SMILES IDX 23 34 80 35 74 36 76 37 24 38 79 39 73 40 72 41 25 43 59 44
REMARK SMILES IDX 38 45 58 46 39 47 42 48 57 49 77 50 40 51 41 52 56 54 78 55
REMARK SMILES IDX 43 56 26 57 27 58 36 59 28 60 29 61 35 62 37 63 30 64 31 65
REMARK SMILES IDX 32 66 33 67 34 68 60 69 61 70 70 71 62 72 63 73 69 74 71 75
REMARK SMILES IDX 64 76 65 77 66 78 67 79 68 80 44 81 45 82 54 83 46 84 47 85
REMARK SMILES IDX 53 86 55 87 48 88 49 89 50 90 51 91 52 92
REMARK H PARENT 76 42 42 53
REMARK Flexibility Score: inf
ROOT
ATOM      1  C   UNL     1       0.063   3.786   2.577  1.00  0.00     0.202 C 
ENDROOT
BRANCH   1   2
ATOM      2  O   UNL     1       0.911   3.392   3.658  1.00  0.00    -0.374 OA
BRANCH   2   3
ATOM      3  C   UNL     1       2.316   3.363   3.412  1.00  0.00     0.202 C 
BRANCH   3   4
ATOM      4  C   UNL     1       2.882   2.099   2.757  1.00  0.00     0.261 C 
BRANCH   4   5
ATOM      5  O   UNL     1       2.335   1.853   1.446  1.00  0.00    -0.463 OA
BRANCH   5   6
ATOM      6  C   UNL     1       1.328   0.928   1.408  1.00  0.00     0.316 C 
ATOM      7  O   UNL     1       0.991   0.317   2.427  1.00  0.00    -0.251 OA
BRANCH   6   8
ATOM      8  C   UNL     1       0.654   0.678  -0.056  1.00  0.00     0.096 C 
ATOM      9  C   UNL     1      -1.902  -0.412  -0.618  1.00  0.00     0.009 C 
ATOM     10  C   UNL     1      -0.604  -0.332   0.166  1.00  0.00     0.008 C 
ATOM     11  C   UNL     1       0.381  -1.493  -0.118  1.00  0.00     0.006 C 
ATOM     12  C   UNL     1       1.306  -0.507  -0.852  1.00  0.00     0.024 C 
BRANCH   8  13
ATOM     13  C   UNL     1       0.410   2.053  -0.969  1.00  0.00    -0.025 A 
ATOM     14  C   UNL     1      -0.528   2.073  -2.031  1.00  0.00     0.044 A 
ATOM     15  C   UNL     1       1.123   3.266  -0.850  1.00  0.00     0.044 A 
ATOM     16  C   UNL     1      -0.820   3.206  -2.798  1.00  0.00     0.126 A 
ATOM     17  C   UNL     1       0.834   4.398  -1.631  1.00  0.00     0.126 A 
ATOM     18  F   UNL     1      -1.758   3.130  -3.750  1.00  0.00    -0.207 F 
ATOM     19  C   UNL     1      -0.155   4.390  -2.591  1.00  0.00     0.078 A 
ATOM     20  F   UNL     1       1.532   5.522  -1.444  1.00  0.00    -0.207 F 
ENDBRANCH   8  13
ENDBRANCH   6   8
ENDBRANCH   5   6
ENDBRANCH   4   5
ENDBRANCH   3   4
ENDBRANCH   2   3
ENDBRANCH   1   2
BRANCH   1  21
ATOM     21  C   UNL     1       0.085   5.273   2.196  1.00  0.00     0.261 C 
BRANCH  21  22
ATOM     22  O   UNL     1       1.321   5.635   1.550  1.00  0.00    -0.460 OA
BRANCH  22  23
ATOM     23  C   UNL     1       2.066   6.565   2.191  1.00  0.00     0.338 C 
ATOM     24  O   UNL     1       1.751   7.195   3.194  1.00  0.00    -0.246 OA
BRANCH  23  25
ATOM     25  C   UNL     1       3.438   6.574   1.645  1.00  0.00     0.060 A 
ATOM     26  C   UNL     1       4.500   6.409   2.543  1.00  0.00     0.016 A 
ATOM     27  C   UNL     1       3.695   6.790   0.290  1.00  0.00     0.016 A 
ATOM     28  C   UNL     1       5.817   6.515   2.099  1.00  0.00     0.010 A 
ATOM     29  C   UNL     1       5.017   6.878  -0.159  1.00  0.00     0.010 A 
ATOM     30  C   UNL     1       6.085   6.791   0.751  1.00  0.00    -0.014 A 
BRANCH  30  31
ATOM     31  C   UNL     1       7.457   7.180   0.335  1.00  0.00     0.031 A 
ATOM     32  C   UNL     1       7.748   8.638   0.087  1.00  0.00     0.074 A 
ATOM     33  C   UNL     1       8.439   6.269   0.212  1.00  0.00     0.049 A 
ATOM     34  N   UNL     1       8.858   9.208  -0.307  1.00  0.00    -0.248 NA
ATOM     35  C   UNL     1       6.637   9.579   0.310  1.00  0.00     0.031 C 
ATOM     36  C   UNL     1       8.298   4.834   0.455  1.00  0.00     0.029 A 
ATOM     37  N   UNL     1       9.754   6.420  -0.153  1.00  0.00    -0.354 N 
ATOM     38  C   UNL     1       8.576  10.567  -0.389  1.00  0.00     0.074 A 
ATOM     39  C   UNL     1       7.183  10.733  -0.040  1.00  0.00     0.031 C 
ATOM     40  C   UNL     1       9.480   4.235   0.228  1.00  0.00     0.029 A 
ATOM     41  C   UNL     1      10.453   5.237  -0.206  1.00  0.00     0.049 A 
ATOM     42  H   UNL     1      10.159   7.293  -0.359  1.00  0.00     0.167 HD
ATOM     43  C   UNL     1       9.406  11.588  -0.708  1.00  0.00     0.037 A 
ATOM     44  C   UNL     1      11.726   4.989  -0.579  1.00  0.00     0.037 A 
ATOM     45  C   UNL     1      10.796  11.426  -1.041  1.00  0.00     0.049 A 
ATOM     46  C   UNL     1      12.616   6.134  -0.993  1.00  0.00     0.074 A 
ATOM     47  C   UNL     1      11.724  12.403  -1.355  1.00  0.00     0.029 A 
ATOM     48  N   UNL     1      11.457  10.209  -1.108  1.00  0.00    -0.354 N 
ATOM     49  N   UNL     1      12.343   7.416  -1.038  1.00  0.00    -0.248 NA
ATOM     50  C   UNL     1      13.988   5.799  -1.404  1.00  0.00     0.031 C 
ATOM     51  C   UNL     1      12.935  11.773  -1.658  1.00  0.00     0.029 A 
ATOM     52  C   UNL     1      12.775  10.408  -1.482  1.00  0.00     0.049 A 
ATOM     53  H   UNL     1      11.050   9.333  -0.918  1.00  0.00     0.167 HD
ATOM     54  C   UNL     1      13.516   8.042  -1.452  1.00  0.00     0.074 A 
ATOM     55  C   UNL     1      14.502   6.999  -1.641  1.00  0.00     0.031 C 
ATOM     56  C   UNL     1      13.754   9.362  -1.651  1.00  0.00     0.037 A 
BRANCH  43  57
ATOM     57  C   UNL     1       8.825  12.974  -0.731  1.00  0.00     0.058 A 
ATOM     58  C   UNL     1       8.473  13.648   0.450  1.00  0.00     0.135 A 
ATOM     59  C   UNL     1       8.644  13.649  -1.949  1.00  0.00     0.135 A 
ATOM     60  F   UNL     1       8.609  13.041   1.640  1.00  0.00    -0.206 F 
ATOM     61  C   UNL     1       7.936  14.930   0.422  1.00  0.00     0.059 A 
ATOM     62  C   UNL     1       8.134  14.943  -1.999  1.00  0.00     0.059 A 
ATOM     63  F   UNL     1       8.963  13.050  -3.108  1.00  0.00    -0.206 F 
ATOM     64  C   UNL     1       7.769  15.569  -0.808  1.00  0.00     0.060 A 
BRANCH  64  65
ATOM     65  S   UNL     1       7.071  17.234  -0.829  1.00  0.00     0.124 S 
ATOM     66  O   UNL     1       5.668  16.964  -0.528  1.00  0.00    -0.237 OA
ATOM     67  O   UNL     1       7.827  17.903   0.225  1.00  0.00    -0.237 OA
ATOM     68  O   UNL     1       7.343  17.700  -2.185  1.00  0.00    -0.744 OA
ENDBRANCH  64  65
ENDBRANCH  43  57
BRANCH  44  69
ATOM     69  C   UNL     1      12.238   3.592  -0.585  1.00  0.00     0.058 A 
ATOM     70  C   UNL     1      13.198   3.167   0.344  1.00  0.00     0.135 A 
ATOM     71  C   UNL     1      11.775   2.655  -1.522  1.00  0.00     0.135 A 
ATOM     72  F   UNL     1      13.682   4.029   1.251  1.00  0.00    -0.206 F 
ATOM     73  C   UNL     1      13.690   1.865   0.340  1.00  0.00     0.059 A 
ATOM     74  C   UNL     1      12.233   1.342  -1.531  1.00  0.00     0.059 A 
ATOM     75  F   UNL     1      10.851   3.010  -2.428  1.00  0.00    -0.206 F 
ATOM     76  C   UNL     1      13.197   0.958  -0.600  1.00  0.00     0.060 A 
BRANCH  76  77
ATOM     77  S   UNL     1      13.800  -0.744  -0.563  1.00  0.00     0.124 S 
ATOM     78  O   UNL     1      15.145  -0.592  -1.106  1.00  0.00    -0.237 OA
ATOM     79  O   UNL     1      13.717  -1.067   0.858  1.00  0.00    -0.237 OA
ATOM     80  O   UNL     1      12.851  -1.454  -1.415  1.00  0.00    -0.744 OA
ENDBRANCH  76  77
ENDBRANCH  44  69
BRANCH  56  81
ATOM     81  C   UNL     1      15.142   9.776  -2.055  1.00  0.00     0.058 A 
ATOM     82  C   UNL     1      15.625   9.571  -3.356  1.00  0.00     0.135 A 
ATOM     83  C   UNL     1      15.964  10.471  -1.153  1.00  0.00     0.135 A 
ATOM     84  F   UNL     1      14.882   8.906  -4.256  1.00  0.00    -0.206 F 
ATOM     85  C   UNL     1      16.878  10.034  -3.747  1.00  0.00     0.059 A 
ATOM     86  C   UNL     1      17.209  10.965  -1.529  1.00  0.00     0.059 A 
ATOM     87  F   UNL     1      15.546  10.703   0.102  1.00  0.00    -0.206 F 
ATOM     88  C   UNL     1      17.660  10.738  -2.829  1.00  0.00     0.060 A 
BRANCH  88  89
ATOM     89  S   UNL     1      19.255  11.390  -3.368  1.00  0.00     0.124 S 
ATOM     90  O   UNL     1      20.062  10.176  -3.437  1.00  0.00    -0.237 OA
ATOM     91  O   UNL     1      18.924  12.004  -4.651  1.00  0.00    -0.237 OA
ATOM     92  O   UNL     1      19.617  12.325  -2.308  1.00  0.00    -0.744 OA
ENDBRANCH  88  89
ENDBRANCH  56  81
ENDBRANCH  30  31
ENDBRANCH  23  25
ENDBRANCH  22  23
ENDBRANCH  21  22
ENDBRANCH   1  21
TORSDOF 18
