REMARK SMILES CCOc1cccc(OCC)c1-c1ccc([C@@H](C)C(=O)OCCOCCOC(=O)c2ccc(-c3c4nc(c(-c5c(F)cc(S(=O)(=O)[O-])cc5F)c5ccc([nH]5)c(-c5c(F)cc(S(=O)(=O)[O-])cc5F)c5nc(c(-c6c(F)cc(S(=O)(=O)[O-])cc6F)c6ccc3[nH]6)C=C5)C=C4)cc2)cc1F
REMARK SMILES IDX 23 1 22 2 21 3 19 4 20 5 17 6 18 7 16 8 13 9 14 10 97 11
REMARK SMILES IDX 15 12 96 13 98 14 12 15 4 16 5 17 6 18 8 19 7 20 3 21 2 22
REMARK SMILES IDX 1 23 9 24 10 25 11 26 24 27 25 28 26 29 27 30 28 31 29 32
REMARK SMILES IDX 30 33 31 34 95 35 32 36 94 37 33 38 34 39 35 40 88 41 36 42
REMARK SMILES IDX 93 43 87 44 89 45 37 46 92 47 86 48 85 49 38 51 72 52 51 53
REMARK SMILES IDX 71 54 52 55 55 56 70 57 90 58 53 59 54 60 69 62 91 63 56 64
REMARK SMILES IDX 39 65 40 66 49 67 41 68 42 69 48 70 50 71 43 72 44 73 45 74
REMARK SMILES IDX 46 75 47 76 73 77 74 78 83 79 75 80 76 81 82 82 84 83 77 84
REMARK SMILES IDX 78 85 79 86 80 87 81 88 57 89 58 90 67 91 59 92 60 93 66 94
REMARK SMILES IDX 68 95 61 96 62 97 63 98 64 99 65 100
REMARK H PARENT 89 50 55 61
REMARK Flexibility Score: inf
ROOT
ATOM      1  C   UNL     1      -0.787  -5.391  -1.874  1.00  0.00     0.202 C 
ENDROOT
BRANCH   1   2
ATOM      2  C   UNL     1       0.095  -4.986  -3.061  1.00  0.00     0.261 C 
BRANCH   2   3
ATOM      3  O   UNL     1       0.642  -3.653  -2.950  1.00  0.00    -0.463 OA
BRANCH   3   4
ATOM      4  C   UNL     1       0.311  -2.793  -3.947  1.00  0.00     0.313 C 
ATOM      5  O   UNL     1      -0.441  -3.082  -4.878  1.00  0.00    -0.252 OA
BRANCH   4   6
ATOM      6  C   UNL     1       0.980  -1.430  -3.896  1.00  0.00     0.126 C 
ATOM      7  C   UNL     1       2.134  -1.426  -4.901  1.00  0.00     0.025 C 
BRANCH   6   8
ATOM      8  C   UNL     1       1.427  -0.799  -2.581  1.00  0.00    -0.031 A 
ATOM      9  C   UNL     1       2.563   0.626  -0.367  1.00  0.00     0.025 A 
ATOM     10  C   UNL     1       2.703  -0.767  -0.503  1.00  0.00     0.012 A 
ATOM     11  C   UNL     1       1.782   1.277  -1.326  1.00  0.00     0.131 A 
ATOM     12  C   UNL     1       2.173  -1.464  -1.604  1.00  0.00     0.005 A 
ATOM     13  C   UNL     1       1.221   0.585  -2.405  1.00  0.00     0.044 A 
ATOM     14  F   UNL     1       1.590   2.603  -1.259  1.00  0.00    -0.206 F 
BRANCH   9  15
ATOM     15  C   UNL     1       3.197   1.350   0.755  1.00  0.00     0.069 A 
ATOM     16  C   UNL     1       2.365   1.768   1.831  1.00  0.00     0.130 A 
ATOM     17  C   UNL     1       2.868   2.377   2.987  1.00  0.00     0.047 A 
ATOM     18  C   UNL     1       4.230   2.576   3.115  1.00  0.00     0.008 A 
ATOM     19  C   UNL     1       4.577   1.626   0.877  1.00  0.00     0.130 A 
ATOM     20  C   UNL     1       5.066   2.218   2.063  1.00  0.00     0.047 A 
BRANCH  16  21
ATOM     21  O   UNL     1       1.002   1.666   1.690  1.00  0.00    -0.493 OA
BRANCH  21  22
ATOM     22  C   UNL     1       0.392   0.818   2.666  1.00  0.00     0.226 C 
ATOM     23  C   UNL     1      -0.309  -0.285   1.908  1.00  0.00     0.049 C 
ENDBRANCH  21  22
ENDBRANCH  16  21
BRANCH  19  24
ATOM     24  O   UNL     1       5.618   1.451   0.008  1.00  0.00    -0.493 OA
BRANCH  24  25
ATOM     25  C   UNL     1       5.513   0.841  -1.266  1.00  0.00     0.226 C 
ATOM     26  C   UNL     1       5.967  -0.604  -1.166  1.00  0.00     0.049 C 
ENDBRANCH  24  25
ENDBRANCH  19  24
ENDBRANCH   9  15
ENDBRANCH   6   8
ENDBRANCH   4   6
ENDBRANCH   3   4
ENDBRANCH   2   3
ENDBRANCH   1   2
BRANCH   1  27
ATOM     27  O   UNL     1      -2.014  -4.679  -1.713  1.00  0.00    -0.374 OA
BRANCH  27  28
ATOM     28  C   UNL     1      -1.929  -3.292  -1.406  1.00  0.00     0.202 C 
BRANCH  28  29
ATOM     29  C   UNL     1      -1.372  -2.932  -0.028  1.00  0.00     0.261 C 
BRANCH  29  30
ATOM     30  O   UNL     1      -0.075  -3.498   0.223  1.00  0.00    -0.460 OA
BRANCH  30  31
ATOM     31  C   UNL     1       0.124  -3.899   1.500  1.00  0.00     0.338 C 
ATOM     32  O   UNL     1      -0.600  -3.683   2.465  1.00  0.00    -0.246 OA
BRANCH  31  33
ATOM     33  C   UNL     1       1.323  -4.747   1.589  1.00  0.00     0.060 A 
ATOM     34  C   UNL     1       1.169  -6.136   1.523  1.00  0.00     0.016 A 
ATOM     35  C   UNL     1       2.567  -4.185   1.882  1.00  0.00     0.016 A 
ATOM     36  C   UNL     1       2.261  -6.969   1.778  1.00  0.00     0.010 A 
ATOM     37  C   UNL     1       3.663  -5.024   2.126  1.00  0.00     0.010 A 
ATOM     38  C   UNL     1       3.511  -6.422   2.106  1.00  0.00    -0.014 A 
BRANCH  38  39
ATOM     39  C   UNL     1       4.626  -7.321   2.509  1.00  0.00     0.031 A 
ATOM     40  C   UNL     1       4.968  -7.494   3.966  1.00  0.00     0.074 A 
ATOM     41  C   UNL     1       5.312  -8.015   1.582  1.00  0.00     0.049 A 
ATOM     42  N   UNL     1       5.865  -8.271   4.519  1.00  0.00    -0.248 NA
ATOM     43  C   UNL     1       4.199  -6.687   4.925  1.00  0.00     0.031 C 
ATOM     44  C   UNL     1       5.080  -7.951   0.140  1.00  0.00     0.029 A 
ATOM     45  N   UNL     1       6.342  -8.913   1.717  1.00  0.00    -0.354 N 
ATOM     46  C   UNL     1       5.767  -8.054   5.888  1.00  0.00     0.074 A 
ATOM     47  C   UNL     1       4.747  -7.043   6.078  1.00  0.00     0.031 C 
ATOM     48  C   UNL     1       5.938  -8.782  -0.477  1.00  0.00     0.029 A 
ATOM     49  C   UNL     1       6.793  -9.420   0.523  1.00  0.00     0.049 A 
ATOM     50  H   UNL     1       6.722  -9.169   2.589  1.00  0.00     0.167 HD
ATOM     51  C   UNL     1       6.450  -8.649   6.897  1.00  0.00     0.037 A 
ATOM     52  C   UNL     1       7.784 -10.296   0.260  1.00  0.00     0.037 A 
ATOM     53  C   UNL     1       7.468  -9.652   6.716  1.00  0.00     0.049 A 
ATOM     54  C   UNL     1       8.567 -10.904   1.391  1.00  0.00     0.074 A 
ATOM     55  C   UNL     1       8.184 -10.337   7.683  1.00  0.00     0.029 A 
ATOM     56  N   UNL     1       7.927 -10.105   5.488  1.00  0.00    -0.354 N 
ATOM     57  N   UNL     1       8.426 -10.724   2.683  1.00  0.00    -0.248 NA
ATOM     58  C   UNL     1       9.643 -11.839   1.029  1.00  0.00     0.031 C 
ATOM     59  C   UNL     1       9.107 -11.172   7.040  1.00  0.00     0.029 A 
ATOM     60  C   UNL     1       8.936 -11.038   5.672  1.00  0.00     0.049 A 
ATOM     61  H   UNL     1       7.586  -9.808   4.614  1.00  0.00     0.167 HD
ATOM     62  C   UNL     1       9.381 -11.536   3.287  1.00  0.00     0.074 A 
ATOM     63  C   UNL     1      10.086 -12.217   2.220  1.00  0.00     0.031 C 
ATOM     64  C   UNL     1       9.644 -11.704   4.607  1.00  0.00     0.037 A 
BRANCH  51  65
ATOM     65  C   UNL     1       6.125  -8.212   8.298  1.00  0.00     0.058 A 
ATOM     66  C   UNL     1       4.927  -8.588   8.927  1.00  0.00     0.135 A 
ATOM     67  C   UNL     1       7.029  -7.423   9.027  1.00  0.00     0.135 A 
ATOM     68  F   UNL     1       4.024  -9.333   8.270  1.00  0.00    -0.206 F 
ATOM     69  C   UNL     1       4.619  -8.166  10.216  1.00  0.00     0.059 A 
ATOM     70  C   UNL     1       6.752  -7.008  10.326  1.00  0.00     0.059 A 
ATOM     71  F   UNL     1       8.190  -7.039   8.474  1.00  0.00    -0.206 F 
ATOM     72  C   UNL     1       5.535  -7.368  10.905  1.00  0.00     0.060 A 
BRANCH  72  73
ATOM     73  S   UNL     1       5.114  -6.805  12.568  1.00  0.00     0.124 S 
ATOM     74  O   UNL     1       4.153  -5.745  12.279  1.00  0.00    -0.237 OA
ATOM     75  O   UNL     1       4.562  -8.010  13.179  1.00  0.00    -0.237 OA
ATOM     76  O   UNL     1       6.395  -6.362  13.110  1.00  0.00    -0.744 OA
ENDBRANCH  72  73
ENDBRANCH  51  65
BRANCH  52  77
ATOM     77  C   UNL     1       8.082 -10.662  -1.149  1.00  0.00     0.058 A 
ATOM     78  C   UNL     1       7.737 -11.922  -1.657  1.00  0.00     0.135 A 
ATOM     79  C   UNL     1       8.695  -9.748  -2.019  1.00  0.00     0.135 A 
ATOM     80  F   UNL     1       7.160 -12.832  -0.857  1.00  0.00    -0.206 F 
ATOM     81  C   UNL     1       7.986 -12.265  -2.981  1.00  0.00     0.059 A 
ATOM     82  C   UNL     1       8.937 -10.060  -3.353  1.00  0.00     0.059 A 
ATOM     83  F   UNL     1       9.035  -8.526  -1.581  1.00  0.00    -0.206 F 
ATOM     84  C   UNL     1       8.581 -11.324  -3.823  1.00  0.00     0.060 A 
BRANCH  84  85
ATOM     85  S   UNL     1       8.827 -11.747  -5.562  1.00  0.00     0.124 S 
ATOM     86  O   UNL     1       9.976 -12.642  -5.487  1.00  0.00    -0.237 OA
ATOM     87  O   UNL     1       7.553 -12.370  -5.909  1.00  0.00    -0.237 OA
ATOM     88  O   UNL     1       9.072 -10.452  -6.189  1.00  0.00    -0.744 OA
ENDBRANCH  84  85
ENDBRANCH  52  77
BRANCH  64  89
ATOM     89  C   UNL     1      10.735 -12.672   4.978  1.00  0.00     0.058 A 
ATOM     90  C   UNL     1      12.091 -12.356   4.797  1.00  0.00     0.135 A 
ATOM     91  C   UNL     1      10.424 -13.914   5.555  1.00  0.00     0.135 A 
ATOM     92  F   UNL     1      12.443 -11.185   4.243  1.00  0.00    -0.206 F 
ATOM     93  C   UNL     1      13.099 -13.247   5.152  1.00  0.00     0.059 A 
ATOM     94  C   UNL     1      11.416 -14.811   5.939  1.00  0.00     0.059 A 
ATOM     95  F   UNL     1       9.143 -14.262   5.760  1.00  0.00    -0.206 F 
ATOM     96  C   UNL     1      12.752 -14.474   5.721  1.00  0.00     0.060 A 
BRANCH  96  97
ATOM     97  S   UNL     1      14.068 -15.615   6.199  1.00  0.00     0.124 S 
ATOM     98  O   UNL     1      14.463 -16.165   4.907  1.00  0.00    -0.237 OA
ATOM     99  O   UNL     1      15.039 -14.729   6.834  1.00  0.00    -0.237 OA
ATOM    100  O   UNL     1      13.398 -16.547   7.101  1.00  0.00    -0.744 OA
ENDBRANCH  96  97
ENDBRANCH  64  89
ENDBRANCH  38  39
ENDBRANCH  31  33
ENDBRANCH  30  31
ENDBRANCH  29  30
ENDBRANCH  28  29
ENDBRANCH  27  28
ENDBRANCH   1  27
TORSDOF 23
