REMARK SMILES CCc1nc(N2CC[N@H+](CC=C(C)C)[C@H](C(=O)OCCOCCOC(=O)c3ccc(-c4c5nc(c(-c6c(F)cc(S(=O)(=O)[O-])cc6F)c6ccc([nH]6)c(-c6c(F)cc(S(=O)(=O)[O-])cc6F)c6nc(c(-c7c(F)cc(S(=O)(=O)[O-])cc7F)c7ccc4[nH]7)C=C6)C=C5)cc3)C2)no1
REMARK SMILES IDX 22 1 21 2 20 3 19 4 18 5 16 6 17 7 15 8 6 9 7 10 93 11 8 12
REMARK SMILES IDX 9 13 5 15 3 16 4 17 95 18 94 19 2 20 1 21 10 22 11 23 12 24
REMARK SMILES IDX 13 25 14 26 23 27 24 28 25 29 26 30 27 31 28 32 92 33 29 34
REMARK SMILES IDX 91 35 30 36 31 37 32 38 85 39 33 40 90 41 84 42 86 43 34 44
REMARK SMILES IDX 89 45 83 46 82 47 35 49 69 50 48 51 68 52 49 53 52 54 67 55
REMARK SMILES IDX 87 56 50 57 51 58 66 60 88 61 53 62 36 63 37 64 46 65 38 66
REMARK SMILES IDX 39 67 45 68 47 69 40 70 41 71 42 72 43 73 44 74 70 75 71 76
REMARK SMILES IDX 80 77 72 78 73 79 79 80 81 81 74 82 75 83 76 84 77 85 78 86
REMARK SMILES IDX 54 87 55 88 64 89 56 90 57 91 63 92 65 93 58 94 59 95 60 96
REMARK SMILES IDX 61 97 62 98
REMARK H PARENT 9 14 86 48 52 59
REMARK Flexibility Score: inf
ROOT
ATOM      1  C   UNL     1      -2.039  -7.919  -2.310  1.00  0.00     0.202 C 
ENDROOT
BRANCH   1   2
ATOM      2  O   UNL     1      -3.396  -7.481  -2.429  1.00  0.00    -0.374 OA
BRANCH   2   3
ATOM      3  C   UNL     1      -3.923  -7.372  -3.750  1.00  0.00     0.202 C 
BRANCH   3   4
ATOM      4  C   UNL     1      -3.644  -6.067  -4.499  1.00  0.00     0.261 C 
BRANCH   4   5
ATOM      5  O   UNL     1      -2.240  -5.788  -4.596  1.00  0.00    -0.459 OA
BRANCH   5   6
ATOM      6  C   UNL     1      -1.766  -4.977  -3.620  1.00  0.00     0.366 C 
ATOM      7  O   UNL     1      -2.481  -4.413  -2.793  1.00  0.00    -0.245 OA
BRANCH   6   8
ATOM      8  C   UNL     1      -0.269  -4.739  -3.654  1.00  0.00     0.315 C 
ATOM      9  N   UNL     1       1.345  -2.959  -4.096  1.00  0.00    -0.326 N 
ATOM     10  C   UNL     1       2.397  -3.919  -4.409  1.00  0.00     0.181 C 
ATOM     11  C   UNL     1      -0.031  -3.386  -4.329  1.00  0.00     0.197 C 
ATOM     12  C   UNL     1       2.057  -5.334  -3.842  1.00  0.00     0.285 C 
ATOM     13  N   UNL     1       0.669  -5.845  -4.040  1.00  0.00    -0.317 N 
ATOM     14  H   UNL     1       0.421  -6.619  -3.424  1.00  0.00     0.349 HD
BRANCH   9  15
ATOM     15  C   UNL     1       1.595  -1.754  -3.553  1.00  0.00     0.266 A 
ATOM     16  C   UNL     1       1.170  -0.094  -2.355  1.00  0.00     0.227 A 
ATOM     17  N   UNL     1       0.610  -1.191  -2.789  1.00  0.00    -0.176 NA
ATOM     18  O   UNL     1       2.430   0.094  -2.835  1.00  0.00    -0.337 OA
ATOM     19  N   UNL     1       2.720  -1.029  -3.613  1.00  0.00    -0.038 NA
BRANCH  16  20
ATOM     20  C   UNL     1       0.660   0.862  -1.353  1.00  0.00     0.097 C 
ATOM     21  C   UNL     1       1.000   0.379   0.049  1.00  0.00     0.014 C 
ENDBRANCH  16  20
ENDBRANCH   9  15
BRANCH  13  22
ATOM     22  C   UNL     1       0.513  -6.524  -5.333  1.00  0.00     0.291 C 
BRANCH  22  23
ATOM     23  C   UNL     1       0.588  -5.663  -6.557  1.00  0.00     0.032 C 
ATOM     24  C   UNL     1       1.589  -5.585  -7.456  1.00  0.00    -0.075 C 
ATOM     25  C   UNL     1       1.558  -4.539  -8.538  1.00  0.00     0.039 C 
ATOM     26  C   UNL     1       2.816  -6.453  -7.428  1.00  0.00     0.039 C 
ENDBRANCH  22  23
ENDBRANCH  13  22
ENDBRANCH   6   8
ENDBRANCH   5   6
ENDBRANCH   4   5
ENDBRANCH   3   4
ENDBRANCH   2   3
ENDBRANCH   1   2
BRANCH   1  27
ATOM     27  C   UNL     1      -1.795  -9.425  -2.465  1.00  0.00     0.261 C 
BRANCH  27  28
ATOM     28  O   UNL     1      -1.954  -9.848  -3.832  1.00  0.00    -0.460 OA
BRANCH  28  29
ATOM     29  C   UNL     1      -3.063 -10.582  -4.079  1.00  0.00     0.338 C 
ATOM     30  O   UNL     1      -3.872 -10.995  -3.256  1.00  0.00    -0.246 OA
BRANCH  29  31
ATOM     31  C   UNL     1      -3.300 -10.655  -5.533  1.00  0.00     0.060 A 
ATOM     32  C   UNL     1      -4.580 -10.324  -5.997  1.00  0.00     0.016 A 
ATOM     33  C   UNL     1      -2.312 -11.084  -6.422  1.00  0.00     0.016 A 
ATOM     34  C   UNL     1      -4.896 -10.475  -7.345  1.00  0.00     0.010 A 
ATOM     35  C   UNL     1      -2.634 -11.245  -7.774  1.00  0.00     0.010 A 
ATOM     36  C   UNL     1      -3.937 -10.979  -8.233  1.00  0.00    -0.014 A 
BRANCH  36  37
ATOM     37  C   UNL     1      -4.347 -11.379  -9.600  1.00  0.00     0.031 A 
ATOM     38  C   UNL     1      -4.615 -12.833  -9.879  1.00  0.00     0.074 A 
ATOM     39  C   UNL     1      -4.505 -10.461 -10.570  1.00  0.00     0.049 A 
ATOM     40  N   UNL     1      -4.944 -13.416 -11.002  1.00  0.00    -0.248 NA
ATOM     41  C   UNL     1      -4.493 -13.754  -8.736  1.00  0.00     0.031 C 
ATOM     42  C   UNL     1      -4.310  -9.021 -10.409  1.00  0.00     0.029 A 
ATOM     43  N   UNL     1      -4.857 -10.608 -11.888  1.00  0.00    -0.354 N 
ATOM     44  C   UNL     1      -5.058 -14.770 -10.706  1.00  0.00     0.074 A 
ATOM     45  C   UNL     1      -4.737 -14.926  -9.304  1.00  0.00     0.031 C 
ATOM     46  C   UNL     1      -4.532  -8.417 -11.589  1.00  0.00     0.029 A 
ATOM     47  C   UNL     1      -4.853  -9.429 -12.594  1.00  0.00     0.049 A 
ATOM     48  H   UNL     1      -5.090 -11.476 -12.289  1.00  0.00     0.167 HD
ATOM     49  C   UNL     1      -5.407 -15.788 -11.528  1.00  0.00     0.037 A 
ATOM     50  C   UNL     1      -5.063  -9.199 -13.905  1.00  0.00     0.037 A 
ATOM     51  C   UNL     1      -5.730 -15.623 -12.921  1.00  0.00     0.049 A 
ATOM     52  C   UNL     1      -5.394 -10.355 -14.813  1.00  0.00     0.074 A 
ATOM     53  C   UNL     1      -6.118 -16.588 -13.834  1.00  0.00     0.029 A 
ATOM     54  N   UNL     1      -5.696 -14.417 -13.605  1.00  0.00    -0.354 N 
ATOM     55  N   UNL     1      -5.522 -11.627 -14.517  1.00  0.00    -0.248 NA
ATOM     56  C   UNL     1      -5.615 -10.045 -16.233  1.00  0.00     0.031 C 
ATOM     57  C   UNL     1      -6.272 -15.973 -15.081  1.00  0.00     0.029 A 
ATOM     58  C   UNL     1      -6.032 -14.616 -14.934  1.00  0.00     0.049 A 
ATOM     59  H   UNL     1      -5.467 -13.547 -13.204  1.00  0.00     0.167 HD
ATOM     60  C   UNL     1      -5.863 -12.264 -15.706  1.00  0.00     0.074 A 
ATOM     61  C   UNL     1      -5.931 -11.235 -16.724  1.00  0.00     0.031 C 
ATOM     62  C   UNL     1      -6.101 -13.579 -15.934  1.00  0.00     0.037 A 
BRANCH  49  63
ATOM     63  C   UNL     1      -5.431 -17.175 -10.948  1.00  0.00     0.058 A 
ATOM     64  C   UNL     1      -6.427 -17.584 -10.047  1.00  0.00     0.135 A 
ATOM     65  C   UNL     1      -4.461 -18.118 -11.323  1.00  0.00     0.135 A 
ATOM     66  F   UNL     1      -7.367 -16.716  -9.639  1.00  0.00    -0.206 F 
ATOM     67  C   UNL     1      -6.446 -18.871  -9.520  1.00  0.00     0.059 A 
ATOM     68  C   UNL     1      -4.476 -19.419 -10.830  1.00  0.00     0.059 A 
ATOM     69  F   UNL     1      -3.483 -17.779 -12.179  1.00  0.00    -0.206 F 
ATOM     70  C   UNL     1      -5.466 -19.782  -9.918  1.00  0.00     0.060 A 
BRANCH  70  71
ATOM     71  S   UNL     1      -5.508 -21.452  -9.232  1.00  0.00     0.124 S 
ATOM     72  O   UNL     1      -5.059 -21.215  -7.863  1.00  0.00    -0.237 OA
ATOM     73  O   UNL     1      -6.913 -21.816  -9.383  1.00  0.00    -0.237 OA
ATOM     74  O   UNL     1      -4.577 -22.191 -10.078  1.00  0.00    -0.744 OA
ENDBRANCH  70  71
ENDBRANCH  49  63
BRANCH  50  75
ATOM     75  C   UNL     1      -4.951  -7.816 -14.441  1.00  0.00     0.058 A 
ATOM     76  C   UNL     1      -6.080  -7.116 -14.888  1.00  0.00     0.135 A 
ATOM     77  C   UNL     1      -3.708  -7.165 -14.512  1.00  0.00     0.135 A 
ATOM     78  F   UNL     1      -7.288  -7.699 -14.852  1.00  0.00    -0.206 F 
ATOM     79  C   UNL     1      -5.983  -5.824 -15.396  1.00  0.00     0.059 A 
ATOM     80  C   UNL     1      -3.589  -5.865 -14.992  1.00  0.00     0.059 A 
ATOM     81  F   UNL     1      -2.598  -7.788 -14.087  1.00  0.00    -0.206 F 
ATOM     82  C   UNL     1      -4.732  -5.206 -15.440  1.00  0.00     0.060 A 
BRANCH  82  83
ATOM     83  S   UNL     1      -4.624  -3.509 -16.049  1.00  0.00     0.124 S 
ATOM     84  O   UNL     1      -4.813  -3.698 -17.482  1.00  0.00    -0.237 OA
ATOM     85  O   UNL     1      -5.722  -2.859 -15.340  1.00  0.00    -0.237 OA
ATOM     86  O   UNL     1      -3.288  -3.090 -15.636  1.00  0.00    -0.744 OA
ENDBRANCH  82  83
ENDBRANCH  50  75
BRANCH  62  87
ATOM     87  C   UNL     1      -6.492 -13.984 -17.330  1.00  0.00     0.058 A 
ATOM     88  C   UNL     1      -5.561 -14.009 -18.380  1.00  0.00     0.135 A 
ATOM     89  C   UNL     1      -7.803 -14.406 -17.605  1.00  0.00     0.135 A 
ATOM     90  F   UNL     1      -4.296 -13.611 -18.171  1.00  0.00    -0.206 F 
ATOM     91  C   UNL     1      -5.922 -14.418 -19.660  1.00  0.00     0.059 A 
ATOM     92  C   UNL     1      -8.178 -14.845 -18.871  1.00  0.00     0.059 A 
ATOM     93  F   UNL     1      -8.729 -14.412 -16.634  1.00  0.00    -0.206 F 
ATOM     94  C   UNL     1      -7.233 -14.836 -19.895  1.00  0.00     0.060 A 
BRANCH  94  95
ATOM     95  S   UNL     1      -7.680 -15.396 -21.552  1.00  0.00     0.124 S 
ATOM     96  O   UNL     1      -7.742 -14.134 -22.282  1.00  0.00    -0.237 OA
ATOM     97  O   UNL     1      -6.566 -16.274 -21.897  1.00  0.00    -0.237 OA
ATOM     98  O   UNL     1      -8.960 -16.069 -21.350  1.00  0.00    -0.744 OA
ENDBRANCH  94  95
ENDBRANCH  62  87
ENDBRANCH  36  37
ENDBRANCH  29  31
ENDBRANCH  28  29
ENDBRANCH  27  28
ENDBRANCH   1  27
TORSDOF 21
