REMARK SMILES O=C(Cn1c(=O)[nH]c2ccccc2c1=O)NC[C@H]1CC[C@@H](C(=O)N2CCC(C(=O)OCCOCCOC(=O)c3ccc(-c4c5nc(c(-c6c(F)cc(S(=O)(=O)[O-])cc6F)c6ccc([nH]6)c(-c6c(F)cc(S(=O)(=O)[O-])cc6F)c6nc(c(-c7c(F)cc(S(=O)(=O)[O-])cc7F)c7ccc4[nH]7)C=C6)C=C5)cc3)CC2)CC1
REMARK SMILES IDX 32 1 31 2 30 3 28 4 29 5 27 6 22 7 23 8 24 9 25 10 106 11
REMARK SMILES IDX 26 12 105 13 21 14 18 15 19 16 108 17 20 18 107 19 17 20
REMARK SMILES IDX 16 21 1 22 2 23 3 25 4 26 5 27 14 28 6 29 7 30 13 31 15 32
REMARK SMILES IDX 8 33 12 35 9 36 11 37 10 38 33 39 34 40 35 41 36 42 37 43
REMARK SMILES IDX 38 44 39 45 40 46 104 47 41 48 103 49 42 50 43 51 44 52
REMARK SMILES IDX 97 53 45 54 102 55 96 56 98 57 46 58 101 59 95 60 94 61
REMARK SMILES IDX 47 63 81 64 60 65 80 66 61 67 64 68 79 69 99 70 62 71 63 72
REMARK SMILES IDX 78 74 100 75 65 76 48 77 49 78 58 79 50 80 51 81 57 82 59 83
REMARK SMILES IDX 52 84 53 85 54 86 55 87 56 88 82 89 83 90 92 91 84 92 85 93
REMARK SMILES IDX 91 94 93 95 86 96 87 97 88 98 89 99 90 100 66 101 67 102
REMARK SMILES IDX 76 103 68 104 69 105 75 106 77 107 70 108 71 109 72 110
REMARK SMILES IDX 73 111 74 112
REMARK H PARENT 16 24 7 34 98 62 64 73
REMARK Flexibility Score: inf
ROOT
ATOM      1  C   UNL     1      10.356   1.359   2.102  1.00  0.00     0.202 C 
ENDROOT
BRANCH   1   2
ATOM      2  C   UNL     1      10.120   0.171   1.170  1.00  0.00     0.261 C 
BRANCH   2   3
ATOM      3  O   UNL     1       9.051   0.440   0.258  1.00  0.00    -0.463 OA
BRANCH   3   4
ATOM      4  C   UNL     1       7.911  -0.256   0.476  1.00  0.00     0.309 C 
ATOM      5  O   UNL     1       7.752  -1.134   1.315  1.00  0.00    -0.252 OA
BRANCH   4   6
ATOM      6  C   UNL     1       6.831   0.118  -0.500  1.00  0.00     0.103 C 
ATOM      7  C   UNL     1       5.230   1.346  -4.243  1.00  0.00     0.225 C 
ATOM      8  O   UNL     1       5.485   2.510  -4.580  1.00  0.00    -0.275 OA
ATOM      9  N   UNL     1       5.643   0.886  -3.007  1.00  0.00    -0.342 N 
ATOM     10  C   UNL     1       5.632   1.836  -1.894  1.00  0.00     0.120 C 
ATOM     11  C   UNL     1       5.896  -0.501  -2.691  1.00  0.00     0.120 C 
ATOM     12  C   UNL     1       6.733   1.600  -0.867  1.00  0.00     0.037 C 
ATOM     13  C   UNL     1       7.060  -0.706  -1.753  1.00  0.00     0.037 C 
BRANCH   7  14
ATOM     14  C   UNL     1       4.216   0.556  -5.107  1.00  0.00     0.078 C 
ATOM     15  C   UNL     1       2.228  -0.981  -3.430  1.00  0.00     0.008 C 
ATOM     16  C   UNL     1       2.291   0.548  -3.474  1.00  0.00     0.006 C 
ATOM     17  C   UNL     1       3.394  -1.722  -4.113  1.00  0.00     0.006 C 
ATOM     18  C   UNL     1       2.810   1.087  -4.799  1.00  0.00     0.014 C 
ATOM     19  C   UNL     1       4.162  -0.967  -5.208  1.00  0.00     0.014 C 
BRANCH  15  20
ATOM     20  C   UNL     1       1.940  -1.530  -2.007  1.00  0.00     0.119 C 
BRANCH  20  21
ATOM     21  N   UNL     1       2.655  -0.906  -0.896  1.00  0.00    -0.354 N 
ATOM     22  O   UNL     1       1.018   0.629  -0.471  1.00  0.00    -0.273 OA
ATOM     23  C   UNL     1       2.042   0.048  -0.105  1.00  0.00     0.240 C 
ATOM     24  H   UNL     1       3.585  -1.168  -0.708  1.00  0.00     0.163 HD
BRANCH  23  25
ATOM     25  C   UNL     1       2.755   0.498   1.186  1.00  0.00     0.230 C 
BRANCH  25  26
ATOM     26  N   UNL     1       3.654  -0.405   1.906  1.00  0.00    -0.250 N 
ATOM     27  C   UNL     1       3.251  -1.712   2.103  1.00  0.00     0.329 A 
ATOM     28  C   UNL     1       4.666   0.187   2.672  1.00  0.00     0.264 A 
ATOM     29  O   UNL     1       2.193  -2.179   1.687  1.00  0.00    -0.248 OA
ATOM     30  N   UNL     1       4.108  -2.528   2.781  1.00  0.00    -0.307 N 
ATOM     31  C   UNL     1       5.485  -0.710   3.517  1.00  0.00     0.064 A 
ATOM     32  O   UNL     1       4.891   1.396   2.688  1.00  0.00    -0.268 OA
ATOM     33  C   UNL     1       5.228  -2.072   3.468  1.00  0.00     0.055 A 
ATOM     34  H   UNL     1       3.923  -3.495   2.785  1.00  0.00     0.171 HD
ATOM     35  C   UNL     1       6.509  -0.229   4.338  1.00  0.00     0.016 A 
ATOM     36  C   UNL     1       6.045  -2.972   4.154  1.00  0.00     0.027 A 
ATOM     37  C   UNL     1       7.333  -1.122   5.024  1.00  0.00     0.001 A 
ATOM     38  C   UNL     1       7.113  -2.494   4.915  1.00  0.00     0.002 A 
ENDBRANCH  25  26
ENDBRANCH  23  25
ENDBRANCH  20  21
ENDBRANCH  15  20
ENDBRANCH   7  14
ENDBRANCH   4   6
ENDBRANCH   3   4
ENDBRANCH   2   3
ENDBRANCH   1   2
BRANCH   1  39
ATOM     39  O   UNL     1       9.313   1.706   3.012  1.00  0.00    -0.374 OA
BRANCH  39  40
ATOM     40  C   UNL     1       8.174   2.396   2.500  1.00  0.00     0.202 C 
BRANCH  40  41
ATOM     41  C   UNL     1       8.315   3.868   2.102  1.00  0.00     0.261 C 
BRANCH  41  42
ATOM     42  O   UNL     1       9.154   4.056   0.957  1.00  0.00    -0.460 OA
BRANCH  42  43
ATOM     43  C   UNL     1      10.375   4.574   1.234  1.00  0.00     0.338 C 
ATOM     44  O   UNL     1      10.804   4.914   2.326  1.00  0.00    -0.246 OA
BRANCH  43  45
ATOM     45  C   UNL     1      11.223   4.455   0.036  1.00  0.00     0.060 A 
ATOM     46  C   UNL     1      10.810   4.958  -1.198  1.00  0.00     0.016 A 
ATOM     47  C   UNL     1      12.472   3.836   0.178  1.00  0.00     0.016 A 
ATOM     48  C   UNL     1      11.676   4.872  -2.289  1.00  0.00     0.010 A 
ATOM     49  C   UNL     1      13.333   3.750  -0.911  1.00  0.00     0.010 A 
ATOM     50  C   UNL     1      12.950   4.292  -2.145  1.00  0.00    -0.014 A 
BRANCH  50  51
ATOM     51  C   UNL     1      13.940   4.387  -3.243  1.00  0.00     0.031 A 
ATOM     52  C   UNL     1      14.322   3.191  -4.059  1.00  0.00     0.074 A 
ATOM     53  C   UNL     1      14.515   5.583  -3.471  1.00  0.00     0.049 A 
ATOM     54  N   UNL     1      15.132   3.124  -5.083  1.00  0.00    -0.248 NA
ATOM     55  C   UNL     1      13.729   1.904  -3.670  1.00  0.00     0.031 C 
ATOM     56  C   UNL     1      14.244   6.801  -2.704  1.00  0.00     0.029 A 
ATOM     57  N   UNL     1      15.431   5.976  -4.410  1.00  0.00    -0.354 N 
ATOM     58  C   UNL     1      15.126   1.796  -5.486  1.00  0.00     0.074 A 
ATOM     59  C   UNL     1      14.281   1.079  -4.551  1.00  0.00     0.031 C 
ATOM     60  C   UNL     1      14.944   7.816  -3.232  1.00  0.00     0.029 A 
ATOM     61  C   UNL     1      15.738   7.314  -4.349  1.00  0.00     0.049 A 
ATOM     62  H   UNL     1      15.831   5.360  -5.066  1.00  0.00     0.167 HD
ATOM     63  C   UNL     1      15.747   1.236  -6.553  1.00  0.00     0.037 A 
ATOM     64  C   UNL     1      16.562   8.057  -5.112  1.00  0.00     0.037 A 
ATOM     65  C   UNL     1      16.607   1.961  -7.456  1.00  0.00     0.049 A 
ATOM     66  C   UNL     1      17.288   7.401  -6.253  1.00  0.00     0.074 A 
ATOM     67  C   UNL     1      17.271   1.490  -8.575  1.00  0.00     0.029 A 
ATOM     68  N   UNL     1      16.933   3.306  -7.339  1.00  0.00    -0.354 N 
ATOM     69  N   UNL     1      17.225   6.155  -6.660  1.00  0.00    -0.248 NA
ATOM     70  C   UNL     1      18.194   8.248  -7.038  1.00  0.00     0.031 C 
ATOM     71  C   UNL     1      18.041   2.533  -9.101  1.00  0.00     0.029 A 
ATOM     72  C   UNL     1      17.812   3.673  -8.347  1.00  0.00     0.049 A 
ATOM     73  H   UNL     1      16.591   3.911  -6.641  1.00  0.00     0.167 HD
ATOM     74  C   UNL     1      18.067   6.073  -7.763  1.00  0.00     0.074 A 
ATOM     75  C   UNL     1      18.614   7.400  -7.967  1.00  0.00     0.031 C 
ATOM     76  C   UNL     1      18.359   4.997  -8.535  1.00  0.00     0.037 A 
BRANCH  63  77
ATOM     77  C   UNL     1      15.514  -0.229  -6.806  1.00  0.00     0.058 A 
ATOM     78  C   UNL     1      14.262  -0.707  -7.227  1.00  0.00     0.135 A 
ATOM     79  C   UNL     1      16.555  -1.162  -6.670  1.00  0.00     0.135 A 
ATOM     80  F   UNL     1      13.227   0.137  -7.365  1.00  0.00    -0.206 F 
ATOM     81  C   UNL     1      14.041  -2.058  -7.471  1.00  0.00     0.059 A 
ATOM     82  C   UNL     1      16.364  -2.516  -6.936  1.00  0.00     0.059 A 
ATOM     83  F   UNL     1      17.774  -0.763  -6.274  1.00  0.00    -0.206 F 
ATOM     84  C   UNL     1      15.099  -2.956  -7.321  1.00  0.00     0.060 A 
BRANCH  84  85
ATOM     85  S   UNL     1      14.784  -4.708  -7.622  1.00  0.00     0.124 S 
ATOM     86  O   UNL     1      13.903  -5.041  -6.505  1.00  0.00    -0.237 OA
ATOM     87  O   UNL     1      14.155  -4.689  -8.938  1.00  0.00    -0.237 OA
ATOM     88  O   UNL     1      16.113  -5.309  -7.571  1.00  0.00    -0.744 OA
ENDBRANCH  84  85
ENDBRANCH  63  77
BRANCH  64  89
ATOM     89  C   UNL     1      16.694   9.513  -4.843  1.00  0.00     0.058 A 
ATOM     90  C   UNL     1      16.149  10.457  -5.725  1.00  0.00     0.135 A 
ATOM     91  C   UNL     1      17.312   9.987  -3.675  1.00  0.00     0.135 A 
ATOM     92  F   UNL     1      15.553  10.052  -6.857  1.00  0.00    -0.206 F 
ATOM     93  C   UNL     1      16.212  11.820  -5.461  1.00  0.00     0.059 A 
ATOM     94  C   UNL     1      17.363  11.345  -3.375  1.00  0.00     0.059 A 
ATOM     95  F   UNL     1      17.834   9.123  -2.791  1.00  0.00    -0.206 F 
ATOM     96  C   UNL     1      16.812  12.254  -4.277  1.00  0.00     0.060 A 
BRANCH  96  97
ATOM     97  S   UNL     1      16.822  14.023  -3.915  1.00  0.00     0.124 S 
ATOM     98  O   UNL     1      17.724  14.530  -4.943  1.00  0.00    -0.237 OA
ATOM     99  O   UNL     1      15.413  14.372  -4.073  1.00  0.00    -0.237 OA
ATOM    100  O   UNL     1      17.326  14.085  -2.547  1.00  0.00    -0.744 OA
ENDBRANCH  96  97
ENDBRANCH  64  89
BRANCH  76 101
ATOM    101  C   UNL     1      19.312   5.202  -9.682  1.00  0.00     0.058 A 
ATOM    102  C   UNL     1      20.684   5.413  -9.469  1.00  0.00     0.135 A 
ATOM    103  C   UNL     1      18.862   5.117 -11.010  1.00  0.00     0.135 A 
ATOM    104  F   UNL     1      21.167   5.511  -8.220  1.00  0.00    -0.206 F 
ATOM    105  C   UNL     1      21.572   5.549 -10.531  1.00  0.00     0.059 A 
ATOM    106  C   UNL     1      19.737   5.219 -12.087  1.00  0.00     0.059 A 
ATOM    107  F   UNL     1      17.562   4.907 -11.271  1.00  0.00    -0.206 F 
ATOM    108  C   UNL     1      21.090   5.443 -11.837  1.00  0.00     0.060 A 
BRANCH 108 109
ATOM    109  S   UNL     1      22.265   5.575 -13.201  1.00  0.00     0.124 S 
ATOM    110  O   UNL     1      22.645   6.982 -13.130  1.00  0.00    -0.237 OA
ATOM    111  O   UNL     1      23.299   4.620 -12.812  1.00  0.00    -0.237 OA
ATOM    112  O   UNL     1      21.477   5.196 -14.370  1.00  0.00    -0.744 OA
ENDBRANCH 108 109
ENDBRANCH  76 101
ENDBRANCH  50  51
ENDBRANCH  43  45
ENDBRANCH  42  43
ENDBRANCH  41  42
ENDBRANCH  40  41
ENDBRANCH  39  40
ENDBRANCH   1  39
TORSDOF 22
