REMARK SMILES Cc1c(CC(=O)OCCOCCOC(=O)c2ccc(-c3c4nc(c(-c5c(F)cc(S(=O)(=O)[O-])cc5F)c5ccc([nH]5)c(-c5c(F)cc(S(=O)(=O)[O-])cc5F)c5nc(c(-c6c(F)cc(S(=O)(=O)[O-])cc6F)c6ccc3[nH]6)C=C5)C=C4)cc2)cc(-c2ccccc2)cc1-c1ccccc1
REMARK SMILES IDX 11 1 10 2 9 3 8 4 7 5 5 6 6 7 4 8 3 9 1 10 2 11 91 12 82 13
REMARK SMILES IDX 90 14 83 15 92 16 93 17 97 18 94 19 96 20 95 21 84 22 85 23
REMARK SMILES IDX 89 24 86 25 88 26 87 27 12 28 13 29 14 30 15 31 16 32 17 33
REMARK SMILES IDX 81 34 18 35 80 36 19 37 20 38 21 39 74 40 22 41 79 42 73 43
REMARK SMILES IDX 75 44 23 45 78 46 72 47 71 48 24 50 58 51 37 52 57 53 38 54
REMARK SMILES IDX 41 55 56 56 76 57 39 58 40 59 55 61 77 62 42 63 25 64 26 65
REMARK SMILES IDX 35 66 27 67 28 68 34 69 36 70 29 71 30 72 31 73 32 74 33 75
REMARK SMILES IDX 59 76 60 77 69 78 61 79 62 80 68 81 70 82 63 83 64 84 65 85
REMARK SMILES IDX 66 86 67 87 43 88 44 89 53 90 45 91 46 92 52 93 54 94 47 95
REMARK SMILES IDX 48 96 49 97 50 98 51 99
REMARK H PARENT 75 49 41 60
REMARK Flexibility Score: inf
ROOT
ATOM      1  C   UNL     1      -3.007  -3.043   1.362  1.00  0.00     0.202 C 
ENDROOT
BRANCH   1   2
ATOM      2  O   UNL     1      -3.015  -4.433   1.077  1.00  0.00    -0.374 OA
BRANCH   2   3
ATOM      3  C   UNL     1      -1.800  -5.164   1.200  1.00  0.00     0.202 C 
BRANCH   3   4
ATOM      4  C   UNL     1      -0.450  -4.450   1.259  1.00  0.00     0.261 C 
BRANCH   4   5
ATOM      5  O   UNL     1      -0.276  -3.432   0.271  1.00  0.00    -0.463 OA
BRANCH   5   6
ATOM      6  C   UNL     1       0.816  -3.493  -0.521  1.00  0.00     0.310 C 
ATOM      7  O   UNL     1       1.518  -4.488  -0.668  1.00  0.00    -0.252 OA
BRANCH   6   8
ATOM      8  C   UNL     1       1.028  -2.229  -1.325  1.00  0.00     0.158 C 
BRANCH   8   9
ATOM      9  C   UNL     1       0.347  -0.942  -0.870  1.00  0.00    -0.033 A 
ATOM     10  C   UNL     1       2.557   0.096  -0.179  1.00  0.00     0.045 C 
ATOM     11  C   UNL     1       1.069   0.194  -0.424  1.00  0.00    -0.039 A 
ATOM     12  C   UNL     1       0.388   1.425  -0.223  1.00  0.00    -0.015 A 
ATOM     13  C   UNL     1      -1.054  -0.848  -0.985  1.00  0.00     0.013 A 
ATOM     14  C   UNL     1      -1.019   1.444  -0.280  1.00  0.00     0.017 A 
ATOM     15  C   UNL     1      -1.754   0.314  -0.635  1.00  0.00    -0.017 A 
BRANCH  12  16
ATOM     16  C   UNL     1       1.086   2.720  -0.088  1.00  0.00    -0.018 A 
ATOM     17  C   UNL     1       0.879   3.573   1.005  1.00  0.00     0.009 A 
ATOM     18  C   UNL     1       1.921   3.167  -1.130  1.00  0.00     0.009 A 
ATOM     19  C   UNL     1       1.491   4.830   1.054  1.00  0.00     0.001 A 
ATOM     20  C   UNL     1       2.536   4.419  -1.079  1.00  0.00     0.001 A 
ATOM     21  C   UNL     1       2.317   5.252   0.013  1.00  0.00     0.000 A 
ENDBRANCH  12  16
BRANCH  15  22
ATOM     22  C   UNL     1      -3.219   0.343  -0.647  1.00  0.00    -0.018 A 
ATOM     23  C   UNL     1      -3.939   0.136   0.539  1.00  0.00     0.009 A 
ATOM     24  C   UNL     1      -3.936   0.545  -1.834  1.00  0.00     0.009 A 
ATOM     25  C   UNL     1      -5.332   0.042   0.529  1.00  0.00     0.001 A 
ATOM     26  C   UNL     1      -5.333   0.489  -1.840  1.00  0.00     0.001 A 
ATOM     27  C   UNL     1      -6.029   0.214  -0.664  1.00  0.00     0.000 A 
ENDBRANCH  15  22
ENDBRANCH   8   9
ENDBRANCH   6   8
ENDBRANCH   5   6
ENDBRANCH   4   5
ENDBRANCH   3   4
ENDBRANCH   2   3
ENDBRANCH   1   2
BRANCH   1  28
ATOM     28  C   UNL     1      -3.038  -2.596   2.829  1.00  0.00     0.261 C 
BRANCH  28  29
ATOM     29  O   UNL     1      -2.236  -3.396   3.692  1.00  0.00    -0.460 OA
BRANCH  29  30
ATOM     30  C   UNL     1      -2.777  -3.778   4.883  1.00  0.00     0.338 C 
ATOM     31  O   UNL     1      -3.903  -3.615   5.311  1.00  0.00    -0.246 OA
BRANCH  30  32
ATOM     32  C   UNL     1      -1.753  -4.680   5.439  1.00  0.00     0.060 A 
ATOM     33  C   UNL     1      -0.587  -4.112   5.952  1.00  0.00     0.016 A 
ATOM     34  C   UNL     1      -1.739  -5.944   4.855  1.00  0.00     0.016 A 
ATOM     35  C   UNL     1       0.630  -4.657   5.565  1.00  0.00     0.010 A 
ATOM     36  C   UNL     1      -0.522  -6.448   4.434  1.00  0.00     0.010 A 
ATOM     37  C   UNL     1       0.631  -5.676   4.609  1.00  0.00    -0.014 A 
BRANCH  37  38
ATOM     38  C   UNL     1       1.696  -5.767   3.591  1.00  0.00     0.031 A 
ATOM     39  C   UNL     1       2.139  -7.094   3.155  1.00  0.00     0.074 A 
ATOM     40  C   UNL     1       2.236  -4.688   2.976  1.00  0.00     0.049 A 
ATOM     41  N   UNL     1       3.122  -7.750   3.673  1.00  0.00    -0.248 NA
ATOM     42  C   UNL     1       1.413  -7.798   2.094  1.00  0.00     0.031 C 
ATOM     43  C   UNL     1       3.320  -4.683   1.997  1.00  0.00     0.029 A 
ATOM     44  N   UNL     1       1.996  -3.333   3.195  1.00  0.00    -0.354 N 
ATOM     45  C   UNL     1       3.304  -8.828   2.832  1.00  0.00     0.074 A 
ATOM     46  C   UNL     1       2.094  -8.944   2.036  1.00  0.00     0.031 C 
ATOM     47  C   UNL     1       3.862  -3.450   1.977  1.00  0.00     0.029 A 
ATOM     48  C   UNL     1       3.172  -2.625   2.962  1.00  0.00     0.049 A 
ATOM     49  H   UNL     1       1.135  -2.941   3.470  1.00  0.00     0.167 HD
ATOM     50  C   UNL     1       4.540  -9.230   2.415  1.00  0.00     0.037 A 
ATOM     51  C   UNL     1       3.759  -1.892   3.952  1.00  0.00     0.037 A 
ATOM     52  C   UNL     1       5.489  -8.124   2.529  1.00  0.00     0.049 A 
ATOM     53  C   UNL     1       4.954  -2.639   4.517  1.00  0.00     0.074 A 
ATOM     54  C   UNL     1       5.963  -7.246   1.565  1.00  0.00     0.029 A 
ATOM     55  N   UNL     1       5.801  -7.553   3.759  1.00  0.00    -0.354 N 
ATOM     56  N   UNL     1       5.255  -3.867   4.184  1.00  0.00    -0.248 NA
ATOM     57  C   UNL     1       5.908  -2.085   5.474  1.00  0.00     0.031 C 
ATOM     58  C   UNL     1       6.515  -6.120   2.220  1.00  0.00     0.029 A 
ATOM     59  C   UNL     1       6.400  -6.315   3.585  1.00  0.00     0.049 A 
ATOM     60  H   UNL     1       5.621  -7.971   4.632  1.00  0.00     0.167 HD
ATOM     61  C   UNL     1       6.370  -4.281   4.860  1.00  0.00     0.074 A 
ATOM     62  C   UNL     1       6.755  -3.119   5.642  1.00  0.00     0.031 C 
ATOM     63  C   UNL     1       6.882  -5.542   4.723  1.00  0.00     0.037 A 
BRANCH  50  64
ATOM     64  C   UNL     1       4.693 -10.429   1.498  1.00  0.00     0.058 A 
ATOM     65  C   UNL     1       5.748 -10.557   0.578  1.00  0.00     0.135 A 
ATOM     66  C   UNL     1       3.798 -11.527   1.541  1.00  0.00     0.135 A 
ATOM     67  F   UNL     1       6.726  -9.645   0.502  1.00  0.00    -0.206 F 
ATOM     68  C   UNL     1       5.853 -11.638  -0.303  1.00  0.00     0.059 A 
ATOM     69  C   UNL     1       3.859 -12.598   0.647  1.00  0.00     0.059 A 
ATOM     70  F   UNL     1       2.821 -11.583   2.462  1.00  0.00    -0.206 F 
ATOM     71  C   UNL     1       4.893 -12.645  -0.277  1.00  0.00     0.060 A 
BRANCH  71  72
ATOM     72  S   UNL     1       5.027 -14.011  -1.446  1.00  0.00     0.124 S 
ATOM     73  O   UNL     1       5.157 -13.316  -2.723  1.00  0.00    -0.237 OA
ATOM     74  O   UNL     1       6.223 -14.698  -0.971  1.00  0.00    -0.237 OA
ATOM     75  O   UNL     1       3.773 -14.739  -1.265  1.00  0.00    -0.744 OA
ENDBRANCH  71  72
ENDBRANCH  50  64
BRANCH  51  76
ATOM     76  C   UNL     1       2.800  -0.988   4.658  1.00  0.00     0.058 A 
ATOM     77  C   UNL     1       2.235   0.047   3.882  1.00  0.00     0.135 A 
ATOM     78  C   UNL     1       2.138  -1.310   5.848  1.00  0.00     0.135 A 
ATOM     79  F   UNL     1       2.871   0.466   2.778  1.00  0.00    -0.206 F 
ATOM     80  C   UNL     1       0.982   0.588   4.153  1.00  0.00     0.059 A 
ATOM     81  C   UNL     1       0.884  -0.761   6.156  1.00  0.00     0.059 A 
ATOM     82  F   UNL     1       2.630  -2.256   6.659  1.00  0.00    -0.206 F 
ATOM     83  C   UNL     1       0.286   0.136   5.267  1.00  0.00     0.060 A 
BRANCH  83  84
ATOM     84  S   UNL     1      -1.454   0.611   5.445  1.00  0.00     0.124 S 
ATOM     85  O   UNL     1      -1.343   2.001   5.871  1.00  0.00    -0.237 OA
ATOM     86  O   UNL     1      -1.974   0.406   4.096  1.00  0.00    -0.237 OA
ATOM     87  O   UNL     1      -1.944  -0.330   6.447  1.00  0.00    -0.744 OA
ENDBRANCH  83  84
ENDBRANCH  51  76
BRANCH  63  88
ATOM     88  C   UNL     1       7.973  -6.138   5.577  1.00  0.00     0.058 A 
ATOM     89  C   UNL     1       8.147  -5.836   6.936  1.00  0.00     0.135 A 
ATOM     90  C   UNL     1       8.797  -7.170   5.064  1.00  0.00     0.135 A 
ATOM     91  F   UNL     1       7.358  -4.948   7.558  1.00  0.00    -0.206 F 
ATOM     92  C   UNL     1       9.115  -6.466   7.719  1.00  0.00     0.059 A 
ATOM     93  C   UNL     1       9.725  -7.854   5.842  1.00  0.00     0.059 A 
ATOM     94  F   UNL     1       8.718  -7.559   3.782  1.00  0.00    -0.206 F 
ATOM     95  C   UNL     1       9.899  -7.474   7.163  1.00  0.00     0.060 A 
BRANCH  95  96
ATOM     96  S   UNL     1      11.120  -8.319   8.182  1.00  0.00     0.124 S 
ATOM     97  O   UNL     1      12.284  -7.455   8.014  1.00  0.00    -0.237 OA
ATOM     98  O   UNL     1      10.505  -8.297   9.507  1.00  0.00    -0.237 OA
ATOM     99  O   UNL     1      11.215  -9.638   7.566  1.00  0.00    -0.744 OA
ENDBRANCH  95  96
ENDBRANCH  63  88
ENDBRANCH  37  38
ENDBRANCH  30  32
ENDBRANCH  29  30
ENDBRANCH  28  29
ENDBRANCH   1  28
TORSDOF 20
