REMARK SMILES O=C(C[NH+]1CCC(C(=O)OCCOCCOC(=O)c2ccc(-c3c4nc(c(-c5c(F)cc(S(=O)(=O)[O-])cc5F)c5ccc([nH]5)c(-c5c(F)cc(S(=O)(=O)[O-])cc5F)c5nc(c(-c6c(F)cc(S(=O)(=O)[O-])cc6F)c6ccc3[nH]6)C=C5)C=C4)cc2)CC1)Nc1ccccc1Oc1ccccc1
REMARK SMILES IDX 12 1 11 2 10 3 8 4 9 5 7 6 4 7 5 8 86 9 6 11 85 12 3 13 2 14
REMARK SMILES IDX 1 15 87 16 88 18 89 19 93 20 90 21 92 22 91 23 94 24 95 25
REMARK SMILES IDX 96 26 100 27 97 28 99 29 98 30 13 31 14 32 15 33 16 34 17 35
REMARK SMILES IDX 18 36 19 37 20 38 84 39 21 40 83 41 22 42 23 43 24 44 77 45
REMARK SMILES IDX 25 46 82 47 76 48 78 49 26 50 81 51 75 52 74 53 27 55 61 56
REMARK SMILES IDX 40 57 60 58 41 59 44 60 59 61 79 62 42 63 43 64 58 66 80 67
REMARK SMILES IDX 45 68 28 69 29 70 38 71 30 72 31 73 37 74 39 75 32 76 33 77
REMARK SMILES IDX 34 78 35 79 36 80 62 81 63 82 72 83 64 84 65 85 71 86 73 87
REMARK SMILES IDX 66 88 67 89 68 90 69 91 70 92 46 93 47 94 56 95 48 96 49 97
REMARK SMILES IDX 55 98 57 99 50 100 51 101 52 102 53 103 54 104
REMARK H PARENT 4 10 87 17 78 54 44 65
REMARK Flexibility Score: inf
ROOT
ATOM      1  C   UNL     1       7.749  -1.890   6.906  1.00  0.00     0.202 C 
ENDROOT
BRANCH   1   2
ATOM      2  C   UNL     1       7.937  -0.431   6.480  1.00  0.00     0.261 C 
BRANCH   2   3
ATOM      3  O   UNL     1       7.045  -0.123   5.394  1.00  0.00    -0.463 OA
BRANCH   3   4
ATOM      4  C   UNL     1       7.604   0.321   4.242  1.00  0.00     0.309 C 
ATOM      5  O   UNL     1       8.784   0.605   4.086  1.00  0.00    -0.252 OA
BRANCH   4   6
ATOM      6  C   UNL     1       6.587   0.415   3.125  1.00  0.00     0.110 C 
ATOM      7  N   UNL     1       3.886   0.743   2.054  1.00  0.00    -0.327 N 
ATOM      8  C   UNL     1       4.564  -0.546   1.994  1.00  0.00     0.263 C 
ATOM      9  C   UNL     1       4.853   1.860   2.040  1.00  0.00     0.263 C 
ATOM     10  H   UNL     1       3.368   0.712   2.932  1.00  0.00     0.348 HD
ATOM     11  C   UNL     1       5.557  -0.714   3.131  1.00  0.00     0.077 C 
ATOM     12  C   UNL     1       5.885   1.765   3.159  1.00  0.00     0.077 C 
BRANCH   7  13
ATOM     13  C   UNL     1       2.916   0.975   0.955  1.00  0.00     0.363 C 
BRANCH  13  14
ATOM     14  C   UNL     1       2.022  -0.206   0.561  1.00  0.00     0.279 C 
ATOM     15  O   UNL     1       0.863  -0.329   0.947  1.00  0.00    -0.268 OA
ATOM     16  N   UNL     1       2.657  -1.073  -0.319  1.00  0.00    -0.318 N 
ATOM     17  H   UNL     1       3.637  -1.017  -0.387  1.00  0.00     0.170 HD
BRANCH  16  18
ATOM     18  C   UNL     1       2.005  -2.021  -1.117  1.00  0.00     0.084 A 
ATOM     19  C   UNL     1       2.500  -3.332  -1.035  1.00  0.00     0.030 A 
ATOM     20  C   UNL     1       0.959  -1.724  -2.006  1.00  0.00     0.150 A 
ATOM     21  C   UNL     1       1.895  -4.366  -1.749  1.00  0.00     0.002 A 
ATOM     22  C   UNL     1       0.365  -2.775  -2.721  1.00  0.00     0.049 A 
ATOM     23  C   UNL     1       0.821  -4.088  -2.587  1.00  0.00     0.004 A 
BRANCH  20  24
ATOM     24  O   UNL     1       0.408  -0.491  -2.287  1.00  0.00    -0.455 OA
BRANCH  24  25
ATOM     25  C   UNL     1       1.166   0.655  -2.255  1.00  0.00     0.127 A 
ATOM     26  C   UNL     1       0.578   1.748  -1.611  1.00  0.00     0.047 A 
ATOM     27  C   UNL     1       2.430   0.788  -2.833  1.00  0.00     0.047 A 
ATOM     28  C   UNL     1       1.279   2.945  -1.468  1.00  0.00     0.004 A 
ATOM     29  C   UNL     1       3.134   1.990  -2.689  1.00  0.00     0.004 A 
ATOM     30  C   UNL     1       2.563   3.063  -1.998  1.00  0.00     0.000 A 
ENDBRANCH  24  25
ENDBRANCH  20  24
ENDBRANCH  16  18
ENDBRANCH  13  14
ENDBRANCH   7  13
ENDBRANCH   4   6
ENDBRANCH   3   4
ENDBRANCH   2   3
ENDBRANCH   1   2
BRANCH   1  31
ATOM     31  O   UNL     1       8.366  -2.872   6.066  1.00  0.00    -0.374 OA
BRANCH  31  32
ATOM     32  C   UNL     1       7.726  -3.145   4.823  1.00  0.00     0.202 C 
BRANCH  32  33
ATOM     33  C   UNL     1       6.535  -4.115   4.861  1.00  0.00     0.261 C 
BRANCH  33  34
ATOM     34  O   UNL     1       5.467  -3.655   5.706  1.00  0.00    -0.460 OA
BRANCH  34  35
ATOM     35  C   UNL     1       5.369  -4.314   6.885  1.00  0.00     0.338 C 
ATOM     36  O   UNL     1       6.025  -5.287   7.239  1.00  0.00    -0.246 OA
BRANCH  35  37
ATOM     37  C   UNL     1       4.473  -3.598   7.809  1.00  0.00     0.060 A 
ATOM     38  C   UNL     1       4.996  -3.249   9.060  1.00  0.00     0.016 A 
ATOM     39  C   UNL     1       3.131  -3.353   7.507  1.00  0.00     0.016 A 
ATOM     40  C   UNL     1       4.167  -2.702  10.035  1.00  0.00     0.010 A 
ATOM     41  C   UNL     1       2.297  -2.811   8.493  1.00  0.00     0.010 A 
ATOM     42  C   UNL     1       2.803  -2.520   9.774  1.00  0.00    -0.014 A 
BRANCH  42  43
ATOM     43  C   UNL     1       1.897  -2.176  10.898  1.00  0.00     0.031 A 
ATOM     44  C   UNL     1       1.113  -3.275  11.566  1.00  0.00     0.074 A 
ATOM     45  C   UNL     1       1.827  -0.916  11.365  1.00  0.00     0.049 A 
ATOM     46  N   UNL     1       0.285  -3.207  12.577  1.00  0.00    -0.248 NA
ATOM     47  C   UNL     1       1.289  -4.632  11.024  1.00  0.00     0.031 C 
ATOM     48  C   UNL     1       2.571   0.224  10.832  1.00  0.00     0.029 A 
ATOM     49  N   UNL     1       1.097  -0.387  12.400  1.00  0.00    -0.354 N 
ATOM     50  C   UNL     1      -0.157  -4.507  12.792  1.00  0.00     0.074 A 
ATOM     51  C   UNL     1       0.468  -5.339  11.787  1.00  0.00     0.031 C 
ATOM     52  C   UNL     1       2.258   1.321  11.543  1.00  0.00     0.029 A 
ATOM     53  C   UNL     1       1.272   0.967  12.563  1.00  0.00     0.049 A 
ATOM     54  H   UNL     1       0.504  -0.926  12.972  1.00  0.00     0.167 HD
ATOM     55  C   UNL     1      -0.999  -4.969  13.748  1.00  0.00     0.037 A 
ATOM     56  C   UNL     1       0.693   1.823  13.428  1.00  0.00     0.037 A 
ATOM     57  C   UNL     1      -1.620  -4.138  14.747  1.00  0.00     0.049 A 
ATOM     58  C   UNL     1      -0.293   1.297  14.439  1.00  0.00     0.074 A 
ATOM     59  C   UNL     1      -2.481  -4.512  15.764  1.00  0.00     0.029 A 
ATOM     60  N   UNL     1      -1.451  -2.765  14.853  1.00  0.00    -0.354 N 
ATOM     61  N   UNL     1      -0.690   0.063  14.641  1.00  0.00    -0.248 NA
ATOM     62  C   UNL     1      -0.907   2.280  15.343  1.00  0.00     0.031 C 
ATOM     63  C   UNL     1      -2.868  -3.360  16.456  1.00  0.00     0.029 A 
ATOM     64  C   UNL     1      -2.208  -2.274  15.903  1.00  0.00     0.049 A 
ATOM     65  H   UNL     1      -0.876  -2.220  14.267  1.00  0.00     0.167 HD
ATOM     66  C   UNL     1      -1.578   0.118  15.711  1.00  0.00     0.074 A 
ATOM     67  C   UNL     1      -1.652   1.505  16.120  1.00  0.00     0.031 C 
ATOM     68  C   UNL     1      -2.268  -0.889  16.303  1.00  0.00     0.037 A 
BRANCH  55  69
ATOM     69  C   UNL     1      -1.315  -6.439  13.745  1.00  0.00     0.058 A 
ATOM     70  C   UNL     1      -0.370  -7.398  14.146  1.00  0.00     0.135 A 
ATOM     71  C   UNL     1      -2.588  -6.893  13.367  1.00  0.00     0.135 A 
ATOM     72  F   UNL     1       0.868  -7.021  14.500  1.00  0.00    -0.206 F 
ATOM     73  C   UNL     1      -0.670  -8.757  14.149  1.00  0.00     0.059 A 
ATOM     74  C   UNL     1      -2.919  -8.245  13.387  1.00  0.00     0.059 A 
ATOM     75  F   UNL     1      -3.528  -6.019  12.974  1.00  0.00    -0.206 F 
ATOM     76  C   UNL     1      -1.948  -9.171  13.766  1.00  0.00     0.060 A 
BRANCH  76  77
ATOM     77  S   UNL     1      -2.324 -10.937  13.780  1.00  0.00     0.124 S 
ATOM     78  O   UNL     1      -1.579 -11.402  12.614  1.00  0.00    -0.237 OA
ATOM     79  O   UNL     1      -1.800 -11.358  15.075  1.00  0.00    -0.237 OA
ATOM     80  O   UNL     1      -3.777 -10.976  13.652  1.00  0.00    -0.744 OA
ENDBRANCH  76  77
ENDBRANCH  55  69
BRANCH  56  81
ATOM     81  C   UNL     1       1.024   3.272  13.373  1.00  0.00     0.058 A 
ATOM     82  C   UNL     1       1.757   3.889  14.396  1.00  0.00     0.135 A 
ATOM     83  C   UNL     1       0.611   4.068  12.293  1.00  0.00     0.135 A 
ATOM     84  F   UNL     1       2.164   3.173  15.456  1.00  0.00    -0.206 F 
ATOM     85  C   UNL     1       2.061   5.247  14.359  1.00  0.00     0.059 A 
ATOM     86  C   UNL     1       0.924   5.422  12.220  1.00  0.00     0.059 A 
ATOM     87  F   UNL     1      -0.086   3.524  11.284  1.00  0.00    -0.206 F 
ATOM     88  C   UNL     1       1.642   6.005  13.264  1.00  0.00     0.060 A 
BRANCH  88  89
ATOM     89  S   UNL     1       2.085   7.754  13.198  1.00  0.00     0.124 S 
ATOM     90  O   UNL     1       1.183   8.324  14.191  1.00  0.00    -0.237 OA
ATOM     91  O   UNL     1       3.499   7.726  13.560  1.00  0.00    -0.237 OA
ATOM     92  O   UNL     1       1.810   8.118  11.811  1.00  0.00    -0.744 OA
ENDBRANCH  88  89
ENDBRANCH  56  81
BRANCH  68  93
ATOM     93  C   UNL     1      -3.137  -0.538  17.479  1.00  0.00     0.058 A 
ATOM     94  C   UNL     1      -4.349   0.152  17.323  1.00  0.00     0.135 A 
ATOM     95  C   UNL     1      -2.775  -0.939  18.776  1.00  0.00     0.135 A 
ATOM     96  F   UNL     1      -4.741   0.563  16.106  1.00  0.00    -0.206 F 
ATOM     97  C   UNL     1      -5.160   0.455  18.413  1.00  0.00     0.059 A 
ATOM     98  C   UNL     1      -3.582  -0.671  19.877  1.00  0.00     0.059 A 
ATOM     99  F   UNL     1      -1.631  -1.613  18.980  1.00  0.00    -0.206 F 
ATOM    100  C   UNL     1      -4.767   0.039  19.687  1.00  0.00     0.060 A 
BRANCH 100 101
ATOM    101  S   UNL     1      -5.839   0.415  21.090  1.00  0.00     0.124 S 
ATOM    102  O   UNL     1      -5.588   1.840  21.278  1.00  0.00    -0.237 OA
ATOM    103  O   UNL     1      -7.160   0.066  20.579  1.00  0.00    -0.237 OA
ATOM    104  O   UNL     1      -5.333  -0.457  22.147  1.00  0.00    -0.744 OA
ENDBRANCH 100 101
ENDBRANCH  68  93
ENDBRANCH  42  43
ENDBRANCH  35  37
ENDBRANCH  34  35
ENDBRANCH  33  34
ENDBRANCH  32  33
ENDBRANCH  31  32
ENDBRANCH   1  31
TORSDOF 22
