REMARK SMILES [NH3+][C@]1(C(=O)OCCOCCOC(=O)c2ccc(-c3c4nc(c(-c5c(F)cc(S(=O)(=O)[O-])cc5F)c5ccc([nH]5)c(-c5c(F)cc(S(=O)(=O)[O-])cc5F)c5nc(c(-c6c(F)cc(S(=O)(=O)[O-])cc6F)c6ccc3[nH]6)C=C5)C=C4)cc2)CC[C@@H](Sc2cc3ccccc3[nH]2)C1
REMARK SMILES IDX 9 1 8 2 7 3 6 4 5 5 3 6 4 7 2 8 80 9 93 10 81 11 82 12 1 13
REMARK SMILES IDX 83 17 84 18 85 19 92 20 86 21 91 22 87 24 90 25 88 26 89 27
REMARK SMILES IDX 10 28 11 29 12 30 13 31 14 32 15 33 79 34 16 35 78 36 17 37
REMARK SMILES IDX 18 38 19 39 72 40 20 41 77 42 71 43 73 44 21 45 76 46 70 47
REMARK SMILES IDX 69 48 22 50 56 51 35 52 55 53 36 54 39 55 54 56 74 57 37 58
REMARK SMILES IDX 38 59 53 61 75 62 40 63 23 64 24 65 33 66 25 67 26 68 32 69
REMARK SMILES IDX 34 70 27 71 28 72 29 73 30 74 31 75 57 76 58 77 67 78 59 79
REMARK SMILES IDX 60 80 66 81 68 82 61 83 62 84 63 85 64 86 65 87 41 88 42 89
REMARK SMILES IDX 51 90 43 91 44 92 50 93 52 94 45 95 46 96 47 97 48 98 49 99
REMARK H PARENT 1 14 1 15 1 16 92 23 73 49 39 60
REMARK Flexibility Score: inf
ROOT
ATOM      1  C   UNL     1       3.388   0.554   0.474  1.00  0.00     0.202 C 
ENDROOT
BRANCH   1   2
ATOM      2  O   UNL     1       3.228   1.706  -0.354  1.00  0.00    -0.374 OA
BRANCH   2   3
ATOM      3  C   UNL     1       2.100   2.545  -0.108  1.00  0.00     0.202 C 
BRANCH   3   4
ATOM      4  C   UNL     1       0.740   2.029  -0.585  1.00  0.00     0.261 C 
BRANCH   4   5
ATOM      5  O   UNL     1       0.371   0.801   0.066  1.00  0.00    -0.459 OA
BRANCH   5   6
ATOM      6  C   UNL     1       0.090  -0.241  -0.760  1.00  0.00     0.368 C 
ATOM      7  O   UNL     1       0.065  -0.179  -1.987  1.00  0.00    -0.245 OA
BRANCH   6   8
ATOM      8  C   UNL     1      -0.213  -1.554  -0.004  1.00  0.00     0.193 C 
ATOM      9  C   UNL     1       0.588  -2.676  -0.690  1.00  0.00     0.082 C 
ATOM     10  C   UNL     1       0.271  -1.640   1.448  1.00  0.00     0.096 C 
ATOM     11  C   UNL     1       0.663  -3.800   0.327  1.00  0.00     0.022 C 
ATOM     12  C   UNL     1       0.711  -3.102   1.682  1.00  0.00     0.060 C 
BRANCH   8  13
ATOM     13  N   UNL     1      -1.668  -1.810  -0.049  1.00  0.00    -0.343 N 
ATOM     14  H   UNL     1      -1.876  -2.676   0.449  1.00  0.00     0.345 HD
ATOM     15  H   UNL     1      -1.968  -1.895  -1.020  1.00  0.00     0.345 HD
ATOM     16  H   UNL     1      -2.163  -1.036   0.394  1.00  0.00     0.345 HD
ENDBRANCH   8  13
BRANCH  12  17
ATOM     17  S   UNL     1       2.230  -3.061   2.654  1.00  0.00    -0.105 SA
BRANCH  17  18
ATOM     18  C   UNL     1       3.554  -3.796   1.825  1.00  0.00     0.073 A 
ATOM     19  C   UNL     1       4.845  -3.322   1.728  1.00  0.00     0.043 A 
ATOM     20  N   UNL     1       3.594  -5.150   1.626  1.00  0.00    -0.350 N 
ATOM     21  C   UNL     1       5.685  -4.453   1.954  1.00  0.00     0.001 A 
ATOM     22  C   UNL     1       4.878  -5.589   1.886  1.00  0.00     0.046 A 
ATOM     23  H   UNL     1       2.838  -5.714   1.346  1.00  0.00     0.167 HD
ATOM     24  C   UNL     1       7.029  -4.595   2.351  1.00  0.00     0.010 A 
ATOM     25  C   UNL     1       5.353  -6.875   2.167  1.00  0.00     0.027 A 
ATOM     26  C   UNL     1       7.493  -5.861   2.728  1.00  0.00     0.001 A 
ATOM     27  C   UNL     1       6.669  -6.981   2.630  1.00  0.00     0.002 A 
ENDBRANCH  17  18
ENDBRANCH  12  17
ENDBRANCH   6   8
ENDBRANCH   5   6
ENDBRANCH   4   5
ENDBRANCH   3   4
ENDBRANCH   2   3
ENDBRANCH   1   2
BRANCH   1  28
ATOM     28  C   UNL     1       3.801   0.792   1.935  1.00  0.00     0.261 C 
BRANCH  28  29
ATOM     29  O   UNL     1       2.808   1.500   2.698  1.00  0.00    -0.460 OA
BRANCH  29  30
ATOM     30  C   UNL     1       3.201   2.725   3.131  1.00  0.00     0.338 C 
ATOM     31  O   UNL     1       4.295   3.240   2.983  1.00  0.00    -0.246 OA
BRANCH  30  32
ATOM     32  C   UNL     1       2.051   3.475   3.674  1.00  0.00     0.060 A 
ATOM     33  C   UNL     1       1.779   4.729   3.111  1.00  0.00     0.016 A 
ATOM     34  C   UNL     1       1.331   3.022   4.780  1.00  0.00     0.016 A 
ATOM     35  C   UNL     1       0.826   5.563   3.691  1.00  0.00     0.010 A 
ATOM     36  C   UNL     1       0.378   3.864   5.366  1.00  0.00     0.010 A 
ATOM     37  C   UNL     1       0.153   5.155   4.850  1.00  0.00    -0.014 A 
BRANCH  37  38
ATOM     38  C   UNL     1      -0.647   6.147   5.610  1.00  0.00     0.031 A 
ATOM     39  C   UNL     1      -0.032   6.810   6.814  1.00  0.00     0.074 A 
ATOM     40  C   UNL     1      -1.884   6.492   5.209  1.00  0.00     0.049 A 
ATOM     41  N   UNL     1      -0.541   7.704   7.622  1.00  0.00    -0.248 NA
ATOM     42  C   UNL     1       1.344   6.410   7.151  1.00  0.00     0.031 C 
ATOM     43  C   UNL     1      -2.570   5.956   4.036  1.00  0.00     0.029 A 
ATOM     44  N   UNL     1      -2.780   7.381   5.748  1.00  0.00    -0.354 N 
ATOM     45  C   UNL     1       0.445   7.965   8.568  1.00  0.00     0.074 A 
ATOM     46  C   UNL     1       1.570   7.114   8.250  1.00  0.00     0.031 C 
ATOM     47  C   UNL     1      -3.783   6.528   3.942  1.00  0.00     0.029 A 
ATOM     48  C   UNL     1      -3.970   7.447   5.064  1.00  0.00     0.049 A 
ATOM     49  H   UNL     1      -2.588   7.921   6.549  1.00  0.00     0.167 HD
ATOM     50  C   UNL     1       0.418   8.840   9.602  1.00  0.00     0.037 A 
ATOM     51  C   UNL     1      -5.085   8.159   5.321  1.00  0.00     0.037 A 
ATOM     52  C   UNL     1      -0.704   9.688   9.913  1.00  0.00     0.049 A 
ATOM     53  C   UNL     1      -5.117   9.082   6.511  1.00  0.00     0.074 A 
ATOM     54  C   UNL     1      -0.822  10.623  10.927  1.00  0.00     0.029 A 
ATOM     55  N   UNL     1      -1.905   9.697   9.219  1.00  0.00    -0.354 N 
ATOM     56  N   UNL     1      -4.171   9.334   7.386  1.00  0.00    -0.248 NA
ATOM     57  C   UNL     1      -6.365   9.820   6.748  1.00  0.00     0.031 C 
ATOM     58  C   UNL     1      -2.112  11.163  10.875  1.00  0.00     0.029 A 
ATOM     59  C   UNL     1      -2.780  10.603   9.797  1.00  0.00     0.049 A 
ATOM     60  H   UNL     1      -2.106   9.142   8.432  1.00  0.00     0.167 HD
ATOM     61  C   UNL     1      -4.699  10.282   8.257  1.00  0.00     0.074 A 
ATOM     62  C   UNL     1      -6.046  10.560   7.802  1.00  0.00     0.031 C 
ATOM     63  C   UNL     1      -4.118  10.874   9.330  1.00  0.00     0.037 A 
BRANCH  50  64
ATOM     64  C   UNL     1       1.628   8.889  10.494  1.00  0.00     0.058 A 
ATOM     65  C   UNL     1       2.849   9.434  10.062  1.00  0.00     0.135 A 
ATOM     66  C   UNL     1       1.567   8.378  11.801  1.00  0.00     0.135 A 
ATOM     67  F   UNL     1       2.968   9.922   8.818  1.00  0.00    -0.206 F 
ATOM     68  C   UNL     1       3.976   9.431  10.878  1.00  0.00     0.059 A 
ATOM     69  C   UNL     1       2.674   8.390  12.644  1.00  0.00     0.059 A 
ATOM     70  F   UNL     1       0.425   7.847  12.267  1.00  0.00    -0.206 F 
ATOM     71  C   UNL     1       3.881   8.899  12.165  1.00  0.00     0.060 A 
BRANCH  71  72
ATOM     72  S   UNL     1       5.357   8.873  13.204  1.00  0.00     0.124 S 
ATOM     73  O   UNL     1       6.118   7.783  12.599  1.00  0.00    -0.237 OA
ATOM     74  O   UNL     1       5.904  10.211  13.008  1.00  0.00    -0.237 OA
ATOM     75  O   UNL     1       4.830   8.604  14.538  1.00  0.00    -0.744 OA
ENDBRANCH  71  72
ENDBRANCH  50  64
BRANCH  51  76
ATOM     76  C   UNL     1      -6.262   8.033   4.421  1.00  0.00     0.058 A 
ATOM     77  C   UNL     1      -6.631   9.078   3.563  1.00  0.00     0.135 A 
ATOM     78  C   UNL     1      -7.024   6.855   4.383  1.00  0.00     0.135 A 
ATOM     79  F   UNL     1      -5.941  10.229   3.572  1.00  0.00    -0.206 F 
ATOM     80  C   UNL     1      -7.713   8.961   2.696  1.00  0.00     0.059 A 
ATOM     81  C   UNL     1      -8.097   6.705   3.510  1.00  0.00     0.059 A 
ATOM     82  F   UNL     1      -6.707   5.823   5.181  1.00  0.00    -0.206 F 
ATOM     83  C   UNL     1      -8.436   7.767   2.672  1.00  0.00     0.060 A 
BRANCH  83  84
ATOM     84  S   UNL     1      -9.791   7.598   1.490  1.00  0.00     0.124 S 
ATOM     85  O   UNL     1     -10.809   8.457   2.085  1.00  0.00    -0.237 OA
ATOM     86  O   UNL     1      -9.184   8.088   0.257  1.00  0.00    -0.237 OA
ATOM     87  O   UNL     1     -10.079   6.167   1.512  1.00  0.00    -0.744 OA
ENDBRANCH  83  84
ENDBRANCH  51  76
BRANCH  63  88
ATOM     88  C   UNL     1      -4.917  11.915  10.068  1.00  0.00     0.058 A 
ATOM     89  C   UNL     1      -5.995  11.571  10.898  1.00  0.00     0.135 A 
ATOM     90  C   UNL     1      -4.562  13.271   9.983  1.00  0.00     0.135 A 
ATOM     91  F   UNL     1      -6.379  10.290  11.010  1.00  0.00    -0.206 F 
ATOM     92  C   UNL     1      -6.708  12.538  11.600  1.00  0.00     0.059 A 
ATOM     93  C   UNL     1      -5.244  14.252  10.697  1.00  0.00     0.059 A 
ATOM     94  F   UNL     1      -3.531  13.654   9.213  1.00  0.00    -0.206 F 
ATOM     95  C   UNL     1      -6.325  13.876  11.494  1.00  0.00     0.060 A 
BRANCH  95  96
ATOM     96  S   UNL     1      -7.238  15.119  12.434  1.00  0.00     0.124 S 
ATOM     97  O   UNL     1      -8.471  15.224  11.662  1.00  0.00    -0.237 OA
ATOM     98  O   UNL     1      -7.363  14.491  13.745  1.00  0.00    -0.237 OA
ATOM     99  O   UNL     1      -6.366  16.288  12.387  1.00  0.00    -0.744 OA
ENDBRANCH  95  96
ENDBRANCH  63  88
ENDBRANCH  37  38
ENDBRANCH  30  32
ENDBRANCH  29  30
ENDBRANCH  28  29
ENDBRANCH   1  28
TORSDOF 20
