REMARK SMILES CC[C@@](C)(NC(=O)Nc1c(C)cccc1Cl)C(=O)OCCOCCOC(=O)c1ccc(-c2c3nc(c(-c4c(F)cc(S(=O)(=O)[O-])cc4F)c4ccc([nH]4)c(-c4c(F)cc(S(=O)(=O)[O-])cc4F)c4nc(c(-c5c(F)cc(S(=O)(=O)[O-])cc5F)c5ccc2[nH]5)C=C4)C=C3)cc1
REMARK SMILES IDX 23 1 22 2 21 3 20 4 19 5 17 6 18 7 3 8 4 9 2 10 1 11 5 12
REMARK SMILES IDX 6 13 7 15 8 16 9 18 10 19 15 20 11 21 12 22 14 23 16 24
REMARK SMILES IDX 13 25 24 26 25 27 26 28 27 29 28 30 29 31 93 32 30 33 92 34
REMARK SMILES IDX 31 35 32 36 33 37 86 38 34 39 91 40 85 41 87 42 35 43 90 44
REMARK SMILES IDX 84 45 83 46 36 48 70 49 49 50 69 51 50 52 53 53 68 54 88 55
REMARK SMILES IDX 51 56 52 57 67 59 89 60 54 61 37 62 38 63 47 64 39 65 40 66
REMARK SMILES IDX 46 67 48 68 41 69 42 70 43 71 44 72 45 73 71 74 72 75 81 76
REMARK SMILES IDX 73 77 74 78 80 79 82 80 75 81 76 82 77 83 78 84 79 85 55 86
REMARK SMILES IDX 56 87 65 88 57 89 58 90 64 91 66 92 59 93 60 94 61 95 62 96
REMARK SMILES IDX 63 97
REMARK H PARENT 5 14 8 17 87 47 53 58
REMARK Flexibility Score: inf
ROOT
ATOM      1  C   UNL     1       5.347  -4.182  -0.527  1.00  0.00     0.202 C 
ENDROOT
BRANCH   1   2
ATOM      2  O   UNL     1       4.778  -4.404   0.760  1.00  0.00    -0.374 OA
BRANCH   2   3
ATOM      3  C   UNL     1       5.044  -3.577   1.877  1.00  0.00     0.202 C 
BRANCH   3   4
ATOM      4  C   UNL     1       3.959  -3.939   2.974  1.00  0.00     0.261 C 
BRANCH   4   5
ATOM      5  O   UNL     1       2.575  -3.551   2.567  1.00  0.00    -0.462 OA
BRANCH   5   6
ATOM      6  C   UNL     1       1.506  -2.884   3.154  1.00  0.00     0.331 C 
ATOM      7  O   UNL     1       1.471  -2.599   4.348  1.00  0.00    -0.249 OA
BRANCH   6   8
ATOM      8  C   UNL     1       0.277  -2.501   2.104  1.00  0.00     0.136 C 
ATOM      9  C   UNL     1      -1.000  -2.463   2.974  1.00  0.00     0.047 C 
BRANCH   8  10
ATOM     10  C   UNL     1      -0.056  -1.448   0.951  1.00  0.00     0.037 C 
ATOM     11  C   UNL     1       0.160   0.045   1.005  1.00  0.00     0.007 C 
ENDBRANCH   8  10
BRANCH   8  12
ATOM     12  N   UNL     1       0.441  -3.685   1.311  1.00  0.00    -0.322 N 
ATOM     13  C   UNL     1       1.467  -3.801   0.431  1.00  0.00     0.320 C 
ATOM     14  H   UNL     1      -0.201  -4.425   1.406  1.00  0.00     0.166 HD
ATOM     15  O   UNL     1       1.499  -4.819  -0.251  1.00  0.00    -0.248 OA
ATOM     16  N   UNL     1       2.372  -2.795   0.185  1.00  0.00    -0.306 N 
ATOM     17  H   UNL     1       2.813  -3.080  -0.647  1.00  0.00     0.171 HD
BRANCH  16  18
ATOM     18  C   UNL     1       3.033  -1.513   0.505  1.00  0.00     0.064 A 
ATOM     19  C   UNL     1       3.384  -0.722   1.683  1.00  0.00    -0.026 A 
ATOM     20  C   UNL     1       3.577  -0.992  -0.718  1.00  0.00     0.064 A 
ATOM     21  C   UNL     1       3.230  -0.814   3.196  1.00  0.00     0.046 C 
ATOM     22  C   UNL     1       4.184   0.456   1.509  1.00  0.00     0.005 A 
ATOM     23  C   UNL     1       4.463   0.085  -0.800  1.00  0.00     0.023 A 
ATOM     24  Cl  UNL     1       3.146  -1.684  -2.270  1.00  0.00    -0.082 Cl
ATOM     25  C   UNL     1       4.770   0.815   0.319  1.00  0.00     0.002 A 
ENDBRANCH  16  18
ENDBRANCH   8  12
ENDBRANCH   6   8
ENDBRANCH   5   6
ENDBRANCH   4   5
ENDBRANCH   3   4
ENDBRANCH   2   3
ENDBRANCH   1   2
BRANCH   1  26
ATOM     26  C   UNL     1       4.580  -5.165  -1.450  1.00  0.00     0.261 C 
BRANCH  26  27
ATOM     27  O   UNL     1       4.301  -6.379  -0.713  1.00  0.00    -0.460 OA
BRANCH  27  28
ATOM     28  C   UNL     1       5.433  -7.037  -0.416  1.00  0.00     0.338 C 
ATOM     29  O   UNL     1       6.380  -7.183  -1.205  1.00  0.00    -0.246 OA
BRANCH  28  30
ATOM     30  C   UNL     1       5.593  -7.250   1.038  1.00  0.00     0.060 A 
ATOM     31  C   UNL     1       6.797  -6.787   1.590  1.00  0.00     0.016 A 
ATOM     32  C   UNL     1       4.669  -7.919   1.844  1.00  0.00     0.016 A 
ATOM     33  C   UNL     1       7.151  -7.114   2.892  1.00  0.00     0.010 A 
ATOM     34  C   UNL     1       5.035  -8.266   3.158  1.00  0.00     0.010 A 
ATOM     35  C   UNL     1       6.312  -7.934   3.655  1.00  0.00    -0.014 A 
BRANCH  35  36
ATOM     36  C   UNL     1       6.933  -8.650   4.804  1.00  0.00     0.031 A 
ATOM     37  C   UNL     1       7.444 -10.054   4.575  1.00  0.00     0.074 A 
ATOM     38  C   UNL     1       7.203  -8.030   5.968  1.00  0.00     0.049 A 
ATOM     39  N   UNL     1       8.133 -10.830   5.373  1.00  0.00    -0.248 NA
ATOM     40  C   UNL     1       7.152 -10.656   3.263  1.00  0.00     0.031 C 
ATOM     41  C   UNL     1       6.825  -6.660   6.306  1.00  0.00     0.029 A 
ATOM     42  N   UNL     1       7.881  -8.476   7.077  1.00  0.00    -0.354 N 
ATOM     43  C   UNL     1       8.368 -11.999   4.657  1.00  0.00     0.074 A 
ATOM     44  C   UNL     1       7.707 -11.852   3.379  1.00  0.00     0.031 C 
ATOM     45  C   UNL     1       7.270  -6.379   7.544  1.00  0.00     0.029 A 
ATOM     46  C   UNL     1       7.953  -7.552   8.091  1.00  0.00     0.049 A 
ATOM     47  H   UNL     1       8.278  -9.375   7.139  1.00  0.00     0.167 HD
ATOM     48  C   UNL     1       9.086 -13.090   5.014  1.00  0.00     0.037 A 
ATOM     49  C   UNL     1       8.498  -7.643   9.323  1.00  0.00     0.037 A 
ATOM     50  C   UNL     1       9.743 -13.253   6.284  1.00  0.00     0.049 A 
ATOM     51  C   UNL     1       9.226  -8.901   9.730  1.00  0.00     0.074 A 
ATOM     52  C   UNL     1      10.479 -14.334   6.739  1.00  0.00     0.029 A 
ATOM     53  N   UNL     1       9.742 -12.316   7.306  1.00  0.00    -0.354 N 
ATOM     54  N   UNL     1       9.446  -9.993   9.037  1.00  0.00    -0.248 NA
ATOM     55  C   UNL     1       9.793  -8.931  11.087  1.00  0.00     0.031 C 
ATOM     56  C   UNL     1      10.882 -14.071   8.052  1.00  0.00     0.029 A 
ATOM     57  C   UNL     1      10.447 -12.802   8.396  1.00  0.00     0.049 A 
ATOM     58  H   UNL     1       9.305 -11.435   7.263  1.00  0.00     0.167 HD
ATOM     59  C   UNL     1      10.195 -10.827   9.865  1.00  0.00     0.074 A 
ATOM     60  C   UNL     1      10.412 -10.103  11.099  1.00  0.00     0.031 C 
ATOM     61  C   UNL     1      10.658 -12.080   9.626  1.00  0.00     0.037 A 
BRANCH  48  62
ATOM     62  C   UNL     1       9.187 -14.210   4.014  1.00  0.00     0.058 A 
ATOM     63  C   UNL     1       9.964 -14.092   2.850  1.00  0.00     0.135 A 
ATOM     64  C   UNL     1       8.533 -15.431   4.244  1.00  0.00     0.135 A 
ATOM     65  F   UNL     1      10.594 -12.940   2.571  1.00  0.00    -0.206 F 
ATOM     66  C   UNL     1      10.074 -15.139   1.940  1.00  0.00     0.059 A 
ATOM     67  C   UNL     1       8.652 -16.501   3.362  1.00  0.00     0.059 A 
ATOM     68  F   UNL     1       7.774 -15.596   5.338  1.00  0.00    -0.206 F 
ATOM     69  C   UNL     1       9.417 -16.341   2.207  1.00  0.00     0.060 A 
BRANCH  69  70
ATOM     70  S   UNL     1       9.589 -17.697   1.028  1.00  0.00     0.124 S 
ATOM     71  O   UNL     1       8.797 -17.209  -0.097  1.00  0.00    -0.237 OA
ATOM     72  O   UNL     1      11.032 -17.743   0.814  1.00  0.00    -0.237 OA
ATOM     73  O   UNL     1       9.027 -18.841   1.740  1.00  0.00    -0.744 OA
ENDBRANCH  69  70
ENDBRANCH  48  62
BRANCH  49  74
ATOM     74  C   UNL     1       8.354  -6.515  10.285  1.00  0.00     0.058 A 
ATOM     75  C   UNL     1       9.460  -5.768  10.717  1.00  0.00     0.135 A 
ATOM     76  C   UNL     1       7.097  -6.187  10.819  1.00  0.00     0.135 A 
ATOM     77  F   UNL     1      10.685  -6.051  10.250  1.00  0.00    -0.206 F 
ATOM     78  C   UNL     1       9.330  -4.752  11.660  1.00  0.00     0.059 A 
ATOM     79  C   UNL     1       6.937  -5.157  11.738  1.00  0.00     0.059 A 
ATOM     80  F   UNL     1       6.005  -6.867  10.435  1.00  0.00    -0.206 F 
ATOM     81  C   UNL     1       8.062  -4.453  12.163  1.00  0.00     0.060 A 
BRANCH  81  82
ATOM     82  S   UNL     1       7.896  -3.105  13.354  1.00  0.00     0.124 S 
ATOM     83  O   UNL     1       8.469  -3.700  14.555  1.00  0.00    -0.237 OA
ATOM     84  O   UNL     1       8.681  -2.046  12.727  1.00  0.00    -0.237 OA
ATOM     85  O   UNL     1       6.456  -2.867  13.392  1.00  0.00    -0.744 OA
ENDBRANCH  81  82
ENDBRANCH  49  74
BRANCH  61  86
ATOM     86  C   UNL     1      11.472 -12.742  10.710  1.00  0.00     0.058 A 
ATOM     87  C   UNL     1      10.895 -13.159  11.921  1.00  0.00     0.135 A 
ATOM     88  C   UNL     1      12.845 -12.977  10.530  1.00  0.00     0.135 A 
ATOM     89  F   UNL     1       9.586 -12.962  12.148  1.00  0.00    -0.206 F 
ATOM     90  C   UNL     1      11.657 -13.738  12.931  1.00  0.00     0.059 A 
ATOM     91  C   UNL     1      13.621 -13.585  11.514  1.00  0.00     0.059 A 
ATOM     92  F   UNL     1      13.450 -12.618   9.386  1.00  0.00    -0.206 F 
ATOM     93  C   UNL     1      13.022 -13.942  12.721  1.00  0.00     0.060 A 
BRANCH  93  94
ATOM     94  S   UNL     1      14.003 -14.681  14.044  1.00  0.00     0.124 S 
ATOM     95  O   UNL     1      14.098 -13.576  14.992  1.00  0.00    -0.237 OA
ATOM     96  O   UNL     1      13.170 -15.805  14.463  1.00  0.00    -0.237 OA
ATOM     97  O   UNL     1      15.250 -15.047  13.380  1.00  0.00    -0.744 OA
ENDBRANCH  93  94
ENDBRANCH  61  86
ENDBRANCH  35  36
ENDBRANCH  28  30
ENDBRANCH  27  28
ENDBRANCH  26  27
ENDBRANCH   1  26
TORSDOF 20
