REMARK SMILES CC(C)[C@@H](NS(=O)(=O)c1ccc(Cl)c([N+](=O)[O-])c1)C(=O)OCCOCCOC(=O)c1ccc(-c2c3nc(c(-c4c(F)cc(S(=O)(=O)[O-])cc4F)c4ccc([nH]4)c(-c4c(F)cc(S(=O)(=O)[O-])cc4F)c4nc(c(-c5c(F)cc(S(=O)(=O)[O-])cc5F)c5ccc2[nH]5)C=C4)C=C3)cc1
REMARK SMILES IDX 23 1 22 2 21 3 19 4 20 5 4 6 2 7 1 8 3 9 5 10 6 12 7 13 8 14
REMARK SMILES IDX 9 15 10 16 18 17 11 18 14 19 12 20 13 21 15 22 16 23 17 24
REMARK SMILES IDX 24 25 25 26 26 27 27 28 28 29 29 30 30 31 31 32 95 33 32 34
REMARK SMILES IDX 94 35 33 36 34 37 35 38 88 39 36 40 93 41 87 42 89 43 37 44
REMARK SMILES IDX 92 45 86 46 85 47 38 49 72 50 51 51 71 52 52 53 55 54 70 55
REMARK SMILES IDX 90 56 53 57 54 58 69 60 91 61 56 62 39 63 40 64 49 65 41 66
REMARK SMILES IDX 42 67 48 68 50 69 43 70 44 71 45 72 46 73 47 74 73 75 74 76
REMARK SMILES IDX 83 77 75 78 76 79 82 80 84 81 77 82 78 83 79 84 80 85 81 86
REMARK SMILES IDX 57 87 58 88 67 89 59 90 60 91 66 92 68 93 61 94 62 95 63 96
REMARK SMILES IDX 64 97 65 98
REMARK H PARENT 5 11 89 48 55 59
REMARK Flexibility Score: inf
ROOT
ATOM      1  C   UNL     1      -1.708  -1.683   5.619  1.00  0.00     0.202 C 
ENDROOT
BRANCH   1   2
ATOM      2  C   UNL     1      -1.857  -2.351   4.249  1.00  0.00     0.261 C 
BRANCH   2   3
ATOM      3  O   UNL     1      -1.128  -1.829   3.132  1.00  0.00    -0.462 OA
BRANCH   3   4
ATOM      4  C   UNL     1      -1.762  -0.827   2.457  1.00  0.00     0.324 C 
ATOM      5  O   UNL     1      -2.702  -0.178   2.902  1.00  0.00    -0.250 OA
BRANCH   4   6
ATOM      6  C   UNL     1      -1.295  -0.697   1.009  1.00  0.00     0.182 C 
BRANCH   6   7
ATOM      7  C   UNL     1       0.234  -0.835   0.785  1.00  0.00     0.012 C 
ATOM      8  C   UNL     1       0.618  -0.326  -0.614  1.00  0.00     0.009 C 
ATOM      9  C   UNL     1       1.065  -0.053   1.811  1.00  0.00     0.009 C 
ENDBRANCH   6   7
BRANCH   6  10
ATOM     10  N   UNL     1      -2.030  -1.709   0.198  1.00  0.00    -0.197 NA
ATOM     11  H   UNL     1      -1.902  -2.609   0.661  1.00  0.00     0.142 HD
BRANCH  10  12
ATOM     12  S   UNL     1      -3.685  -1.523  -0.064  1.00  0.00     0.241 S 
ATOM     13  O   UNL     1      -3.974  -0.109  -0.098  1.00  0.00    -0.207 OA
ATOM     14  O   UNL     1      -4.011  -2.386  -1.176  1.00  0.00    -0.207 OA
BRANCH  12  15
ATOM     15  C   UNL     1      -4.444  -2.245   1.374  1.00  0.00     0.089 A 
ATOM     16  C   UNL     1      -5.225  -1.455   2.221  1.00  0.00     0.024 A 
ATOM     17  C   UNL     1      -4.217  -3.591   1.674  1.00  0.00     0.109 A 
ATOM     18  C   UNL     1      -5.738  -2.001   3.401  1.00  0.00     0.029 A 
ATOM     19  C   UNL     1      -4.737  -4.137   2.868  1.00  0.00     0.289 A 
ATOM     20  C   UNL     1      -5.500  -3.342   3.739  1.00  0.00     0.118 A 
ATOM     21  Cl  UNL     1      -6.177  -3.860   5.242  1.00  0.00    -0.077 Cl
BRANCH  19  22
ATOM     22  N   UNL     1      -4.364  -5.519   3.187  1.00  0.00     0.064 N 
ATOM     23  O   UNL     1      -4.065  -6.249   2.234  1.00  0.00    -0.258 OA
ATOM     24  O   UNL     1      -4.288  -5.853   4.374  1.00  0.00    -0.258 OA
ENDBRANCH  19  22
ENDBRANCH  12  15
ENDBRANCH  10  12
ENDBRANCH   6  10
ENDBRANCH   4   6
ENDBRANCH   3   4
ENDBRANCH   2   3
ENDBRANCH   1   2
BRANCH   1  25
ATOM     25  O   UNL     1      -1.693  -0.267   5.694  1.00  0.00    -0.374 OA
BRANCH  25  26
ATOM     26  C   UNL     1      -0.534   0.417   5.226  1.00  0.00     0.202 C 
BRANCH  26  27
ATOM     27  C   UNL     1       0.805   0.072   5.882  1.00  0.00     0.261 C 
BRANCH  27  28
ATOM     28  O   UNL     1       1.233  -1.269   5.566  1.00  0.00    -0.460 OA
BRANCH  28  29
ATOM     29  C   UNL     1       1.527  -2.027   6.653  1.00  0.00     0.338 C 
ATOM     30  O   UNL     1       1.546  -1.660   7.816  1.00  0.00    -0.246 OA
BRANCH  29  31
ATOM     31  C   UNL     1       1.639  -3.450   6.285  1.00  0.00     0.060 A 
ATOM     32  C   UNL     1       0.784  -4.351   6.933  1.00  0.00     0.016 A 
ATOM     33  C   UNL     1       2.658  -3.912   5.450  1.00  0.00     0.016 A 
ATOM     34  C   UNL     1       0.995  -5.722   6.812  1.00  0.00     0.010 A 
ATOM     35  C   UNL     1       2.872  -5.291   5.337  1.00  0.00     0.010 A 
ATOM     36  C   UNL     1       2.076  -6.198   6.060  1.00  0.00    -0.014 A 
BRANCH  36  37
ATOM     37  C   UNL     1       2.474  -7.622   6.196  1.00  0.00     0.031 A 
ATOM     38  C   UNL     1       3.614  -7.976   7.118  1.00  0.00     0.074 A 
ATOM     39  C   UNL     1       1.794  -8.594   5.563  1.00  0.00     0.049 A 
ATOM     40  N   UNL     1       4.125  -9.147   7.395  1.00  0.00    -0.248 NA
ATOM     41  C   UNL     1       4.261  -6.856   7.821  1.00  0.00     0.031 C 
ATOM     42  C   UNL     1       0.644  -8.384   4.686  1.00  0.00     0.029 A 
ATOM     43  N   UNL     1       1.974  -9.954   5.564  1.00  0.00    -0.354 N 
ATOM     44  C   UNL     1       5.155  -8.908   8.298  1.00  0.00     0.074 A 
ATOM     45  C   UNL     1       5.217  -7.476   8.498  1.00  0.00     0.031 C 
ATOM     46  C   UNL     1       0.225  -9.575   4.225  1.00  0.00     0.029 A 
ATOM     47  C   UNL     1       1.093 -10.627   4.752  1.00  0.00     0.049 A 
ATOM     48  H   UNL     1       2.669 -10.406   6.097  1.00  0.00     0.167 HD
ATOM     49  C   UNL     1       5.969  -9.800   8.912  1.00  0.00     0.037 A 
ATOM     50  C   UNL     1       1.008 -11.939   4.455  1.00  0.00     0.037 A 
ATOM     51  C   UNL     1       5.898 -11.225   8.717  1.00  0.00     0.049 A 
ATOM     52  C   UNL     1       1.963 -12.908   5.102  1.00  0.00     0.074 A 
ATOM     53  C   UNL     1       6.663 -12.214   9.311  1.00  0.00     0.029 A 
ATOM     54  N   UNL     1       5.018 -11.864   7.856  1.00  0.00    -0.354 N 
ATOM     55  N   UNL     1       2.920 -12.670   5.968  1.00  0.00    -0.248 NA
ATOM     56  C   UNL     1       1.825 -14.325   4.735  1.00  0.00     0.031 C 
ATOM     57  C   UNL     1       6.280 -13.446   8.771  1.00  0.00     0.029 A 
ATOM     58  C   UNL     1       5.240 -13.232   7.881  1.00  0.00     0.049 A 
ATOM     59  H   UNL     1       4.336 -11.413   7.309  1.00  0.00     0.167 HD
ATOM     60  C   UNL     1       3.481 -13.908   6.268  1.00  0.00     0.074 A 
ATOM     61  C   UNL     1       2.750 -14.893   5.497  1.00  0.00     0.031 C 
ATOM     62  C   UNL     1       4.505 -14.203   7.107  1.00  0.00     0.037 A 
BRANCH  49  63
ATOM     63  C   UNL     1       7.029  -9.257   9.832  1.00  0.00     0.058 A 
ATOM     64  C   UNL     1       6.715  -8.703  11.083  1.00  0.00     0.135 A 
ATOM     65  C   UNL     1       8.383  -9.312   9.462  1.00  0.00     0.135 A 
ATOM     66  F   UNL     1       5.436  -8.610  11.480  1.00  0.00    -0.206 F 
ATOM     67  C   UNL     1       7.703  -8.195  11.922  1.00  0.00     0.059 A 
ATOM     68  C   UNL     1       9.389  -8.835  10.297  1.00  0.00     0.059 A 
ATOM     69  F   UNL     1       8.739  -9.829   8.276  1.00  0.00    -0.206 F 
ATOM     70  C   UNL     1       9.037  -8.263  11.518  1.00  0.00     0.060 A 
BRANCH  70  71
ATOM     71  S   UNL     1      10.308  -7.593  12.613  1.00  0.00     0.124 S 
ATOM     72  O   UNL     1      10.099  -6.157  12.454  1.00  0.00    -0.237 OA
ATOM     73  O   UNL     1       9.930  -8.149  13.908  1.00  0.00    -0.237 OA
ATOM     74  O   UNL     1      11.550  -8.111  12.049  1.00  0.00    -0.744 OA
ENDBRANCH  70  71
ENDBRANCH  49  63
BRANCH  50  75
ATOM     75  C   UNL     1      -0.016 -12.408   3.484  1.00  0.00     0.058 A 
ATOM     76  C   UNL     1      -1.116 -13.173   3.896  1.00  0.00     0.135 A 
ATOM     77  C   UNL     1       0.082 -12.083   2.121  1.00  0.00     0.135 A 
ATOM     78  F   UNL     1      -1.246 -13.521   5.185  1.00  0.00    -0.206 F 
ATOM     79  C   UNL     1      -2.081 -13.606   2.991  1.00  0.00     0.059 A 
ATOM     80  C   UNL     1      -0.883 -12.483   1.202  1.00  0.00     0.059 A 
ATOM     81  F   UNL     1       1.112 -11.346   1.677  1.00  0.00    -0.206 F 
ATOM     82  C   UNL     1      -1.958 -13.252   1.647  1.00  0.00     0.060 A 
BRANCH  82  83
ATOM     83  S   UNL     1      -3.243 -13.773   0.489  1.00  0.00     0.124 S 
ATOM     84  O   UNL     1      -2.961 -15.197   0.359  1.00  0.00    -0.237 OA
ATOM     85  O   UNL     1      -4.464 -13.427   1.210  1.00  0.00    -0.237 OA
ATOM     86  O   UNL     1      -2.974 -12.965  -0.697  1.00  0.00    -0.744 OA
ENDBRANCH  82  83
ENDBRANCH  50  75
BRANCH  62  87
ATOM     87  C   UNL     1       4.885 -15.651   7.261  1.00  0.00     0.058 A 
ATOM     88  C   UNL     1       5.560 -16.349   6.247  1.00  0.00     0.135 A 
ATOM     89  C   UNL     1       4.620 -16.333   8.460  1.00  0.00     0.135 A 
ATOM     90  F   UNL     1       5.835 -15.746   5.079  1.00  0.00    -0.206 F 
ATOM     91  C   UNL     1       5.936 -17.679   6.407  1.00  0.00     0.059 A 
ATOM     92  C   UNL     1       5.011 -17.654   8.651  1.00  0.00     0.059 A 
ATOM     93  F   UNL     1       3.988 -15.709   9.467  1.00  0.00    -0.206 F 
ATOM     94  C   UNL     1       5.658 -18.323   7.614  1.00  0.00     0.060 A 
BRANCH  94  95
ATOM     95  S   UNL     1       6.180 -20.040   7.821  1.00  0.00     0.124 S 
ATOM     96  O   UNL     1       5.207 -20.745   6.994  1.00  0.00    -0.237 OA
ATOM     97  O   UNL     1       7.547 -20.015   7.309  1.00  0.00    -0.237 OA
ATOM     98  O   UNL     1       6.060 -20.261   9.259  1.00  0.00    -0.744 OA
ENDBRANCH  94  95
ENDBRANCH  62  87
ENDBRANCH  36  37
ENDBRANCH  29  31
ENDBRANCH  28  29
ENDBRANCH  27  28
ENDBRANCH  26  27
ENDBRANCH  25  26
ENDBRANCH   1  25
TORSDOF 22
