REMARK SMILES O=C(C[C@@H](NC(=O)C1CC=CC1)C1CC1)OCCOCCOC(=O)c1ccc(-c2c3nc(c(-c4c(F)cc(S(=O)(=O)[O-])cc4F)c4ccc([nH]4)c(-c4c(F)cc(S(=O)(=O)[O-])cc4F)c4nc(c(-c5c(F)cc(S(=O)(=O)[O-])cc5F)c5ccc2[nH]5)C=C4)C=C3)cc1
REMARK SMILES IDX 19 1 18 2 17 3 16 4 2 5 1 6 3 7 4 8 5 9 6 10 7 12 8 13 9 14
REMARK SMILES IDX 12 15 10 16 11 17 13 18 14 19 15 20 20 21 21 22 22 23 23 24
REMARK SMILES IDX 24 25 25 26 26 27 90 28 27 29 89 30 28 31 29 32 30 33 83 34
REMARK SMILES IDX 31 35 88 36 82 37 84 38 32 39 87 40 81 41 80 42 33 44 67 45
REMARK SMILES IDX 46 46 66 47 47 48 50 49 65 50 85 51 48 52 49 53 64 55 86 56
REMARK SMILES IDX 51 57 34 58 35 59 44 60 36 61 37 62 43 63 45 64 38 65 39 66
REMARK SMILES IDX 40 67 41 68 42 69 68 70 69 71 78 72 70 73 71 74 77 75 79 76
REMARK SMILES IDX 72 77 73 78 74 79 75 80 76 81 52 82 53 83 62 84 54 85 55 86
REMARK SMILES IDX 61 87 63 88 56 89 57 90 58 91 59 92 60 93
REMARK H PARENT 5 11 84 43 50 54
REMARK Flexibility Score: inf
ROOT
ATOM      1  O   UNL     1       3.936  -1.827   0.017  1.00  0.00    -0.374 OA
ENDROOT
BRANCH   1   2
ATOM      2  C   UNL     1       4.614  -0.771   0.682  1.00  0.00     0.202 C 
BRANCH   2   3
ATOM      3  C   UNL     1       3.924   0.575   0.935  1.00  0.00     0.261 C 
BRANCH   3   4
ATOM      4  O   UNL     1       2.584   0.774   0.454  1.00  0.00    -0.463 OA
BRANCH   4   5
ATOM      5  C   UNL     1       2.256   1.086  -0.816  1.00  0.00     0.307 C 
ATOM      6  O   UNL     1       1.319   1.849  -1.046  1.00  0.00    -0.252 OA
BRANCH   5   7
ATOM      7  C   UNL     1       2.910   0.329  -1.933  1.00  0.00     0.147 C 
BRANCH   7   8
ATOM      8  C   UNL     1       3.903   1.108  -2.788  1.00  0.00     0.096 C 
BRANCH   8   9
ATOM      9  N   UNL     1       5.042   1.604  -1.999  1.00  0.00    -0.352 N 
ATOM     10  C   UNL     1       6.327   1.256  -1.729  1.00  0.00     0.223 C 
ATOM     11  H   UNL     1       4.801   2.433  -1.527  1.00  0.00     0.163 HD
ATOM     12  O   UNL     1       6.806   1.803  -0.731  1.00  0.00    -0.275 OA
BRANCH  10  13
ATOM     13  C   UNL     1       7.165   0.346  -2.620  1.00  0.00     0.086 C 
ATOM     14  C   UNL     1       8.673   0.427  -2.278  1.00  0.00     0.040 C 
ATOM     15  C   UNL     1       6.800  -1.139  -2.540  1.00  0.00     0.040 C 
ATOM     16  C   UNL     1       9.051  -0.967  -1.906  1.00  0.00    -0.030 C 
ATOM     17  C   UNL     1       8.030  -1.814  -2.034  1.00  0.00    -0.030 C 
ENDBRANCH  10  13
ENDBRANCH   8   9
BRANCH   8  18
ATOM     18  C   UNL     1       4.307   0.365  -4.041  1.00  0.00     0.012 C 
ATOM     19  C   UNL     1       3.999  -1.106  -4.280  1.00  0.00     0.006 C 
ATOM     20  C   UNL     1       3.263  -0.056  -5.053  1.00  0.00     0.006 C 
ENDBRANCH   8  18
ENDBRANCH   7   8
ENDBRANCH   5   7
ENDBRANCH   4   5
ENDBRANCH   3   4
ENDBRANCH   2   3
ENDBRANCH   1   2
BRANCH   1  21
ATOM     21  C   UNL     1       2.662  -2.245   0.493  1.00  0.00     0.202 C 
BRANCH  21  22
ATOM     22  C   UNL     1       2.704  -3.271   1.616  1.00  0.00     0.261 C 
BRANCH  22  23
ATOM     23  O   UNL     1       3.169  -2.661   2.824  1.00  0.00    -0.460 OA
BRANCH  23  24
ATOM     24  C   UNL     1       4.456  -2.930   3.138  1.00  0.00     0.338 C 
ATOM     25  O   UNL     1       5.217  -3.691   2.557  1.00  0.00    -0.246 OA
BRANCH  24  26
ATOM     26  C   UNL     1       4.886  -1.996   4.191  1.00  0.00     0.060 A 
ATOM     27  C   UNL     1       6.145  -1.393   4.060  1.00  0.00     0.016 A 
ATOM     28  C   UNL     1       4.078  -1.738   5.301  1.00  0.00     0.016 A 
ATOM     29  C   UNL     1       6.635  -0.589   5.079  1.00  0.00     0.010 A 
ATOM     30  C   UNL     1       4.574  -0.941   6.328  1.00  0.00     0.010 A 
ATOM     31  C   UNL     1       5.875  -0.415   6.242  1.00  0.00    -0.014 A 
BRANCH  31  32
ATOM     32  C   UNL     1       6.538   0.101   7.456  1.00  0.00     0.031 A 
ATOM     33  C   UNL     1       7.008  -0.897   8.478  1.00  0.00     0.074 A 
ATOM     34  C   UNL     1       6.747   1.417   7.618  1.00  0.00     0.049 A 
ATOM     35  N   UNL     1       7.597  -0.696   9.626  1.00  0.00    -0.248 NA
ATOM     36  C   UNL     1       6.775  -2.318   8.163  1.00  0.00     0.031 C 
ATOM     37  C   UNL     1       6.369   2.457   6.662  1.00  0.00     0.029 A 
ATOM     38  N   UNL     1       7.333   2.100   8.650  1.00  0.00    -0.354 N 
ATOM     39  C   UNL     1       7.789  -1.959  10.176  1.00  0.00     0.074 A 
ATOM     40  C   UNL     1       7.223  -2.917   9.255  1.00  0.00     0.031 C 
ATOM     41  C   UNL     1       6.734   3.653   7.156  1.00  0.00     0.029 A 
ATOM     42  C   UNL     1       7.340   3.462   8.472  1.00  0.00     0.049 A 
ATOM     43  H   UNL     1       7.712   1.658   9.444  1.00  0.00     0.167 HD
ATOM     44  C   UNL     1       8.393  -2.286  11.342  1.00  0.00     0.037 A 
ATOM     45  C   UNL     1       7.778   4.436   9.292  1.00  0.00     0.037 A 
ATOM     46  C   UNL     1       8.956  -1.314  12.241  1.00  0.00     0.049 A 
ATOM     47  C   UNL     1       8.394   4.050  10.612  1.00  0.00     0.074 A 
ATOM     48  C   UNL     1       9.616  -1.529  13.437  1.00  0.00     0.029 A 
ATOM     49  N   UNL     1       8.917   0.060  12.045  1.00  0.00    -0.354 N 
ATOM     50  N   UNL     1       8.596   2.853  11.113  1.00  0.00    -0.248 NA
ATOM     51  C   UNL     1       8.851   5.148  11.474  1.00  0.00     0.031 C 
ATOM     52  C   UNL     1       9.919  -0.282  13.995  1.00  0.00     0.029 A 
ATOM     53  C   UNL     1       9.513   0.708  13.113  1.00  0.00     0.049 A 
ATOM     54  H   UNL     1       8.523   0.507  11.262  1.00  0.00     0.167 HD
ATOM     55  C   UNL     1       9.237   3.053  12.332  1.00  0.00     0.074 A 
ATOM     56  C   UNL     1       9.395   4.485  12.485  1.00  0.00     0.031 C 
ATOM     57  C   UNL     1       9.664   2.138  13.239  1.00  0.00     0.037 A 
BRANCH  44  58
ATOM     58  C   UNL     1       8.433  -3.741  11.723  1.00  0.00     0.058 A 
ATOM     59  C   UNL     1       9.210  -4.678  11.023  1.00  0.00     0.135 A 
ATOM     60  C   UNL     1       7.683  -4.205  12.817  1.00  0.00     0.135 A 
ATOM     61  F   UNL     1       9.929  -4.298   9.955  1.00  0.00    -0.206 F 
ATOM     62  C   UNL     1       9.217  -6.026  11.371  1.00  0.00     0.059 A 
ATOM     63  C   UNL     1       7.701  -5.541  13.204  1.00  0.00     0.059 A 
ATOM     64  F   UNL     1       6.916  -3.356  13.520  1.00  0.00    -0.206 F 
ATOM     65  C   UNL     1       8.458  -6.447  12.465  1.00  0.00     0.060 A 
BRANCH  65  66
ATOM     66  S   UNL     1       8.476  -8.198  12.904  1.00  0.00     0.124 S 
ATOM     67  O   UNL     1       7.706  -8.781  11.809  1.00  0.00    -0.237 OA
ATOM     68  O   UNL     1       9.902  -8.504  12.908  1.00  0.00    -0.237 OA
ATOM     69  O   UNL     1       7.827  -8.228  14.211  1.00  0.00    -0.744 OA
ENDBRANCH  65  66
ENDBRANCH  44  58
BRANCH  45  70
ATOM     70  C   UNL     1       7.663   5.861   8.883  1.00  0.00     0.058 A 
ATOM     71  C   UNL     1       8.804   6.624   8.596  1.00  0.00     0.135 A 
ATOM     72  C   UNL     1       6.412   6.487   8.763  1.00  0.00     0.135 A 
ATOM     73  F   UNL     1      10.023   6.074   8.703  1.00  0.00    -0.206 F 
ATOM     74  C   UNL     1       8.713   7.961   8.222  1.00  0.00     0.059 A 
ATOM     75  C   UNL     1       6.293   7.814   8.363  1.00  0.00     0.059 A 
ATOM     76  F   UNL     1       5.287   5.799   9.014  1.00  0.00    -0.206 F 
ATOM     77  C   UNL     1       7.451   8.546   8.104  1.00  0.00     0.060 A 
BRANCH  77  78
ATOM     78  S   UNL     1       7.344  10.270   7.575  1.00  0.00     0.124 S 
ATOM     79  O   UNL     1       7.857  10.970   8.748  1.00  0.00    -0.237 OA
ATOM     80  O   UNL     1       8.206  10.280   6.397  1.00  0.00    -0.237 OA
ATOM     81  O   UNL     1       5.921  10.451   7.304  1.00  0.00    -0.744 OA
ENDBRANCH  77  78
ENDBRANCH  45  70
BRANCH  57  82
ATOM     82  C   UNL     1      10.388   2.656  14.453  1.00  0.00     0.058 A 
ATOM     83  C   UNL     1       9.728   3.368  15.467  1.00  0.00     0.135 A 
ATOM     84  C   UNL     1      11.759   2.399  14.619  1.00  0.00     0.135 A 
ATOM     85  F   UNL     1       8.418   3.643  15.358  1.00  0.00    -0.206 F 
ATOM     86  C   UNL     1      10.411   3.843  16.582  1.00  0.00     0.059 A 
ATOM     87  C   UNL     1      12.454   2.833  15.743  1.00  0.00     0.059 A 
ATOM     88  F   UNL     1      12.437   1.708  13.688  1.00  0.00    -0.206 F 
ATOM     89  C   UNL     1      11.774   3.570  16.711  1.00  0.00     0.060 A 
BRANCH  89  90
ATOM     90  S   UNL     1      12.645   4.180  18.169  1.00  0.00     0.124 S 
ATOM     91  O   UNL     1      12.721   5.610  17.888  1.00  0.00    -0.237 OA
ATOM     92  O   UNL     1      11.747   3.794  19.253  1.00  0.00    -0.237 OA
ATOM     93  O   UNL     1      13.916   3.465  18.131  1.00  0.00    -0.744 OA
ENDBRANCH  89  90
ENDBRANCH  57  82
ENDBRANCH  31  32
ENDBRANCH  24  26
ENDBRANCH  23  24
ENDBRANCH  22  23
ENDBRANCH  21  22
ENDBRANCH   1  21
TORSDOF 21
