REMARK SMILES C[C@@H](Oc1ccc(/C=C2\C(=O)[NH+]=C(OCCOCCOC(=O)c3ccc(-c4c5nc(c(-c6c(F)cc(S(=O)(=O)[O-])cc6F)c6ccc([nH]6)c(-c6c(F)cc(S(=O)(=O)[O-])cc6F)c6nc(c(-c7c(F)cc(S(=O)(=O)[O-])cc7F)c7ccc4[nH]7)C=C6)C=C5)cc3)N(c3ccc4c(c3)OCO4)C2=O)cc1)C(=O)[O-]
REMARK SMILES IDX 17 1 16 2 15 3 14 4 13 5 8 6 9 7 10 8 99 9 11 10 12 11 89 12
REMARK SMILES IDX 100 13 7 15 4 16 5 17 102 18 6 19 101 20 3 21 2 22 1 23
REMARK SMILES IDX 103 24 104 25 105 26 90 27 91 28 95 29 92 30 94 31 93 32
REMARK SMILES IDX 96 33 98 34 97 35 18 36 19 37 20 38 21 39 22 40 23 41 24 42
REMARK SMILES IDX 88 43 25 44 87 45 26 46 27 47 28 48 81 49 29 50 86 51 80 52
REMARK SMILES IDX 82 53 30 54 85 55 79 56 78 57 31 59 65 60 44 61 64 62 45 63
REMARK SMILES IDX 48 64 63 65 83 66 46 67 47 68 62 70 84 71 49 72 32 73 33 74
REMARK SMILES IDX 42 75 34 76 35 77 41 78 43 79 36 80 37 81 38 82 39 83 40 84
REMARK SMILES IDX 66 85 67 86 76 87 68 88 69 89 75 90 77 91 70 92 71 93 72 94
REMARK SMILES IDX 73 95 74 96 50 97 51 98 60 99 52 100 53 101 59 102 61 103
REMARK SMILES IDX 54 104 55 105 56 106 57 107 58 108
REMARK H PARENT 12 14 82 58 48 69
REMARK Flexibility Score: inf
ROOT
ATOM      1  O   UNL     1       9.414  -7.295  -0.251  1.00  0.00    -0.374 OA
ENDROOT
BRANCH   1   2
ATOM      2  C   UNL     1       9.357  -8.596   0.354  1.00  0.00     0.202 C 
BRANCH   2   3
ATOM      3  C   UNL     1       9.707  -8.547   1.849  1.00  0.00     0.266 C 
BRANCH   3   4
ATOM      4  O   UNL     1       8.794  -7.803   2.691  1.00  0.00    -0.428 OA
BRANCH   4   5
ATOM      5  C   UNL     1       8.224  -6.694   2.157  1.00  0.00     0.465 C 
ATOM      6  C   UNL     1       6.273  -3.290   1.389  1.00  0.00     0.032 C 
ATOM      7  C   UNL     1       6.978  -4.439   1.365  1.00  0.00     0.155 C 
ATOM      8  C   UNL     1       6.461  -5.777   1.038  1.00  0.00     0.349 C 
ATOM      9  C   UNL     1       8.431  -4.352   1.671  1.00  0.00     0.357 C 
ATOM     10  O   UNL     1       5.668  -5.957   0.123  1.00  0.00    -0.240 OA
ATOM     11  N   UNL     1       7.005  -6.800   1.755  1.00  0.00    -0.171 N 
ATOM     12  N   UNL     1       8.997  -5.549   2.074  1.00  0.00    -0.123 N 
ATOM     13  O   UNL     1       9.024  -3.274   1.615  1.00  0.00    -0.240 OA
ATOM     14  H   UNL     1       6.476  -7.604   1.961  1.00  0.00     0.319 HD
BRANCH   6  15
ATOM     15  C   UNL     1       4.843  -2.981   1.179  1.00  0.00    -0.024 A 
ATOM     16  C   UNL     1       2.156  -2.151   0.896  1.00  0.00     0.120 A 
ATOM     17  C   UNL     1       2.463  -3.499   1.034  1.00  0.00     0.047 A 
ATOM     18  C   UNL     1       3.175  -1.209   0.933  1.00  0.00     0.047 A 
ATOM     19  C   UNL     1       3.795  -3.908   1.190  1.00  0.00     0.012 A 
ATOM     20  C   UNL     1       4.505  -1.623   1.052  1.00  0.00     0.012 A 
BRANCH  16  21
ATOM     21  O   UNL     1       0.839  -1.791   0.884  1.00  0.00    -0.485 OA
BRANCH  21  22
ATOM     22  C   UNL     1       0.407  -1.169  -0.332  1.00  0.00     0.216 C 
ATOM     23  C   UNL     1       0.558   0.349  -0.276  1.00  0.00     0.059 C 
BRANCH  22  24
ATOM     24  C   UNL     1      -1.073  -1.474  -0.534  1.00  0.00     0.082 C 
ATOM     25  O   UNL     1      -1.622  -1.674  -1.608  1.00  0.00    -0.546 OA
ATOM     26  O   UNL     1      -1.811  -1.420   0.595  1.00  0.00    -0.546 OA
ENDBRANCH  22  24
ENDBRANCH  21  22
ENDBRANCH  16  21
ENDBRANCH   6  15
BRANCH  12  27
ATOM     27  C   UNL     1      10.364  -5.534   2.460  1.00  0.00     0.144 A 
ATOM     28  C   UNL     1      11.359  -5.339   1.474  1.00  0.00     0.056 A 
ATOM     29  C   UNL     1      10.721  -5.709   3.803  1.00  0.00     0.103 A 
ATOM     30  C   UNL     1      12.713  -5.330   1.817  1.00  0.00     0.055 A 
ATOM     31  C   UNL     1      12.062  -5.639   4.114  1.00  0.00     0.170 A 
ATOM     32  C   UNL     1      13.029  -5.460   3.150  1.00  0.00     0.166 A 
ATOM     33  O   UNL     1      12.589  -5.713   5.366  1.00  0.00    -0.453 OA
ATOM     34  O   UNL     1      14.282  -5.414   3.677  1.00  0.00    -0.454 OA
ATOM     35  C   UNL     1      13.977  -5.438   5.086  1.00  0.00     0.468 C 
ENDBRANCH  12  27
ENDBRANCH   4   5
ENDBRANCH   3   4
ENDBRANCH   2   3
ENDBRANCH   1   2
BRANCH   1  36
ATOM     36  C   UNL     1       8.410  -7.063  -1.251  1.00  0.00     0.202 C 
BRANCH  36  37
ATOM     37  C   UNL     1       8.891  -7.278  -2.682  1.00  0.00     0.261 C 
BRANCH  37  38
ATOM     38  O   UNL     1       9.226  -8.653  -2.867  1.00  0.00    -0.460 OA
BRANCH  38  39
ATOM     39  C   UNL     1      10.547  -8.936  -2.760  1.00  0.00     0.338 C 
ATOM     40  O   UNL     1      11.468  -8.143  -2.733  1.00  0.00    -0.246 OA
BRANCH  39  41
ATOM     41  C   UNL     1      10.686 -10.381  -2.470  1.00  0.00     0.060 A 
ATOM     42  C   UNL     1      11.809 -10.788  -1.737  1.00  0.00     0.016 A 
ATOM     43  C   UNL     1       9.705 -11.308  -2.841  1.00  0.00     0.016 A 
ATOM     44  C   UNL     1      11.975 -12.130  -1.409  1.00  0.00     0.010 A 
ATOM     45  C   UNL     1       9.870 -12.650  -2.514  1.00  0.00     0.010 A 
ATOM     46  C   UNL     1      11.023 -13.066  -1.829  1.00  0.00    -0.014 A 
BRANCH  46  47
ATOM     47  C   UNL     1      11.323 -14.508  -1.750  1.00  0.00     0.031 A 
ATOM     48  C   UNL     1      11.884 -15.169  -2.976  1.00  0.00     0.074 A 
ATOM     49  C   UNL     1      11.078 -15.204  -0.627  1.00  0.00     0.049 A 
ATOM     50  N   UNL     1      12.149 -16.428  -3.191  1.00  0.00    -0.248 NA
ATOM     51  C   UNL     1      12.172 -14.286  -4.121  1.00  0.00     0.031 C 
ATOM     52  C   UNL     1      10.550 -14.646   0.617  1.00  0.00     0.029 A 
ATOM     53  N   UNL     1      11.226 -16.540  -0.364  1.00  0.00    -0.354 N 
ATOM     54  C   UNL     1      12.626 -16.491  -4.494  1.00  0.00     0.074 A 
ATOM     55  C   UNL     1      12.587 -15.151  -5.033  1.00  0.00     0.031 C 
ATOM     56  C   UNL     1      10.401 -15.641   1.510  1.00  0.00     0.029 A 
ATOM     57  C   UNL     1      10.797 -16.903   0.889  1.00  0.00     0.049 A 
ATOM     58  H   UNL     1      11.604 -17.178  -1.011  1.00  0.00     0.167 HD
ATOM     59  C   UNL     1      13.065 -17.573  -5.176  1.00  0.00     0.037 A 
ATOM     60  C   UNL     1      10.718 -18.124   1.454  1.00  0.00     0.037 A 
ATOM     61  C   UNL     1      13.092 -18.900  -4.625  1.00  0.00     0.049 A 
ATOM     62  C   UNL     1      11.177 -19.321   0.662  1.00  0.00     0.074 A 
ATOM     63  C   UNL     1      13.526 -20.071  -5.219  1.00  0.00     0.029 A 
ATOM     64  N   UNL     1      12.661 -19.230  -3.348  1.00  0.00    -0.354 N 
ATOM     65  N   UNL     1      11.652 -19.368  -0.561  1.00  0.00    -0.248 NA
ATOM     66  C   UNL     1      11.094 -20.629   1.325  1.00  0.00     0.031 C 
ATOM     67  C   UNL     1      13.324 -21.116  -4.311  1.00  0.00     0.029 A 
ATOM     68  C   UNL     1      12.806 -20.589  -3.138  1.00  0.00     0.049 A 
ATOM     69  H   UNL     1      12.305 -18.591  -2.690  1.00  0.00     0.167 HD
ATOM     70  C   UNL     1      11.952 -20.704  -0.803  1.00  0.00     0.074 A 
ATOM     71  C   UNL     1      11.608 -21.431   0.402  1.00  0.00     0.031 C 
ATOM     72  C   UNL     1      12.468 -21.279  -1.918  1.00  0.00     0.037 A 
BRANCH  59  73
ATOM     73  C   UNL     1      13.527 -17.359  -6.588  1.00  0.00     0.058 A 
ATOM     74  C   UNL     1      14.735 -16.703  -6.876  1.00  0.00     0.135 A 
ATOM     75  C   UNL     1      12.754 -17.815  -7.667  1.00  0.00     0.135 A 
ATOM     76  F   UNL     1      15.497 -16.223  -5.880  1.00  0.00    -0.206 F 
ATOM     77  C   UNL     1      15.149 -16.487  -8.185  1.00  0.00     0.059 A 
ATOM     78  C   UNL     1      13.161 -17.631  -8.985  1.00  0.00     0.059 A 
ATOM     79  F   UNL     1      11.585 -18.437  -7.446  1.00  0.00    -0.206 F 
ATOM     80  C   UNL     1      14.354 -16.953  -9.234  1.00  0.00     0.060 A 
BRANCH  80  81
ATOM     81  S   UNL     1      14.906 -16.668 -10.928  1.00  0.00     0.124 S 
ATOM     82  O   UNL     1      14.624 -15.245 -11.090  1.00  0.00    -0.237 OA
ATOM     83  O   UNL     1      16.319 -17.030 -10.863  1.00  0.00    -0.237 OA
ATOM     84  O   UNL     1      14.068 -17.568 -11.714  1.00  0.00    -0.744 OA
ENDBRANCH  80  81
ENDBRANCH  59  73
BRANCH  60  85
ATOM     85  C   UNL     1      10.186 -18.274   2.833  1.00  0.00     0.058 A 
ATOM     86  C   UNL     1      11.030 -18.611   3.901  1.00  0.00     0.135 A 
ATOM     87  C   UNL     1       8.825 -18.075   3.114  1.00  0.00     0.135 A 
ATOM     88  F   UNL     1      12.338 -18.818   3.682  1.00  0.00    -0.206 F 
ATOM     89  C   UNL     1      10.544 -18.760   5.196  1.00  0.00     0.059 A 
ATOM     90  C   UNL     1       8.319 -18.196   4.404  1.00  0.00     0.059 A 
ATOM     91  F   UNL     1       7.978 -17.738   2.129  1.00  0.00    -0.206 F 
ATOM     92  C   UNL     1       9.185 -18.549   5.438  1.00  0.00     0.060 A 
BRANCH  92  93
ATOM     93  S   UNL     1       8.572 -18.695   7.131  1.00  0.00     0.124 S 
ATOM     94  O   UNL     1       8.565 -20.142   7.316  1.00  0.00    -0.237 OA
ATOM     95  O   UNL     1       9.581 -17.960   7.888  1.00  0.00    -0.237 OA
ATOM     96  O   UNL     1       7.260 -18.058   7.067  1.00  0.00    -0.744 OA
ENDBRANCH  92  93
ENDBRANCH  60  85
BRANCH  72  97
ATOM     97  C   UNL     1      12.733 -22.757  -1.873  1.00  0.00     0.058 A 
ATOM     98  C   UNL     1      11.695 -23.695  -1.967  1.00  0.00     0.135 A 
ATOM     99  C   UNL     1      14.052 -23.235  -1.807  1.00  0.00     0.135 A 
ATOM    100  F   UNL     1      10.418 -23.286  -2.027  1.00  0.00    -0.206 F 
ATOM    101  C   UNL     1      11.954 -25.061  -1.982  1.00  0.00     0.059 A 
ATOM    102  C   UNL     1      14.336 -24.595  -1.845  1.00  0.00     0.059 A 
ATOM    103  F   UNL     1      15.080 -22.375  -1.729  1.00  0.00    -0.206 F 
ATOM    104  C   UNL     1      13.279 -25.501  -1.922  1.00  0.00     0.060 A 
BRANCH 104 105
ATOM    105  S   UNL     1      13.607 -27.275  -1.987  1.00  0.00     0.124 S 
ATOM    106  O   UNL     1      13.248 -27.689  -0.634  1.00  0.00    -0.237 OA
ATOM    107  O   UNL     1      12.708 -27.723  -3.046  1.00  0.00    -0.237 OA
ATOM    108  O   UNL     1      15.029 -27.345  -2.310  1.00  0.00    -0.744 OA
ENDBRANCH 104 105
ENDBRANCH  72  97
ENDBRANCH  46  47
ENDBRANCH  39  41
ENDBRANCH  38  39
ENDBRANCH  37  38
ENDBRANCH  36  37
ENDBRANCH   1  36
TORSDOF 21
