REMARK SMILES CCCC[N@H+](CC)[C@H]1CCC[C@]([NH3+])(C(=O)OCCOCCOC(=O)c2ccc(-c3c4nc(c(-c5c(F)cc(S(=O)(=O)[O-])cc5F)c5ccc([nH]5)c(-c5c(F)cc(S(=O)(=O)[O-])cc5F)c5nc(c(-c6c(F)cc(S(=O)(=O)[O-])cc6F)c6ccc3[nH]6)C=C5)C=C4)cc2)C1
REMARK SMILES IDX 18 1 17 2 16 3 14 4 15 5 12 6 8 7 9 8 91 9 10 10 11 11 5 12
REMARK SMILES IDX 4 14 3 15 2 16 1 17 6 18 7 19 13 20 19 24 20 25 21 26 22 27
REMARK SMILES IDX 23 28 24 29 25 30 26 31 90 32 27 33 89 34 28 35 29 36 30 37
REMARK SMILES IDX 83 38 31 39 88 40 82 41 84 42 32 43 87 44 81 45 80 46 33 48
REMARK SMILES IDX 67 49 46 50 66 51 47 52 50 53 65 54 85 55 48 56 49 57 64 59
REMARK SMILES IDX 86 60 51 61 34 62 35 63 44 64 36 65 37 66 43 67 45 68 38 69
REMARK SMILES IDX 39 70 40 71 41 72 42 73 68 74 69 75 78 76 70 77 71 78 77 79
REMARK SMILES IDX 79 80 72 81 73 82 74 83 75 84 76 85 52 86 53 87 62 88 54 89
REMARK SMILES IDX 55 90 61 91 63 92 56 93 57 94 58 95 59 96 60 97
REMARK H PARENT 5 13 13 21 13 22 13 23 84 47 50 58
REMARK Flexibility Score: inf
ROOT
ATOM      1  C   UNL     1      -2.321  -4.688  -3.306  1.00  0.00     0.202 C 
ENDROOT
BRANCH   1   2
ATOM      2  C   UNL     1      -3.546  -4.338  -2.447  1.00  0.00     0.261 C 
BRANCH   2   3
ATOM      3  O   UNL     1      -3.284  -4.058  -1.053  1.00  0.00    -0.459 OA
BRANCH   3   4
ATOM      4  C   UNL     1      -3.751  -5.002  -0.192  1.00  0.00     0.368 C 
ATOM      5  O   UNL     1      -4.250  -6.069  -0.551  1.00  0.00    -0.245 OA
BRANCH   4   6
ATOM      6  C   UNL     1      -3.736  -4.592   1.315  1.00  0.00     0.198 C 
ATOM      7  C   UNL     1      -1.482  -3.352   1.950  1.00  0.00     0.190 C 
ATOM      8  C   UNL     1      -1.036  -4.641   2.668  1.00  0.00     0.065 C 
ATOM      9  C   UNL     1      -3.024  -3.286   1.730  1.00  0.00     0.145 C 
ATOM     10  C   UNL     1      -1.702  -5.898   2.129  1.00  0.00     0.013 C 
ATOM     11  C   UNL     1      -3.219  -5.779   2.152  1.00  0.00     0.081 C 
BRANCH   7  12
ATOM     12  N   UNL     1      -0.924  -2.104   2.553  1.00  0.00    -0.333 N 
ATOM     13  H   UNL     1      -1.102  -1.494   1.756  1.00  0.00     0.348 HD
BRANCH  12  14
ATOM     14  C   UNL     1       0.531  -2.077   2.809  1.00  0.00     0.262 C 
BRANCH  14  15
ATOM     15  C   UNL     1       1.448  -2.245   1.593  1.00  0.00     0.061 C 
BRANCH  15  16
ATOM     16  C   UNL     1       1.185  -1.253   0.466  1.00  0.00     0.002 C 
ATOM     17  C   UNL     1       1.551   0.188   0.786  1.00  0.00     0.004 C 
ENDBRANCH  15  16
ENDBRANCH  14  15
ENDBRANCH  12  14
BRANCH  12  18
ATOM     18  C   UNL     1      -1.647  -1.514   3.698  1.00  0.00     0.258 C 
ATOM     19  C   UNL     1      -1.651  -2.308   5.002  1.00  0.00     0.071 C 
ENDBRANCH  12  18
ENDBRANCH   7  12
BRANCH   6  20
ATOM     20  N   UNL     1      -5.183  -4.425   1.679  1.00  0.00    -0.343 N 
ATOM     21  H   UNL     1      -5.258  -4.154   2.659  1.00  0.00     0.345 HD
ATOM     22  H   UNL     1      -5.675  -5.306   1.531  1.00  0.00     0.345 HD
ATOM     23  H   UNL     1      -5.599  -3.700   1.093  1.00  0.00     0.345 HD
ENDBRANCH   6  20
ENDBRANCH   4   6
ENDBRANCH   3   4
ENDBRANCH   2   3
ENDBRANCH   1   2
BRANCH   1  24
ATOM     24  O   UNL     1      -1.479  -5.753  -2.875  1.00  0.00    -0.374 OA
BRANCH  24  25
ATOM     25  C   UNL     1      -0.745  -5.563  -1.671  1.00  0.00     0.202 C 
BRANCH  25  26
ATOM     26  C   UNL     1       0.317  -4.462  -1.654  1.00  0.00     0.261 C 
BRANCH  26  27
ATOM     27  O   UNL     1      -0.242  -3.158  -1.893  1.00  0.00    -0.460 OA
BRANCH  27  28
ATOM     28  C   UNL     1       0.351  -2.483  -2.906  1.00  0.00     0.338 C 
ATOM     29  O   UNL     1       1.352  -2.834  -3.523  1.00  0.00    -0.246 OA
BRANCH  28  30
ATOM     30  C   UNL     1      -0.429  -1.301  -3.321  1.00  0.00     0.060 A 
ATOM     31  C   UNL     1      -0.601  -1.105  -4.697  1.00  0.00     0.016 A 
ATOM     32  C   UNL     1      -0.868  -0.333  -2.416  1.00  0.00     0.016 A 
ATOM     33  C   UNL     1      -1.113   0.098  -5.172  1.00  0.00     0.010 A 
ATOM     34  C   UNL     1      -1.354   0.885  -2.890  1.00  0.00     0.010 A 
ATOM     35  C   UNL     1      -1.429   1.119  -4.269  1.00  0.00    -0.014 A 
BRANCH  35  36
ATOM     36  C   UNL     1      -1.714   2.479  -4.766  1.00  0.00     0.031 A 
ATOM     37  C   UNL     1      -0.580   3.451  -4.927  1.00  0.00     0.074 A 
ATOM     38  C   UNL     1      -2.979   2.838  -5.033  1.00  0.00     0.049 A 
ATOM     39  N   UNL     1      -0.603   4.684  -5.360  1.00  0.00    -0.248 NA
ATOM     40  C   UNL     1       0.758   2.972  -4.540  1.00  0.00     0.031 C 
ATOM     41  C   UNL     1      -4.147   1.971  -4.884  1.00  0.00     0.029 A 
ATOM     42  N   UNL     1      -3.493   4.033  -5.461  1.00  0.00    -0.354 N 
ATOM     43  C   UNL     1       0.714   5.125  -5.313  1.00  0.00     0.074 A 
ATOM     44  C   UNL     1       1.506   4.041  -4.773  1.00  0.00     0.031 C 
ATOM     45  C   UNL     1      -5.250   2.674  -5.189  1.00  0.00     0.029 A 
ATOM     46  C   UNL     1      -4.862   4.037  -5.546  1.00  0.00     0.049 A 
ATOM     47  H   UNL     1      -2.934   4.812  -5.686  1.00  0.00     0.167 HD
ATOM     48  C   UNL     1       1.213   6.325  -5.694  1.00  0.00     0.037 A 
ATOM     49  C   UNL     1      -5.705   5.036  -5.868  1.00  0.00     0.037 A 
ATOM     50  C   UNL     1       0.401   7.402  -6.199  1.00  0.00     0.049 A 
ATOM     51  C   UNL     1      -5.137   6.369  -6.268  1.00  0.00     0.074 A 
ATOM     52  C   UNL     1       0.800   8.647  -6.652  1.00  0.00     0.029 A 
ATOM     53  N   UNL     1      -0.984   7.366  -6.296  1.00  0.00    -0.354 N 
ATOM     54  N   UNL     1      -3.881   6.750  -6.303  1.00  0.00    -0.248 NA
ATOM     55  C   UNL     1      -6.092   7.400  -6.692  1.00  0.00     0.031 C 
ATOM     56  C   UNL     1      -0.347   9.378  -6.982  1.00  0.00     0.029 A 
ATOM     57  C   UNL     1      -1.458   8.573  -6.780  1.00  0.00     0.049 A 
ATOM     58  H   UNL     1      -1.546   6.594  -6.057  1.00  0.00     0.167 HD
ATOM     59  C   UNL     1      -3.891   8.054  -6.782  1.00  0.00     0.074 A 
ATOM     60  C   UNL     1      -5.280   8.396  -7.021  1.00  0.00     0.031 C 
ATOM     61  C   UNL     1      -2.847   8.888  -7.014  1.00  0.00     0.037 A 
BRANCH  48  62
ATOM     62  C   UNL     1       2.697   6.535  -5.561  1.00  0.00     0.058 A 
ATOM     63  C   UNL     1       3.611   5.876  -6.401  1.00  0.00     0.135 A 
ATOM     64  C   UNL     1       3.214   7.410  -4.593  1.00  0.00     0.135 A 
ATOM     65  F   UNL     1       3.173   5.019  -7.336  1.00  0.00    -0.206 F 
ATOM     66  C   UNL     1       4.985   6.050  -6.261  1.00  0.00     0.059 A 
ATOM     67  C   UNL     1       4.584   7.617  -4.451  1.00  0.00     0.059 A 
ATOM     68  F   UNL     1       2.387   8.066  -3.764  1.00  0.00    -0.206 F 
ATOM     69  C   UNL     1       5.462   6.918  -5.278  1.00  0.00     0.060 A 
BRANCH  69  70
ATOM     70  S   UNL     1       7.247   7.119  -5.093  1.00  0.00     0.124 S 
ATOM     71  O   UNL     1       7.612   5.873  -4.425  1.00  0.00    -0.237 OA
ATOM     72  O   UNL     1       7.695   7.250  -6.476  1.00  0.00    -0.237 OA
ATOM     73  O   UNL     1       7.371   8.325  -4.281  1.00  0.00    -0.744 OA
ENDBRANCH  69  70
ENDBRANCH  48  62
BRANCH  49  74
ATOM     74  C   UNL     1      -7.166   4.780  -5.851  1.00  0.00     0.058 A 
ATOM     75  C   UNL     1      -7.883   4.608  -7.042  1.00  0.00     0.135 A 
ATOM     76  C   UNL     1      -7.856   4.619  -4.639  1.00  0.00     0.135 A 
ATOM     77  F   UNL     1      -7.265   4.754  -8.224  1.00  0.00    -0.206 F 
ATOM     78  C   UNL     1      -9.235   4.278  -7.035  1.00  0.00     0.059 A 
ATOM     79  C   UNL     1      -9.202   4.271  -4.606  1.00  0.00     0.059 A 
ATOM     80  F   UNL     1      -7.206   4.755  -3.472  1.00  0.00    -0.206 F 
ATOM     81  C   UNL     1      -9.883   4.102  -5.811  1.00  0.00     0.060 A 
BRANCH  81  82
ATOM     82  S   UNL     1     -11.611   3.578  -5.815  1.00  0.00     0.124 S 
ATOM     83  O   UNL     1     -12.290   4.803  -6.220  1.00  0.00    -0.237 OA
ATOM     84  O   UNL     1     -11.601   2.498  -6.797  1.00  0.00    -0.237 OA
ATOM     85  O   UNL     1     -11.837   3.156  -4.436  1.00  0.00    -0.744 OA
ENDBRANCH  81  82
ENDBRANCH  49  74
BRANCH  61  86
ATOM     86  C   UNL     1      -3.159  10.241  -7.586  1.00  0.00     0.058 A 
ATOM     87  C   UNL     1      -3.702  11.268  -6.799  1.00  0.00     0.135 A 
ATOM     88  C   UNL     1      -2.844  10.532  -8.924  1.00  0.00     0.135 A 
ATOM     89  F   UNL     1      -4.026  11.037  -5.517  1.00  0.00    -0.206 F 
ATOM     90  C   UNL     1      -3.936  12.535  -7.323  1.00  0.00     0.059 A 
ATOM     91  C   UNL     1      -3.048  11.799  -9.461  1.00  0.00     0.059 A 
ATOM     92  F   UNL     1      -2.314   9.586  -9.715  1.00  0.00    -0.206 F 
ATOM     93  C   UNL     1      -3.602  12.792  -8.655  1.00  0.00     0.060 A 
BRANCH  93  94
ATOM     94  S   UNL     1      -3.865  14.453  -9.310  1.00  0.00     0.124 S 
ATOM     95  O   UNL     1      -5.311  14.468  -9.502  1.00  0.00    -0.237 OA
ATOM     96  O   UNL     1      -3.360  15.299  -8.233  1.00  0.00    -0.237 OA
ATOM     97  O   UNL     1      -3.067  14.465 -10.533  1.00  0.00    -0.744 OA
ENDBRANCH  93  94
ENDBRANCH  61  86
ENDBRANCH  35  36
ENDBRANCH  28  30
ENDBRANCH  27  28
ENDBRANCH  26  27
ENDBRANCH  25  26
ENDBRANCH  24  25
ENDBRANCH   1  24
TORSDOF 23
