REMARK SMILES Cc1ccc(S(=O)(=O)n2cc(C(=O)C(=O)NCC(=O)OCCOCCOC(=O)c3ccc(-c4c5nc(c(-c6c(F)cc(S(=O)(=O)[O-])cc6F)c6ccc([nH]6)c(-c6c(F)cc(S(=O)(=O)[O-])cc6F)c6nc(c(-c7c(F)cc(S(=O)(=O)[O-])cc7F)c7ccc4[nH]7)C=C6)C=C5)cc3)c3ccccc32)cc1
REMARK SMILES IDX 22 1 21 2 20 3 18 4 19 5 17 6 16 7 14 8 15 9 12 11 13 12
REMARK SMILES IDX 11 13 9 14 10 15 100 16 95 17 99 18 96 19 98 20 97 21 6 22
REMARK SMILES IDX 7 23 8 24 5 25 1 26 2 27 3 28 102 29 4 30 101 31 23 32 24 33
REMARK SMILES IDX 25 34 26 35 27 36 28 37 29 38 30 39 94 40 31 41 93 42 32 43
REMARK SMILES IDX 33 44 34 45 87 46 35 47 92 48 86 49 88 50 36 51 91 52 85 53
REMARK SMILES IDX 84 54 37 56 71 57 50 58 70 59 51 60 54 61 69 62 89 63 52 64
REMARK SMILES IDX 53 65 68 67 90 68 55 69 38 70 39 71 48 72 40 73 41 74 47 75
REMARK SMILES IDX 49 76 42 77 43 78 44 79 45 80 46 81 72 82 73 83 82 84 74 85
REMARK SMILES IDX 75 86 81 87 83 88 76 89 77 90 78 91 79 92 80 93 56 94 57 95
REMARK SMILES IDX 66 96 58 97 59 98 65 99 67 100 60 101 61 102 62 103 63 104
REMARK SMILES IDX 64 105
REMARK H PARENT 16 10 88 55 54 66
REMARK Flexibility Score: inf
ROOT
ATOM      1  C   UNL     1     -10.119   4.309   3.409  1.00  0.00     0.202 C 
ENDROOT
BRANCH   1   2
ATOM      2  C   UNL     1      -9.778   4.833   2.042  1.00  0.00     0.261 C 
BRANCH   2   3
ATOM      3  O   UNL     1      -8.435   5.346   2.010  1.00  0.00    -0.462 OA
BRANCH   3   4
ATOM      4  C   UNL     1      -8.152   6.521   2.649  1.00  0.00     0.325 C 
ATOM      5  O   UNL     1      -8.836   7.532   2.655  1.00  0.00    -0.250 OA
BRANCH   4   6
ATOM      6  C   UNL     1      -6.809   6.425   3.360  1.00  0.00     0.239 C 
BRANCH   6   7
ATOM      7  N   UNL     1      -6.499   5.036   3.690  1.00  0.00    -0.338 N 
ATOM      8  C   UNL     1      -6.107   4.035   2.827  1.00  0.00     0.292 C 
ATOM      9  O   UNL     1      -6.106   2.881   3.240  1.00  0.00    -0.265 OA
ATOM     10  H   UNL     1      -6.580   4.786   4.639  1.00  0.00     0.164 HD
BRANCH   8  11
ATOM     11  C   UNL     1      -5.672   4.383   1.373  1.00  0.00     0.252 C 
ATOM     12  O   UNL     1      -5.798   5.538   0.979  1.00  0.00    -0.283 OA
BRANCH  11  13
ATOM     13  C   UNL     1      -5.033   3.386   0.511  1.00  0.00     0.054 A 
ATOM     14  N   UNL     1      -4.140   1.499  -0.265  1.00  0.00    -0.240 N 
ATOM     15  C   UNL     1      -4.836   2.046   0.779  1.00  0.00     0.117 A 
ATOM     16  C   UNL     1      -3.870   2.438  -1.236  1.00  0.00     0.065 A 
ATOM     17  C   UNL     1      -4.436   3.635  -0.776  1.00  0.00     0.012 A 
ATOM     18  C   UNL     1      -3.159   2.376  -2.449  1.00  0.00     0.028 A 
ATOM     19  C   UNL     1      -4.300   4.795  -1.571  1.00  0.00     0.011 A 
ATOM     20  C   UNL     1      -3.014   3.549  -3.194  1.00  0.00     0.002 A 
ATOM     21  C   UNL     1      -3.582   4.743  -2.767  1.00  0.00     0.001 A 
BRANCH  14  22
ATOM     22  S   UNL     1      -3.529  -0.086  -0.232  1.00  0.00     0.268 S 
ATOM     23  O   UNL     1      -3.789  -0.633  -1.556  1.00  0.00    -0.201 OA
ATOM     24  O   UNL     1      -4.044  -0.704   0.970  1.00  0.00    -0.201 OA
BRANCH  22  25
ATOM     25  C   UNL     1      -1.767   0.010  -0.044  1.00  0.00     0.088 A 
ATOM     26  C   UNL     1       2.530  -0.028   0.034  1.00  0.00     0.044 C 
ATOM     27  C   UNL     1       1.031  -0.009   0.043  1.00  0.00    -0.051 A 
ATOM     28  C   UNL     1       0.321  -1.212  -0.042  1.00  0.00     0.005 A 
ATOM     29  C   UNL     1       0.326   1.199   0.128  1.00  0.00     0.005 A 
ATOM     30  C   UNL     1      -1.073  -1.204  -0.090  1.00  0.00     0.022 A 
ATOM     31  C   UNL     1      -1.072   1.212   0.099  1.00  0.00     0.022 A 
ENDBRANCH  22  25
ENDBRANCH  14  22
ENDBRANCH  11  13
ENDBRANCH   8  11
ENDBRANCH   6   7
ENDBRANCH   4   6
ENDBRANCH   3   4
ENDBRANCH   2   3
ENDBRANCH   1   2
BRANCH   1  32
ATOM     32  O   UNL     1     -10.102   5.443   4.277  1.00  0.00    -0.374 OA
BRANCH  32  33
ATOM     33  C   UNL     1     -10.303   5.188   5.651  1.00  0.00     0.202 C 
BRANCH  33  34
ATOM     34  C   UNL     1     -11.539   4.341   5.977  1.00  0.00     0.261 C 
BRANCH  34  35
ATOM     35  O   UNL     1     -12.758   5.102   5.833  1.00  0.00    -0.460 OA
BRANCH  35  36
ATOM     36  C   UNL     1     -13.521   4.821   4.733  1.00  0.00     0.338 C 
ATOM     37  O   UNL     1     -14.290   3.880   4.666  1.00  0.00    -0.246 OA
BRANCH  36  38
ATOM     38  C   UNL     1     -13.297   5.845   3.673  1.00  0.00     0.060 A 
ATOM     39  C   UNL     1     -13.642   5.615   2.330  1.00  0.00     0.016 A 
ATOM     40  C   UNL     1     -12.562   6.974   4.009  1.00  0.00     0.016 A 
ATOM     41  C   UNL     1     -13.126   6.440   1.311  1.00  0.00     0.010 A 
ATOM     42  C   UNL     1     -11.961   7.699   3.006  1.00  0.00     0.010 A 
ATOM     43  C   UNL     1     -12.223   7.442   1.648  1.00  0.00    -0.014 A 
BRANCH  43  44
ATOM     44  C   UNL     1     -11.458   8.319   0.751  1.00  0.00     0.031 A 
ATOM     45  C   UNL     1     -11.690   9.781   0.912  1.00  0.00     0.074 A 
ATOM     46  C   UNL     1     -10.332   7.884   0.127  1.00  0.00     0.049 A 
ATOM     47  N   UNL     1     -11.054  10.691   0.271  1.00  0.00    -0.248 NA
ATOM     48  C   UNL     1     -12.671  10.350   1.836  1.00  0.00     0.031 C 
ATOM     49  C   UNL     1      -9.133   8.668  -0.193  1.00  0.00     0.029 A 
ATOM     50  N   UNL     1      -9.984   6.611  -0.350  1.00  0.00    -0.354 N 
ATOM     51  C   UNL     1     -11.273  11.903   0.887  1.00  0.00     0.074 A 
ATOM     52  C   UNL     1     -12.347  11.647   1.811  1.00  0.00     0.031 C 
ATOM     53  C   UNL     1      -8.354   7.983  -1.048  1.00  0.00     0.029 A 
ATOM     54  C   UNL     1      -9.097   6.797  -1.427  1.00  0.00     0.049 A 
ATOM     55  H   UNL     1     -10.302   5.748   0.002  1.00  0.00     0.167 HD
ATOM     56  C   UNL     1     -10.423  12.926   0.581  1.00  0.00     0.037 A 
ATOM     57  C   UNL     1      -9.428   6.398  -2.684  1.00  0.00     0.037 A 
ATOM     58  C   UNL     1      -9.529  12.508  -0.511  1.00  0.00     0.049 A 
ATOM     59  C   UNL     1      -9.478   7.604  -3.578  1.00  0.00     0.074 A 
ATOM     60  C   UNL     1      -8.205  12.106  -0.568  1.00  0.00     0.029 A 
ATOM     61  N   UNL     1     -10.099  12.138  -1.727  1.00  0.00    -0.354 N 
ATOM     62  N   UNL     1      -9.689   8.810  -3.123  1.00  0.00    -0.248 NA
ATOM     63  C   UNL     1      -9.175   7.589  -5.002  1.00  0.00     0.031 C 
ATOM     64  C   UNL     1      -7.998  11.463  -1.822  1.00  0.00     0.029 A 
ATOM     65  C   UNL     1      -9.190  11.487  -2.534  1.00  0.00     0.049 A 
ATOM     66  H   UNL     1     -11.034  12.319  -1.979  1.00  0.00     0.167 HD
ATOM     67  C   UNL     1      -9.487   9.720  -4.117  1.00  0.00     0.074 A 
ATOM     68  C   UNL     1      -9.192   8.905  -5.282  1.00  0.00     0.031 C 
ATOM     69  C   UNL     1      -9.559  11.064  -3.884  1.00  0.00     0.037 A 
BRANCH  56  70
ATOM     70  C   UNL     1     -10.257  14.246   1.320  1.00  0.00     0.058 A 
ATOM     71  C   UNL     1      -9.140  15.074   1.048  1.00  0.00     0.135 A 
ATOM     72  C   UNL     1     -11.115  14.759   2.316  1.00  0.00     0.135 A 
ATOM     73  F   UNL     1      -8.233  14.747   0.118  1.00  0.00    -0.206 F 
ATOM     74  C   UNL     1      -8.887  16.275   1.718  1.00  0.00     0.059 A 
ATOM     75  C   UNL     1     -10.876  15.951   3.010  1.00  0.00     0.059 A 
ATOM     76  F   UNL     1     -12.251  14.153   2.664  1.00  0.00    -0.206 F 
ATOM     77  C   UNL     1      -9.758  16.706   2.705  1.00  0.00     0.060 A 
BRANCH  77  78
ATOM     78  S   UNL     1      -9.421  18.256   3.558  1.00  0.00     0.124 S 
ATOM     79  O   UNL     1      -8.120  17.994   4.164  1.00  0.00    -0.237 OA
ATOM     80  O   UNL     1      -9.430  19.218   2.461  1.00  0.00    -0.237 OA
ATOM     81  O   UNL     1     -10.530  18.377   4.500  1.00  0.00    -0.744 OA
ENDBRANCH  77  78
ENDBRANCH  56  70
BRANCH  57  82
ATOM     82  C   UNL     1     -10.297   5.180  -2.663  1.00  0.00     0.058 A 
ATOM     83  C   UNL     1      -9.685   3.980  -2.231  1.00  0.00     0.135 A 
ATOM     84  C   UNL     1     -11.685   5.285  -2.484  1.00  0.00     0.135 A 
ATOM     85  F   UNL     1      -8.359   3.815  -2.380  1.00  0.00    -0.206 F 
ATOM     86  C   UNL     1     -10.375   3.021  -1.489  1.00  0.00     0.059 A 
ATOM     87  C   UNL     1     -12.395   4.333  -1.741  1.00  0.00     0.059 A 
ATOM     88  F   UNL     1     -12.333   6.392  -2.874  1.00  0.00    -0.206 F 
ATOM     89  C   UNL     1     -11.717   3.243  -1.189  1.00  0.00     0.060 A 
BRANCH  89  90
ATOM     90  S   UNL     1     -12.489   2.220   0.097  1.00  0.00     0.124 S 
ATOM     91  O   UNL     1     -12.611   0.931  -0.572  1.00  0.00    -0.237 OA
ATOM     92  O   UNL     1     -11.506   2.281   1.177  1.00  0.00    -0.237 OA
ATOM     93  O   UNL     1     -13.743   2.913   0.370  1.00  0.00    -0.744 OA
ENDBRANCH  89  90
ENDBRANCH  57  82
BRANCH  69  94
ATOM     94  C   UNL     1      -9.910  12.108  -4.922  1.00  0.00     0.058 A 
ATOM     95  C   UNL     1     -10.420  11.809  -6.197  1.00  0.00     0.135 A 
ATOM     96  C   UNL     1      -9.901  13.490  -4.594  1.00  0.00     0.135 A 
ATOM     97  F   UNL     1     -10.630  10.551  -6.604  1.00  0.00    -0.206 F 
ATOM     98  C   UNL     1     -10.792  12.794  -7.107  1.00  0.00     0.059 A 
ATOM     99  C   UNL     1     -10.346  14.484  -5.457  1.00  0.00     0.059 A 
ATOM    100  F   UNL     1      -9.482  13.942  -3.404  1.00  0.00    -0.206 F 
ATOM    101  C   UNL     1     -10.751  14.129  -6.730  1.00  0.00     0.060 A 
BRANCH 101 102
ATOM    102  S   UNL     1     -11.256  15.381  -7.911  1.00  0.00     0.124 S 
ATOM    103  O   UNL     1     -10.085  15.442  -8.780  1.00  0.00    -0.237 OA
ATOM    104  O   UNL     1     -12.453  14.789  -8.503  1.00  0.00    -0.237 OA
ATOM    105  O   UNL     1     -11.491  16.558  -7.082  1.00  0.00    -0.744 OA
ENDBRANCH 101 102
ENDBRANCH  69  94
ENDBRANCH  43  44
ENDBRANCH  36  38
ENDBRANCH  35  36
ENDBRANCH  34  35
ENDBRANCH  33  34
ENDBRANCH  32  33
ENDBRANCH   1  32
TORSDOF 22
