REMARK SMILES Cc1ccc(-c2cc(Cl)cc3c2O[C@@H](C(F)(F)F)C(C(=O)OCCOCCOC(=O)c2ccc(-c4c5nc(c(-c6c(F)cc(S(=O)(=O)[O-])cc6F)c6ccc([nH]6)c(-c6c(F)cc(S(=O)(=O)[O-])cc6F)c6nc(c(-c7c(F)cc(S(=O)(=O)[O-])cc7F)c7ccc4[nH]7)C=C6)C=C5)cc2)=C3)cc1
REMARK SMILES IDX 26 1 25 2 24 3 23 4 22 5 20 6 21 7 19 8 6 9 7 10 12 11 8 12
REMARK SMILES IDX 11 13 13 14 9 15 10 16 97 17 14 18 5 19 1 20 2 21 3 22 99 23
REMARK SMILES IDX 4 24 98 25 15 26 16 27 17 28 18 29 27 30 28 31 29 32 30 33
REMARK SMILES IDX 31 34 32 35 96 36 33 37 95 38 34 39 35 40 36 41 89 42 37 43
REMARK SMILES IDX 94 44 88 45 90 46 38 47 93 48 87 49 86 50 39 52 73 53 52 54
REMARK SMILES IDX 72 55 53 56 56 57 71 58 91 59 54 60 55 61 70 63 92 64 57 65
REMARK SMILES IDX 40 66 41 67 50 68 42 69 43 70 49 71 51 72 44 73 45 74 46 75
REMARK SMILES IDX 47 76 48 77 74 78 75 79 84 80 76 81 77 82 83 83 85 84 78 85
REMARK SMILES IDX 79 86 80 87 81 88 82 89 58 90 59 91 68 92 60 93 61 94 67 95
REMARK SMILES IDX 69 96 62 97 63 98 64 99 65 100 66 101
REMARK H PARENT 90 51 56 62
REMARK Flexibility Score: inf
ROOT
ATOM      1  C   UNL     1      -3.555  -4.711   1.869  1.00  0.00     0.202 C 
ENDROOT
BRANCH   1   2
ATOM      2  O   UNL     1      -3.233  -3.757   0.866  1.00  0.00    -0.374 OA
BRANCH   2   3
ATOM      3  C   UNL     1      -2.275  -2.775   1.202  1.00  0.00     0.202 C 
BRANCH   3   4
ATOM      4  C   UNL     1      -2.551  -1.721   2.281  1.00  0.00     0.261 C 
BRANCH   4   5
ATOM      5  O   UNL     1      -3.917  -1.427   2.549  1.00  0.00    -0.460 OA
BRANCH   5   6
ATOM      6  C   UNL     1      -4.420  -0.162   2.446  1.00  0.00     0.338 C 
ATOM      7  O   UNL     1      -3.818   0.859   2.249  1.00  0.00    -0.246 OA
BRANCH   6   8
ATOM      8  C   UNL     1      -5.947  -0.286   2.362  1.00  0.00     0.087 C 
ATOM      9  C   UNL     1      -4.468  -0.384  -1.243  1.00  0.00     0.026 A 
ATOM     10  C   UNL     1      -4.924   0.497  -2.245  1.00  0.00     0.033 A 
ATOM     11  C   UNL     1      -5.361  -0.610  -0.172  1.00  0.00     0.135 A 
ATOM     12  C   UNL     1      -6.042   1.308  -2.039  1.00  0.00     0.042 A 
ATOM     13  C   UNL     1      -6.244   0.445   0.174  1.00  0.00     0.019 A 
ATOM     14  O   UNL     1      -5.384  -1.796   0.606  1.00  0.00    -0.475 OA
ATOM     15  Cl  UNL     1      -6.542   2.392  -3.275  1.00  0.00    -0.084 Cl
ATOM     16  C   UNL     1      -6.647   1.357  -0.790  1.00  0.00     0.032 A 
ATOM     17  C   UNL     1      -6.601   0.633   1.616  1.00  0.00     0.027 C 
ATOM     18  C   UNL     1      -6.267  -1.658   1.805  1.00  0.00     0.316 C 
BRANCH   9  19
ATOM     19  C   UNL     1      -2.972  -0.362  -1.105  1.00  0.00    -0.015 A 
ATOM     20  C   UNL     1       1.369   0.051  -0.685  1.00  0.00     0.044 C 
ATOM     21  C   UNL     1      -0.117  -0.061  -0.887  1.00  0.00    -0.051 A 
ATOM     22  C   UNL     1      -0.690  -1.107  -1.626  1.00  0.00     0.004 A 
ATOM     23  C   UNL     1      -0.975   0.857  -0.288  1.00  0.00     0.004 A 
ATOM     24  C   UNL     1      -2.096  -1.235  -1.764  1.00  0.00     0.009 A 
ATOM     25  C   UNL     1      -2.366   0.709  -0.403  1.00  0.00     0.009 A 
ENDBRANCH   9  19
BRANCH  18  26
ATOM     26  C   UNL     1      -6.368  -2.692   2.963  1.00  0.00     0.430 C 
ATOM     27  F   UNL     1      -7.333  -2.257   3.836  1.00  0.00    -0.167 F 
ATOM     28  F   UNL     1      -6.805  -3.893   2.516  1.00  0.00    -0.167 F 
ATOM     29  F   UNL     1      -5.284  -2.899   3.727  1.00  0.00    -0.167 F 
ENDBRANCH  18  26
ENDBRANCH   6   8
ENDBRANCH   5   6
ENDBRANCH   4   5
ENDBRANCH   3   4
ENDBRANCH   2   3
ENDBRANCH   1   2
BRANCH   1  30
ATOM     30  C   UNL     1      -2.414  -5.548   2.466  1.00  0.00     0.261 C 
BRANCH  30  31
ATOM     31  O   UNL     1      -1.503  -4.743   3.241  1.00  0.00    -0.460 OA
BRANCH  31  32
ATOM     32  C   UNL     1      -0.169  -5.011   3.107  1.00  0.00     0.338 C 
ATOM     33  O   UNL     1       0.369  -5.861   2.422  1.00  0.00    -0.246 OA
BRANCH  32  34
ATOM     34  C   UNL     1       0.518  -3.796   3.610  1.00  0.00     0.060 A 
ATOM     35  C   UNL     1       0.456  -3.444   4.955  1.00  0.00     0.016 A 
ATOM     36  C   UNL     1       0.804  -2.834   2.641  1.00  0.00     0.016 A 
ATOM     37  C   UNL     1       0.405  -2.091   5.297  1.00  0.00     0.010 A 
ATOM     38  C   UNL     1       0.626  -1.496   2.971  1.00  0.00     0.010 A 
ATOM     39  C   UNL     1       0.281  -1.134   4.280  1.00  0.00    -0.014 A 
BRANCH  39  40
ATOM     40  C   UNL     1      -0.609   0.038   4.473  1.00  0.00     0.031 A 
ATOM     41  C   UNL     1      -0.296   1.413   3.998  1.00  0.00     0.074 A 
ATOM     42  C   UNL     1      -1.870  -0.187   4.945  1.00  0.00     0.049 A 
ATOM     43  N   UNL     1      -0.898   2.456   4.462  1.00  0.00    -0.248 NA
ATOM     44  C   UNL     1       0.712   1.777   3.004  1.00  0.00     0.031 C 
ATOM     45  C   UNL     1      -3.012   0.726   4.963  1.00  0.00     0.029 A 
ATOM     46  N   UNL     1      -2.415  -1.334   5.510  1.00  0.00    -0.354 N 
ATOM     47  C   UNL     1      -0.678   3.506   3.605  1.00  0.00     0.074 A 
ATOM     48  C   UNL     1       0.449   3.079   2.815  1.00  0.00     0.031 C 
ATOM     49  C   UNL     1      -4.040   0.174   5.625  1.00  0.00     0.029 A 
ATOM     50  C   UNL     1      -3.580  -1.062   6.220  1.00  0.00     0.049 A 
ATOM     51  H   UNL     1      -2.023  -2.233   5.418  1.00  0.00     0.167 HD
ATOM     52  C   UNL     1      -1.553   4.556   3.603  1.00  0.00     0.037 A 
ATOM     53  C   UNL     1      -3.579  -1.290   7.565  1.00  0.00     0.037 A 
ATOM     54  C   UNL     1      -2.485   4.472   4.747  1.00  0.00     0.049 A 
ATOM     55  C   UNL     1      -3.301  -0.014   8.356  1.00  0.00     0.074 A 
ATOM     56  C   UNL     1      -3.858   4.374   4.895  1.00  0.00     0.029 A 
ATOM     57  N   UNL     1      -1.957   4.234   6.023  1.00  0.00    -0.354 N 
ATOM     58  N   UNL     1      -3.214   1.166   7.792  1.00  0.00    -0.248 NA
ATOM     59  C   UNL     1      -3.119   0.096   9.800  1.00  0.00     0.031 C 
ATOM     60  C   UNL     1      -4.124   3.910   6.225  1.00  0.00     0.029 A 
ATOM     61  C   UNL     1      -2.924   3.786   6.909  1.00  0.00     0.049 A 
ATOM     62  H   UNL     1      -1.012   4.370   6.262  1.00  0.00     0.167 HD
ATOM     63  C   UNL     1      -2.856   2.133   8.684  1.00  0.00     0.074 A 
ATOM     64  C   UNL     1      -2.868   1.415   9.949  1.00  0.00     0.031 C 
ATOM     65  C   UNL     1      -2.553   3.413   8.287  1.00  0.00     0.037 A 
BRANCH  52  66
ATOM     66  C   UNL     1      -1.633   5.610   2.501  1.00  0.00     0.058 A 
ATOM     67  C   UNL     1      -2.346   6.816   2.685  1.00  0.00     0.135 A 
ATOM     68  C   UNL     1      -1.078   5.463   1.207  1.00  0.00     0.135 A 
ATOM     69  F   UNL     1      -2.989   7.065   3.836  1.00  0.00    -0.206 F 
ATOM     70  C   UNL     1      -2.443   7.812   1.697  1.00  0.00     0.059 A 
ATOM     71  C   UNL     1      -1.116   6.461   0.225  1.00  0.00     0.059 A 
ATOM     72  F   UNL     1      -0.517   4.314   0.806  1.00  0.00    -0.206 F 
ATOM     73  C   UNL     1      -1.804   7.637   0.474  1.00  0.00     0.060 A 
BRANCH  73  74
ATOM     74  S   UNL     1      -1.878   8.937  -0.780  1.00  0.00     0.124 S 
ATOM     75  O   UNL     1      -3.273   8.874  -1.202  1.00  0.00    -0.237 OA
ATOM     76  O   UNL     1      -1.494  10.125  -0.025  1.00  0.00    -0.237 OA
ATOM     77  O   UNL     1      -0.905   8.502  -1.779  1.00  0.00    -0.744 OA
ENDBRANCH  73  74
ENDBRANCH  52  66
BRANCH  53  78
ATOM     78  C   UNL     1      -3.400  -2.752   7.835  1.00  0.00     0.058 A 
ATOM     79  C   UNL     1      -4.522  -3.555   7.524  1.00  0.00     0.135 A 
ATOM     80  C   UNL     1      -2.156  -3.407   7.821  1.00  0.00     0.135 A 
ATOM     81  F   UNL     1      -5.747  -3.003   7.524  1.00  0.00    -0.206 F 
ATOM     82  C   UNL     1      -4.414  -4.875   7.077  1.00  0.00     0.059 A 
ATOM     83  C   UNL     1      -2.024  -4.739   7.385  1.00  0.00     0.059 A 
ATOM     84  F   UNL     1      -1.033  -2.729   8.100  1.00  0.00    -0.206 F 
ATOM     85  C   UNL     1      -3.153  -5.450   6.970  1.00  0.00     0.060 A 
BRANCH  85  86
ATOM     86  S   UNL     1      -2.968  -7.053   6.138  1.00  0.00     0.124 S 
ATOM     87  O   UNL     1      -2.986  -7.980   7.262  1.00  0.00    -0.237 OA
ATOM     88  O   UNL     1      -4.132  -7.104   5.256  1.00  0.00    -0.237 OA
ATOM     89  O   UNL     1      -1.685  -6.910   5.455  1.00  0.00    -0.744 OA
ENDBRANCH  85  86
ENDBRANCH  53  78
BRANCH  65  90
ATOM     90  C   UNL     1      -1.891   4.471   9.157  1.00  0.00     0.058 A 
ATOM     91  C   UNL     1      -1.059   4.192  10.255  1.00  0.00     0.135 A 
ATOM     92  C   UNL     1      -1.964   5.842   8.794  1.00  0.00     0.135 A 
ATOM     93  F   UNL     1      -0.808   2.935  10.645  1.00  0.00    -0.206 F 
ATOM     94  C   UNL     1      -0.400   5.194  10.974  1.00  0.00     0.059 A 
ATOM     95  C   UNL     1      -1.259   6.847   9.451  1.00  0.00     0.059 A 
ATOM     96  F   UNL     1      -2.720   6.256   7.765  1.00  0.00    -0.206 F 
ATOM     97  C   UNL     1      -0.501   6.519  10.562  1.00  0.00     0.060 A 
BRANCH  97  98
ATOM     98  S   UNL     1       0.403   7.803  11.445  1.00  0.00     0.124 S 
ATOM     99  O   UNL     1      -0.560   8.182  12.473  1.00  0.00    -0.237 OA
ATOM    100  O   UNL     1       1.589   7.096  11.921  1.00  0.00    -0.237 OA
ATOM    101  O   UNL     1       0.655   8.804  10.413  1.00  0.00    -0.744 OA
ENDBRANCH  97  98
ENDBRANCH  65  90
ENDBRANCH  39  40
ENDBRANCH  32  34
ENDBRANCH  31  32
ENDBRANCH  30  31
ENDBRANCH   1  30
TORSDOF 19
