REMARK SMILES C[C@@H]1CN(C(=O)NC[C@@H]2CC[C@H](C(=O)OCCOCCOC(=O)c3ccc(-c4c5nc(c(-c6c(F)cc(S(=O)(=O)[O-])cc6F)c6ccc([nH]6)c(-c6c(F)cc(S(=O)(=O)[O-])cc6F)c6nc(c(-c7c(F)cc(S(=O)(=O)[O-])cc7F)c7ccc4[nH]7)C=C6)C=C5)cc3)O2)CC(C)(C)O1
REMARK SMILES IDX 18 1 17 2 16 3 15 4 13 5 14 6 12 7 9 8 10 9 90 10 11 11 8 12
REMARK SMILES IDX 7 13 5 14 6 15 4 17 1 18 2 19 3 20 95 21 92 22 91 23 93 24
REMARK SMILES IDX 94 25 19 26 20 27 21 28 22 29 23 30 24 31 25 32 89 33 26 34
REMARK SMILES IDX 88 35 27 36 28 37 29 38 82 39 30 40 87 41 81 42 83 43 31 44
REMARK SMILES IDX 86 45 80 46 79 47 32 49 66 50 45 51 65 52 46 53 49 54 64 55
REMARK SMILES IDX 84 56 47 57 48 58 63 60 85 61 50 62 33 63 34 64 43 65 35 66
REMARK SMILES IDX 36 67 42 68 44 69 37 70 38 71 39 72 40 73 41 74 67 75 68 76
REMARK SMILES IDX 77 77 69 78 70 79 76 80 78 81 71 82 72 83 73 84 74 85 75 86
REMARK SMILES IDX 51 87 52 88 61 89 53 90 54 91 60 92 62 93 55 94 56 95 57 96
REMARK SMILES IDX 58 97 59 98
REMARK H PARENT 7 16 83 48 49 59
REMARK Flexibility Score: inf
ROOT
ATOM      1  O   UNL     1       0.644  -9.368  -3.818  1.00  0.00    -0.374 OA
ENDROOT
BRANCH   1   2
ATOM      2  C   UNL     1      -0.065  -8.139  -3.988  1.00  0.00     0.202 C 
BRANCH   2   3
ATOM      3  C   UNL     1      -0.139  -7.206  -2.775  1.00  0.00     0.261 C 
BRANCH   3   4
ATOM      4  O   UNL     1       1.147  -6.681  -2.391  1.00  0.00    -0.461 OA
BRANCH   4   5
ATOM      5  C   UNL     1       1.589  -7.044  -1.155  1.00  0.00     0.335 C 
ATOM      6  O   UNL     1       1.005  -7.814  -0.398  1.00  0.00    -0.249 OA
BRANCH   5   7
ATOM      7  C   UNL     1       2.927  -6.393  -0.789  1.00  0.00     0.228 C 
ATOM      8  C   UNL     1       3.758  -4.243  -1.115  1.00  0.00     0.138 C 
ATOM      9  C   UNL     1       4.092  -5.038  -2.366  1.00  0.00     0.037 C 
ATOM     10  O   UNL     1       2.777  -5.018  -0.410  1.00  0.00    -0.361 OA
ATOM     11  C   UNL     1       4.009  -6.456  -1.863  1.00  0.00     0.047 C 
BRANCH   8  12
ATOM     12  C   UNL     1       3.280  -2.812  -1.382  1.00  0.00     0.149 C 
BRANCH  12  13
ATOM     13  N   UNL     1       2.200  -2.756  -2.350  1.00  0.00    -0.335 N 
ATOM     14  C   UNL     1       0.865  -2.693  -2.350  1.00  0.00     0.317 C 
ATOM     15  O   UNL     1       0.365  -2.720  -3.481  1.00  0.00    -0.249 OA
ATOM     16  H   UNL     1       2.552  -2.768  -3.270  1.00  0.00     0.165 HD
BRANCH  14  17
ATOM     17  N   UNL     1       0.102  -2.562  -1.239  1.00  0.00    -0.319 N 
ATOM     18  C   UNL     1       1.392  -0.292   0.677  1.00  0.00     0.040 C 
ATOM     19  C   UNL     1       0.241  -1.273   0.872  1.00  0.00     0.135 C 
ATOM     20  C   UNL     1       0.446  -2.632   0.176  1.00  0.00     0.153 C 
ATOM     21  O   UNL     1      -1.030  -0.679   0.571  1.00  0.00    -0.369 OA
ATOM     22  C   UNL     1      -1.462  -0.703  -0.809  1.00  0.00     0.081 C 
ATOM     23  C   UNL     1      -1.284  -2.114  -1.419  1.00  0.00     0.156 C 
ATOM     24  C   UNL     1      -0.743   0.355  -1.653  1.00  0.00     0.044 C 
ATOM     25  C   UNL     1      -2.956  -0.351  -0.784  1.00  0.00     0.044 C 
ENDBRANCH  14  17
ENDBRANCH  12  13
ENDBRANCH   8  12
ENDBRANCH   5   7
ENDBRANCH   4   5
ENDBRANCH   3   4
ENDBRANCH   2   3
ENDBRANCH   1   2
BRANCH   1  26
ATOM     26  C   UNL     1       2.067  -9.297  -3.803  1.00  0.00     0.202 C 
BRANCH  26  27
ATOM     27  C   UNL     1       2.762  -9.064  -5.153  1.00  0.00     0.261 C 
BRANCH  27  28
ATOM     28  O   UNL     1       2.443  -7.785  -5.732  1.00  0.00    -0.460 OA
BRANCH  28  29
ATOM     29  C   UNL     1       1.812  -7.846  -6.935  1.00  0.00     0.338 C 
ATOM     30  O   UNL     1       1.589  -8.844  -7.599  1.00  0.00    -0.246 OA
BRANCH  29  31
ATOM     31  C   UNL     1       1.259  -6.523  -7.285  1.00  0.00     0.060 A 
ATOM     32  C   UNL     1      -0.131  -6.410  -7.415  1.00  0.00     0.016 A 
ATOM     33  C   UNL     1       2.086  -5.431  -7.556  1.00  0.00     0.016 A 
ATOM     34  C   UNL     1      -0.699  -5.205  -7.830  1.00  0.00     0.010 A 
ATOM     35  C   UNL     1       1.513  -4.228  -7.987  1.00  0.00     0.010 A 
ATOM     36  C   UNL     1       0.120  -4.111  -8.142  1.00  0.00    -0.014 A 
BRANCH  36  37
ATOM     37  C   UNL     1      -0.478  -2.875  -8.708  1.00  0.00     0.031 A 
ATOM     38  C   UNL     1      -0.447  -2.646 -10.196  1.00  0.00     0.074 A 
ATOM     39  C   UNL     1      -1.057  -1.966  -7.901  1.00  0.00     0.049 A 
ATOM     40  N   UNL     1      -0.843  -1.604 -10.882  1.00  0.00    -0.248 NA
ATOM     41  C   UNL     1       0.106  -3.732 -11.020  1.00  0.00     0.031 C 
ATOM     42  C   UNL     1      -1.174  -2.075  -6.447  1.00  0.00     0.029 A 
ATOM     43  N   UNL     1      -1.644  -0.759  -8.193  1.00  0.00    -0.354 N 
ATOM     44  C   UNL     1      -0.587  -1.905 -12.214  1.00  0.00     0.074 A 
ATOM     45  C   UNL     1       0.018  -3.220 -12.240  1.00  0.00     0.031 C 
ATOM     46  C   UNL     1      -1.775  -0.970  -5.971  1.00  0.00     0.029 A 
ATOM     47  C   UNL     1      -2.066  -0.068  -7.082  1.00  0.00     0.049 A 
ATOM     48  H   UNL     1      -1.753  -0.421  -9.111  1.00  0.00     0.167 HD
ATOM     49  C   UNL     1      -0.837  -1.155 -13.315  1.00  0.00     0.037 A 
ATOM     50  C   UNL     1      -2.595   1.165  -6.973  1.00  0.00     0.037 A 
ATOM     51  C   UNL     1      -1.438   0.155 -13.288  1.00  0.00     0.049 A 
ATOM     52  C   UNL     1      -2.795   2.005  -8.204  1.00  0.00     0.074 A 
ATOM     53  C   UNL     1      -1.749   0.980 -14.356  1.00  0.00     0.029 A 
ATOM     54  N   UNL     1      -1.813   0.833 -12.140  1.00  0.00    -0.354 N 
ATOM     55  N   UNL     1      -2.545   1.708  -9.456  1.00  0.00    -0.248 NA
ATOM     56  C   UNL     1      -3.339   3.356  -8.000  1.00  0.00     0.031 C 
ATOM     57  C   UNL     1      -2.270   2.176 -13.851  1.00  0.00     0.029 A 
ATOM     58  C   UNL     1      -2.325   2.078 -12.471  1.00  0.00     0.049 A 
ATOM     59  H   UNL     1      -1.729   0.483 -11.223  1.00  0.00     0.167 HD
ATOM     60  C   UNL     1      -2.896   2.837 -10.187  1.00  0.00     0.074 A 
ATOM     61  C   UNL     1      -3.400   3.812  -9.243  1.00  0.00     0.031 C 
ATOM     62  C   UNL     1      -2.802   3.049 -11.521  1.00  0.00     0.037 A 
BRANCH  49  63
ATOM     63  C   UNL     1      -0.453  -1.718 -14.654  1.00  0.00     0.058 A 
ATOM     64  C   UNL     1      -1.205  -2.731 -15.267  1.00  0.00     0.135 A 
ATOM     65  C   UNL     1       0.630  -1.180 -15.368  1.00  0.00     0.135 A 
ATOM     66  F   UNL     1      -2.241  -3.290 -14.621  1.00  0.00    -0.206 F 
ATOM     67  C   UNL     1      -0.895  -3.196 -16.541  1.00  0.00     0.059 A 
ATOM     68  C   UNL     1       0.946  -1.615 -16.652  1.00  0.00     0.059 A 
ATOM     69  F   UNL     1       1.383  -0.211 -14.825  1.00  0.00    -0.206 F 
ATOM     70  C   UNL     1       0.180  -2.628 -17.228  1.00  0.00     0.060 A 
BRANCH  70  71
ATOM     71  S   UNL     1       0.546  -3.216 -18.895  1.00  0.00     0.124 S 
ATOM     72  O   UNL     1       1.113  -4.532 -18.622  1.00  0.00    -0.237 OA
ATOM     73  O   UNL     1      -0.770  -3.211 -19.524  1.00  0.00    -0.237 OA
ATOM     74  O   UNL     1       1.486  -2.223 -19.408  1.00  0.00    -0.744 OA
ENDBRANCH  70  71
ENDBRANCH  49  63
BRANCH  50  75
ATOM     75  C   UNL     1      -2.923   1.734  -5.643  1.00  0.00     0.058 A 
ATOM     76  C   UNL     1      -4.250   1.829  -5.202  1.00  0.00     0.135 A 
ATOM     77  C   UNL     1      -1.915   2.261  -4.825  1.00  0.00     0.135 A 
ATOM     78  F   UNL     1      -5.247   1.367  -5.971  1.00  0.00    -0.206 F 
ATOM     79  C   UNL     1      -4.569   2.433  -3.990  1.00  0.00     0.059 A 
ATOM     80  C   UNL     1      -2.210   2.867  -3.609  1.00  0.00     0.059 A 
ATOM     81  F   UNL     1      -0.630   2.184  -5.204  1.00  0.00    -0.206 F 
ATOM     82  C   UNL     1      -3.541   2.951  -3.201  1.00  0.00     0.060 A 
BRANCH  82  83
ATOM     83  S   UNL     1      -3.943   3.679  -1.599  1.00  0.00     0.124 S 
ATOM     84  O   UNL     1      -4.314   5.037  -1.979  1.00  0.00    -0.237 OA
ATOM     85  O   UNL     1      -5.033   2.826  -1.132  1.00  0.00    -0.237 OA
ATOM     86  O   UNL     1      -2.694   3.547  -0.857  1.00  0.00    -0.744 OA
ENDBRANCH  82  83
ENDBRANCH  50  75
BRANCH  62  87
ATOM     87  C   UNL     1      -3.246   4.388 -12.037  1.00  0.00     0.058 A 
ATOM     88  C   UNL     1      -2.463   5.538 -11.849  1.00  0.00     0.135 A 
ATOM     89  C   UNL     1      -4.445   4.518 -12.755  1.00  0.00     0.135 A 
ATOM     90  F   UNL     1      -1.314   5.468 -11.160  1.00  0.00    -0.206 F 
ATOM     91  C   UNL     1      -2.864   6.776 -12.340  1.00  0.00     0.059 A 
ATOM     92  C   UNL     1      -4.853   5.742 -13.275  1.00  0.00     0.059 A 
ATOM     93  F   UNL     1      -5.227   3.447 -12.965  1.00  0.00    -0.206 F 
ATOM     94  C   UNL     1      -4.060   6.868 -13.054  1.00  0.00     0.060 A 
BRANCH  94  95
ATOM     95  S   UNL     1      -4.551   8.474 -13.716  1.00  0.00     0.124 S 
ATOM     96  O   UNL     1      -4.995   9.166 -12.511  1.00  0.00    -0.237 OA
ATOM     97  O   UNL     1      -3.309   8.962 -14.307  1.00  0.00    -0.237 OA
ATOM     98  O   UNL     1      -5.604   8.140 -14.671  1.00  0.00    -0.744 OA
ENDBRANCH  94  95
ENDBRANCH  62  87
ENDBRANCH  36  37
ENDBRANCH  29  31
ENDBRANCH  28  29
ENDBRANCH  27  28
ENDBRANCH  26  27
ENDBRANCH   1  26
TORSDOF 20
