REMARK SMILES CCCC(=O)Nc1cccc(C(=O)N[C@@H](C(=O)OCCOCCOC(=O)c2ccc(-c3c4nc(c(-c5c(F)cc(S(=O)(=O)[O-])cc5F)c5ccc([nH]5)c(-c5c(F)cc(S(=O)(=O)[O-])cc5F)c5nc(c(-c6c(F)cc(S(=O)(=O)[O-])cc6F)c6ccc3[nH]6)C=C5)C=C4)cc2)C2=C(C)N=N[C@@H]2C)c1
REMARK SMILES IDX 20 1 19 2 18 3 16 4 17 5 15 6 14 7 12 8 13 9 11 11 7 12 8 13
REMARK SMILES IDX 100 14 9 15 10 16 6 17 4 18 5 19 3 21 2 22 1 23 93 24 94 25
REMARK SMILES IDX 98 26 95 27 96 28 97 29 99 30 21 31 22 32 23 33 24 34 25 35
REMARK SMILES IDX 26 36 27 37 28 38 92 39 29 40 91 41 30 42 31 43 32 44 85 45
REMARK SMILES IDX 33 46 90 47 84 48 86 49 34 50 89 51 83 52 82 53 35 55 69 56
REMARK SMILES IDX 48 57 68 58 49 59 52 60 67 61 87 62 50 63 51 64 66 66 88 67
REMARK SMILES IDX 53 68 36 69 37 70 46 71 38 72 39 73 45 74 47 75 40 76 41 77
REMARK SMILES IDX 42 78 43 79 44 80 70 81 71 82 80 83 72 84 73 85 79 86 81 87
REMARK SMILES IDX 74 88 75 89 76 90 77 91 78 92 54 93 55 94 64 95 56 96 57 97
REMARK SMILES IDX 63 98 65 99 58 100 59 101 60 102 61 103 62 104
REMARK H PARENT 14 10 6 20 86 54 52 65
REMARK Flexibility Score: inf
ROOT
ATOM      1  C   UNL     1      -4.446  -2.171   0.809  1.00  0.00     0.202 C 
ENDROOT
BRANCH   1   2
ATOM      2  C   UNL     1      -3.680  -1.246  -0.143  1.00  0.00     0.261 C 
BRANCH   2   3
ATOM      3  O   UNL     1      -2.271  -1.246   0.115  1.00  0.00    -0.461 OA
BRANCH   3   4
ATOM      4  C   UNL     1      -1.822  -0.143   0.780  1.00  0.00     0.333 C 
ATOM      5  O   UNL     1      -2.512   0.846   0.995  1.00  0.00    -0.249 OA
BRANCH   4   6
ATOM      6  C   UNL     1      -0.342  -0.300   1.253  1.00  0.00     0.223 C 
BRANCH   6   7
ATOM      7  N   UNL     1       0.217  -1.622   0.938  1.00  0.00    -0.335 N 
ATOM      8  C   UNL     1       0.939  -2.098  -0.137  1.00  0.00     0.252 C 
ATOM      9  O   UNL     1       1.206  -3.300  -0.152  1.00  0.00    -0.269 OA
ATOM     10  H   UNL     1       0.042  -2.301   1.629  1.00  0.00     0.165 HD
BRANCH   8  11
ATOM     11  C   UNL     1       1.506  -1.220  -1.200  1.00  0.00     0.041 A 
ATOM     12  C   UNL     1       1.673   0.930  -2.279  1.00  0.00     0.041 A 
ATOM     13  C   UNL     1       2.926   0.614  -2.792  1.00  0.00     0.026 A 
ATOM     14  C   UNL     1       0.917  -0.022  -1.594  1.00  0.00     0.040 A 
ATOM     15  C   UNL     1       3.447  -0.659  -2.564  1.00  0.00     0.003 A 
ATOM     16  C   UNL     1       2.755  -1.562  -1.746  1.00  0.00     0.014 A 
BRANCH  12  17
ATOM     17  N   UNL     1       1.155   2.229  -2.381  1.00  0.00    -0.326 N 
ATOM     18  C   UNL     1       1.114   3.081  -1.298  1.00  0.00     0.224 C 
ATOM     19  O   UNL     1       0.100   3.751  -1.098  1.00  0.00    -0.275 OA
ATOM     20  H   UNL     1       0.812   2.542  -3.249  1.00  0.00     0.169 HD
BRANCH  18  21
ATOM     21  C   UNL     1       2.332   3.207  -0.387  1.00  0.00     0.100 C 
BRANCH  21  22
ATOM     22  C   UNL     1       2.223   2.465   0.942  1.00  0.00     0.006 C 
ATOM     23  C   UNL     1       3.114   1.239   1.041  1.00  0.00     0.004 C 
ENDBRANCH  21  22
ENDBRANCH  18  21
ENDBRANCH  12  17
ENDBRANCH   8  11
ENDBRANCH   6   7
BRANCH   6  24
ATOM     24  C   UNL     1      -0.210   0.051   2.711  1.00  0.00     0.012 C 
ATOM     25  C   UNL     1      -0.464   1.234   3.302  1.00  0.00     0.064 C 
ATOM     26  C   UNL     1       0.161  -0.855   3.844  1.00  0.00     0.156 C 
ATOM     27  C   UNL     1      -0.928   2.531   2.716  1.00  0.00     0.069 C 
ATOM     28  N   UNL     1      -0.282   1.199   4.660  1.00  0.00    -0.160 NA
ATOM     29  N   UNL     1       0.067   0.049   5.025  1.00  0.00    -0.181 NA
ATOM     30  C   UNL     1       1.561  -1.453   3.834  1.00  0.00     0.040 C 
ENDBRANCH   6  24
ENDBRANCH   4   6
ENDBRANCH   3   4
ENDBRANCH   2   3
ENDBRANCH   1   2
BRANCH   1  31
ATOM     31  O   UNL     1      -4.249  -2.024   2.212  1.00  0.00    -0.374 OA
BRANCH  31  32
ATOM     32  C   UNL     1      -3.021  -2.461   2.785  1.00  0.00     0.202 C 
BRANCH  32  33
ATOM     33  C   UNL     1      -2.648  -3.948   2.766  1.00  0.00     0.261 C 
BRANCH  33  34
ATOM     34  O   UNL     1      -2.448  -4.453   1.437  1.00  0.00    -0.460 OA
BRANCH  34  35
ATOM     35  C   UNL     1      -3.386  -5.351   1.040  1.00  0.00     0.338 C 
ATOM     36  O   UNL     1      -4.319  -5.775   1.697  1.00  0.00    -0.246 OA
BRANCH  35  37
ATOM     37  C   UNL     1      -3.266  -5.596  -0.407  1.00  0.00     0.060 A 
ATOM     38  C   UNL     1      -4.373  -5.286  -1.209  1.00  0.00     0.016 A 
ATOM     39  C   UNL     1      -2.139  -6.212  -0.949  1.00  0.00     0.016 A 
ATOM     40  C   UNL     1      -4.378  -5.633  -2.554  1.00  0.00     0.010 A 
ATOM     41  C   UNL     1      -2.153  -6.579  -2.297  1.00  0.00     0.010 A 
ATOM     42  C   UNL     1      -3.287  -6.325  -3.092  1.00  0.00    -0.014 A 
BRANCH  42  43
ATOM     43  C   UNL     1      -3.405  -6.926  -4.439  1.00  0.00     0.031 A 
ATOM     44  C   UNL     1      -3.702  -8.394  -4.552  1.00  0.00     0.074 A 
ATOM     45  C   UNL     1      -3.268  -6.168  -5.539  1.00  0.00     0.049 A 
ATOM     46  N   UNL     1      -3.780  -9.145  -5.618  1.00  0.00    -0.248 NA
ATOM     47  C   UNL     1      -3.936  -9.113  -3.289  1.00  0.00     0.031 C 
ATOM     48  C   UNL     1      -3.018  -4.727  -5.543  1.00  0.00     0.029 A 
ATOM     49  N   UNL     1      -3.300  -6.511  -6.865  1.00  0.00    -0.354 N 
ATOM     50  C   UNL     1      -4.055 -10.427  -5.157  1.00  0.00     0.074 A 
ATOM     51  C   UNL     1      -4.101 -10.356  -3.713  1.00  0.00     0.031 C 
ATOM     52  C   UNL     1      -2.886  -4.314  -6.814  1.00  0.00     0.029 A 
ATOM     53  C   UNL     1      -3.006  -5.466  -7.706  1.00  0.00     0.049 A 
ATOM     54  H   UNL     1      -3.513  -7.418  -7.184  1.00  0.00     0.167 HD
ATOM     55  C   UNL     1      -4.254 -11.558  -5.876  1.00  0.00     0.037 A 
ATOM     56  C   UNL     1      -2.815  -5.450  -9.040  1.00  0.00     0.037 A 
ATOM     57  C   UNL     1      -4.193 -11.611  -7.314  1.00  0.00     0.049 A 
ATOM     58  C   UNL     1      -2.982  -6.727  -9.820  1.00  0.00     0.074 A 
ATOM     59  C   UNL     1      -4.400 -12.697  -8.145  1.00  0.00     0.029 A 
ATOM     60  N   UNL     1      -3.888 -10.533  -8.134  1.00  0.00    -0.354 N 
ATOM     61  N   UNL     1      -3.269  -7.930  -9.380  1.00  0.00    -0.248 NA
ATOM     62  C   UNL     1      -2.809  -6.644 -11.275  1.00  0.00     0.031 C 
ATOM     63  C   UNL     1      -4.159 -12.290  -9.462  1.00  0.00     0.029 A 
ATOM     64  C   UNL     1      -3.869 -10.934  -9.460  1.00  0.00     0.049 A 
ATOM     65  H   UNL     1      -3.710  -9.617  -7.820  1.00  0.00     0.167 HD
ATOM     66  C   UNL     1      -3.334  -8.744 -10.505  1.00  0.00     0.074 A 
ATOM     67  C   UNL     1      -3.066  -7.892 -11.647  1.00  0.00     0.031 C 
ATOM     68  C   UNL     1      -3.596 -10.073 -10.587  1.00  0.00     0.037 A 
BRANCH  55  69
ATOM     69  C   UNL     1      -4.504 -12.830  -5.109  1.00  0.00     0.058 A 
ATOM     70  C   UNL     1      -5.681 -13.037  -4.371  1.00  0.00     0.135 A 
ATOM     71  C   UNL     1      -3.543 -13.855  -5.105  1.00  0.00     0.135 A 
ATOM     72  F   UNL     1      -6.628 -12.087  -4.326  1.00  0.00    -0.206 F 
ATOM     73  C   UNL     1      -5.873 -14.191  -3.617  1.00  0.00     0.059 A 
ATOM     74  C   UNL     1      -3.730 -15.031  -4.385  1.00  0.00     0.059 A 
ATOM     75  F   UNL     1      -2.400 -13.713  -5.794  1.00  0.00    -0.206 F 
ATOM     76  C   UNL     1      -4.888 -15.180  -3.625  1.00  0.00     0.060 A 
BRANCH  76  77
ATOM     77  S   UNL     1      -5.136 -16.655  -2.615  1.00  0.00     0.124 S 
ATOM     78  O   UNL     1      -4.941 -16.122  -1.270  1.00  0.00    -0.237 OA
ATOM     79  O   UNL     1      -6.503 -17.039  -2.952  1.00  0.00    -0.237 OA
ATOM     80  O   UNL     1      -4.098 -17.568  -3.083  1.00  0.00    -0.744 OA
ENDBRANCH  76  77
ENDBRANCH  55  69
BRANCH  56  81
ATOM     81  C   UNL     1      -2.418  -4.180  -9.701  1.00  0.00     0.058 A 
ATOM     82  C   UNL     1      -3.306  -3.477 -10.527  1.00  0.00     0.135 A 
ATOM     83  C   UNL     1      -1.153  -3.614  -9.468  1.00  0.00     0.135 A 
ATOM     84  F   UNL     1      -4.521  -3.982 -10.788  1.00  0.00    -0.206 F 
ATOM     85  C   UNL     1      -2.958  -2.255 -11.094  1.00  0.00     0.059 A 
ATOM     86  C   UNL     1      -0.793  -2.382 -10.002  1.00  0.00     0.059 A 
ATOM     87  F   UNL     1      -0.271  -4.242  -8.675  1.00  0.00    -0.206 F 
ATOM     88  C   UNL     1      -1.703  -1.710 -10.815  1.00  0.00     0.060 A 
BRANCH  88  89
ATOM     89  S   UNL     1      -1.300  -0.078 -11.476  1.00  0.00     0.124 S 
ATOM     90  O   UNL     1      -1.130  -0.369 -12.895  1.00  0.00    -0.237 OA
ATOM     91  O   UNL     1      -2.485   0.695 -11.119  1.00  0.00    -0.237 OA
ATOM     92  O   UNL     1      -0.084   0.285 -10.755  1.00  0.00    -0.744 OA
ENDBRANCH  88  89
ENDBRANCH  56  81
BRANCH  68  93
ATOM     93  C   UNL     1      -3.642 -10.690 -11.960  1.00  0.00     0.058 A 
ATOM     94  C   UNL     1      -2.482 -10.889 -12.725  1.00  0.00     0.135 A 
ATOM     95  C   UNL     1      -4.861 -11.143 -12.492  1.00  0.00     0.135 A 
ATOM     96  F   UNL     1      -1.291 -10.469 -12.268  1.00  0.00    -0.206 F 
ATOM     97  C   UNL     1      -2.532 -11.494 -13.977  1.00  0.00     0.059 A 
ATOM     98  C   UNL     1      -4.930 -11.779 -13.727  1.00  0.00     0.059 A 
ATOM     99  F   UNL     1      -6.001 -10.988 -11.799  1.00  0.00    -0.206 F 
ATOM    100  C   UNL     1      -3.761 -11.940 -14.468  1.00  0.00     0.060 A 
BRANCH 100 101
ATOM    101  S   UNL     1      -3.805 -12.756 -16.077  1.00  0.00     0.124 S 
ATOM    102  O   UNL     1      -3.577 -11.634 -16.982  1.00  0.00    -0.237 OA
ATOM    103  O   UNL     1      -2.712 -13.717 -15.970  1.00  0.00    -0.237 OA
ATOM    104  O   UNL     1      -5.143 -13.339 -16.127  1.00  0.00    -0.744 OA
ENDBRANCH 100 101
ENDBRANCH  68  93
ENDBRANCH  42  43
ENDBRANCH  35  37
ENDBRANCH  34  35
ENDBRANCH  33  34
ENDBRANCH  32  33
ENDBRANCH  31  32
ENDBRANCH   1  31
TORSDOF 23
