REMARK SMILES O=C(OCCOCCOC(=O)c1ccccc1C(=O)Nc1ccc(N2C(=O)[C@H]3[C@@H]4CC[C@@H](C4)[C@@H]3C2=O)cc1)c1ccc(-c2c3nc(c(-c4c(F)cc(S(=O)(=O)[O-])cc4F)c4ccc([nH]4)c(-c4c(F)cc(S(=O)(=O)[O-])cc4F)c4nc(c(-c5c(F)cc(S(=O)(=O)[O-])cc5F)c5ccc2[nH]5)C=C4)C=C3)cc1
REMARK SMILES IDX 6 1 5 2 4 3 3 4 2 5 1 6 39 7 40 8 104 9 41 10 103 11 42 12
REMARK SMILES IDX 43 13 44 14 97 15 45 16 102 17 96 18 98 19 46 20 101 21
REMARK SMILES IDX 95 22 94 23 47 25 81 26 60 27 80 28 61 29 64 30 79 31 99 32
REMARK SMILES IDX 62 33 63 34 78 36 100 37 65 38 48 39 49 40 58 41 50 42 51 43
REMARK SMILES IDX 57 44 59 45 52 46 53 47 54 48 55 49 56 50 82 51 83 52 92 53
REMARK SMILES IDX 84 54 85 55 91 56 93 57 86 58 87 59 88 60 89 61 90 62 66 63
REMARK SMILES IDX 67 64 76 65 68 66 69 67 75 68 77 69 70 70 71 71 72 72 73 73
REMARK SMILES IDX 74 74 7 75 8 76 9 77 10 78 11 79 12 80 13 81 17 82 14 83
REMARK SMILES IDX 16 84 15 85 18 86 19 87 20 88 21 90 22 91 38 92 23 93 37 94
REMARK SMILES IDX 24 95 25 96 26 97 35 98 27 99 28 100 34 101 36 102 29 103
REMARK SMILES IDX 32 104 30 105 33 106 31 107
REMARK H PARENT 98 24 64 35 20 89
REMARK Flexibility Score: inf
ROOT
ATOM      1  O   UNL     1       2.282  -0.612  -0.298  1.00  0.00    -0.374 OA
ENDROOT
BRANCH   1   2
ATOM      2  C   UNL     1       3.267  -1.230   0.536  1.00  0.00     0.202 C 
BRANCH   2   3
ATOM      3  C   UNL     1       2.865  -1.182   2.005  1.00  0.00     0.261 C 
BRANCH   3   4
ATOM      4  O   UNL     1       2.744   0.191   2.399  1.00  0.00    -0.460 OA
BRANCH   4   5
ATOM      5  C   UNL     1       1.572   0.791   2.049  1.00  0.00     0.338 C 
ATOM      6  O   UNL     1       0.469   0.303   1.990  1.00  0.00    -0.246 OA
BRANCH   5   7
ATOM      7  C   UNL     1       1.947   2.161   1.649  1.00  0.00     0.060 A 
ATOM      8  C   UNL     1       2.810   2.308   0.563  1.00  0.00     0.016 A 
ATOM      9  C   UNL     1       1.568   3.265   2.407  1.00  0.00     0.016 A 
ATOM     10  C   UNL     1       3.416   3.524   0.329  1.00  0.00     0.010 A 
ATOM     11  C   UNL     1       2.163   4.507   2.142  1.00  0.00     0.010 A 
ATOM     12  C   UNL     1       3.160   4.622   1.155  1.00  0.00    -0.014 A 
BRANCH  12  13
ATOM     13  C   UNL     1       4.125   5.758   1.115  1.00  0.00     0.031 A 
ATOM     14  C   UNL     1       4.980   6.029   2.332  1.00  0.00     0.074 A 
ATOM     15  C   UNL     1       4.434   6.369  -0.048  1.00  0.00     0.049 A 
ATOM     16  N   UNL     1       5.851   6.983   2.536  1.00  0.00    -0.248 NA
ATOM     17  C   UNL     1       4.878   5.071   3.447  1.00  0.00     0.031 C 
ATOM     18  C   UNL     1       3.832   6.064  -1.349  1.00  0.00     0.029 A 
ATOM     19  N   UNL     1       5.379   7.321  -0.340  1.00  0.00    -0.354 N 
ATOM     20  C   UNL     1       6.382   6.751   3.800  1.00  0.00     0.074 A 
ATOM     21  C   UNL     1       5.719   5.583   4.332  1.00  0.00     0.031 C 
ATOM     22  C   UNL     1       4.476   6.752  -2.303  1.00  0.00     0.029 A 
ATOM     23  C   UNL     1       5.431   7.656  -1.673  1.00  0.00     0.049 A 
ATOM     24  H   UNL     1       5.965   7.725   0.341  1.00  0.00     0.167 HD
ATOM     25  C   UNL     1       7.353   7.432   4.452  1.00  0.00     0.037 A 
ATOM     26  C   UNL     1       6.111   8.631  -2.310  1.00  0.00     0.037 A 
ATOM     27  C   UNL     1       8.038   8.572   3.911  1.00  0.00     0.049 A 
ATOM     28  C   UNL     1       6.982   9.547  -1.495  1.00  0.00     0.074 A 
ATOM     29  C   UNL     1       8.960   9.398   4.527  1.00  0.00     0.029 A 
ATOM     30  N   UNL     1       7.881   9.038   2.615  1.00  0.00    -0.354 N 
ATOM     31  N   UNL     1       7.346   9.436  -0.239  1.00  0.00    -0.248 NA
ATOM     32  C   UNL     1       7.487  10.753  -2.164  1.00  0.00     0.031 C 
ATOM     33  C   UNL     1       9.323  10.397   3.616  1.00  0.00     0.029 A 
ATOM     34  C   UNL     1       8.661  10.165   2.421  1.00  0.00     0.049 A 
ATOM     35  H   UNL     1       7.301   8.629   1.934  1.00  0.00     0.167 HD
ATOM     36  C   UNL     1       8.121  10.557   0.032  1.00  0.00     0.074 A 
ATOM     37  C   UNL     1       8.193  11.322  -1.196  1.00  0.00     0.031 C 
ATOM     38  C   UNL     1       8.712  10.924   1.196  1.00  0.00     0.037 A 
BRANCH  25  39
ATOM     39  C   UNL     1       7.671   6.991   5.851  1.00  0.00     0.058 A 
ATOM     40  C   UNL     1       8.439   5.847   6.115  1.00  0.00     0.135 A 
ATOM     41  C   UNL     1       7.167   7.715   6.943  1.00  0.00     0.135 A 
ATOM     42  F   UNL     1       8.915   5.103   5.104  1.00  0.00    -0.206 F 
ATOM     43  C   UNL     1       8.673   5.420   7.419  1.00  0.00     0.059 A 
ATOM     44  C   UNL     1       7.405   7.317   8.254  1.00  0.00     0.059 A 
ATOM     45  F   UNL     1       6.418   8.810   6.739  1.00  0.00    -0.206 F 
ATOM     46  C   UNL     1       8.145   6.158   8.481  1.00  0.00     0.060 A 
BRANCH  46  47
ATOM     47  S   UNL     1       8.420   5.568  10.165  1.00  0.00     0.124 S 
ATOM     48  O   UNL     1       7.587   4.369  10.191  1.00  0.00    -0.237 OA
ATOM     49  O   UNL     1       9.861   5.339  10.182  1.00  0.00    -0.237 OA
ATOM     50  O   UNL     1       7.952   6.673  10.995  1.00  0.00    -0.744 OA
ENDBRANCH  46  47
ENDBRANCH  25  39
BRANCH  26  51
ATOM     51  C   UNL     1       5.886   8.877  -3.764  1.00  0.00     0.058 A 
ATOM     52  C   UNL     1       6.923   8.774  -4.702  1.00  0.00     0.135 A 
ATOM     53  C   UNL     1       4.615   9.242  -4.242  1.00  0.00     0.135 A 
ATOM     54  F   UNL     1       8.165   8.465  -4.299  1.00  0.00    -0.206 F 
ATOM     55  C   UNL     1       6.708   9.017  -6.058  1.00  0.00     0.059 A 
ATOM     56  C   UNL     1       4.367   9.454  -5.593  1.00  0.00     0.059 A 
ATOM     57  F   UNL     1       3.586   9.373  -3.390  1.00  0.00    -0.206 F 
ATOM     58  C   UNL     1       5.424   9.351  -6.494  1.00  0.00     0.060 A 
BRANCH  58  59
ATOM     59  S   UNL     1       5.131   9.625  -8.255  1.00  0.00     0.124 S 
ATOM     60  O   UNL     1       5.694  10.957  -8.441  1.00  0.00    -0.237 OA
ATOM     61  O   UNL     1       5.871   8.527  -8.869  1.00  0.00    -0.237 OA
ATOM     62  O   UNL     1       3.679   9.531  -8.370  1.00  0.00    -0.744 OA
ENDBRANCH  58  59
ENDBRANCH  26  51
BRANCH  38  63
ATOM     63  C   UNL     1       9.487  12.210   1.204  1.00  0.00     0.058 A 
ATOM     64  C   UNL     1       8.836  13.453   1.202  1.00  0.00     0.135 A 
ATOM     65  C   UNL     1      10.889  12.201   1.279  1.00  0.00     0.135 A 
ATOM     66  F   UNL     1       7.497  13.515   1.123  1.00  0.00    -0.206 F 
ATOM     67  C   UNL     1       9.550  14.645   1.261  1.00  0.00     0.059 A 
ATOM     68  C   UNL     1      11.621  13.380   1.365  1.00  0.00     0.059 A 
ATOM     69  F   UNL     1      11.558  11.037   1.295  1.00  0.00    -0.206 F 
ATOM     70  C   UNL     1      10.943  14.598   1.346  1.00  0.00     0.060 A 
BRANCH  70  71
ATOM     71  S   UNL     1      11.855  16.151   1.472  1.00  0.00     0.124 S 
ATOM     72  O   UNL     1      11.778  16.648   0.102  1.00  0.00    -0.237 OA
ATOM     73  O   UNL     1      11.077  16.892   2.460  1.00  0.00    -0.237 OA
ATOM     74  O   UNL     1      13.181  15.730   1.915  1.00  0.00    -0.744 OA
ENDBRANCH  70  71
ENDBRANCH  38  63
ENDBRANCH  12  13
ENDBRANCH   5   7
ENDBRANCH   4   5
ENDBRANCH   3   4
ENDBRANCH   2   3
ENDBRANCH   1   2
BRANCH   1  75
ATOM     75  C   UNL     1       1.210  -1.439  -0.714  1.00  0.00     0.202 C 
BRANCH  75  76
ATOM     76  C   UNL     1       1.310  -1.740  -2.211  1.00  0.00     0.261 C 
BRANCH  76  77
ATOM     77  O   UNL     1       2.262  -2.770  -2.539  1.00  0.00    -0.460 OA
BRANCH  77  78
ATOM     78  C   UNL     1       3.553  -2.380  -2.531  1.00  0.00     0.339 C 
ATOM     79  O   UNL     1       4.033  -1.354  -2.093  1.00  0.00    -0.246 OA
BRANCH  78  80
ATOM     80  C   UNL     1       4.392  -3.408  -3.122  1.00  0.00     0.072 A 
ATOM     81  C   UNL     1       5.128  -4.219  -2.247  1.00  0.00     0.016 A 
ATOM     82  C   UNL     1       4.501  -3.546  -4.508  1.00  0.00     0.054 A 
ATOM     83  C   UNL     1       5.923  -5.238  -2.761  1.00  0.00     0.001 A 
ATOM     84  C   UNL     1       5.266  -4.607  -5.011  1.00  0.00     0.015 A 
ATOM     85  C   UNL     1       5.975  -5.446  -4.140  1.00  0.00     0.001 A 
BRANCH  82  86
ATOM     86  C   UNL     1       3.758  -2.696  -5.472  1.00  0.00     0.256 C 
ATOM     87  O   UNL     1       3.054  -3.276  -6.302  1.00  0.00    -0.269 OA
ATOM     88  N   UNL     1       3.753  -1.316  -5.419  1.00  0.00    -0.322 N 
ATOM     89  H   UNL     1       3.048  -0.893  -5.962  1.00  0.00     0.170 HD
BRANCH  88  90
ATOM     90  C   UNL     1       4.576  -0.404  -4.727  1.00  0.00     0.041 A 
ATOM     91  C   UNL     1       4.000   0.811  -4.322  1.00  0.00     0.028 A 
ATOM     92  C   UNL     1       5.889  -0.690  -4.350  1.00  0.00     0.028 A 
ATOM     93  C   UNL     1       4.666   1.643  -3.408  1.00  0.00     0.029 A 
ATOM     94  C   UNL     1       6.556   0.141  -3.441  1.00  0.00     0.029 A 
ATOM     95  C   UNL     1       5.927   1.279  -2.929  1.00  0.00     0.052 A 
BRANCH  95  96
ATOM     96  N   UNL     1       6.492   1.962  -1.840  1.00  0.00    -0.250 N 
ATOM     97  C   UNL     1       7.351   3.069  -1.963  1.00  0.00     0.237 C 
ATOM     98  C   UNL     1       6.540   1.437  -0.539  1.00  0.00     0.237 C 
ATOM     99  O   UNL     1       7.569   3.775  -2.929  1.00  0.00    -0.274 OA
ATOM    100  C   UNL     1       8.142   3.012  -0.676  1.00  0.00     0.095 C 
ATOM    101  C   UNL     1       6.994   2.620   0.245  1.00  0.00     0.095 C 
ATOM    102  O   UNL     1       6.331   0.318  -0.114  1.00  0.00    -0.274 OA
ATOM    103  C   UNL     1       8.945   3.962   0.213  1.00  0.00     0.002 C 
ATOM    104  C   UNL     1       7.549   2.879   1.628  1.00  0.00     0.002 C 
ATOM    105  C   UNL     1       9.890   3.037   1.034  1.00  0.00     0.005 C 
ATOM    106  C   UNL     1       7.994   4.339   1.360  1.00  0.00     0.009 C 
ATOM    107  C   UNL     1       8.900   2.197   1.880  1.00  0.00     0.005 C 
ENDBRANCH  95  96
ENDBRANCH  88  90
ENDBRANCH  82  86
ENDBRANCH  78  80
ENDBRANCH  77  78
ENDBRANCH  76  77
ENDBRANCH  75  76
ENDBRANCH   1  75
TORSDOF 20
