REMARK SMILES O=C(OCCOCCOC(=O)c1cc(Br)cn(Cc2cccc(F)c2)c1=O)c1ccc(-c2c3nc(c(-c4c(F)cc(S(=O)(=O)[O-])cc4F)c4ccc([nH]4)c(-c4c(F)cc(S(=O)(=O)[O-])cc4F)c4nc(c(-c5c(F)cc(S(=O)(=O)[O-])cc5F)c5ccc2[nH]5)C=C4)C=C3)cc1
REMARK SMILES IDX 5 1 4 2 3 3 2 4 1 5 28 6 29 7 93 8 30 9 92 10 31 11 32 12
REMARK SMILES IDX 33 13 86 14 34 15 91 16 85 17 87 18 35 19 90 20 84 21 83 22
REMARK SMILES IDX 36 24 70 25 49 26 69 27 50 28 53 29 68 30 88 31 51 32 52 33
REMARK SMILES IDX 67 35 89 36 54 37 37 38 38 39 47 40 39 41 40 42 46 43 48 44
REMARK SMILES IDX 41 45 42 46 43 47 44 48 45 49 71 50 72 51 81 52 73 53 74 54
REMARK SMILES IDX 80 55 82 56 75 57 76 58 77 59 78 60 79 61 55 62 56 63 65 64
REMARK SMILES IDX 57 65 58 66 64 67 66 68 59 69 60 70 61 71 62 72 63 73 6 74
REMARK SMILES IDX 7 75 8 76 9 77 10 78 11 79 12 80 13 81 26 82 14 83 17 84
REMARK SMILES IDX 27 85 15 86 16 87 18 88 19 89 20 90 25 91 21 92 23 93 22 94
REMARK SMILES IDX 24 95
REMARK H PARENT 87 23 53 34
REMARK Flexibility Score: inf
ROOT
ATOM      1  C   UNL     1       4.320   0.856   1.160  1.00  0.00     0.202 C 
ENDROOT
BRANCH   1   2
ATOM      2  C   UNL     1       4.098   1.337  -0.272  1.00  0.00     0.261 C 
BRANCH   2   3
ATOM      3  O   UNL     1       2.723   1.204  -0.642  1.00  0.00    -0.460 OA
BRANCH   3   4
ATOM      4  C   UNL     1       2.129   0.223  -1.357  1.00  0.00     0.338 C 
ATOM      5  O   UNL     1       0.938   0.372  -1.633  1.00  0.00    -0.246 OA
BRANCH   4   6
ATOM      6  C   UNL     1       2.792  -1.051  -1.800  1.00  0.00     0.060 A 
ATOM      7  C   UNL     1       2.053  -1.855  -2.689  1.00  0.00     0.016 A 
ATOM      8  C   UNL     1       4.018  -1.552  -1.353  1.00  0.00     0.016 A 
ATOM      9  C   UNL     1       2.514  -3.114  -3.090  1.00  0.00     0.010 A 
ATOM     10  C   UNL     1       4.484  -2.804  -1.740  1.00  0.00     0.010 A 
ATOM     11  C   UNL     1       3.734  -3.591  -2.607  1.00  0.00    -0.014 A 
BRANCH  11  12
ATOM     12  C   UNL     1       4.337  -4.842  -3.090  1.00  0.00     0.031 A 
ATOM     13  C   UNL     1       4.307  -6.081  -2.251  1.00  0.00     0.074 A 
ATOM     14  C   UNL     1       5.034  -4.771  -4.238  1.00  0.00     0.049 A 
ATOM     15  N   UNL     1       4.821  -7.254  -2.507  1.00  0.00    -0.248 NA
ATOM     16  C   UNL     1       3.630  -5.993  -0.946  1.00  0.00     0.031 C 
ATOM     17  C   UNL     1       5.184  -3.559  -5.053  1.00  0.00     0.029 A 
ATOM     18  N   UNL     1       5.769  -5.711  -4.901  1.00  0.00    -0.354 N 
ATOM     19  C   UNL     1       4.502  -8.055  -1.418  1.00  0.00     0.074 A 
ATOM     20  C   UNL     1       3.801  -7.220  -0.467  1.00  0.00     0.031 C 
ATOM     21  C   UNL     1       5.969  -3.832  -6.105  1.00  0.00     0.029 A 
ATOM     22  C   UNL     1       6.375  -5.229  -6.035  1.00  0.00     0.049 A 
ATOM     23  H   UNL     1       5.856  -6.643  -4.596  1.00  0.00     0.167 HD
ATOM     24  C   UNL     1       4.756  -9.375  -1.256  1.00  0.00     0.037 A 
ATOM     25  C   UNL     1       7.161  -5.859  -6.925  1.00  0.00     0.037 A 
ATOM     26  C   UNL     1       5.487 -10.162  -2.220  1.00  0.00     0.049 A 
ATOM     27  C   UNL     1       7.417  -7.324  -6.724  1.00  0.00     0.074 A 
ATOM     28  C   UNL     1       5.781 -11.514  -2.188  1.00  0.00     0.029 A 
ATOM     29  N   UNL     1       6.042  -9.660  -3.390  1.00  0.00    -0.354 N 
ATOM     30  N   UNL     1       7.034  -8.096  -5.733  1.00  0.00    -0.248 NA
ATOM     31  C   UNL     1       8.180  -8.013  -7.770  1.00  0.00     0.031 C 
ATOM     32  C   UNL     1       6.539 -11.822  -3.322  1.00  0.00     0.029 A 
ATOM     33  C   UNL     1       6.676 -10.674  -4.087  1.00  0.00     0.049 A 
ATOM     34  H   UNL     1       5.991  -8.721  -3.682  1.00  0.00     0.167 HD
ATOM     35  C   UNL     1       7.473  -9.372  -6.056  1.00  0.00     0.074 A 
ATOM     36  C   UNL     1       8.146  -9.266  -7.337  1.00  0.00     0.031 C 
ATOM     37  C   UNL     1       7.329 -10.529  -5.364  1.00  0.00     0.037 A 
BRANCH  24  38
ATOM     38  C   UNL     1       4.208 -10.073  -0.040  1.00  0.00     0.058 A 
ATOM     39  C   UNL     1       2.831 -10.323   0.087  1.00  0.00     0.135 A 
ATOM     40  C   UNL     1       5.059 -10.613   0.938  1.00  0.00     0.135 A 
ATOM     41  F   UNL     1       1.967  -9.819  -0.809  1.00  0.00    -0.206 F 
ATOM     42  C   UNL     1       2.321 -11.094   1.127  1.00  0.00     0.059 A 
ATOM     43  C   UNL     1       4.573 -11.405   1.977  1.00  0.00     0.059 A 
ATOM     44  F   UNL     1       6.383 -10.401   0.873  1.00  0.00    -0.206 F 
ATOM     45  C   UNL     1       3.202 -11.645   2.059  1.00  0.00     0.060 A 
BRANCH  45  46
ATOM     46  S   UNL     1       2.525 -12.715   3.348  1.00  0.00     0.124 S 
ATOM     47  O   UNL     1       1.757 -11.764   4.147  1.00  0.00    -0.237 OA
ATOM     48  O   UNL     1       1.738 -13.670   2.574  1.00  0.00    -0.237 OA
ATOM     49  O   UNL     1       3.712 -13.263   3.996  1.00  0.00    -0.744 OA
ENDBRANCH  45  46
ENDBRANCH  24  38
BRANCH  25  50
ATOM     50  C   UNL     1       7.668  -5.127  -8.112  1.00  0.00     0.058 A 
ATOM     51  C   UNL     1       7.135  -5.380  -9.384  1.00  0.00     0.135 A 
ATOM     52  C   UNL     1       8.653  -4.134  -8.000  1.00  0.00     0.135 A 
ATOM     53  F   UNL     1       6.181  -6.311  -9.538  1.00  0.00    -0.206 F 
ATOM     54  C   UNL     1       7.580  -4.698 -10.510  1.00  0.00     0.059 A 
ATOM     55  C   UNL     1       9.098  -3.420  -9.108  1.00  0.00     0.059 A 
ATOM     56  F   UNL     1       9.168  -3.829  -6.798  1.00  0.00    -0.206 F 
ATOM     57  C   UNL     1       8.565  -3.720 -10.361  1.00  0.00     0.060 A 
BRANCH  57  58
ATOM     58  S   UNL     1       9.116  -2.824 -11.829  1.00  0.00     0.124 S 
ATOM     59  O   UNL     1       9.885  -3.849 -12.526  1.00  0.00    -0.237 OA
ATOM     60  O   UNL     1       7.851  -2.443 -12.448  1.00  0.00    -0.237 OA
ATOM     61  O   UNL     1       9.893  -1.718 -11.276  1.00  0.00    -0.744 OA
ENDBRANCH  57  58
ENDBRANCH  25  50
BRANCH  37  62
ATOM     62  C   UNL     1       7.876 -11.771  -6.005  1.00  0.00     0.058 A 
ATOM     63  C   UNL     1       9.255 -12.014  -6.080  1.00  0.00     0.135 A 
ATOM     64  C   UNL     1       7.003 -12.742  -6.521  1.00  0.00     0.135 A 
ATOM     65  F   UNL     1      10.128 -11.111  -5.606  1.00  0.00    -0.206 F 
ATOM     66  C   UNL     1       9.753 -13.166  -6.676  1.00  0.00     0.059 A 
ATOM     67  C   UNL     1       7.479 -13.914  -7.095  1.00  0.00     0.059 A 
ATOM     68  F   UNL     1       5.674 -12.557  -6.462  1.00  0.00    -0.206 F 
ATOM     69  C   UNL     1       8.856 -14.110  -7.181  1.00  0.00     0.060 A 
BRANCH  69  70
ATOM     70  S   UNL     1       9.519 -15.606  -7.940  1.00  0.00     0.124 S 
ATOM     71  O   UNL     1      10.044 -15.087  -9.199  1.00  0.00    -0.237 OA
ATOM     72  O   UNL     1      10.517 -16.034  -6.965  1.00  0.00    -0.237 OA
ATOM     73  O   UNL     1       8.352 -16.474  -8.057  1.00  0.00    -0.744 OA
ENDBRANCH  69  70
ENDBRANCH  37  62
ENDBRANCH  11  12
ENDBRANCH   4   6
ENDBRANCH   3   4
ENDBRANCH   2   3
ENDBRANCH   1   2
BRANCH   1  74
ATOM     74  O   UNL     1       4.020  -0.519   1.393  1.00  0.00    -0.374 OA
BRANCH  74  75
ATOM     75  C   UNL     1       2.684  -0.811   1.821  1.00  0.00     0.202 C 
BRANCH  75  76
ATOM     76  C   UNL     1       2.734  -1.628   3.116  1.00  0.00     0.261 C 
BRANCH  76  77
ATOM     77  O   UNL     1       3.265  -0.787   4.150  1.00  0.00    -0.459 OA
BRANCH  77  78
ATOM     78  C   UNL     1       4.615  -0.815   4.298  1.00  0.00     0.343 C 
ATOM     79  O   UNL     1       5.386  -1.673   3.895  1.00  0.00    -0.246 OA
BRANCH  78  80
ATOM     80  C   UNL     1       5.028   0.521   4.753  1.00  0.00     0.126 A 
ATOM     81  C   UNL     1       5.977   1.139   4.026  1.00  0.00     0.038 A 
ATOM     82  C   UNL     1       4.334   1.243   5.851  1.00  0.00     0.265 A 
ATOM     83  C   UNL     1       6.219   2.552   4.177  1.00  0.00     0.035 A 
ATOM     84  N   UNL     1       4.676   2.593   5.988  1.00  0.00    -0.309 N 
ATOM     85  O   UNL     1       3.560   0.662   6.606  1.00  0.00    -0.268 OA
ATOM     86  Br  UNL     1       7.400   3.383   3.001  1.00  0.00    -0.049 Br
ATOM     87  C   UNL     1       5.556   3.228   5.122  1.00  0.00     0.105 A 
BRANCH  84  88
ATOM     88  C   UNL     1       4.254   3.286   7.204  1.00  0.00     0.161 C 
BRANCH  88  89
ATOM     89  C   UNL     1       5.362   3.182   8.234  1.00  0.00    -0.025 A 
ATOM     90  C   UNL     1       6.429   4.096   8.224  1.00  0.00     0.006 A 
ATOM     91  C   UNL     1       5.425   2.074   9.092  1.00  0.00     0.044 A 
ATOM     92  C   UNL     1       7.549   3.891   9.032  1.00  0.00     0.003 A 
ATOM     93  C   UNL     1       6.539   1.890   9.903  1.00  0.00     0.123 A 
ATOM     94  C   UNL     1       7.604   2.782   9.873  1.00  0.00     0.039 A 
ATOM     95  F   UNL     1       6.601   0.820  10.707  1.00  0.00    -0.207 F 
ENDBRANCH  88  89
ENDBRANCH  84  88
ENDBRANCH  78  80
ENDBRANCH  77  78
ENDBRANCH  76  77
ENDBRANCH  75  76
ENDBRANCH  74  75
ENDBRANCH   1  74
TORSDOF 19
