REMARK SMILES COc1ccc(/C=C/c2ncc(C(=O)OCCOCCOC(=O)c3ccc(-c4c5nc(c(-c6c(F)cc(S(=O)(=O)[O-])cc6F)c6ccc([nH]6)c(-c6c(F)cc(S(=O)(=O)[O-])cc6F)c6nc(c(-c7c(F)cc(S(=O)(=O)[O-])cc7F)c7ccc4[nH]7)C=C6)C=C5)cc3)s2)cc1O
REMARK SMILES IDX 18 1 17 2 16 3 15 4 13 5 14 6 12 7 9 8 10 9 90 10 11 11 8 12
REMARK SMILES IDX 7 13 6 14 3 15 4 16 92 17 5 18 91 19 2 20 1 21 93 22 19 24
REMARK SMILES IDX 20 25 21 26 22 27 23 28 24 29 25 30 89 31 26 32 88 33 27 34
REMARK SMILES IDX 28 35 29 36 82 37 30 38 87 39 81 40 83 41 31 42 86 43 80 44
REMARK SMILES IDX 79 45 32 47 66 48 45 49 65 50 46 51 49 52 64 53 84 54 47 55
REMARK SMILES IDX 48 56 63 58 85 59 50 60 33 61 34 62 43 63 35 64 36 65 42 66
REMARK SMILES IDX 44 67 37 68 38 69 39 70 40 71 41 72 67 73 68 74 77 75 69 76
REMARK SMILES IDX 70 77 76 78 78 79 71 80 72 81 73 82 74 83 75 84 51 85 52 86
REMARK SMILES IDX 61 87 53 88 54 89 60 90 62 91 55 92 56 93 57 94 58 95 59 96
REMARK H PARENT 93 23 83 46 49 57
REMARK Flexibility Score: inf
ROOT
ATOM      1  O   UNL     1      -1.389 -12.002   8.402  1.00  0.00    -0.374 OA
ENDROOT
BRANCH   1   2
ATOM      2  C   UNL     1      -0.752 -13.119   7.776  1.00  0.00     0.202 C 
BRANCH   2   3
ATOM      3  C   UNL     1      -0.978 -13.193   6.263  1.00  0.00     0.261 C 
BRANCH   3   4
ATOM      4  O   UNL     1      -0.329 -12.086   5.615  1.00  0.00    -0.459 OA
BRANCH   4   5
ATOM      5  C   UNL     1      -1.161 -11.123   5.128  1.00  0.00     0.350 C 
ATOM      6  O   UNL     1      -2.377 -11.239   5.025  1.00  0.00    -0.245 OA
BRANCH   5   7
ATOM      7  C   UNL     1      -0.409  -9.926   4.848  1.00  0.00     0.132 A 
ATOM      8  C   UNL     1       0.253  -7.619   4.417  1.00  0.00     0.116 A 
ATOM      9  N   UNL     1       1.316  -8.401   4.438  1.00  0.00    -0.244 NA
ATOM     10  S   UNL     1      -1.237  -8.434   4.721  1.00  0.00    -0.107 S 
ATOM     11  C   UNL     1       0.945  -9.710   4.703  1.00  0.00     0.139 A 
BRANCH   8  12
ATOM     12  C   UNL     1       0.202  -6.227   4.135  1.00  0.00     0.040 C 
ATOM     13  C   UNL     1       0.924  -5.715   3.127  1.00  0.00     0.011 C 
BRANCH  13  14
ATOM     14  C   UNL     1       0.842  -4.322   2.662  1.00  0.00    -0.022 A 
ATOM     15  C   UNL     1       0.798  -1.667   1.667  1.00  0.00     0.160 A 
ATOM     16  C   UNL     1       0.418  -1.951   2.983  1.00  0.00     0.051 A 
ATOM     17  C   UNL     1       1.209  -2.728   0.860  1.00  0.00     0.158 A 
ATOM     18  C   UNL     1       0.448  -3.260   3.481  1.00  0.00     0.012 A 
ATOM     19  C   UNL     1       1.217  -4.039   1.343  1.00  0.00     0.058 A 
BRANCH  15  20
ATOM     20  O   UNL     1       0.732  -0.337   1.359  1.00  0.00    -0.493 OA
ATOM     21  C   UNL     1       0.820   0.046  -0.005  1.00  0.00     0.278 C 
ENDBRANCH  15  20
BRANCH  17  22
ATOM     22  O   UNL     1       1.677  -2.567  -0.413  1.00  0.00    -0.504 OA
ATOM     23  H   UNL     1       1.700  -1.714  -0.800  1.00  0.00     0.293 HD
ENDBRANCH  17  22
ENDBRANCH  13  14
ENDBRANCH   8  12
ENDBRANCH   5   7
ENDBRANCH   4   5
ENDBRANCH   3   4
ENDBRANCH   2   3
ENDBRANCH   1   2
BRANCH   1  24
ATOM     24  C   UNL     1      -0.611 -10.804   8.488  1.00  0.00     0.202 C 
BRANCH  24  25
ATOM     25  C   UNL     1       0.343 -10.741   9.685  1.00  0.00     0.261 C 
BRANCH  25  26
ATOM     26  O   UNL     1       1.462 -11.626   9.495  1.00  0.00    -0.460 OA
BRANCH  26  27
ATOM     27  C   UNL     1       1.466 -12.725  10.288  1.00  0.00     0.338 C 
ATOM     28  O   UNL     1       0.694 -12.975  11.197  1.00  0.00    -0.246 OA
BRANCH  27  29
ATOM     29  C   UNL     1       2.450 -13.704   9.779  1.00  0.00     0.060 A 
ATOM     30  C   UNL     1       2.046 -15.043   9.712  1.00  0.00     0.016 A 
ATOM     31  C   UNL     1       3.748 -13.339   9.410  1.00  0.00     0.016 A 
ATOM     32  C   UNL     1       2.951 -16.029   9.324  1.00  0.00     0.010 A 
ATOM     33  C   UNL     1       4.658 -14.331   9.026  1.00  0.00     0.010 A 
ATOM     34  C   UNL     1       4.273 -15.684   9.014  1.00  0.00    -0.014 A 
BRANCH  34  35
ATOM     35  C   UNL     1       5.279 -16.754   8.812  1.00  0.00     0.031 A 
ATOM     36  C   UNL     1       6.174 -17.140   9.958  1.00  0.00     0.074 A 
ATOM     37  C   UNL     1       5.373 -17.396   7.634  1.00  0.00     0.049 A 
ATOM     38  N   UNL     1       7.123 -18.038  10.001  1.00  0.00    -0.248 NA
ATOM     39  C   UNL     1       5.970 -16.416  11.223  1.00  0.00     0.031 C 
ATOM     40  C   UNL     1       4.543 -17.132   6.460  1.00  0.00     0.029 A 
ATOM     41  N   UNL     1       6.217 -18.401   7.232  1.00  0.00    -0.354 N 
ATOM     42  C   UNL     1       7.633 -17.988  11.293  1.00  0.00     0.074 A 
ATOM     43  C   UNL     1       6.907 -16.950  11.994  1.00  0.00     0.031 C 
ATOM     44  C   UNL     1       4.927 -17.949   5.463  1.00  0.00     0.029 A 
ATOM     45  C   UNL     1       6.042 -18.776   5.921  1.00  0.00     0.049 A 
ATOM     46  H   UNL     1       6.883 -18.815   7.826  1.00  0.00     0.167 HD
ATOM     47  C   UNL     1       8.611 -18.743  11.848  1.00  0.00     0.037 A 
ATOM     48  C   UNL     1       6.717 -19.671   5.173  1.00  0.00     0.037 A 
ATOM     49  C   UNL     1       9.332 -19.773  11.150  1.00  0.00     0.049 A 
ATOM     50  C   UNL     1       7.837 -20.462   5.796  1.00  0.00     0.074 A 
ATOM     51  C   UNL     1      10.327 -20.607  11.632  1.00  0.00     0.029 A 
ATOM     52  N   UNL     1       9.143 -20.107   9.817  1.00  0.00    -0.354 N 
ATOM     53  N   UNL     1       8.290 -20.423   7.026  1.00  0.00    -0.248 NA
ATOM     54  C   UNL     1       8.535 -21.423   4.929  1.00  0.00     0.031 C 
ATOM     55  C   UNL     1      10.767 -21.417  10.579  1.00  0.00     0.029 A 
ATOM     56  C   UNL     1      10.017 -21.118   9.453  1.00  0.00     0.049 A 
ATOM     57  H   UNL     1       8.485 -19.686   9.218  1.00  0.00     0.167 HD
ATOM     58  C   UNL     1       9.309 -21.367   7.088  1.00  0.00     0.074 A 
ATOM     59  C   UNL     1       9.402 -21.968   5.773  1.00  0.00     0.031 C 
ATOM     60  C   UNL     1      10.095 -21.708   8.139  1.00  0.00     0.037 A 
BRANCH  47  61
ATOM     61  C   UNL     1       8.970 -18.461  13.280  1.00  0.00     0.058 A 
ATOM     62  C   UNL     1       8.127 -18.835  14.338  1.00  0.00     0.135 A 
ATOM     63  C   UNL     1      10.180 -17.823  13.598  1.00  0.00     0.135 A 
ATOM     64  F   UNL     1       6.951 -19.431  14.088  1.00  0.00    -0.206 F 
ATOM     65  C   UNL     1       8.457 -18.559  15.662  1.00  0.00     0.059 A 
ATOM     66  C   UNL     1      10.541 -17.558  14.915  1.00  0.00     0.059 A 
ATOM     67  F   UNL     1      11.020 -17.443  12.623  1.00  0.00    -0.206 F 
ATOM     68  C   UNL     1       9.665 -17.916  15.939  1.00  0.00     0.060 A 
BRANCH  68  69
ATOM     69  S   UNL     1      10.077 -17.554  17.660  1.00  0.00     0.124 S 
ATOM     70  O   UNL     1       9.202 -16.418  17.934  1.00  0.00    -0.237 OA
ATOM     71  O   UNL     1       9.728 -18.800  18.335  1.00  0.00    -0.237 OA
ATOM     72  O   UNL     1      11.503 -17.250  17.610  1.00  0.00    -0.744 OA
ENDBRANCH  68  69
ENDBRANCH  47  61
BRANCH  48  73
ATOM     73  C   UNL     1       6.352 -19.862   3.746  1.00  0.00     0.058 A 
ATOM     74  C   UNL     1       5.704 -21.027   3.313  1.00  0.00     0.135 A 
ATOM     75  C   UNL     1       6.633 -18.874   2.789  1.00  0.00     0.135 A 
ATOM     76  F   UNL     1       5.425 -22.005   4.189  1.00  0.00    -0.206 F 
ATOM     77  C   UNL     1       5.349 -21.210   1.980  1.00  0.00     0.059 A 
ATOM     78  C   UNL     1       6.270 -19.025   1.455  1.00  0.00     0.059 A 
ATOM     79  F   UNL     1       7.245 -17.737   3.156  1.00  0.00    -0.206 F 
ATOM     80  C   UNL     1       5.633 -20.200   1.059  1.00  0.00     0.060 A 
BRANCH  80  81
ATOM     81  S   UNL     1       5.110 -20.416  -0.656  1.00  0.00     0.124 S 
ATOM     82  O   UNL     1       6.099 -21.367  -1.148  1.00  0.00    -0.237 OA
ATOM     83  O   UNL     1       3.752 -20.928  -0.501  1.00  0.00    -0.237 OA
ATOM     84  O   UNL     1       5.202 -19.066  -1.206  1.00  0.00    -0.744 OA
ENDBRANCH  80  81
ENDBRANCH  48  73
BRANCH  60  85
ATOM     85  C   UNL     1      11.108 -22.798   7.924  1.00  0.00     0.058 A 
ATOM     86  C   UNL     1      12.289 -22.573   7.201  1.00  0.00     0.135 A 
ATOM     87  C   UNL     1      10.919 -24.067   8.495  1.00  0.00     0.135 A 
ATOM     88  F   UNL     1      12.514 -21.379   6.630  1.00  0.00    -0.206 F 
ATOM     89  C   UNL     1      13.240 -23.575   7.035  1.00  0.00     0.059 A 
ATOM     90  C   UNL     1      11.867 -25.076   8.362  1.00  0.00     0.059 A 
ATOM     91  F   UNL     1       9.810 -24.330   9.206  1.00  0.00    -0.206 F 
ATOM     92  C   UNL     1      13.021 -24.824   7.620  1.00  0.00     0.060 A 
BRANCH  92  93
ATOM     93  S   UNL     1      14.278 -26.106   7.430  1.00  0.00     0.124 S 
ATOM     94  O   UNL     1      14.045 -26.544   6.058  1.00  0.00    -0.237 OA
ATOM     95  O   UNL     1      15.517 -25.368   7.658  1.00  0.00    -0.237 OA
ATOM     96  O   UNL     1      13.934 -27.075   8.466  1.00  0.00    -0.744 OA
ENDBRANCH  92  93
ENDBRANCH  60  85
ENDBRANCH  34  35
ENDBRANCH  27  29
ENDBRANCH  26  27
ENDBRANCH  25  26
ENDBRANCH  24  25
ENDBRANCH   1  24
TORSDOF 21
