REMARK SMILES C[C@@H]1CN(S(=O)(=O)c2cccc(C(=O)N3CCC[C@@H]3C(=O)OCCOCCOC(=O)c3ccc(-c4c5nc(c(-c6c(F)cc(S(=O)(=O)[O-])cc6F)c6ccc([nH]6)c(-c6c(F)cc(S(=O)(=O)[O-])cc6F)c6nc(c(-c7c(F)cc(S(=O)(=O)[O-])cc7F)c7ccc4[nH]7)C=C6)C=C5)cc3)c2)C[C@H](C)O1
REMARK SMILES IDX 24 1 23 2 22 3 20 4 21 5 19 6 15 7 16 8 17 9 18 10 13 11
REMARK SMILES IDX 14 12 12 13 8 14 9 15 97 16 10 17 11 18 5 19 6 20 7 21 4 22
REMARK SMILES IDX 1 23 2 24 3 25 101 26 99 27 98 28 100 29 25 30 26 31 27 32
REMARK SMILES IDX 28 33 29 34 30 35 31 36 32 37 96 38 33 39 95 40 34 41 35 42
REMARK SMILES IDX 36 43 89 44 37 45 94 46 88 47 90 48 38 49 93 50 87 51 86 52
REMARK SMILES IDX 39 54 73 55 52 56 72 57 53 58 56 59 71 60 91 61 54 62 55 63
REMARK SMILES IDX 70 65 92 66 57 67 40 68 41 69 50 70 42 71 43 72 49 73 51 74
REMARK SMILES IDX 44 75 45 76 46 77 47 78 48 79 74 80 75 81 84 82 76 83 77 84
REMARK SMILES IDX 83 85 85 86 78 87 79 88 80 89 81 90 82 91 58 92 59 93 68 94
REMARK SMILES IDX 60 95 61 96 67 97 69 98 62 99 63 100 64 101 65 102 66 103
REMARK H PARENT 90 53 56 64
REMARK Flexibility Score: inf
ROOT
ATOM      1  C   UNL     1       4.685  -3.196   1.705  1.00  0.00     0.202 C 
ENDROOT
BRANCH   1   2
ATOM      2  C   UNL     1       4.605  -4.213   0.559  1.00  0.00     0.261 C 
BRANCH   2   3
ATOM      3  O   UNL     1       3.343  -4.910   0.502  1.00  0.00    -0.462 OA
BRANCH   3   4
ATOM      4  C   UNL     1       3.304  -6.119   1.132  1.00  0.00     0.328 C 
ATOM      5  O   UNL     1       4.187  -6.554   1.863  1.00  0.00    -0.250 OA
BRANCH   4   6
ATOM      6  C   UNL     1       1.944  -6.809   0.987  1.00  0.00     0.195 C 
ATOM      7  N   UNL     1       1.292  -6.679  -0.312  1.00  0.00    -0.325 N 
ATOM      8  C   UNL     1      -0.135  -6.835  -0.102  1.00  0.00     0.121 C 
ATOM      9  C   UNL     1      -0.364  -5.991   1.131  1.00  0.00     0.024 C 
ATOM     10  C   UNL     1       0.906  -6.212   1.960  1.00  0.00     0.039 C 
BRANCH   7  11
ATOM     11  C   UNL     1       1.947  -7.172  -1.432  1.00  0.00     0.254 C 
ATOM     12  O   UNL     1       2.691  -8.145  -1.383  1.00  0.00    -0.269 OA
BRANCH  11  13
ATOM     13  C   UNL     1       1.944  -6.276  -2.631  1.00  0.00     0.041 A 
ATOM     14  C   UNL     1       1.085  -4.327  -3.804  1.00  0.00     0.083 A 
ATOM     15  C   UNL     1       2.162  -4.360  -4.687  1.00  0.00     0.022 A 
ATOM     16  C   UNL     1       0.961  -5.309  -2.818  1.00  0.00     0.035 A 
ATOM     17  C   UNL     1       3.123  -5.369  -4.552  1.00  0.00     0.002 A 
ATOM     18  C   UNL     1       3.021  -6.317  -3.524  1.00  0.00     0.014 A 
BRANCH  14  19
ATOM     19  S   UNL     1      -0.263  -3.185  -4.003  1.00  0.00     0.243 S 
ATOM     20  O   UNL     1      -1.476  -3.970  -3.886  1.00  0.00    -0.207 OA
ATOM     21  O   UNL     1       0.003  -2.378  -5.171  1.00  0.00    -0.207 OA
BRANCH  19  22
ATOM     22  N   UNL     1      -0.221  -2.124  -2.635  1.00  0.00    -0.193 NA
ATOM     23  C   UNL     1       1.040  -1.154   0.070  1.00  0.00     0.040 C 
ATOM     24  C   UNL     1      -0.329  -1.773  -0.161  1.00  0.00     0.130 C 
ATOM     25  C   UNL     1      -0.313  -2.788  -1.302  1.00  0.00     0.134 C 
ATOM     26  O   UNL     1      -1.368  -0.802  -0.296  1.00  0.00    -0.373 OA
ATOM     27  C   UNL     1      -1.439  -0.148  -1.572  1.00  0.00     0.130 C 
ATOM     28  C   UNL     1      -1.354  -1.121  -2.759  1.00  0.00     0.134 C 
ATOM     29  C   UNL     1      -0.467   1.014  -1.675  1.00  0.00     0.040 C 
ENDBRANCH  19  22
ENDBRANCH  14  19
ENDBRANCH  11  13
ENDBRANCH   7  11
ENDBRANCH   4   6
ENDBRANCH   3   4
ENDBRANCH   2   3
ENDBRANCH   1   2
BRANCH   1  30
ATOM     30  O   UNL     1       4.942  -3.767   2.990  1.00  0.00    -0.374 OA
BRANCH  30  31
ATOM     31  C   UNL     1       3.775  -4.115   3.734  1.00  0.00     0.202 C 
BRANCH  31  32
ATOM     32  C   UNL     1       3.269  -3.011   4.666  1.00  0.00     0.261 C 
BRANCH  32  33
ATOM     33  O   UNL     1       2.914  -1.829   3.928  1.00  0.00    -0.460 OA
BRANCH  33  34
ATOM     34  C   UNL     1       3.833  -0.830   3.974  1.00  0.00     0.338 C 
ATOM     35  O   UNL     1       4.844  -0.784   4.652  1.00  0.00    -0.246 OA
BRANCH  34  36
ATOM     36  C   UNL     1       3.510   0.165   2.933  1.00  0.00     0.060 A 
ATOM     37  C   UNL     1       4.509   0.518   2.017  1.00  0.00     0.016 A 
ATOM     38  C   UNL     1       2.246   0.745   2.851  1.00  0.00     0.016 A 
ATOM     39  C   UNL     1       4.243   1.445   1.002  1.00  0.00     0.010 A 
ATOM     40  C   UNL     1       1.985   1.669   1.833  1.00  0.00     0.010 A 
ATOM     41  C   UNL     1       2.975   2.028   0.893  1.00  0.00    -0.014 A 
BRANCH  41  42
ATOM     42  C   UNL     1       2.662   3.075  -0.125  1.00  0.00     0.031 A 
ATOM     43  C   UNL     1       2.244   4.441   0.355  1.00  0.00     0.074 A 
ATOM     44  C   UNL     1       2.655   2.814  -1.450  1.00  0.00     0.049 A 
ATOM     45  N   UNL     1       1.703   5.429  -0.309  1.00  0.00    -0.248 NA
ATOM     46  C   UNL     1       2.446   4.717   1.787  1.00  0.00     0.031 C 
ATOM     47  C   UNL     1       3.048   1.555  -2.084  1.00  0.00     0.029 A 
ATOM     48  N   UNL     1       2.224   3.590  -2.504  1.00  0.00    -0.354 N 
ATOM     49  C   UNL     1       1.495   6.438   0.623  1.00  0.00     0.074 A 
ATOM     50  C   UNL     1       1.892   5.913   1.912  1.00  0.00     0.031 C 
ATOM     51  C   UNL     1       2.764   1.614  -3.398  1.00  0.00     0.029 A 
ATOM     52  C   UNL     1       2.157   2.909  -3.699  1.00  0.00     0.049 A 
ATOM     53  H   UNL     1       1.986   4.541  -2.412  1.00  0.00     0.167 HD
ATOM     54  C   UNL     1       1.061   7.705   0.426  1.00  0.00     0.037 A 
ATOM     55  C   UNL     1       1.623   3.263  -4.886  1.00  0.00     0.037 A 
ATOM     56  C   UNL     1       0.720   8.255  -0.856  1.00  0.00     0.049 A 
ATOM     57  C   UNL     1       1.025   4.633  -5.067  1.00  0.00     0.074 A 
ATOM     58  C   UNL     1       0.395   9.563  -1.172  1.00  0.00     0.029 A 
ATOM     59  N   UNL     1       0.654   7.530  -2.034  1.00  0.00    -0.354 N 
ATOM     60  N   UNL     1       0.903   5.601  -4.192  1.00  0.00    -0.248 NA
ATOM     61  C   UNL     1       0.505   4.965  -6.404  1.00  0.00     0.031 C 
ATOM     62  C   UNL     1       0.097   9.621  -2.538  1.00  0.00     0.029 A 
ATOM     63  C   UNL     1       0.266   8.355  -3.075  1.00  0.00     0.049 A 
ATOM     64  H   UNL     1       0.854   6.569  -2.119  1.00  0.00     0.167 HD
ATOM     65  C   UNL     1       0.345   6.672  -4.885  1.00  0.00     0.074 A 
ATOM     66  C   UNL     1       0.127   6.227  -6.244  1.00  0.00     0.031 C 
ATOM     67  C   UNL     1       0.064   7.918  -4.434  1.00  0.00     0.037 A 
BRANCH  54  68
ATOM     68  C   UNL     1       0.973   8.595   1.631  1.00  0.00     0.058 A 
ATOM     69  C   UNL     1       2.130   9.066   2.274  1.00  0.00     0.135 A 
ATOM     70  C   UNL     1      -0.271   8.988   2.146  1.00  0.00     0.135 A 
ATOM     71  F   UNL     1       3.345   8.707   1.827  1.00  0.00    -0.206 F 
ATOM     72  C   UNL     1       2.057   9.858   3.412  1.00  0.00     0.059 A 
ATOM     73  C   UNL     1      -0.368   9.803   3.269  1.00  0.00     0.059 A 
ATOM     74  F   UNL     1      -1.407   8.567   1.567  1.00  0.00    -0.206 F 
ATOM     75  C   UNL     1       0.802  10.216   3.907  1.00  0.00     0.060 A 
BRANCH  75  76
ATOM     76  S   UNL     1       0.722  11.228   5.398  1.00  0.00     0.124 S 
ATOM     77  O   UNL     1       1.029  10.244   6.431  1.00  0.00    -0.237 OA
ATOM     78  O   UNL     1       1.754  12.231   5.153  1.00  0.00    -0.237 OA
ATOM     79  O   UNL     1      -0.648  11.729   5.394  1.00  0.00    -0.744 OA
ENDBRANCH  75  76
ENDBRANCH  54  68
BRANCH  55  80
ATOM     80  C   UNL     1       1.591   2.293  -6.013  1.00  0.00     0.058 A 
ATOM     81  C   UNL     1       2.478   2.406  -7.091  1.00  0.00     0.135 A 
ATOM     82  C   UNL     1       0.635   1.266  -6.054  1.00  0.00     0.135 A 
ATOM     83  F   UNL     1       3.393   3.388  -7.106  1.00  0.00    -0.206 F 
ATOM     84  C   UNL     1       2.412   1.543  -8.179  1.00  0.00     0.059 A 
ATOM     85  C   UNL     1       0.562   0.376  -7.123  1.00  0.00     0.059 A 
ATOM     86  F   UNL     1      -0.246   1.137  -5.050  1.00  0.00    -0.206 F 
ATOM     87  C   UNL     1       1.450   0.530  -8.187  1.00  0.00     0.060 A 
BRANCH  87  88
ATOM     88  S   UNL     1       1.394  -0.584  -9.609  1.00  0.00     0.124 S 
ATOM     89  O   UNL     1       0.912   0.305 -10.660  1.00  0.00    -0.237 OA
ATOM     90  O   UNL     1       2.789  -1.002  -9.720  1.00  0.00    -0.237 OA
ATOM     91  O   UNL     1       0.465  -1.630  -9.195  1.00  0.00    -0.744 OA
ENDBRANCH  87  88
ENDBRANCH  55  80
BRANCH  67  92
ATOM     92  C   UNL     1      -0.453   8.927  -5.419  1.00  0.00     0.058 A 
ATOM     93  C   UNL     1      -1.786   8.921  -5.853  1.00  0.00     0.135 A 
ATOM     94  C   UNL     1       0.379   9.968  -5.866  1.00  0.00     0.135 A 
ATOM     95  F   UNL     1      -2.618   7.941  -5.465  1.00  0.00    -0.206 F 
ATOM     96  C   UNL     1      -2.280   9.915  -6.693  1.00  0.00     0.059 A 
ATOM     97  C   UNL     1      -0.098  10.983  -6.689  1.00  0.00     0.059 A 
ATOM     98  F   UNL     1       1.662  10.021  -5.475  1.00  0.00    -0.206 F 
ATOM     99  C   UNL     1      -1.430  10.947  -7.099  1.00  0.00     0.060 A 
BRANCH  99 100
ATOM    100  S   UNL     1      -2.101  12.273  -8.125  1.00  0.00     0.124 S 
ATOM    101  O   UNL     1      -2.202  11.618  -9.425  1.00  0.00    -0.237 OA
ATOM    102  O   UNL     1      -3.369  12.570  -7.465  1.00  0.00    -0.237 OA
ATOM    103  O   UNL     1      -1.091  13.322  -8.027  1.00  0.00    -0.744 OA
ENDBRANCH  99 100
ENDBRANCH  67  92
ENDBRANCH  41  42
ENDBRANCH  34  36
ENDBRANCH  33  34
ENDBRANCH  32  33
ENDBRANCH  31  32
ENDBRANCH  30  31
ENDBRANCH   1  30
TORSDOF 21
