REMARK SMILES C[C@@H]1C[C@@H](C)C[NH+](C(C)(C)C(=O)OCCOCCOC(=O)c2ccc(-c3c4nc(c(-c5c(F)cc(S(=O)(=O)[O-])cc5F)c5ccc([nH]5)c(-c5c(F)cc(S(=O)(=O)[O-])cc5F)c5nc(c(-c6c(F)cc(S(=O)(=O)[O-])cc6F)c6ccc3[nH]6)C=C5)C=C4)cc2)C1
REMARK SMILES IDX 17 1 16 2 15 3 14 4 13 5 11 6 12 7 8 8 9 9 10 10 7 11 1 12
REMARK SMILES IDX 2 13 3 14 88 15 4 16 6 17 5 18 18 20 19 21 20 22 21 23 22 24
REMARK SMILES IDX 23 25 87 26 24 27 86 28 25 29 26 30 27 31 80 32 28 33 85 34
REMARK SMILES IDX 79 35 81 36 29 37 84 38 78 39 77 40 30 42 64 43 43 44 63 45
REMARK SMILES IDX 44 46 47 47 62 48 82 49 45 50 46 51 61 53 83 54 48 55 31 56
REMARK SMILES IDX 32 57 41 58 33 59 34 60 40 61 42 62 35 63 36 64 37 65 38 66
REMARK SMILES IDX 39 67 65 68 66 69 75 70 67 71 68 72 74 73 76 74 69 75 70 76
REMARK SMILES IDX 71 77 72 78 73 79 49 80 50 81 59 82 51 83 52 84 58 85 60 86
REMARK SMILES IDX 53 87 54 88 55 89 56 90 57 91
REMARK H PARENT 7 19 81 41 47 52
REMARK Flexibility Score: inf
ROOT
ATOM      1  C   UNL     1       5.832  -2.709   0.598  1.00  0.00     0.202 C 
ENDROOT
BRANCH   1   2
ATOM      2  O   UNL     1       6.106  -3.898   1.344  1.00  0.00    -0.374 OA
BRANCH   2   3
ATOM      3  C   UNL     1       6.672  -5.003   0.643  1.00  0.00     0.202 C 
BRANCH   3   4
ATOM      4  C   UNL     1       5.774  -5.732  -0.362  1.00  0.00     0.261 C 
BRANCH   4   5
ATOM      5  O   UNL     1       5.099  -4.824  -1.246  1.00  0.00    -0.459 OA
BRANCH   5   6
ATOM      6  C   UNL     1       3.755  -5.009  -1.361  1.00  0.00     0.367 C 
ATOM      7  O   UNL     1       3.162  -5.987  -0.909  1.00  0.00    -0.245 OA
BRANCH   6   8
ATOM      8  C   UNL     1       3.024  -3.839  -2.107  1.00  0.00     0.190 C 
ATOM      9  C   UNL     1       2.145  -4.551  -3.162  1.00  0.00     0.092 C 
ATOM     10  C   UNL     1       4.037  -2.957  -2.875  1.00  0.00     0.092 C 
BRANCH   8  11
ATOM     11  N   UNL     1       2.248  -2.951  -1.137  1.00  0.00    -0.321 N 
ATOM     12  C   UNL     1       1.287  -0.043  -0.239  1.00  0.00     0.013 C 
ATOM     13  C   UNL     1       0.459  -1.149  -0.900  1.00  0.00     0.042 C 
ATOM     14  C   UNL     1      -0.267  -2.012   0.133  1.00  0.00     0.018 C 
ATOM     15  C   UNL     1       1.301  -2.048  -1.827  1.00  0.00     0.266 C 
ATOM     16  C   UNL     1       0.731  -2.870   0.903  1.00  0.00     0.042 C 
ATOM     17  C   UNL     1       1.572  -3.720  -0.068  1.00  0.00     0.266 C 
ATOM     18  C   UNL     1       0.004  -3.764   1.909  1.00  0.00     0.013 C 
ATOM     19  H   UNL     1       2.949  -2.365  -0.683  1.00  0.00     0.349 HD
ENDBRANCH   8  11
ENDBRANCH   6   8
ENDBRANCH   5   6
ENDBRANCH   4   5
ENDBRANCH   3   4
ENDBRANCH   2   3
ENDBRANCH   1   2
BRANCH   1  20
ATOM     20  C   UNL     1       7.023  -1.975  -0.038  1.00  0.00     0.261 C 
BRANCH  20  21
ATOM     21  O   UNL     1       7.689  -2.738  -1.065  1.00  0.00    -0.460 OA
BRANCH  21  22
ATOM     22  C   UNL     1       9.015  -2.937  -0.861  1.00  0.00     0.338 C 
ATOM     23  O   UNL     1       9.696  -2.498   0.059  1.00  0.00    -0.246 OA
BRANCH  22  24
ATOM     24  C   UNL     1       9.542  -3.923  -1.820  1.00  0.00     0.060 A 
ATOM     25  C   UNL     1      10.019  -5.141  -1.319  1.00  0.00     0.016 A 
ATOM     26  C   UNL     1       9.667  -3.618  -3.176  1.00  0.00     0.016 A 
ATOM     27  C   UNL     1      10.638  -6.055  -2.172  1.00  0.00     0.010 A 
ATOM     28  C   UNL     1      10.301  -4.531  -4.027  1.00  0.00     0.010 A 
ATOM     29  C   UNL     1      10.808  -5.744  -3.527  1.00  0.00    -0.014 A 
BRANCH  29  30
ATOM     30  C   UNL     1      11.596  -6.647  -4.402  1.00  0.00     0.031 A 
ATOM     31  C   UNL     1      13.034  -6.320  -4.701  1.00  0.00     0.074 A 
ATOM     32  C   UNL     1      11.034  -7.754  -4.920  1.00  0.00     0.049 A 
ATOM     33  N   UNL     1      13.877  -6.938  -5.486  1.00  0.00    -0.248 NA
ATOM     34  C   UNL     1      13.594  -5.140  -4.024  1.00  0.00     0.031 C 
ATOM     35  C   UNL     1       9.663  -8.198  -4.671  1.00  0.00     0.029 A 
ATOM     36  N   UNL     1      11.544  -8.700  -5.774  1.00  0.00    -0.354 N 
ATOM     37  C   UNL     1      15.066  -6.223  -5.404  1.00  0.00     0.074 A 
ATOM     38  C   UNL     1      14.828  -5.110  -4.509  1.00  0.00     0.031 C 
ATOM     39  C   UNL     1       9.434  -9.321  -5.372  1.00  0.00     0.029 A 
ATOM     40  C   UNL     1      10.628  -9.656  -6.146  1.00  0.00     0.049 A 
ATOM     41  H   UNL     1      12.476  -8.695  -6.090  1.00  0.00     0.167 HD
ATOM     42  C   UNL     1      16.249  -6.476  -6.015  1.00  0.00     0.037 A 
ATOM     43  C   UNL     1      10.731 -10.665  -7.034  1.00  0.00     0.037 A 
ATOM     44  C   UNL     1      16.479  -7.584  -6.905  1.00  0.00     0.049 A 
ATOM     45  C   UNL     1      12.030 -10.876  -7.767  1.00  0.00     0.074 A 
ATOM     46  C   UNL     1      17.651  -7.943  -7.547  1.00  0.00     0.029 A 
ATOM     47  N   UNL     1      15.515  -8.504  -7.291  1.00  0.00    -0.354 N 
ATOM     48  N   UNL     1      13.155 -10.211  -7.657  1.00  0.00    -0.248 NA
ATOM     49  C   UNL     1      12.072 -11.968  -8.750  1.00  0.00     0.031 C 
ATOM     50  C   UNL     1      17.384  -9.049  -8.361  1.00  0.00     0.029 A 
ATOM     51  C   UNL     1      16.056  -9.408  -8.191  1.00  0.00     0.049 A 
ATOM     52  H   UNL     1      14.584  -8.513  -6.973  1.00  0.00     0.167 HD
ATOM     53  C   UNL     1      14.042 -10.812  -8.544  1.00  0.00     0.074 A 
ATOM     54  C   UNL     1      13.328 -11.903  -9.173  1.00  0.00     0.031 C 
ATOM     55  C   UNL     1      15.331 -10.488  -8.814  1.00  0.00     0.037 A 
BRANCH  42  56
ATOM     56  C   UNL     1      17.382  -5.520  -5.763  1.00  0.00     0.058 A 
ATOM     57  C   UNL     1      18.065  -5.490  -4.538  1.00  0.00     0.135 A 
ATOM     58  C   UNL     1      17.816  -4.650  -6.776  1.00  0.00     0.135 A 
ATOM     59  F   UNL     1      17.682  -6.291  -3.530  1.00  0.00    -0.206 F 
ATOM     60  C   UNL     1      19.124  -4.615  -4.317  1.00  0.00     0.059 A 
ATOM     61  C   UNL     1      18.887  -3.782  -6.586  1.00  0.00     0.059 A 
ATOM     62  F   UNL     1      17.196  -4.637  -7.967  1.00  0.00    -0.206 F 
ATOM     63  C   UNL     1      19.527  -3.763  -5.347  1.00  0.00     0.060 A 
BRANCH  63  64
ATOM     64  S   UNL     1      20.904  -2.634  -5.047  1.00  0.00     0.124 S 
ATOM     65  O   UNL     1      20.283  -1.647  -4.168  1.00  0.00    -0.237 OA
ATOM     66  O   UNL     1      21.892  -3.506  -4.420  1.00  0.00    -0.237 OA
ATOM     67  O   UNL     1      21.250  -2.156  -6.381  1.00  0.00    -0.744 OA
ENDBRANCH  63  64
ENDBRANCH  42  56
BRANCH  43  68
ATOM     68  C   UNL     1       9.556 -11.536  -7.304  1.00  0.00     0.058 A 
ATOM     69  C   UNL     1       9.534 -12.875  -6.890  1.00  0.00     0.135 A 
ATOM     70  C   UNL     1       8.427 -11.040  -7.976  1.00  0.00     0.135 A 
ATOM     71  F   UNL     1      10.595 -13.399  -6.257  1.00  0.00    -0.206 F 
ATOM     72  C   UNL     1       8.438 -13.696  -7.138  1.00  0.00     0.059 A 
ATOM     73  C   UNL     1       7.310 -11.834  -8.214  1.00  0.00     0.059 A 
ATOM     74  F   UNL     1       8.396  -9.762  -8.386  1.00  0.00    -0.206 F 
ATOM     75  C   UNL     1       7.328 -13.164  -7.798  1.00  0.00     0.060 A 
BRANCH  75  76
ATOM     76  S   UNL     1       5.888 -14.220  -8.064  1.00  0.00     0.124 S 
ATOM     77  O   UNL     1       6.355 -15.087  -9.139  1.00  0.00    -0.237 OA
ATOM     78  O   UNL     1       5.725 -14.851  -6.758  1.00  0.00    -0.237 OA
ATOM     79  O   UNL     1       4.840 -13.271  -8.428  1.00  0.00    -0.744 OA
ENDBRANCH  75  76
ENDBRANCH  43  68
BRANCH  55  80
ATOM     80  C   UNL     1      16.062 -11.324  -9.828  1.00  0.00     0.058 A 
ATOM     81  C   UNL     1      15.804 -11.200 -11.202  1.00  0.00     0.135 A 
ATOM     82  C   UNL     1      17.078 -12.207  -9.428  1.00  0.00     0.135 A 
ATOM     83  F   UNL     1      14.837 -10.376 -11.636  1.00  0.00    -0.206 F 
ATOM     84  C   UNL     1      16.522 -11.930 -12.145  1.00  0.00     0.059 A 
ATOM     85  C   UNL     1      17.825 -12.929 -10.355  1.00  0.00     0.059 A 
ATOM     86  F   UNL     1      17.370 -12.357  -8.127  1.00  0.00    -0.206 F 
ATOM     87  C   UNL     1      17.534 -12.788 -11.711  1.00  0.00     0.060 A 
BRANCH  87  88
ATOM     88  S   UNL     1      18.493 -13.689 -12.948  1.00  0.00     0.124 S 
ATOM     89  O   UNL     1      17.538 -14.705 -13.379  1.00  0.00    -0.237 OA
ATOM     90  O   UNL     1      18.797 -12.649 -13.927  1.00  0.00    -0.237 OA
ATOM     91  O   UNL     1      19.640 -14.185 -12.194  1.00  0.00    -0.744 OA
ENDBRANCH  87  88
ENDBRANCH  55  80
ENDBRANCH  29  30
ENDBRANCH  22  24
ENDBRANCH  21  22
ENDBRANCH  20  21
ENDBRANCH   1  20
TORSDOF 18
