REMARK SMILES CC(=O)N1C[C@@H]2C[N@H+](CC(=O)NCc3ccccc3)C[C@]2(C(=O)OCCOCCOC(=O)c2ccc(-c3c4nc(c(-c5c(F)cc(S(=O)(=O)[O-])cc5F)c5ccc([nH]5)c(-c5c(F)cc(S(=O)(=O)[O-])cc5F)c5nc(c(-c6c(F)cc(S(=O)(=O)[O-])cc6F)c6ccc3[nH]6)C=C5)C=C4)cc2)C1
REMARK SMILES IDX 26 1 25 2 24 3 22 4 23 5 21 6 4 7 5 8 99 9 6 10 7 11 20 12
REMARK SMILES IDX 8 13 2 15 1 16 3 17 9 18 10 19 11 20 12 21 13 23 14 24 15 25
REMARK SMILES IDX 19 26 16 27 18 28 17 29 27 30 28 31 29 32 30 33 31 34 32 35
REMARK SMILES IDX 33 36 34 37 98 38 35 39 97 40 36 41 37 42 38 43 91 44 39 45
REMARK SMILES IDX 96 46 90 47 92 48 40 49 95 50 89 51 88 52 41 54 75 55 54 56
REMARK SMILES IDX 74 57 55 58 58 59 73 60 93 61 56 62 57 63 72 65 94 66 59 67
REMARK SMILES IDX 42 68 43 69 52 70 44 71 45 72 51 73 53 74 46 75 47 76 48 77
REMARK SMILES IDX 49 78 50 79 76 80 77 81 86 82 78 83 79 84 85 85 87 86 80 87
REMARK SMILES IDX 81 88 82 89 83 90 84 91 60 92 61 93 70 94 62 95 63 96 69 97
REMARK SMILES IDX 71 98 64 99 65 100 66 101 67 102 68 103
REMARK H PARENT 8 14 12 22 92 53 58 64
REMARK Flexibility Score: inf
ROOT
ATOM      1  C   UNL     1       6.632   2.153   3.579  1.00  0.00     0.202 C 
ENDROOT
BRANCH   1   2
ATOM      2  C   UNL     1       5.378   3.010   3.364  1.00  0.00     0.261 C 
BRANCH   2   3
ATOM      3  O   UNL     1       4.163   2.180   3.361  1.00  0.00    -0.463 OA
BRANCH   3   4
ATOM      4  C   UNL     1       3.208   2.191   4.373  1.00  0.00     0.320 C 
ATOM      5  O   UNL     1       3.295   1.489   5.372  1.00  0.00    -0.251 OA
BRANCH   4   6
ATOM      6  C   UNL     1       1.913   2.845   3.887  1.00  0.00     0.144 C 
ATOM      7  N   UNL     1      -0.011   1.951   2.698  1.00  0.00    -0.341 N 
ATOM      8  C   UNL     1      -0.516   2.998   3.532  1.00  0.00     0.130 C 
ATOM      9  C   UNL     1       1.357   1.677   3.042  1.00  0.00     0.144 C 
ATOM     10  C   UNL     1       0.591   3.275   4.584  1.00  0.00     0.089 C 
ATOM     11  C   UNL     1       0.589   4.795   4.774  1.00  0.00     0.269 C 
ATOM     12  C   UNL     1       2.461   4.196   3.464  1.00  0.00     0.284 C 
ATOM     13  N   UNL     1       1.591   5.266   3.850  1.00  0.00    -0.326 N 
ATOM     14  H   UNL     1       2.037   5.957   4.452  1.00  0.00     0.348 HD
BRANCH   7  15
ATOM     15  C   UNL     1      -0.820   1.337   1.771  1.00  0.00     0.219 C 
ATOM     16  C   UNL     1      -0.300   0.096   1.094  1.00  0.00     0.114 C 
ATOM     17  O   UNL     1      -1.943   1.759   1.490  1.00  0.00    -0.275 OA
ENDBRANCH   7  15
BRANCH  13  18
ATOM     18  C   UNL     1       1.397   6.332   2.878  1.00  0.00     0.363 C 
BRANCH  18  19
ATOM     19  C   UNL     1       0.773   5.854   1.560  1.00  0.00     0.275 C 
ATOM     20  O   UNL     1      -0.452   5.906   1.404  1.00  0.00    -0.268 OA
ATOM     21  N   UNL     1       1.514   5.338   0.531  1.00  0.00    -0.347 N 
ATOM     22  H   UNL     1       0.964   4.989  -0.207  1.00  0.00     0.164 HD
BRANCH  21  23
ATOM     23  C   UNL     1       2.953   5.197   0.295  1.00  0.00     0.151 C 
BRANCH  23  24
ATOM     24  C   UNL     1       3.417   3.763   0.029  1.00  0.00    -0.029 A 
ATOM     25  C   UNL     1       2.559   2.656   0.077  1.00  0.00     0.005 A 
ATOM     26  C   UNL     1       4.779   3.506  -0.214  1.00  0.00     0.005 A 
ATOM     27  C   UNL     1       3.054   1.346  -0.033  1.00  0.00     0.000 A 
ATOM     28  C   UNL     1       5.272   2.195  -0.316  1.00  0.00     0.000 A 
ATOM     29  C   UNL     1       4.411   1.111  -0.199  1.00  0.00     0.000 A 
ENDBRANCH  23  24
ENDBRANCH  21  23
ENDBRANCH  18  19
ENDBRANCH  13  18
ENDBRANCH   4   6
ENDBRANCH   3   4
ENDBRANCH   2   3
ENDBRANCH   1   2
BRANCH   1  30
ATOM     30  O   UNL     1       7.269   2.352   4.842  1.00  0.00    -0.374 OA
BRANCH  30  31
ATOM     31  C   UNL     1       6.417   2.213   5.971  1.00  0.00     0.202 C 
BRANCH  31  32
ATOM     32  C   UNL     1       6.397   3.472   6.845  1.00  0.00     0.261 C 
BRANCH  32  33
ATOM     33  O   UNL     1       6.330   4.694   6.082  1.00  0.00    -0.460 OA
BRANCH  33  34
ATOM     34  C   UNL     1       7.536   5.168   5.695  1.00  0.00     0.338 C 
ATOM     35  O   UNL     1       8.636   4.654   5.923  1.00  0.00    -0.246 OA
BRANCH  34  36
ATOM     36  C   UNL     1       7.420   6.422   4.931  1.00  0.00     0.060 A 
ATOM     37  C   UNL     1       8.270   6.607   3.832  1.00  0.00     0.016 A 
ATOM     38  C   UNL     1       6.636   7.482   5.400  1.00  0.00     0.016 A 
ATOM     39  C   UNL     1       8.412   7.872   3.260  1.00  0.00     0.010 A 
ATOM     40  C   UNL     1       6.782   8.751   4.827  1.00  0.00     0.010 A 
ATOM     41  C   UNL     1       7.715   8.964   3.796  1.00  0.00    -0.014 A 
BRANCH  41  42
ATOM     42  C   UNL     1       8.120  10.347   3.436  1.00  0.00     0.031 A 
ATOM     43  C   UNL     1       9.051  11.090   4.361  1.00  0.00     0.074 A 
ATOM     44  C   UNL     1       7.688  10.931   2.304  1.00  0.00     0.049 A 
ATOM     45  N   UNL     1       9.487  12.321   4.289  1.00  0.00    -0.248 NA
ATOM     46  C   UNL     1       9.555  10.341   5.524  1.00  0.00     0.031 C 
ATOM     47  C   UNL     1       6.823  10.304   1.307  1.00  0.00     0.029 A 
ATOM     48  N   UNL     1       7.913  12.192   1.810  1.00  0.00    -0.354 N 
ATOM     49  C   UNL     1      10.306  12.498   5.400  1.00  0.00     0.074 A 
ATOM     50  C   UNL     1      10.287  11.257   6.142  1.00  0.00     0.031 C 
ATOM     51  C   UNL     1       6.575  11.190   0.326  1.00  0.00     0.029 A 
ATOM     52  C   UNL     1       7.239  12.455   0.641  1.00  0.00     0.049 A 
ATOM     53  H   UNL     1       8.502  12.846   2.251  1.00  0.00     0.167 HD
ATOM     54  C   UNL     1      11.016  13.593   5.766  1.00  0.00     0.037 A 
ATOM     55  C   UNL     1       7.150  13.592  -0.077  1.00  0.00     0.037 A 
ATOM     56  C   UNL     1      11.036  14.826   5.024  1.00  0.00     0.049 A 
ATOM     57  C   UNL     1       7.899  14.818   0.380  1.00  0.00     0.074 A 
ATOM     58  C   UNL     1      11.730  15.990   5.306  1.00  0.00     0.029 A 
ATOM     59  N   UNL     1      10.326  15.057   3.855  1.00  0.00    -0.354 N 
ATOM     60  N   UNL     1       8.677  14.968   1.426  1.00  0.00    -0.248 NA
ATOM     61  C   UNL     1       7.760  16.030  -0.442  1.00  0.00     0.031 C 
ATOM     62  C   UNL     1      11.408  16.938   4.329  1.00  0.00     0.029 A 
ATOM     63  C   UNL     1      10.550  16.349   3.413  1.00  0.00     0.049 A 
ATOM     64  H   UNL     1       9.748  14.398   3.406  1.00  0.00     0.167 HD
ATOM     65  C   UNL     1       9.142  16.279   1.372  1.00  0.00     0.074 A 
ATOM     66  C   UNL     1       8.563  16.878   0.187  1.00  0.00     0.031 C 
ATOM     67  C   UNL     1       9.975  16.927   2.223  1.00  0.00     0.037 A 
BRANCH  54  68
ATOM     68  C   UNL     1      11.809  13.513   7.041  1.00  0.00     0.058 A 
ATOM     69  C   UNL     1      12.987  12.756   7.133  1.00  0.00     0.135 A 
ATOM     70  C   UNL     1      11.397  14.223   8.181  1.00  0.00     0.135 A 
ATOM     71  F   UNL     1      13.416  12.043   6.079  1.00  0.00    -0.206 F 
ATOM     72  C   UNL     1      13.715  12.683   8.316  1.00  0.00     0.059 A 
ATOM     73  C   UNL     1      12.122  14.185   9.368  1.00  0.00     0.059 A 
ATOM     74  F   UNL     1      10.276  14.962   8.148  1.00  0.00    -0.206 F 
ATOM     75  C   UNL     1      13.272  13.399   9.430  1.00  0.00     0.060 A 
BRANCH  75  76
ATOM     76  S   UNL     1      14.224  13.293  10.961  1.00  0.00     0.124 S 
ATOM     77  O   UNL     1      13.875  11.955  11.428  1.00  0.00    -0.237 OA
ATOM     78  O   UNL     1      15.595  13.462  10.490  1.00  0.00    -0.237 OA
ATOM     79  O   UNL     1      13.700  14.394  11.763  1.00  0.00    -0.744 OA
ENDBRANCH  75  76
ENDBRANCH  54  68
BRANCH  55  80
ATOM     80  C   UNL     1       6.306  13.632  -1.301  1.00  0.00     0.058 A 
ATOM     81  C   UNL     1       6.881  13.726  -2.576  1.00  0.00     0.135 A 
ATOM     82  C   UNL     1       4.906  13.574  -1.217  1.00  0.00     0.135 A 
ATOM     83  F   UNL     1       8.214  13.796  -2.707  1.00  0.00    -0.206 F 
ATOM     84  C   UNL     1       6.099  13.770  -3.726  1.00  0.00     0.059 A 
ATOM     85  C   UNL     1       4.104  13.593  -2.353  1.00  0.00     0.059 A 
ATOM     86  F   UNL     1       4.307  13.474  -0.020  1.00  0.00    -0.206 F 
ATOM     87  C   UNL     1       4.710  13.699  -3.604  1.00  0.00     0.060 A 
BRANCH  87  88
ATOM     88  S   UNL     1       3.706  13.695  -5.106  1.00  0.00     0.124 S 
ATOM     89  O   UNL     1       3.786  15.092  -5.516  1.00  0.00    -0.237 OA
ATOM     90  O   UNL     1       4.419  12.739  -5.947  1.00  0.00    -0.237 OA
ATOM     91  O   UNL     1       2.400  13.248  -4.632  1.00  0.00    -0.744 OA
ENDBRANCH  87  88
ENDBRANCH  55  80
BRANCH  67  92
ATOM     92  C   UNL     1      10.348  18.345   1.889  1.00  0.00     0.058 A 
ATOM     93  C   UNL     1       9.448  19.406   2.066  1.00  0.00     0.135 A 
ATOM     94  C   UNL     1      11.646  18.650   1.446  1.00  0.00     0.135 A 
ATOM     95  F   UNL     1       8.195  19.168   2.482  1.00  0.00    -0.206 F 
ATOM     96  C   UNL     1       9.816  20.721   1.797  1.00  0.00     0.059 A 
ATOM     97  C   UNL     1      12.042  19.959   1.195  1.00  0.00     0.059 A 
ATOM     98  F   UNL     1      12.548  17.671   1.272  1.00  0.00    -0.206 F 
ATOM     99  C   UNL     1      11.117  20.988   1.363  1.00  0.00     0.060 A 
BRANCH  99 100
ATOM    100  S   UNL     1      11.595  22.702   1.054  1.00  0.00     0.124 S 
ATOM    101  O   UNL     1      10.935  22.965  -0.220  1.00  0.00    -0.237 OA
ATOM    102  O   UNL     1      11.038  23.396   2.211  1.00  0.00    -0.237 OA
ATOM    103  O   UNL     1      13.053  22.644   1.008  1.00  0.00    -0.744 OA
ENDBRANCH  99 100
ENDBRANCH  67  92
ENDBRANCH  41  42
ENDBRANCH  34  36
ENDBRANCH  33  34
ENDBRANCH  32  33
ENDBRANCH  31  32
ENDBRANCH  30  31
ENDBRANCH   1  30
TORSDOF 22
