REMARK SMILES COc1ccccc1C(=O)N/C(=C/c1ccc2c(c1)OCO2)C(=O)Nc1ccc(C(=O)OCCOCCOC(=O)c2ccc(-c3c4nc(c(-c5c(F)cc(S(=O)(=O)[O-])cc5F)c5ccc([nH]5)c(-c5c(F)cc(S(=O)(=O)[O-])cc5F)c5nc(c(-c6c(F)cc(S(=O)(=O)[O-])cc6F)c6ccc3[nH]6)C=C5)C=C4)cc2)cc1
REMARK SMILES IDX 34 1 33 2 32 3 30 4 31 5 29 6 26 7 27 8 108 9 28 10 107 11
REMARK SMILES IDX 25 12 23 13 24 14 12 16 13 17 11 18 9 19 10 20 8 22 3 23
REMARK SMILES IDX 4 24 5 25 7 26 6 27 2 28 1 29 14 30 15 31 19 32 16 33 18 34
REMARK SMILES IDX 17 35 20 36 22 37 21 38 35 39 36 40 37 41 38 42 39 43 40 44
REMARK SMILES IDX 41 45 42 46 106 47 43 48 105 49 44 50 45 51 46 52 99 53
REMARK SMILES IDX 47 54 104 55 98 56 100 57 48 58 103 59 97 60 96 61 49 63
REMARK SMILES IDX 83 64 62 65 82 66 63 67 66 68 81 69 101 70 64 71 65 72 80 74
REMARK SMILES IDX 102 75 67 76 50 77 51 78 60 79 52 80 53 81 59 82 61 83 54 84
REMARK SMILES IDX 55 85 56 86 57 87 58 88 84 89 85 90 94 91 86 92 87 93 93 94
REMARK SMILES IDX 95 95 88 96 89 97 90 98 91 99 92 100 68 101 69 102 78 103
REMARK SMILES IDX 70 104 71 105 77 106 79 107 72 108 73 109 74 110 75 111
REMARK SMILES IDX 76 112
REMARK H PARENT 25 15 11 21 100 62 66 73
REMARK Flexibility Score: inf
ROOT
ATOM      1  C   UNL     1      -3.897  -3.507  -7.029  1.00  0.00     0.202 C 
ENDROOT
BRANCH   1   2
ATOM      2  C   UNL     1      -2.385  -3.478  -6.771  1.00  0.00     0.261 C 
BRANCH   2   3
ATOM      3  O   UNL     1      -2.068  -3.076  -5.430  1.00  0.00    -0.460 OA
BRANCH   3   4
ATOM      4  C   UNL     1      -1.424  -1.890  -5.351  1.00  0.00     0.338 C 
ATOM      5  O   UNL     1      -0.938  -1.239  -6.260  1.00  0.00    -0.246 OA
BRANCH   4   6
ATOM      6  C   UNL     1      -1.528  -1.356  -3.992  1.00  0.00     0.060 A 
ATOM      7  C   UNL     1      -1.532   0.082  -0.554  1.00  0.00     0.041 A 
ATOM      8  C   UNL     1      -1.449   1.187  -1.935  1.00  0.00     0.027 A 
ATOM      9  C   UNL     1      -1.700  -1.645  -0.874  1.00  0.00     0.027 A 
ATOM     10  C   UNL     1      -1.390   0.429  -3.808  1.00  0.00     0.018 A 
ATOM     11  C   UNL     1      -1.706  -2.335  -2.528  1.00  0.00     0.018 A 
BRANCH   7  12
ATOM     12  N   UNL     1      -0.692   0.523   0.496  1.00  0.00    -0.321 N 
ATOM     13  C   UNL     1       0.276   1.502   0.259  1.00  0.00     0.272 C 
ATOM     14  O   UNL     1       0.196   2.617   0.775  1.00  0.00    -0.267 OA
ATOM     15  H   UNL     1      -0.790   0.138   1.397  1.00  0.00     0.170 HD
BRANCH  13  16
ATOM     16  C   UNL     1       1.540   1.120  -0.537  1.00  0.00     0.108 C 
ATOM     17  C   UNL     1       1.622   1.034  -1.895  1.00  0.00     0.040 C 
BRANCH  16  18
ATOM     18  N   UNL     1       2.710   0.834   0.155  1.00  0.00    -0.317 N 
ATOM     19  C   UNL     1       3.108   0.850   1.473  1.00  0.00     0.259 C 
ATOM     20  O   UNL     1       4.241   0.443   1.742  1.00  0.00    -0.269 OA
ATOM     21  H   UNL     1       3.436   0.550  -0.447  1.00  0.00     0.170 HD
BRANCH  19  22
ATOM     22  C   UNL     1       2.325   1.428   2.574  1.00  0.00     0.082 A 
ATOM     23  C   UNL     1       1.151   0.902   3.124  1.00  0.00     0.131 A 
ATOM     24  C   UNL     1       0.456   1.671   4.071  1.00  0.00     0.047 A 
ATOM     25  C   UNL     1       0.978   2.870   4.559  1.00  0.00     0.004 A 
ATOM     26  C   UNL     1       2.882   2.603   3.119  1.00  0.00     0.018 A 
ATOM     27  C   UNL     1       2.216   3.315   4.114  1.00  0.00     0.001 A 
BRANCH  23  28
ATOM     28  O   UNL     1       0.516  -0.275   2.837  1.00  0.00    -0.496 OA
ATOM     29  C   UNL     1       1.302  -1.358   2.353  1.00  0.00     0.278 C 
ENDBRANCH  23  28
ENDBRANCH  19  22
ENDBRANCH  16  18
BRANCH  17  30
ATOM     30  C   UNL     1       0.458   0.990  -2.799  1.00  0.00    -0.019 A 
ATOM     31  C   UNL     1      -0.551  -0.429  -2.356  1.00  0.00     0.012 A 
ATOM     32  C   UNL     1      -0.356   2.438  -3.422  1.00  0.00     0.058 A 
ATOM     33  C   UNL     1      -2.564  -0.252  -2.466  1.00  0.00     0.051 A 
ATOM     34  C   UNL     1      -2.124   2.539  -3.550  1.00  0.00     0.166 A 
ATOM     35  C   UNL     1      -3.217   1.284  -3.098  1.00  0.00     0.165 A 
ATOM     36  O   UNL     1      -2.860   3.699  -3.538  1.00  0.00    -0.454 OA
ATOM     37  O   UNL     1      -4.438   1.838  -2.885  1.00  0.00    -0.454 OA
ATOM     38  C   UNL     1      -4.081   3.261  -2.845  1.00  0.00     0.468 C 
ENDBRANCH  17  30
ENDBRANCH  13  16
ENDBRANCH   7  12
ENDBRANCH   4   6
ENDBRANCH   3   4
ENDBRANCH   2   3
ENDBRANCH   1   2
BRANCH   1  39
ATOM     39  O   UNL     1      -4.642  -2.336  -6.706  1.00  0.00    -0.374 OA
BRANCH  39  40
ATOM     40  C   UNL     1      -4.864  -2.034  -5.327  1.00  0.00     0.202 C 
BRANCH  40  41
ATOM     41  C   UNL     1      -5.608  -3.067  -4.471  1.00  0.00     0.261 C 
BRANCH  41  42
ATOM     42  O   UNL     1      -4.817  -4.247  -4.223  1.00  0.00    -0.460 OA
BRANCH  42  43
ATOM     43  C   UNL     1      -5.405  -5.413  -4.592  1.00  0.00     0.338 C 
ATOM     44  O   UNL     1      -6.527  -5.564  -5.043  1.00  0.00    -0.246 OA
BRANCH  43  45
ATOM     45  C   UNL     1      -4.422  -6.507  -4.545  1.00  0.00     0.060 A 
ATOM     46  C   UNL     1      -4.014  -7.080  -5.757  1.00  0.00     0.016 A 
ATOM     47  C   UNL     1      -4.010  -7.048  -3.327  1.00  0.00     0.016 A 
ATOM     48  C   UNL     1      -3.213  -8.219  -5.754  1.00  0.00     0.010 A 
ATOM     49  C   UNL     1      -3.216  -8.200  -3.327  1.00  0.00     0.010 A 
ATOM     50  C   UNL     1      -2.841  -8.808  -4.539  1.00  0.00    -0.014 A 
BRANCH  50  51
ATOM     51  C   UNL     1      -2.190 -10.139  -4.545  1.00  0.00     0.031 A 
ATOM     52  C   UNL     1      -3.030 -11.363  -4.303  1.00  0.00     0.074 A 
ATOM     53  C   UNL     1      -0.874 -10.256  -4.794  1.00  0.00     0.049 A 
ATOM     54  N   UNL     1      -2.666 -12.616  -4.227  1.00  0.00    -0.248 NA
ATOM     55  C   UNL     1      -4.475 -11.143  -4.122  1.00  0.00     0.031 C 
ATOM     56  C   UNL     1       0.031  -9.145  -5.087  1.00  0.00     0.029 A 
ATOM     57  N   UNL     1      -0.069 -11.366  -4.834  1.00  0.00    -0.354 N 
ATOM     58  C   UNL     1      -3.831 -13.335  -3.984  1.00  0.00     0.074 A 
ATOM     59  C   UNL     1      -4.910 -12.375  -3.899  1.00  0.00     0.031 C 
ATOM     60  C   UNL     1       1.273  -9.629  -5.262  1.00  0.00     0.029 A 
ATOM     61  C   UNL     1       1.255 -11.077  -5.064  1.00  0.00     0.049 A 
ATOM     62  H   UNL     1      -0.407 -12.282  -4.709  1.00  0.00     0.167 HD
ATOM     63  C   UNL     1      -3.986 -14.674  -3.851  1.00  0.00     0.037 A 
ATOM     64  C   UNL     1       2.332 -11.888  -5.087  1.00  0.00     0.037 A 
ATOM     65  C   UNL     1      -2.906 -15.622  -3.939  1.00  0.00     0.049 A 
ATOM     66  C   UNL     1       2.144 -13.367  -4.873  1.00  0.00     0.074 A 
ATOM     67  C   UNL     1      -2.961 -17.001  -3.832  1.00  0.00     0.029 A 
ATOM     68  N   UNL     1      -1.576 -15.290  -4.147  1.00  0.00    -0.354 N 
ATOM     69  N   UNL     1       1.035 -14.036  -4.660  1.00  0.00    -0.248 NA
ATOM     70  C   UNL     1       3.352 -14.204  -4.907  1.00  0.00     0.031 C 
ATOM     71  C   UNL     1      -1.657 -17.499  -3.929  1.00  0.00     0.029 A 
ATOM     72  C   UNL     1      -0.796 -16.435  -4.149  1.00  0.00     0.049 A 
ATOM     73  H   UNL     1      -1.236 -14.375  -4.275  1.00  0.00     0.167 HD
ATOM     74  C   UNL     1       1.409 -15.373  -4.562  1.00  0.00     0.074 A 
ATOM     75  C   UNL     1       2.845 -15.418  -4.747  1.00  0.00     0.031 C 
ATOM     76  C   UNL     1       0.633 -16.463  -4.343  1.00  0.00     0.037 A 
BRANCH  63  77
ATOM     77  C   UNL     1      -5.370 -15.190  -3.568  1.00  0.00     0.058 A 
ATOM     78  C   UNL     1      -6.375 -15.192  -4.548  1.00  0.00     0.135 A 
ATOM     79  C   UNL     1      -5.686 -15.718  -2.305  1.00  0.00     0.135 A 
ATOM     80  F   UNL     1      -6.133 -14.682  -5.766  1.00  0.00    -0.206 F 
ATOM     81  C   UNL     1      -7.652 -15.675  -4.279  1.00  0.00     0.059 A 
ATOM     82  C   UNL     1      -6.949 -16.230  -2.022  1.00  0.00     0.059 A 
ATOM     83  F   UNL     1      -4.763 -15.737  -1.331  1.00  0.00    -0.206 F 
ATOM     84  C   UNL     1      -7.929 -16.191  -3.011  1.00  0.00     0.060 A 
BRANCH  84  85
ATOM     85  S   UNL     1      -9.590 -16.815  -2.677  1.00  0.00     0.124 S 
ATOM     86  O   UNL     1     -10.354 -15.575  -2.588  1.00  0.00    -0.237 OA
ATOM     87  O   UNL     1      -9.856 -17.640  -3.851  1.00  0.00    -0.237 OA
ATOM     88  O   UNL     1      -9.433 -17.546  -1.424  1.00  0.00    -0.744 OA
ENDBRANCH  84  85
ENDBRANCH  63  77
BRANCH  64  89
ATOM     89  C   UNL     1       3.686 -11.314  -5.308  1.00  0.00     0.058 A 
ATOM     90  C   UNL     1       4.393 -11.555  -6.495  1.00  0.00     0.135 A 
ATOM     91  C   UNL     1       4.296 -10.506  -4.336  1.00  0.00     0.135 A 
ATOM     92  F   UNL     1       3.856 -12.330  -7.449  1.00  0.00    -0.206 F 
ATOM     93  C   UNL     1       5.662 -11.025  -6.707  1.00  0.00     0.059 A 
ATOM     94  C   UNL     1       5.553  -9.945  -4.535  1.00  0.00     0.059 A 
ATOM     95  F   UNL     1       3.657 -10.236  -3.187  1.00  0.00    -0.206 F 
ATOM     96  C   UNL     1       6.232 -10.218  -5.721  1.00  0.00     0.060 A 
BRANCH  96  97
ATOM     97  S   UNL     1       7.856  -9.490  -6.028  1.00  0.00     0.124 S 
ATOM     98  O   UNL     1       8.730 -10.647  -5.873  1.00  0.00    -0.237 OA
ATOM     99  O   UNL     1       7.710  -8.976  -7.387  1.00  0.00    -0.237 OA
ATOM    100  O   UNL     1       7.967  -8.470  -4.990  1.00  0.00    -0.744 OA
ENDBRANCH  96  97
ENDBRANCH  64  89
BRANCH  76 101
ATOM    101  C   UNL     1       1.310 -17.806  -4.327  1.00  0.00     0.058 A 
ATOM    102  C   UNL     1       2.113 -18.218  -3.253  1.00  0.00     0.135 A 
ATOM    103  C   UNL     1       1.103 -18.717  -5.377  1.00  0.00     0.135 A 
ATOM    104  F   UNL     1       2.347 -17.384  -2.227  1.00  0.00    -0.206 F 
ATOM    105  C   UNL     1       2.704 -19.477  -3.228  1.00  0.00     0.059 A 
ATOM    106  C   UNL     1       1.662 -19.991  -5.361  1.00  0.00     0.059 A 
ATOM    107  F   UNL     1       0.334 -18.378  -6.424  1.00  0.00    -0.206 F 
ATOM    108  C   UNL     1       2.470 -20.358  -4.286  1.00  0.00     0.060 A 
BRANCH 108 109
ATOM    109  S   UNL     1       3.212 -22.003  -4.225  1.00  0.00     0.124 S 
ATOM    110  O   UNL     1       4.609 -21.706  -4.527  1.00  0.00    -0.237 OA
ATOM    111  O   UNL     1       2.935 -22.420  -2.854  1.00  0.00    -0.237 OA
ATOM    112  O   UNL     1       2.489 -22.740  -5.257  1.00  0.00    -0.744 OA
ENDBRANCH 108 109
ENDBRANCH  76 101
ENDBRANCH  50  51
ENDBRANCH  43  45
ENDBRANCH  42  43
ENDBRANCH  41  42
ENDBRANCH  40  41
ENDBRANCH  39  40
ENDBRANCH   1  39
TORSDOF 23
