REMARK SMILES Cc1cccc(N2C(=O)/C(=C/c3ccc(C(=O)OCCOCCOC(=O)c4ccc(-c5c6nc(c(-c7c(F)cc(S(=O)(=O)[O-])cc7F)c7ccc([nH]7)c(-c7c(F)cc(S(=O)(=O)[O-])cc7F)c7nc(c(-c8c(F)cc(S(=O)(=O)[O-])cc8F)c8ccc5[nH]8)C=C7)C=C6)cc4)cc3)c3ccccc3C2=O)c1
REMARK SMILES IDX 22 1 21 2 20 3 19 4 18 5 16 6 17 7 15 8 12 9 13 10 94 11
REMARK SMILES IDX 14 12 93 13 11 14 7 15 8 16 101 17 9 18 10 19 100 20 102 21
REMARK SMILES IDX 95 22 99 23 96 24 98 25 97 26 6 27 1 28 2 29 3 30 103 31
REMARK SMILES IDX 4 32 5 33 23 34 24 35 25 36 26 37 27 38 28 39 92 40 29 41
REMARK SMILES IDX 91 42 30 43 31 44 32 45 85 46 33 47 90 48 84 49 86 50 34 51
REMARK SMILES IDX 89 52 83 53 82 54 35 56 69 57 48 58 68 59 49 60 52 61 67 62
REMARK SMILES IDX 87 63 50 64 51 65 66 67 88 68 53 69 36 70 37 71 46 72 38 73
REMARK SMILES IDX 39 74 45 75 47 76 40 77 41 78 42 79 43 80 44 81 70 82 71 83
REMARK SMILES IDX 80 84 72 85 73 86 79 87 81 88 74 89 75 90 76 91 77 92 78 93
REMARK SMILES IDX 54 94 55 95 64 96 56 97 57 98 63 99 65 100 58 101 59 102
REMARK SMILES IDX 60 103 61 104 62 105
REMARK H PARENT 86 55 52 66
REMARK Flexibility Score: inf
ROOT
ATOM      1  C   UNL     1      -1.483  12.956   1.218  1.00  0.00     0.202 C 
ENDROOT
BRANCH   1   2
ATOM      2  O   UNL     1      -2.759  12.544   0.790  1.00  0.00    -0.374 OA
BRANCH   2   3
ATOM      3  C   UNL     1      -3.602  11.974   1.780  1.00  0.00     0.202 C 
BRANCH   3   4
ATOM      4  C   UNL     1      -4.782  11.411   1.039  1.00  0.00     0.261 C 
BRANCH   4   5
ATOM      5  O   UNL     1      -4.423  10.333   0.142  1.00  0.00    -0.460 OA
BRANCH   5   6
ATOM      6  C   UNL     1      -3.792  10.572  -1.050  1.00  0.00     0.338 C 
ATOM      7  O   UNL     1      -3.516  11.593  -1.600  1.00  0.00    -0.246 OA
BRANCH   6   8
ATOM      8  C   UNL     1      -3.296   9.258  -1.490  1.00  0.00     0.060 A 
ATOM      9  C   UNL     1      -2.082   6.806  -1.398  1.00  0.00    -0.025 A 
ATOM     10  C   UNL     1      -1.319   7.935  -1.720  1.00  0.00     0.009 A 
ATOM     11  C   UNL     1      -3.480   6.877  -1.380  1.00  0.00     0.009 A 
ATOM     12  C   UNL     1      -1.935   9.175  -1.782  1.00  0.00     0.016 A 
ATOM     13  C   UNL     1      -4.092   8.118  -1.382  1.00  0.00     0.016 A 
BRANCH   9  14
ATOM     14  C   UNL     1      -1.382   5.604  -0.953  1.00  0.00     0.022 C 
ATOM     15  N   UNL     1      -1.609   2.498   0.531  1.00  0.00    -0.242 N 
ATOM     16  C   UNL     1      -0.849   3.661   0.300  1.00  0.00     0.265 C 
ATOM     17  C   UNL     1      -2.967   2.590   0.937  1.00  0.00     0.265 C 
ATOM     18  O   UNL     1       0.367   3.780   0.171  1.00  0.00    -0.268 OA
ATOM     19  C   UNL     1      -1.671   4.890   0.156  1.00  0.00     0.049 C 
ATOM     20  C   UNL     1      -3.446   3.903   1.451  1.00  0.00     0.048 A 
ATOM     21  O   UNL     1      -3.803   1.689   0.954  1.00  0.00    -0.268 OA
ATOM     22  C   UNL     1      -2.758   5.064   1.115  1.00  0.00    -0.000 A 
ATOM     23  C   UNL     1      -4.584   3.967   2.270  1.00  0.00     0.014 A 
ATOM     24  C   UNL     1      -3.148   6.283   1.689  1.00  0.00     0.010 A 
ATOM     25  C   UNL     1      -5.003   5.191   2.791  1.00  0.00     0.001 A 
ATOM     26  C   UNL     1      -4.275   6.346   2.514  1.00  0.00     0.001 A 
BRANCH  15  27
ATOM     27  C   UNL     1      -0.986   1.189   0.327  1.00  0.00     0.053 A 
ATOM     28  C   UNL     1       2.536  -0.291  -0.033  1.00  0.00     0.044 C 
ATOM     29  C   UNL     1       1.039  -0.208   0.040  1.00  0.00    -0.049 A 
ATOM     30  C   UNL     1       0.257  -1.350  -0.084  1.00  0.00     0.003 A 
ATOM     31  C   UNL     1       0.412   1.031   0.261  1.00  0.00     0.030 A 
ATOM     32  C   UNL     1      -1.125  -1.241  -0.016  1.00  0.00     0.002 A 
ATOM     33  C   UNL     1      -1.733   0.008   0.176  1.00  0.00     0.027 A 
ENDBRANCH  15  27
ENDBRANCH   9  14
ENDBRANCH   6   8
ENDBRANCH   5   6
ENDBRANCH   4   5
ENDBRANCH   3   4
ENDBRANCH   2   3
ENDBRANCH   1   2
BRANCH   1  34
ATOM     34  C   UNL     1      -1.541  14.098   2.234  1.00  0.00     0.261 C 
BRANCH  34  35
ATOM     35  O   UNL     1      -1.972  15.321   1.600  1.00  0.00    -0.460 OA
BRANCH  35  36
ATOM     36  C   UNL     1      -3.260  15.689   1.861  1.00  0.00     0.338 C 
ATOM     37  O   UNL     1      -3.622  16.192   2.909  1.00  0.00    -0.246 OA
BRANCH  36  38
ATOM     38  C   UNL     1      -4.131  15.396   0.688  1.00  0.00     0.060 A 
ATOM     39  C   UNL     1      -5.524  15.263   0.826  1.00  0.00     0.016 A 
ATOM     40  C   UNL     1      -3.527  15.078  -0.524  1.00  0.00     0.016 A 
ATOM     41  C   UNL     1      -6.290  14.675  -0.199  1.00  0.00     0.010 A 
ATOM     42  C   UNL     1      -4.269  14.438  -1.492  1.00  0.00     0.010 A 
ATOM     43  C   UNL     1      -5.646  14.198  -1.336  1.00  0.00    -0.014 A 
BRANCH  43  44
ATOM     44  C   UNL     1      -6.226  13.396  -2.423  1.00  0.00     0.031 A 
ATOM     45  C   UNL     1      -6.111  13.933  -3.805  1.00  0.00     0.074 A 
ATOM     46  C   UNL     1      -6.471  12.072  -2.250  1.00  0.00     0.049 A 
ATOM     47  N   UNL     1      -6.483  13.296  -4.859  1.00  0.00    -0.248 NA
ATOM     48  C   UNL     1      -5.579  15.260  -4.127  1.00  0.00     0.031 C 
ATOM     49  C   UNL     1      -6.341  10.999  -3.242  1.00  0.00     0.029 A 
ATOM     50  N   UNL     1      -6.906  11.380  -1.115  1.00  0.00    -0.354 N 
ATOM     51  C   UNL     1      -5.896  13.903  -5.942  1.00  0.00     0.074 A 
ATOM     52  C   UNL     1      -5.484  15.194  -5.459  1.00  0.00     0.031 C 
ATOM     53  C   UNL     1      -6.938   9.885  -2.786  1.00  0.00     0.029 A 
ATOM     54  C   UNL     1      -7.599  10.239  -1.544  1.00  0.00     0.049 A 
ATOM     55  H   UNL     1      -6.753  11.648  -0.180  1.00  0.00     0.167 HD
ATOM     56  C   UNL     1      -5.712  13.157  -7.068  1.00  0.00     0.037 A 
ATOM     57  C   UNL     1      -8.912  10.073  -1.231  1.00  0.00     0.037 A 
ATOM     58  C   UNL     1      -6.470  11.900  -6.970  1.00  0.00     0.049 A 
ATOM     59  C   UNL     1      -9.712  10.079  -2.502  1.00  0.00     0.074 A 
ATOM     60  C   UNL     1      -6.124  10.567  -6.846  1.00  0.00     0.029 A 
ATOM     61  N   UNL     1      -7.840  11.971  -6.702  1.00  0.00    -0.354 N 
ATOM     62  N   UNL     1      -9.250  10.600  -3.608  1.00  0.00    -0.248 NA
ATOM     63  C   UNL     1     -10.996   9.417  -2.698  1.00  0.00     0.031 C 
ATOM     64  C   UNL     1      -7.276   9.863  -6.375  1.00  0.00     0.029 A 
ATOM     65  C   UNL     1      -8.331  10.759  -6.261  1.00  0.00     0.049 A 
ATOM     66  H   UNL     1      -8.386  12.783  -6.814  1.00  0.00     0.167 HD
ATOM     67  C   UNL     1     -10.064  10.285  -4.647  1.00  0.00     0.074 A 
ATOM     68  C   UNL     1     -11.174   9.583  -4.023  1.00  0.00     0.031 C 
ATOM     69  C   UNL     1      -9.750  10.609  -5.934  1.00  0.00     0.037 A 
BRANCH  56  70
ATOM     70  C   UNL     1      -4.740  13.475  -8.193  1.00  0.00     0.058 A 
ATOM     71  C   UNL     1      -4.713  12.673  -9.357  1.00  0.00     0.135 A 
ATOM     72  C   UNL     1      -3.746  14.480  -8.161  1.00  0.00     0.135 A 
ATOM     73  F   UNL     1      -5.568  11.651  -9.513  1.00  0.00    -0.206 F 
ATOM     74  C   UNL     1      -3.799  12.866 -10.401  1.00  0.00     0.059 A 
ATOM     75  C   UNL     1      -2.854  14.723  -9.213  1.00  0.00     0.059 A 
ATOM     76  F   UNL     1      -3.538  15.246  -7.085  1.00  0.00    -0.206 F 
ATOM     77  C   UNL     1      -2.878  13.902 -10.327  1.00  0.00     0.060 A 
BRANCH  77  78
ATOM     78  S   UNL     1      -1.712  14.157 -11.679  1.00  0.00     0.124 S 
ATOM     79  O   UNL     1      -0.869  12.969 -11.580  1.00  0.00    -0.237 OA
ATOM     80  O   UNL     1      -2.591  14.218 -12.842  1.00  0.00    -0.237 OA
ATOM     81  O   UNL     1      -1.056  15.415 -11.333  1.00  0.00    -0.744 OA
ENDBRANCH  77  78
ENDBRANCH  56  70
BRANCH  57  82
ATOM     82  C   UNL     1      -9.223  10.600   0.137  1.00  0.00     0.058 A 
ATOM     83  C   UNL     1      -8.720   9.844   1.222  1.00  0.00     0.135 A 
ATOM     84  C   UNL     1      -9.426  11.971   0.368  1.00  0.00     0.135 A 
ATOM     85  F   UNL     1      -8.488   8.529   1.068  1.00  0.00    -0.206 F 
ATOM     86  C   UNL     1      -8.283  10.437   2.408  1.00  0.00     0.059 A 
ATOM     87  C   UNL     1      -8.981  12.588   1.548  1.00  0.00     0.059 A 
ATOM     88  F   UNL     1      -9.890  12.757  -0.615  1.00  0.00    -0.206 F 
ATOM     89  C   UNL     1      -8.357  11.822   2.536  1.00  0.00     0.060 A 
BRANCH  89  90
ATOM     90  S   UNL     1      -7.407  12.618   3.867  1.00  0.00     0.124 S 
ATOM     91  O   UNL     1      -8.305  12.479   5.006  1.00  0.00    -0.237 OA
ATOM     92  O   UNL     1      -6.191  11.808   3.921  1.00  0.00    -0.237 OA
ATOM     93  O   UNL     1      -7.212  13.974   3.367  1.00  0.00    -0.744 OA
ENDBRANCH  89  90
ENDBRANCH  57  82
BRANCH  69  94
ATOM     94  C   UNL     1     -10.775  10.771  -7.022  1.00  0.00     0.058 A 
ATOM     95  C   UNL     1     -12.122  11.081  -6.765  1.00  0.00     0.135 A 
ATOM     96  C   UNL     1     -10.380  10.818  -8.380  1.00  0.00     0.135 A 
ATOM     97  F   UNL     1     -12.596  11.193  -5.516  1.00  0.00    -0.206 F 
ATOM     98  C   UNL     1     -13.031  11.340  -7.783  1.00  0.00     0.059 A 
ATOM     99  C   UNL     1     -11.256  11.148  -9.406  1.00  0.00     0.059 A 
ATOM    100  F   UNL     1      -9.117  10.570  -8.756  1.00  0.00    -0.206 F 
ATOM    101  C   UNL     1     -12.589  11.373  -9.100  1.00  0.00     0.060 A 
BRANCH 101 102
ATOM    102  S   UNL     1     -13.764  11.745 -10.406  1.00  0.00     0.124 S 
ATOM    103  O   UNL     1     -14.358  10.432 -10.636  1.00  0.00    -0.237 OA
ATOM    104  O   UNL     1     -14.638  12.732  -9.777  1.00  0.00    -0.237 OA
ATOM    105  O   UNL     1     -12.923  12.258 -11.482  1.00  0.00    -0.744 OA
ENDBRANCH 101 102
ENDBRANCH  69  94
ENDBRANCH  43  44
ENDBRANCH  36  38
ENDBRANCH  35  36
ENDBRANCH  34  35
ENDBRANCH   1  34
TORSDOF 19
