REMARK SMILES CCc1cc(C(=O)c2[nH]c3cc(Cl)ccc3c2CC(=O)OCCOCCOC(=O)c2ccc(-c3c4nc(c(-c5c(F)cc(S(=O)(=O)[O-])cc5F)c5ccc([nH]5)c(-c5c(F)cc(S(=O)(=O)[O-])cc5F)c5nc(c(-c6c(F)cc(S(=O)(=O)[O-])cc6F)c6ccc3[nH]6)C=C5)C=C4)cc2)ncc1Cl
REMARK SMILES IDX 23 1 22 2 21 3 19 4 20 5 18 6 17 7 8 8 9 9 10 10 16 12 11 13
REMARK SMILES IDX 15 14 12 15 14 16 13 17 6 18 7 19 5 20 3 21 4 22 98 23 97 24
REMARK SMILES IDX 99 25 96 26 2 27 1 28 24 29 25 30 26 31 27 32 28 33 29 34
REMARK SMILES IDX 30 35 31 36 95 37 32 38 94 39 33 40 34 41 35 42 88 43 36 44
REMARK SMILES IDX 93 45 87 46 89 47 37 48 92 49 86 50 85 51 38 53 72 54 51 55
REMARK SMILES IDX 71 56 52 57 55 58 70 59 90 60 53 61 54 62 69 64 91 65 56 66
REMARK SMILES IDX 39 67 40 68 49 69 41 70 42 71 48 72 50 73 43 74 44 75 45 76
REMARK SMILES IDX 46 77 47 78 73 79 74 80 83 81 75 82 76 83 82 84 84 85 77 86
REMARK SMILES IDX 78 87 79 88 80 89 81 90 57 91 58 92 67 93 59 94 60 95 66 96
REMARK SMILES IDX 68 97 61 98 62 99 63 100 64 101 65 102
REMARK H PARENT 9 11 89 52 55 63
REMARK Flexibility Score: inf
ROOT
ATOM      1  C   UNL     1       4.064   1.256   9.062  1.00  0.00     0.202 C 
ENDROOT
BRANCH   1   2
ATOM      2  C   UNL     1       5.146   1.968   8.241  1.00  0.00     0.261 C 
BRANCH   2   3
ATOM      3  O   UNL     1       4.729   2.192   6.873  1.00  0.00    -0.463 OA
BRANCH   3   4
ATOM      4  C   UNL     1       5.664   1.913   5.926  1.00  0.00     0.310 C 
ATOM      5  O   UNL     1       6.820   1.578   6.178  1.00  0.00    -0.252 OA
BRANCH   4   6
ATOM      6  C   UNL     1       5.217   2.126   4.495  1.00  0.00     0.161 C 
BRANCH   6   7
ATOM      7  C   UNL     1       3.746   2.276   4.205  1.00  0.00     0.000 A 
ATOM      8  C   UNL     1       2.814   1.255   3.993  1.00  0.00     0.093 A 
ATOM      9  N   UNL     1       1.595   1.871   3.797  1.00  0.00    -0.351 N 
ATOM     10  C   UNL     1       1.766   3.214   3.567  1.00  0.00     0.048 A 
ATOM     11  H   UNL     1       0.724   1.412   3.819  1.00  0.00     0.167 HD
ATOM     12  C   UNL     1       3.095   3.508   3.860  1.00  0.00     0.004 A 
ATOM     13  C   UNL     1       0.854   4.180   3.119  1.00  0.00     0.047 A 
ATOM     14  C   UNL     1       3.537   4.840   3.711  1.00  0.00     0.012 A 
ATOM     15  C   UNL     1       1.334   5.480   2.936  1.00  0.00     0.043 A 
ATOM     16  C   UNL     1       2.651   5.814   3.231  1.00  0.00     0.021 A 
ATOM     17  Cl  UNL     1       0.277   6.684   2.302  1.00  0.00    -0.084 Cl
BRANCH   8  18
ATOM     18  C   UNL     1       3.049  -0.186   3.987  1.00  0.00     0.227 C 
ATOM     19  O   UNL     1       4.061  -0.687   4.472  1.00  0.00    -0.285 OA
BRANCH  18  20
ATOM     20  C   UNL     1       2.082  -1.107   3.311  1.00  0.00     0.113 A 
ATOM     21  C   UNL     1       0.794  -1.760   1.367  1.00  0.00    -0.026 A 
ATOM     22  C   UNL     1       1.581  -0.811   2.042  1.00  0.00     0.037 A 
ATOM     23  C   UNL     1       0.552  -2.982   2.018  1.00  0.00     0.062 A 
ATOM     24  C   UNL     1       1.081  -3.184   3.288  1.00  0.00     0.132 A 
ATOM     25  Cl  UNL     1      -0.354  -4.256   1.290  1.00  0.00    -0.082 Cl
ATOM     26  N   UNL     1       1.832  -2.276   3.951  1.00  0.00    -0.251 NA
BRANCH  21  27
ATOM     27  C   UNL     1       0.247  -1.511  -0.024  1.00  0.00     0.034 C 
ATOM     28  C   UNL     1       0.596  -0.177  -0.675  1.00  0.00     0.009 C 
ENDBRANCH  21  27
ENDBRANCH  18  20
ENDBRANCH   8  18
ENDBRANCH   6   7
ENDBRANCH   4   6
ENDBRANCH   3   4
ENDBRANCH   2   3
ENDBRANCH   1   2
BRANCH   1  29
ATOM     29  O   UNL     1       3.882  -0.137   8.782  1.00  0.00    -0.374 OA
BRANCH  29  30
ATOM     30  C   UNL     1       3.328  -0.454   7.506  1.00  0.00     0.202 C 
BRANCH  30  31
ATOM     31  C   UNL     1       1.800  -0.389   7.417  1.00  0.00     0.261 C 
BRANCH  31  32
ATOM     32  O   UNL     1       1.282   0.871   7.875  1.00  0.00    -0.460 OA
BRANCH  32  33
ATOM     33  C   UNL     1       0.535   0.780   8.998  1.00  0.00     0.338 C 
ATOM     34  O   UNL     1       0.101  -0.244   9.515  1.00  0.00    -0.246 OA
BRANCH  33  35
ATOM     35  C   UNL     1       0.416   2.091   9.655  1.00  0.00     0.060 A 
ATOM     36  C   UNL     1       0.790   2.155  11.001  1.00  0.00     0.016 A 
ATOM     37  C   UNL     1      -0.131   3.206   9.013  1.00  0.00     0.016 A 
ATOM     38  C   UNL     1       0.550   3.313  11.732  1.00  0.00     0.010 A 
ATOM     39  C   UNL     1      -0.371   4.372   9.752  1.00  0.00     0.010 A 
ATOM     40  C   UNL     1      -0.073   4.413  11.125  1.00  0.00    -0.014 A 
BRANCH  40  41
ATOM     41  C   UNL     1      -0.509   5.532  11.995  1.00  0.00     0.031 A 
ATOM     42  C   UNL     1      -1.934   5.577  12.477  1.00  0.00     0.074 A 
ATOM     43  C   UNL     1       0.392   6.424  12.443  1.00  0.00     0.049 A 
ATOM     44  N   UNL     1      -2.480   6.354  13.376  1.00  0.00    -0.248 NA
ATOM     45  C   UNL     1      -2.866   4.613  11.870  1.00  0.00     0.031 C 
ATOM     46  C   UNL     1       1.800   6.468  12.049  1.00  0.00     0.029 A 
ATOM     47  N   UNL     1       0.264   7.446  13.348  1.00  0.00    -0.354 N 
ATOM     48  C   UNL     1      -3.813   5.965  13.455  1.00  0.00     0.074 A 
ATOM     49  C   UNL     1      -4.004   4.913  12.481  1.00  0.00     0.031 C 
ATOM     50  C   UNL     1       2.412   7.455  12.725  1.00  0.00     0.029 A 
ATOM     51  C   UNL     1       1.440   8.114  13.594  1.00  0.00     0.049 A 
ATOM     52  H   UNL     1      -0.589   7.680  13.780  1.00  0.00     0.167 HD
ATOM     53  C   UNL     1      -4.784   6.431  14.278  1.00  0.00     0.037 A 
ATOM     54  C   UNL     1       1.704   9.130  14.438  1.00  0.00     0.037 A 
ATOM     55  C   UNL     1      -4.585   7.486  15.239  1.00  0.00     0.049 A 
ATOM     56  C   UNL     1       0.606   9.640  15.333  1.00  0.00     0.074 A 
ATOM     57  C   UNL     1      -5.497   8.031  16.125  1.00  0.00     0.029 A 
ATOM     58  N   UNL     1      -3.387   8.159  15.437  1.00  0.00    -0.354 N 
ATOM     59  N   UNL     1      -0.640   9.237  15.422  1.00  0.00    -0.248 NA
ATOM     60  C   UNL     1       0.954  10.730  16.254  1.00  0.00     0.031 C 
ATOM     61  C   UNL     1      -4.862   9.060  16.831  1.00  0.00     0.029 A 
ATOM     62  C   UNL     1      -3.541   9.126  16.417  1.00  0.00     0.049 A 
ATOM     63  H   UNL     1      -2.551   7.976  14.951  1.00  0.00     0.167 HD
ATOM     64  C   UNL     1      -1.220  10.011  16.422  1.00  0.00     0.074 A 
ATOM     65  C   UNL     1      -0.180  10.890  16.921  1.00  0.00     0.031 C 
ATOM     66  C   UNL     1      -2.494   9.998  16.888  1.00  0.00     0.037 A 
BRANCH  53  67
ATOM     67  C   UNL     1      -6.150   5.813  14.159  1.00  0.00     0.058 A 
ATOM     68  C   UNL     1      -6.413   4.511  14.614  1.00  0.00     0.135 A 
ATOM     69  C   UNL     1      -7.216   6.537  13.602  1.00  0.00     0.135 A 
ATOM     70  F   UNL     1      -5.427   3.766  15.139  1.00  0.00    -0.206 F 
ATOM     71  C   UNL     1      -7.676   3.938  14.496  1.00  0.00     0.059 A 
ATOM     72  C   UNL     1      -8.494   5.994  13.495  1.00  0.00     0.059 A 
ATOM     73  F   UNL     1      -7.021   7.785  13.148  1.00  0.00    -0.206 F 
ATOM     74  C   UNL     1      -8.710   4.687  13.931  1.00  0.00     0.060 A 
BRANCH  74  75
ATOM     75  S   UNL     1     -10.344   3.932  13.779  1.00  0.00     0.124 S 
ATOM     76  O   UNL     1     -10.134   3.006  12.670  1.00  0.00    -0.237 OA
ATOM     77  O   UNL     1     -10.530   3.318  15.090  1.00  0.00    -0.237 OA
ATOM     78  O   UNL     1     -11.217   5.066  13.492  1.00  0.00    -0.744 OA
ENDBRANCH  74  75
ENDBRANCH  53  67
BRANCH  54  79
ATOM     79  C   UNL     1       3.072   9.710  14.494  1.00  0.00     0.058 A 
ATOM     80  C   UNL     1       3.905   9.512  15.604  1.00  0.00     0.135 A 
ATOM     81  C   UNL     1       3.578  10.463  13.423  1.00  0.00     0.135 A 
ATOM     82  F   UNL     1       3.464   8.805  16.656  1.00  0.00    -0.206 F 
ATOM     83  C   UNL     1       5.187  10.050  15.658  1.00  0.00     0.059 A 
ATOM     84  C   UNL     1       4.865  10.991  13.443  1.00  0.00     0.059 A 
ATOM     85  F   UNL     1       2.825  10.670  12.331  1.00  0.00    -0.206 F 
ATOM     86  C   UNL     1       5.659  10.787  14.570  1.00  0.00     0.060 A 
BRANCH  86  87
ATOM     87  S   UNL     1       7.346  11.433  14.620  1.00  0.00     0.124 S 
ATOM     88  O   UNL     1       7.199  12.566  15.527  1.00  0.00    -0.237 OA
ATOM     89  O   UNL     1       8.097  10.293  15.138  1.00  0.00    -0.237 OA
ATOM     90  O   UNL     1       7.616  11.769  13.226  1.00  0.00    -0.744 OA
ENDBRANCH  86  87
ENDBRANCH  54  79
BRANCH  66  91
ATOM     91  C   UNL     1      -2.820  10.956  18.000  1.00  0.00     0.058 A 
ATOM     92  C   UNL     1      -2.918  12.339  17.776  1.00  0.00     0.135 A 
ATOM     93  C   UNL     1      -3.034  10.487  19.306  1.00  0.00     0.135 A 
ATOM     94  F   UNL     1      -2.721  12.839  16.545  1.00  0.00    -0.206 F 
ATOM     95  C   UNL     1      -3.170  13.227  18.816  1.00  0.00     0.059 A 
ATOM     96  C   UNL     1      -3.314  11.355  20.356  1.00  0.00     0.059 A 
ATOM     97  F   UNL     1      -2.968   9.172  19.572  1.00  0.00    -0.206 F 
ATOM     98  C   UNL     1      -3.356  12.726  20.105  1.00  0.00     0.060 A 
BRANCH  98  99
ATOM     99  S   UNL     1      -3.661  13.887  21.454  1.00  0.00     0.124 S 
ATOM    100  O   UNL     1      -2.317  14.392  21.713  1.00  0.00    -0.237 OA
ATOM    101  O   UNL     1      -4.590  14.837  20.849  1.00  0.00    -0.237 OA
ATOM    102  O   UNL     1      -4.230  13.045  22.502  1.00  0.00    -0.744 OA
ENDBRANCH  98  99
ENDBRANCH  66  91
ENDBRANCH  40  41
ENDBRANCH  33  35
ENDBRANCH  32  33
ENDBRANCH  31  32
ENDBRANCH  30  31
ENDBRANCH  29  30
ENDBRANCH   1  29
TORSDOF 21
