REMARK SMILES O=C(OCCOCCOC(=O)c1cc(NC(=O)c2ccc(Br)o2)ccc1O)c1ccc(-c2c3nc(c(-c4c(F)cc(S(=O)(=O)[O-])cc4F)c4ccc([nH]4)c(-c4c(F)cc(S(=O)(=O)[O-])cc4F)c4nc(c(-c5c(F)cc(S(=O)(=O)[O-])cc5F)c5ccc2[nH]5)C=C4)C=C3)cc1
REMARK SMILES IDX 5 1 4 2 3 3 2 4 1 5 28 6 29 7 93 8 30 9 92 10 31 11 32 12
REMARK SMILES IDX 33 13 86 14 34 15 91 16 85 17 87 18 35 19 90 20 84 21 83 22
REMARK SMILES IDX 36 24 70 25 49 26 69 27 50 28 53 29 68 30 88 31 51 32 52 33
REMARK SMILES IDX 67 35 89 36 54 37 37 38 38 39 47 40 39 41 40 42 46 43 48 44
REMARK SMILES IDX 41 45 42 46 43 47 44 48 45 49 71 50 72 51 81 52 73 53 74 54
REMARK SMILES IDX 80 55 82 56 75 57 76 58 77 59 78 60 79 61 55 62 56 63 65 64
REMARK SMILES IDX 57 65 58 66 64 67 66 68 59 69 60 70 61 71 62 72 63 73 6 74
REMARK SMILES IDX 7 75 8 76 9 77 10 78 11 79 12 80 13 81 26 82 14 83 25 84
REMARK SMILES IDX 24 85 27 86 15 88 16 89 17 91 18 92 19 93 23 94 20 95 21 96
REMARK SMILES IDX 22 97
REMARK H PARENT 87 23 53 34 27 87 15 90
REMARK Flexibility Score: inf
ROOT
ATOM      1  C   UNL     1       3.738  -1.694  -0.001  1.00  0.00     0.202 C 
ENDROOT
BRANCH   1   2
ATOM      2  C   UNL     1       3.425  -0.645   1.064  1.00  0.00     0.261 C 
BRANCH   2   3
ATOM      3  O   UNL     1       2.074  -0.194   0.928  1.00  0.00    -0.460 OA
BRANCH   3   4
ATOM      4  C   UNL     1       1.637   0.926   0.307  1.00  0.00     0.338 C 
ATOM      5  O   UNL     1       0.424   1.136   0.297  1.00  0.00    -0.246 OA
BRANCH   4   6
ATOM      6  C   UNL     1       2.525   1.944  -0.346  1.00  0.00     0.060 A 
ATOM      7  C   UNL     1       3.774   1.703  -0.928  1.00  0.00     0.016 A 
ATOM      8  C   UNL     1       1.988   3.236  -0.471  1.00  0.00     0.016 A 
ATOM      9  C   UNL     1       4.461   2.688  -1.631  1.00  0.00     0.010 A 
ATOM     10  C   UNL     1       2.664   4.231  -1.179  1.00  0.00     0.010 A 
ATOM     11  C   UNL     1       3.901   3.951  -1.768  1.00  0.00    -0.014 A 
BRANCH  11  12
ATOM     12  C   UNL     1       4.662   5.005  -2.455  1.00  0.00     0.031 A 
ATOM     13  C   UNL     1       5.360   6.024  -1.617  1.00  0.00     0.074 A 
ATOM     14  C   UNL     1       4.728   5.017  -3.797  1.00  0.00     0.049 A 
ATOM     15  N   UNL     1       5.933   7.137  -1.974  1.00  0.00    -0.248 NA
ATOM     16  C   UNL     1       5.412   5.747  -0.171  1.00  0.00     0.031 C 
ATOM     17  C   UNL     1       4.163   3.993  -4.678  1.00  0.00     0.029 A 
ATOM     18  N   UNL     1       5.289   5.925  -4.654  1.00  0.00    -0.354 N 
ATOM     19  C   UNL     1       6.378   7.720  -0.795  1.00  0.00     0.074 A 
ATOM     20  C   UNL     1       6.013   6.834   0.287  1.00  0.00     0.031 C 
ATOM     21  C   UNL     1       4.393   4.341  -5.955  1.00  0.00     0.029 A 
ATOM     22  C   UNL     1       5.060   5.638  -5.979  1.00  0.00     0.049 A 
ATOM     23  H   UNL     1       5.806   6.706  -4.351  1.00  0.00     0.167 HD
ATOM     24  C   UNL     1       7.018   8.902  -0.644  1.00  0.00     0.037 A 
ATOM     25  C   UNL     1       5.319   6.375  -7.076  1.00  0.00     0.037 A 
ATOM     26  C   UNL     1       7.347   9.756  -1.753  1.00  0.00     0.049 A 
ATOM     27  C   UNL     1       5.973   7.718  -6.884  1.00  0.00     0.074 A 
ATOM     28  C   UNL     1       7.946  11.000  -1.741  1.00  0.00     0.029 A 
ATOM     29  N   UNL     1       7.095   9.441  -3.085  1.00  0.00    -0.354 N 
ATOM     30  N   UNL     1       6.338   8.300  -5.764  1.00  0.00    -0.248 NA
ATOM     31  C   UNL     1       6.241   8.509  -8.090  1.00  0.00     0.031 C 
ATOM     32  C   UNL     1       8.017  11.456  -3.062  1.00  0.00     0.029 A 
ATOM     33  C   UNL     1       7.516  10.472  -3.904  1.00  0.00     0.049 A 
ATOM     34  H   UNL     1       6.678   8.606  -3.398  1.00  0.00     0.167 HD
ATOM     35  C   UNL     1       6.904   9.515  -6.130  1.00  0.00     0.074 A 
ATOM     36  C   UNL     1       6.831   9.583  -7.578  1.00  0.00     0.031 C 
ATOM     37  C   UNL     1       7.439  10.484  -5.346  1.00  0.00     0.037 A 
BRANCH  24  38
ATOM     38  C   UNL     1       7.303   9.346   0.763  1.00  0.00     0.058 A 
ATOM     39  C   UNL     1       8.248   8.698   1.575  1.00  0.00     0.135 A 
ATOM     40  C   UNL     1       6.560  10.392   1.334  1.00  0.00     0.135 A 
ATOM     41  F   UNL     1       8.966   7.672   1.091  1.00  0.00    -0.206 F 
ATOM     42  C   UNL     1       8.408   9.035   2.916  1.00  0.00     0.059 A 
ATOM     43  C   UNL     1       6.723  10.765   2.665  1.00  0.00     0.059 A 
ATOM     44  F   UNL     1       5.636  11.041   0.607  1.00  0.00    -0.206 F 
ATOM     45  C   UNL     1       7.630  10.061   3.455  1.00  0.00     0.060 A 
BRANCH  45  46
ATOM     46  S   UNL     1       7.796  10.443   5.212  1.00  0.00     0.124 S 
ATOM     47  O   UNL     1       7.101   9.312   5.821  1.00  0.00    -0.237 OA
ATOM     48  O   UNL     1       9.243  10.468   5.393  1.00  0.00    -0.237 OA
ATOM     49  O   UNL     1       7.128  11.734   5.344  1.00  0.00    -0.744 OA
ENDBRANCH  45  46
ENDBRANCH  24  38
BRANCH  25  50
ATOM     50  C   UNL     1       4.927   5.868  -8.419  1.00  0.00     0.058 A 
ATOM     51  C   UNL     1       5.889   5.467  -9.356  1.00  0.00     0.135 A 
ATOM     52  C   UNL     1       3.575   5.723  -8.774  1.00  0.00     0.135 A 
ATOM     53  F   UNL     1       7.194   5.593  -9.073  1.00  0.00    -0.206 F 
ATOM     54  C   UNL     1       5.529   4.937 -10.593  1.00  0.00     0.059 A 
ATOM     55  C   UNL     1       3.189   5.173  -9.994  1.00  0.00     0.059 A 
ATOM     56  F   UNL     1       2.611   6.082  -7.912  1.00  0.00    -0.206 F 
ATOM     57  C   UNL     1       4.175   4.786 -10.899  1.00  0.00     0.060 A 
BRANCH  57  58
ATOM     58  S   UNL     1       3.719   4.029 -12.476  1.00  0.00     0.124 S 
ATOM     59  O   UNL     1       4.062   5.086 -13.421  1.00  0.00    -0.237 OA
ATOM     60  O   UNL     1       4.571   2.845 -12.506  1.00  0.00    -0.237 OA
ATOM     61  O   UNL     1       2.292   3.761 -12.321  1.00  0.00    -0.744 OA
ENDBRANCH  57  58
ENDBRANCH  25  50
BRANCH  37  62
ATOM     62  C   UNL     1       8.038  11.675  -6.036  1.00  0.00     0.058 A 
ATOM     63  C   UNL     1       7.241  12.694  -6.576  1.00  0.00     0.135 A 
ATOM     64  C   UNL     1       9.432  11.845  -6.051  1.00  0.00     0.135 A 
ATOM     65  F   UNL     1       5.905  12.573  -6.590  1.00  0.00    -0.206 F 
ATOM     66  C   UNL     1       7.808  13.847  -7.108  1.00  0.00     0.059 A 
ATOM     67  C   UNL     1      10.018  12.999  -6.556  1.00  0.00     0.059 A 
ATOM     68  F   UNL     1      10.234  10.899  -5.537  1.00  0.00    -0.206 F 
ATOM     69  C   UNL     1       9.197  13.994  -7.083  1.00  0.00     0.060 A 
BRANCH  69  70
ATOM     70  S   UNL     1       9.915  15.531  -7.699  1.00  0.00     0.124 S 
ATOM     71  O   UNL     1       9.765  15.368  -9.142  1.00  0.00    -0.237 OA
ATOM     72  O   UNL     1       9.062  16.543  -7.083  1.00  0.00    -0.237 OA
ATOM     73  O   UNL     1      11.287  15.489  -7.201  1.00  0.00    -0.744 OA
ENDBRANCH  69  70
ENDBRANCH  37  62
ENDBRANCH  11  12
ENDBRANCH   4   6
ENDBRANCH   3   4
ENDBRANCH   2   3
ENDBRANCH   1   2
BRANCH   1  74
ATOM     74  O   UNL     1       3.573  -1.198  -1.327  1.00  0.00    -0.374 OA
BRANCH  74  75
ATOM     75  C   UNL     1       2.338  -1.536  -1.961  1.00  0.00     0.202 C 
BRANCH  75  76
ATOM     76  C   UNL     1       2.600  -2.565  -3.058  1.00  0.00     0.261 C 
BRANCH  76  77
ATOM     77  O   UNL     1       3.232  -3.707  -2.459  1.00  0.00    -0.460 OA
BRANCH  77  78
ATOM     78  C   UNL     1       4.591  -3.732  -2.521  1.00  0.00     0.342 C 
ATOM     79  O   UNL     1       5.315  -3.033  -3.200  1.00  0.00    -0.246 OA
BRANCH  78  80
ATOM     80  C   UNL     1       5.096  -4.607  -1.435  1.00  0.00     0.103 A 
ATOM     81  C   UNL     1       6.191  -4.138  -0.671  1.00  0.00     0.045 A 
ATOM     82  C   UNL     1       4.493  -5.831  -1.127  1.00  0.00     0.130 A 
ATOM     83  C   UNL     1       6.657  -4.885   0.409  1.00  0.00     0.042 A 
ATOM     84  C   UNL     1       4.968  -6.587  -0.063  1.00  0.00     0.049 A 
ATOM     85  C   UNL     1       6.045  -6.117   0.691  1.00  0.00     0.030 A 
BRANCH  82  86
ATOM     86  O   UNL     1       3.458  -6.314  -1.875  1.00  0.00    -0.507 OA
ATOM     87  H   UNL     1       3.128  -5.814  -2.596  1.00  0.00     0.293 HD
ENDBRANCH  82  86
BRANCH  83  88
ATOM     88  N   UNL     1       7.759  -4.554   1.211  1.00  0.00    -0.319 N 
ATOM     89  C   UNL     1       8.496  -3.410   1.413  1.00  0.00     0.291 C 
ATOM     90  H   UNL     1       8.078  -5.313   1.751  1.00  0.00     0.170 HD
ATOM     91  O   UNL     1       9.588  -3.559   1.969  1.00  0.00    -0.265 OA
BRANCH  89  92
ATOM     92  C   UNL     1       7.946  -2.104   1.154  1.00  0.00     0.193 A 
ATOM     93  C   UNL     1       6.977  -1.376   1.823  1.00  0.00     0.057 A 
ATOM     94  O   UNL     1       8.565  -1.303   0.235  1.00  0.00    -0.444 OA
ATOM     95  C   UNL     1       7.026  -0.059   1.297  1.00  0.00     0.059 A 
ATOM     96  C   UNL     1       8.000  -0.070   0.325  1.00  0.00     0.170 A 
ATOM     97  Br  UNL     1       8.509   1.409  -0.690  1.00  0.00    -0.008 Br
ENDBRANCH  89  92
ENDBRANCH  83  88
ENDBRANCH  78  80
ENDBRANCH  77  78
ENDBRANCH  76  77
ENDBRANCH  75  76
ENDBRANCH  74  75
ENDBRANCH   1  74
TORSDOF 20
