REMARK SMILES C[C@@H](C(=O)OCCOCCOC(=O)c1ccc(-c2c3nc(c(-c4c(F)cc(S(=O)(=O)[O-])cc4F)c4ccc([nH]4)c(-c4c(F)cc(S(=O)(=O)[O-])cc4F)c4nc(c(-c5c(F)cc(S(=O)(=O)[O-])cc5F)c5ccc2[nH]5)C=C4)C=C3)cc1)[C@@H](C)C(=O)c1cc(Cl)c2c(c1)OCCCO2
REMARK SMILES IDX 6 1 5 2 3 3 4 4 2 5 1 6 80 7 81 8 82 9 83 10 84 11 85 12
REMARK SMILES IDX 90 13 86 14 89 15 87 16 88 17 91 18 92 19 95 21 94 22 93 23
REMARK SMILES IDX 7 25 8 26 9 27 10 28 11 29 12 30 13 31 14 32 15 33 79 34
REMARK SMILES IDX 16 35 78 36 17 37 18 38 19 39 72 40 20 41 77 42 71 43 73 44
REMARK SMILES IDX 21 45 76 46 70 47 69 48 22 50 56 51 35 52 55 53 36 54 39 55
REMARK SMILES IDX 54 56 74 57 37 58 38 59 53 61 75 62 40 63 23 64 24 65 33 66
REMARK SMILES IDX 25 67 26 68 32 69 34 70 27 71 28 72 29 73 30 74 31 75 57 76
REMARK SMILES IDX 58 77 67 78 59 79 60 80 66 81 68 82 61 83 62 84 63 85 64 86
REMARK SMILES IDX 65 87 41 88 42 89 51 90 43 91 44 92 50 93 52 94 45 95 46 96
REMARK SMILES IDX 47 97 48 98 49 99
REMARK H PARENT 73 49 39 60
REMARK Flexibility Score: 80.00
ROOT
ATOM      1  C   UNL     1       2.564  -3.855   1.683  1.00  0.00     0.261 C 
ENDROOT
BRANCH   1   2
ATOM      2  O   UNL     1       2.131  -2.788   0.833  1.00  0.00    -0.463 OA
BRANCH   2   3
ATOM      3  C   UNL     1       0.872  -2.976   0.366  1.00  0.00     0.309 C 
ATOM      4  O   UNL     1       0.188  -3.953   0.645  1.00  0.00    -0.252 OA
BRANCH   3   5
ATOM      5  C   UNL     1       0.396  -1.871  -0.571  1.00  0.00     0.106 C 
ATOM      6  C   UNL     1       0.996  -0.498  -0.222  1.00  0.00     0.021 C 
BRANCH   5   7
ATOM      7  C   UNL     1      -1.159  -1.868  -0.570  1.00  0.00     0.072 C 
ATOM      8  C   UNL     1      -1.732  -0.767  -1.471  1.00  0.00     0.017 C 
BRANCH   7   9
ATOM      9  C   UNL     1      -1.860  -3.214  -0.932  1.00  0.00     0.166 C 
ATOM     10  O   UNL     1      -2.897  -3.572  -0.377  1.00  0.00    -0.294 OA
BRANCH   9  11
ATOM     11  C   UNL     1      -1.450  -3.914  -2.177  1.00  0.00     0.023 A 
ATOM     12  C   UNL     1      -2.275  -3.695  -3.284  1.00  0.00     0.036 A 
ATOM     13  C   UNL     1      -0.173  -4.459  -2.330  1.00  0.00     0.062 A 
ATOM     14  C   UNL     1      -1.711  -3.721  -4.551  1.00  0.00     0.087 A 
ATOM     15  C   UNL     1       0.404  -4.411  -3.584  1.00  0.00     0.163 A 
ATOM     16  Cl  UNL     1      -2.670  -3.258  -5.902  1.00  0.00    -0.080 Cl
ATOM     17  C   UNL     1      -0.335  -3.923  -4.660  1.00  0.00     0.179 A 
BRANCH  15  18
ATOM     18  O   UNL     1       1.734  -4.680  -3.752  1.00  0.00    -0.489 OA
BRANCH  18  19
ATOM     19  C   UNL     1       2.540  -3.517  -3.542  1.00  0.00     0.233 CG0
ATOM     20  G   UNL     1       2.380  -2.400  -4.582  1.00  0.00     0.000 G0
ENDBRANCH  18  19
ENDBRANCH  15  18
BRANCH  17  21
ATOM     21  O   UNL     1       0.364  -3.312  -5.681  1.00  0.00    -0.488 OA
BRANCH  21  22
ATOM     22  C   UNL     1       0.969  -2.133  -5.103  1.00  0.00     0.233 C 
BRANCH  22  23
ATOM     23  C   UNL     1       2.380  -2.400  -4.582  1.00  0.00     0.083 CG0
ATOM     24  G   UNL     1       2.540  -3.517  -3.542  1.00  0.00     0.000 G0
ENDBRANCH  22  23
ENDBRANCH  21  22
ENDBRANCH  17  21
ENDBRANCH   9  11
ENDBRANCH   7   9
ENDBRANCH   5   7
ENDBRANCH   3   5
ENDBRANCH   2   3
ENDBRANCH   1   2
BRANCH   1  25
ATOM     25  C   UNL     1       2.163  -3.709   3.160  1.00  0.00     0.202 C 
BRANCH  25  26
ATOM     26  O   UNL     1       0.845  -3.302   3.506  1.00  0.00    -0.374 OA
BRANCH  26  27
ATOM     27  C   UNL     1       0.442  -1.951   3.300  1.00  0.00     0.202 C 
BRANCH  27  28
ATOM     28  C   UNL     1       1.174  -0.825   4.033  1.00  0.00     0.261 C 
BRANCH  28  29
ATOM     29  O   UNL     1       2.558  -0.732   3.657  1.00  0.00    -0.460 OA
BRANCH  29  30
ATOM     30  C   UNL     1       3.422  -0.954   4.675  1.00  0.00     0.338 C 
ATOM     31  O   UNL     1       3.140  -1.149   5.854  1.00  0.00    -0.246 OA
BRANCH  30  32
ATOM     32  C   UNL     1       4.784  -1.148   4.159  1.00  0.00     0.060 A 
ATOM     33  C   UNL     1       5.420  -2.360   4.457  1.00  0.00     0.016 A 
ATOM     34  C   UNL     1       5.464  -0.126   3.496  1.00  0.00     0.016 A 
ATOM     35  C   UNL     1       6.763  -2.535   4.147  1.00  0.00     0.010 A 
ATOM     36  C   UNL     1       6.820  -0.297   3.200  1.00  0.00     0.010 A 
ATOM     37  C   UNL     1       7.481  -1.484   3.566  1.00  0.00    -0.014 A 
BRANCH  37  38
ATOM     38  C   UNL     1       8.959  -1.568   3.518  1.00  0.00     0.031 A 
ATOM     39  C   UNL     1       9.755  -0.888   4.597  1.00  0.00     0.074 A 
ATOM     40  C   UNL     1       9.573  -2.283   2.560  1.00  0.00     0.049 A 
ATOM     41  N   UNL     1      11.052  -0.809   4.745  1.00  0.00    -0.248 NA
ATOM     42  C   UNL     1       8.986  -0.207   5.652  1.00  0.00     0.031 C 
ATOM     43  C   UNL     1       8.898  -3.023   1.495  1.00  0.00     0.029 A 
ATOM     44  N   UNL     1      10.907  -2.498   2.329  1.00  0.00    -0.354 N 
ATOM     45  C   UNL     1      11.255  -0.069   5.904  1.00  0.00     0.074 A 
ATOM     46  C   UNL     1       9.950   0.305   6.403  1.00  0.00     0.031 C 
ATOM     47  C   UNL     1       9.825  -3.600   0.712  1.00  0.00     0.029 A 
ATOM     48  C   UNL     1      11.155  -3.245   1.203  1.00  0.00     0.049 A 
ATOM     49  H   UNL     1      11.619  -2.151   2.913  1.00  0.00     0.167 HD
ATOM     50  C   UNL     1      12.424   0.260   6.502  1.00  0.00     0.037 A 
ATOM     51  C   UNL     1      12.324  -3.582   0.624  1.00  0.00     0.037 A 
ATOM     52  C   UNL     1      13.718  -0.117   5.996  1.00  0.00     0.049 A 
ATOM     53  C   UNL     1      13.614  -3.150   1.270  1.00  0.00     0.074 A 
ATOM     54  C   UNL     1      14.965   0.162   6.526  1.00  0.00     0.029 A 
ATOM     55  N   UNL     1      13.931  -0.850   4.837  1.00  0.00    -0.354 N 
ATOM     56  N   UNL     1      13.794  -2.456   2.369  1.00  0.00    -0.248 NA
ATOM     57  C   UNL     1      14.860  -3.548   0.600  1.00  0.00     0.031 C 
ATOM     58  C   UNL     1      15.933  -0.364   5.664  1.00  0.00     0.029 A 
ATOM     59  C   UNL     1      15.289  -1.015   4.623  1.00  0.00     0.049 A 
ATOM     60  H   UNL     1      13.221  -1.201   4.252  1.00  0.00     0.167 HD
ATOM     61  C   UNL     1      15.171  -2.356   2.536  1.00  0.00     0.074 A 
ATOM     62  C   UNL     1      15.777  -3.069   1.430  1.00  0.00     0.031 C 
ATOM     63  C   UNL     1      15.872  -1.732   3.516  1.00  0.00     0.037 A 
BRANCH  50  64
ATOM     64  C   UNL     1      12.355   1.090   7.753  1.00  0.00     0.058 A 
ATOM     65  C   UNL     1      11.897   0.558   8.969  1.00  0.00     0.135 A 
ATOM     66  C   UNL     1      12.770   2.431   7.741  1.00  0.00     0.135 A 
ATOM     67  F   UNL     1      11.468  -0.713   9.033  1.00  0.00    -0.206 F 
ATOM     68  C   UNL     1      11.828   1.334  10.122  1.00  0.00     0.059 A 
ATOM     69  C   UNL     1      12.735   3.218   8.888  1.00  0.00     0.059 A 
ATOM     70  F   UNL     1      13.212   2.991   6.604  1.00  0.00    -0.206 F 
ATOM     71  C   UNL     1      12.248   2.665  10.071  1.00  0.00     0.060 A 
BRANCH  71  72
ATOM     72  S   UNL     1      12.150   3.660  11.573  1.00  0.00     0.124 S 
ATOM     73  O   UNL     1      10.711   3.883  11.681  1.00  0.00    -0.237 OA
ATOM     74  O   UNL     1      12.730   2.772  12.575  1.00  0.00    -0.237 OA
ATOM     75  O   UNL     1      12.945   4.841  11.251  1.00  0.00    -0.744 OA
ENDBRANCH  71  72
ENDBRANCH  50  64
BRANCH  51  76
ATOM     76  C   UNL     1      12.323  -4.355  -0.645  1.00  0.00     0.058 A 
ATOM     77  C   UNL     1      12.754  -5.688  -0.688  1.00  0.00     0.135 A 
ATOM     78  C   UNL     1      11.873  -3.774  -1.842  1.00  0.00     0.135 A 
ATOM     79  F   UNL     1      13.202  -6.284   0.428  1.00  0.00    -0.206 F 
ATOM     80  C   UNL     1      12.749  -6.417  -1.873  1.00  0.00     0.059 A 
ATOM     81  C   UNL     1      11.835  -4.489  -3.033  1.00  0.00     0.059 A 
ATOM     82  F   UNL     1      11.437  -2.504  -1.851  1.00  0.00    -0.206 F 
ATOM     83  C   UNL     1      12.283  -5.809  -3.040  1.00  0.00     0.060 A 
BRANCH  83  84
ATOM     84  S   UNL     1      12.222  -6.781  -4.561  1.00  0.00     0.124 S 
ATOM     85  O   UNL     1      13.633  -6.849  -4.922  1.00  0.00    -0.237 OA
ATOM     86  O   UNL     1      11.617  -8.027  -4.103  1.00  0.00    -0.237 OA
ATOM     87  O   UNL     1      11.382  -5.972  -5.440  1.00  0.00    -0.744 OA
ENDBRANCH  83  84
ENDBRANCH  51  76
BRANCH  63  88
ATOM     88  C   UNL     1      17.372  -1.818   3.457  1.00  0.00     0.058 A 
ATOM     89  C   UNL     1      18.116  -1.089   2.517  1.00  0.00     0.135 A 
ATOM     90  C   UNL     1      18.076  -2.598   4.390  1.00  0.00     0.135 A 
ATOM     91  F   UNL     1      17.492  -0.334   1.600  1.00  0.00    -0.206 F 
ATOM     92  C   UNL     1      19.506  -1.147   2.489  1.00  0.00     0.059 A 
ATOM     93  C   UNL     1      19.466  -2.649   4.397  1.00  0.00     0.059 A 
ATOM     94  F   UNL     1      17.413  -3.305   5.318  1.00  0.00    -0.206 F 
ATOM     95  C   UNL     1      20.172  -1.929   3.435  1.00  0.00     0.060 A 
BRANCH  95  96
ATOM     96  S   UNL     1      21.977  -1.969   3.409  1.00  0.00     0.124 S 
ATOM     97  O   UNL     1      22.235  -2.812   2.246  1.00  0.00    -0.237 OA
ATOM     98  O   UNL     1      22.320  -0.558   3.257  1.00  0.00    -0.237 OA
ATOM     99  O   UNL     1      22.322  -2.557   4.700  1.00  0.00    -0.744 OA
ENDBRANCH  95  96
ENDBRANCH  63  88
ENDBRANCH  37  38
ENDBRANCH  30  32
ENDBRANCH  29  30
ENDBRANCH  28  29
ENDBRANCH  27  28
ENDBRANCH  26  27
ENDBRANCH  25  26
ENDBRANCH   1  25
TORSDOF 20
