REMARK SMILES CC(C)[C@@H](CNC(=O)NC[C@@]1(C)CCCO1)C(=O)OCCOCCOC(=O)c1ccc(-c2c3nc(c(-c4c(F)cc(S(=O)(=O)[O-])cc4F)c4ccc([nH]4)c(-c4c(F)cc(S(=O)(=O)[O-])cc4F)c4nc(c(-c5c(F)cc(S(=O)(=O)[O-])cc5F)c5ccc2[nH]5)C=C4)C=C3)cc1
REMARK SMILES IDX 21 1 20 2 19 3 17 4 18 5 4 6 2 7 1 8 3 9 5 10 6 11 7 12 8 14
REMARK SMILES IDX 9 15 10 17 11 18 12 19 13 20 16 21 14 22 15 23 22 24 23 25
REMARK SMILES IDX 24 26 25 27 26 28 27 29 28 30 29 31 93 32 30 33 92 34 31 35
REMARK SMILES IDX 32 36 33 37 86 38 34 39 91 40 85 41 87 42 35 43 90 44 84 45
REMARK SMILES IDX 83 46 36 48 70 49 49 50 69 51 50 52 53 53 68 54 88 55 51 56
REMARK SMILES IDX 52 57 67 59 89 60 54 61 37 62 38 63 47 64 39 65 40 66 46 67
REMARK SMILES IDX 48 68 41 69 42 70 43 71 44 72 45 73 71 74 72 75 81 76 73 77
REMARK SMILES IDX 74 78 80 79 82 80 75 81 76 82 77 83 78 84 79 85 55 86 56 87
REMARK SMILES IDX 65 88 57 89 58 90 64 91 66 92 59 93 60 94 61 95 62 96 63 97
REMARK H PARENT 6 13 9 16 87 47 53 58
REMARK Flexibility Score: inf
ROOT
ATOM      1  C   UNL     1      -1.954   5.457  -0.258  1.00  0.00     0.202 C 
ENDROOT
BRANCH   1   2
ATOM      2  C   UNL     1      -2.256   4.290   0.685  1.00  0.00     0.261 C 
BRANCH   2   3
ATOM      3  O   UNL     1      -1.297   3.218   0.618  1.00  0.00    -0.463 OA
BRANCH   3   4
ATOM      4  C   UNL     1      -1.729   2.097  -0.013  1.00  0.00     0.311 C 
ATOM      5  O   UNL     1      -2.766   2.011  -0.666  1.00  0.00    -0.252 OA
BRANCH   4   6
ATOM      6  C   UNL     1      -0.866   0.881   0.253  1.00  0.00     0.121 C 
BRANCH   6   7
ATOM      7  C   UNL     1       0.668   1.075   0.347  1.00  0.00    -0.001 C 
ATOM      8  C   UNL     1       1.379  -0.286   0.442  1.00  0.00     0.008 C 
ATOM      9  C   UNL     1       1.234   1.818  -0.866  1.00  0.00     0.008 C 
ENDBRANCH   6   7
BRANCH   6  10
ATOM     10  C   UNL     1      -1.496   0.179   1.460  1.00  0.00     0.133 C 
BRANCH  10  11
ATOM     11  N   UNL     1      -1.338   0.901   2.706  1.00  0.00    -0.337 N 
ATOM     12  C   UNL     1      -2.174   1.399   3.620  1.00  0.00     0.314 C 
ATOM     13  H   UNL     1      -0.393   1.062   2.932  1.00  0.00     0.165 HD
ATOM     14  O   UNL     1      -1.675   1.831   4.661  1.00  0.00    -0.249 OA
ATOM     15  N   UNL     1      -3.498   1.450   3.495  1.00  0.00    -0.335 N 
ATOM     16  H   UNL     1      -3.931   1.708   4.342  1.00  0.00     0.165 HD
BRANCH  15  17
ATOM     17  C   UNL     1      -4.478   1.228   2.442  1.00  0.00     0.152 C 
BRANCH  17  18
ATOM     18  C   UNL     1      -5.311  -0.060   2.632  1.00  0.00     0.083 C 
ATOM     19  C   UNL     1      -6.562   0.018   1.745  1.00  0.00     0.044 C 
ATOM     20  C   UNL     1      -4.530  -1.350   2.374  1.00  0.00     0.039 C 
ATOM     21  O   UNL     1      -5.784  -0.155   3.999  1.00  0.00    -0.373 OA
ATOM     22  C   UNL     1      -5.190  -2.335   3.305  1.00  0.00     0.031 C 
ATOM     23  C   UNL     1      -5.456  -1.458   4.507  1.00  0.00     0.161 C 
ENDBRANCH  17  18
ENDBRANCH  15  17
ENDBRANCH  10  11
ENDBRANCH   6  10
ENDBRANCH   4   6
ENDBRANCH   3   4
ENDBRANCH   2   3
ENDBRANCH   1   2
BRANCH   1  24
ATOM     24  O   UNL     1      -2.031   5.189  -1.657  1.00  0.00    -0.374 OA
BRANCH  24  25
ATOM     25  C   UNL     1      -0.949   4.473  -2.250  1.00  0.00     0.202 C 
BRANCH  25  26
ATOM     26  C   UNL     1       0.373   5.235  -2.388  1.00  0.00     0.261 C 
BRANCH  26  27
ATOM     27  O   UNL     1       0.956   5.531  -1.104  1.00  0.00    -0.460 OA
BRANCH  27  28
ATOM     28  C   UNL     1       1.267   6.835  -0.927  1.00  0.00     0.338 C 
ATOM     29  O   UNL     1       1.242   7.714  -1.784  1.00  0.00    -0.246 OA
BRANCH  28  30
ATOM     30  C   UNL     1       1.490   7.150   0.495  1.00  0.00     0.060 A 
ATOM     31  C   UNL     1       0.755   8.218   1.022  1.00  0.00     0.016 A 
ATOM     32  C   UNL     1       2.491   6.536   1.253  1.00  0.00     0.016 A 
ATOM     33  C   UNL     1       1.094   8.753   2.260  1.00  0.00     0.010 A 
ATOM     34  C   UNL     1       2.830   7.076   2.504  1.00  0.00     0.010 A 
ATOM     35  C   UNL     1       2.180   8.231   2.978  1.00  0.00    -0.014 A 
BRANCH  35  36
ATOM     36  C   UNL     1       2.745   9.058   4.077  1.00  0.00     0.031 A 
ATOM     37  C   UNL     1       3.946   9.926   3.787  1.00  0.00     0.074 A 
ATOM     38  C   UNL     1       2.129   9.144   5.270  1.00  0.00     0.049 A 
ATOM     39  N   UNL     1       4.524  10.825   4.542  1.00  0.00    -0.248 NA
ATOM     40  C   UNL     1       4.574   9.763   2.465  1.00  0.00     0.031 C 
ATOM     41  C   UNL     1       0.946   8.382   5.668  1.00  0.00     0.029 A 
ATOM     42  N   UNL     1       2.404   9.932   6.360  1.00  0.00    -0.354 N 
ATOM     43  C   UNL     1       5.577  11.334   3.789  1.00  0.00     0.074 A 
ATOM     44  C   UNL     1       5.584  10.618   2.533  1.00  0.00     0.031 C 
ATOM     45  C   UNL     1       0.590   8.749   6.912  1.00  0.00     0.029 A 
ATOM     46  C   UNL     1       1.522   9.765   7.401  1.00  0.00     0.049 A 
ATOM     47  H   UNL     1       3.163  10.559   6.393  1.00  0.00     0.167 HD
ATOM     48  C   UNL     1       6.448  12.323   4.102  1.00  0.00     0.037 A 
ATOM     49  C   UNL     1       1.467  10.368   8.605  1.00  0.00     0.037 A 
ATOM     50  C   UNL     1       6.436  13.050   5.344  1.00  0.00     0.049 A 
ATOM     51  C   UNL     1       2.459  11.453   8.939  1.00  0.00     0.074 A 
ATOM     52  C   UNL     1       7.276  14.073   5.752  1.00  0.00     0.029 A 
ATOM     53  N   UNL     1       5.538  12.835   6.377  1.00  0.00    -0.354 N 
ATOM     54  N   UNL     1       3.432  11.938   8.205  1.00  0.00    -0.248 NA
ATOM     55  C   UNL     1       2.331  12.087  10.259  1.00  0.00     0.031 C 
ATOM     56  C   UNL     1       6.904  14.454   7.046  1.00  0.00     0.029 A 
ATOM     57  C   UNL     1       5.808  13.698   7.426  1.00  0.00     0.049 A 
ATOM     58  H   UNL     1       4.815  12.167   6.367  1.00  0.00     0.167 HD
ATOM     59  C   UNL     1       4.010  12.954   8.961  1.00  0.00     0.074 A 
ATOM     60  C   UNL     1       3.271  13.020  10.205  1.00  0.00     0.031 C 
ATOM     61  C   UNL     1       5.055  13.762   8.653  1.00  0.00     0.037 A 
BRANCH  48  62
ATOM     62  C   UNL     1       7.500  12.668   3.085  1.00  0.00     0.058 A 
ATOM     63  C   UNL     1       7.188  13.373   1.912  1.00  0.00     0.135 A 
ATOM     64  C   UNL     1       8.841  12.313   3.300  1.00  0.00     0.135 A 
ATOM     65  F   UNL     1       5.918  13.718   1.648  1.00  0.00    -0.206 F 
ATOM     66  C   UNL     1       8.166  13.696   0.976  1.00  0.00     0.059 A 
ATOM     67  C   UNL     1       9.839  12.646   2.389  1.00  0.00     0.059 A 
ATOM     68  F   UNL     1       9.192  11.635   4.404  1.00  0.00    -0.206 F 
ATOM     69  C   UNL     1       9.489  13.326   1.223  1.00  0.00     0.060 A 
BRANCH  69  70
ATOM     70  S   UNL     1      10.751  13.757   0.006  1.00  0.00     0.124 S 
ATOM     71  O   UNL     1      10.483  12.783  -1.048  1.00  0.00    -0.237 OA
ATOM     72  O   UNL     1      10.420  15.142  -0.314  1.00  0.00    -0.237 OA
ATOM     73  O   UNL     1      12.002  13.567   0.732  1.00  0.00    -0.744 OA
ENDBRANCH  69  70
ENDBRANCH  48  62
BRANCH  49  74
ATOM     74  C   UNL     1       0.424   9.971   9.589  1.00  0.00     0.058 A 
ATOM     75  C   UNL     1      -0.634  10.831   9.918  1.00  0.00     0.135 A 
ATOM     76  C   UNL     1       0.481   8.726  10.233  1.00  0.00     0.135 A 
ATOM     77  F   UNL     1      -0.725  12.036   9.336  1.00  0.00    -0.206 F 
ATOM     78  C   UNL     1      -1.589  10.480  10.868  1.00  0.00     0.059 A 
ATOM     79  C   UNL     1      -0.475   8.343  11.168  1.00  0.00     0.059 A 
ATOM     80  F   UNL     1       1.469   7.864   9.946  1.00  0.00    -0.206 F 
ATOM     81  C   UNL     1      -1.499   9.234  11.489  1.00  0.00     0.060 A 
BRANCH  81  82
ATOM     82  S   UNL     1      -2.758   8.772  12.699  1.00  0.00     0.124 S 
ATOM     83  O   UNL     1      -2.348   9.552  13.861  1.00  0.00    -0.237 OA
ATOM     84  O   UNL     1      -3.990   9.202  12.044  1.00  0.00    -0.237 OA
ATOM     85  O   UNL     1      -2.593   7.326  12.818  1.00  0.00    -0.744 OA
ENDBRANCH  81  82
ENDBRANCH  49  74
BRANCH  61  86
ATOM     86  C   UNL     1       5.431  14.818   9.655  1.00  0.00     0.058 A 
ATOM     87  C   UNL     1       6.077  14.500  10.860  1.00  0.00     0.135 A 
ATOM     88  C   UNL     1       5.163  16.172   9.393  1.00  0.00     0.135 A 
ATOM     89  F   UNL     1       6.357  13.221  11.159  1.00  0.00    -0.206 F 
ATOM     90  C   UNL     1       6.407  15.482  11.789  1.00  0.00     0.059 A 
ATOM     91  C   UNL     1       5.507  17.173  10.296  1.00  0.00     0.059 A 
ATOM     92  F   UNL     1       4.562  16.533   8.248  1.00  0.00    -0.206 F 
ATOM     93  C   UNL     1       6.112  16.816  11.500  1.00  0.00     0.060 A 
BRANCH  93  94
ATOM     94  S   UNL     1       6.543  18.085  12.710  1.00  0.00     0.124 S 
ATOM     95  O   UNL     1       5.468  17.937  13.686  1.00  0.00    -0.237 OA
ATOM     96  O   UNL     1       7.867  17.661  13.156  1.00  0.00    -0.237 OA
ATOM     97  O   UNL     1       6.518  19.319  11.929  1.00  0.00    -0.744 OA
ENDBRANCH  93  94
ENDBRANCH  61  86
ENDBRANCH  35  36
ENDBRANCH  28  30
ENDBRANCH  27  28
ENDBRANCH  26  27
ENDBRANCH  25  26
ENDBRANCH  24  25
ENDBRANCH   1  24
TORSDOF 22
