REMARK SMILES Cc1n[nH]c(CCC(=O)OCCOCCOC(=O)c2ccc(-c3c4nc(c(-c5c(F)cc(S(=O)(=O)[O-])cc5F)c5ccc([nH]5)c(-c5c(F)cc(S(=O)(=O)[O-])cc5F)c5nc(c(-c6c(F)cc(S(=O)(=O)[O-])cc6F)c6ccc3[nH]6)C=C5)C=C4)cc2)c1C
REMARK SMILES IDX 14 1 13 2 12 3 11 4 10 5 8 6 9 7 7 8 6 9 5 10 1 11 2 12 3 13
REMARK SMILES IDX 85 14 4 15 86 16 15 18 16 19 17 20 18 21 19 22 20 23 84 24
REMARK SMILES IDX 21 25 83 26 22 27 23 28 24 29 77 30 25 31 82 32 76 33 78 34
REMARK SMILES IDX 26 35 81 36 75 37 74 38 27 40 61 41 40 42 60 43 41 44 44 45
REMARK SMILES IDX 59 46 79 47 42 48 43 49 58 51 80 52 45 53 28 54 29 55 38 56
REMARK SMILES IDX 30 57 31 58 37 59 39 60 32 61 33 62 34 63 35 64 36 65 62 66
REMARK SMILES IDX 63 67 72 68 64 69 65 70 71 71 73 72 66 73 67 74 68 75 69 76
REMARK SMILES IDX 70 77 46 78 47 79 56 80 48 81 49 82 55 83 57 84 50 85 51 86
REMARK SMILES IDX 52 87 53 88 54 89
REMARK H PARENT 4 17 78 39 44 50
REMARK Flexibility Score: inf
ROOT
ATOM      1  C   UNL     1      -3.946  -1.168  -3.669  1.00  0.00     0.202 C 
ENDROOT
BRANCH   1   2
ATOM      2  O   UNL     1      -4.563  -0.014  -3.105  1.00  0.00    -0.374 OA
BRANCH   2   3
ATOM      3  C   UNL     1      -3.866   0.599  -2.022  1.00  0.00     0.202 C 
BRANCH   3   4
ATOM      4  C   UNL     1      -4.177  -0.040  -0.658  1.00  0.00     0.261 C 
BRANCH   4   5
ATOM      5  O   UNL     1      -3.411  -1.239  -0.402  1.00  0.00    -0.463 OA
BRANCH   5   6
ATOM      6  C   UNL     1      -3.988  -2.440  -0.638  1.00  0.00     0.306 C 
ATOM      7  O   UNL     1      -5.130  -2.597  -1.051  1.00  0.00    -0.252 OA
BRANCH   6   8
ATOM      8  C   UNL     1      -3.067  -3.595  -0.295  1.00  0.00     0.129 C 
BRANCH   8   9
ATOM      9  C   UNL     1      -1.780  -3.694  -1.118  1.00  0.00     0.067 C 
BRANCH   9  10
ATOM     10  C   UNL     1      -0.581  -3.065  -0.474  1.00  0.00     0.039 A 
ATOM     11  C   UNL     1       1.951  -0.682   0.722  1.00  0.00     0.069 C 
ATOM     12  C   UNL     1       1.080  -1.821   0.336  1.00  0.00     0.062 A 
ATOM     13  N   UNL     1       1.378  -3.075   0.683  1.00  0.00    -0.181 NA
ATOM     14  C   UNL     1      -0.128  -1.760  -0.400  1.00  0.00    -0.007 A 
ATOM     15  N   UNL     1       0.396  -3.808   0.138  1.00  0.00    -0.282 N 
ATOM     16  C   UNL     1      -0.720  -0.535  -0.960  1.00  0.00     0.048 C 
ATOM     17  H   UNL     1       0.378  -4.792   0.174  1.00  0.00     0.190 HD
ENDBRANCH   9  10
ENDBRANCH   8   9
ENDBRANCH   6   8
ENDBRANCH   5   6
ENDBRANCH   4   5
ENDBRANCH   3   4
ENDBRANCH   2   3
ENDBRANCH   1   2
BRANCH   1  18
ATOM     18  C   UNL     1      -3.102  -0.855  -4.896  1.00  0.00     0.261 C 
BRANCH  18  19
ATOM     19  O   UNL     1      -1.754  -0.620  -4.495  1.00  0.00    -0.460 OA
BRANCH  19  20
ATOM     20  C   UNL     1      -1.315   0.651  -4.406  1.00  0.00     0.338 C 
ATOM     21  O   UNL     1      -1.964   1.675  -4.529  1.00  0.00    -0.246 OA
BRANCH  20  22
ATOM     22  C   UNL     1       0.141   0.574  -4.189  1.00  0.00     0.060 A 
ATOM     23  C   UNL     1       0.916   1.711  -4.421  1.00  0.00     0.016 A 
ATOM     24  C   UNL     1       0.736  -0.658  -3.856  1.00  0.00     0.016 A 
ATOM     25  C   UNL     1       2.290   1.566  -4.495  1.00  0.00     0.010 A 
ATOM     26  C   UNL     1       2.100  -0.789  -3.870  1.00  0.00     0.010 A 
ATOM     27  C   UNL     1       2.848   0.296  -4.304  1.00  0.00    -0.014 A 
BRANCH  27  28
ATOM     28  C   UNL     1       4.228   0.074  -4.675  1.00  0.00     0.031 A 
ATOM     29  C   UNL     1       5.229   0.682  -3.777  1.00  0.00     0.074 A 
ATOM     30  C   UNL     1       4.534  -0.729  -5.714  1.00  0.00     0.049 A 
ATOM     31  N   UNL     1       6.004   1.685  -4.021  1.00  0.00    -0.248 NA
ATOM     32  C   UNL     1       5.274   0.210  -2.386  1.00  0.00     0.031 C 
ATOM     33  C   UNL     1       3.640  -1.608  -6.480  1.00  0.00     0.029 A 
ATOM     34  N   UNL     1       5.750  -0.995  -6.250  1.00  0.00    -0.354 N 
ATOM     35  C   UNL     1       6.806   1.820  -2.893  1.00  0.00     0.074 A 
ATOM     36  C   UNL     1       6.184   1.032  -1.861  1.00  0.00     0.031 C 
ATOM     37  C   UNL     1       4.378  -2.461  -7.223  1.00  0.00     0.029 A 
ATOM     38  C   UNL     1       5.776  -2.088  -7.104  1.00  0.00     0.049 A 
ATOM     39  H   UNL     1       6.550  -0.456  -6.051  1.00  0.00     0.167 HD
ATOM     40  C   UNL     1       8.052   2.362  -2.974  1.00  0.00     0.037 A 
ATOM     41  C   UNL     1       6.881  -2.675  -7.623  1.00  0.00     0.037 A 
ATOM     42  C   UNL     1       8.226   3.095  -4.204  1.00  0.00     0.049 A 
ATOM     43  C   UNL     1       7.974  -1.667  -7.556  1.00  0.00     0.074 A 
ATOM     44  C   UNL     1       7.600   4.184  -4.778  1.00  0.00     0.029 A 
ATOM     45  N   UNL     1       8.920   2.484  -5.223  1.00  0.00    -0.354 N 
ATOM     46  N   UNL     1       7.972  -0.550  -8.236  1.00  0.00    -0.248 NA
ATOM     47  C   UNL     1       8.833  -1.671  -6.380  1.00  0.00     0.031 C 
ATOM     48  C   UNL     1       7.561   3.899  -6.174  1.00  0.00     0.029 A 
ATOM     49  C   UNL     1       8.214   2.682  -6.384  1.00  0.00     0.049 A 
ATOM     50  H   UNL     1       9.768   1.992  -5.135  1.00  0.00     0.167 HD
ATOM     51  C   UNL     1       8.487   0.405  -7.368  1.00  0.00     0.074 A 
ATOM     52  C   UNL     1       9.082  -0.363  -6.276  1.00  0.00     0.031 C 
ATOM     53  C   UNL     1       8.139   1.723  -7.469  1.00  0.00     0.037 A 
BRANCH  40  54
ATOM     54  C   UNL     1       9.217   1.926  -2.120  1.00  0.00     0.058 A 
ATOM     55  C   UNL     1      10.414   2.671  -2.148  1.00  0.00     0.135 A 
ATOM     56  C   UNL     1       9.303   0.662  -1.494  1.00  0.00     0.135 A 
ATOM     57  F   UNL     1      10.451   3.883  -2.725  1.00  0.00    -0.206 F 
ATOM     58  C   UNL     1      11.619   2.164  -1.661  1.00  0.00     0.059 A 
ATOM     59  C   UNL     1      10.479   0.163  -0.950  1.00  0.00     0.059 A 
ATOM     60  F   UNL     1       8.277  -0.198  -1.470  1.00  0.00    -0.206 F 
ATOM     61  C   UNL     1      11.643   0.899  -1.081  1.00  0.00     0.060 A 
BRANCH  61  62
ATOM     62  S   UNL     1      13.215   0.185  -0.572  1.00  0.00     0.124 S 
ATOM     63  O   UNL     1      13.851  -0.061  -1.861  1.00  0.00    -0.237 OA
ATOM     64  O   UNL     1      13.790   1.258   0.232  1.00  0.00    -0.237 OA
ATOM     65  O   UNL     1      12.817  -1.005   0.174  1.00  0.00    -0.744 OA
ENDBRANCH  61  62
ENDBRANCH  40  54
BRANCH  41  66
ATOM     66  C   UNL     1       7.104  -4.134  -7.805  1.00  0.00     0.058 A 
ATOM     67  C   UNL     1       8.148  -4.630  -8.601  1.00  0.00     0.135 A 
ATOM     68  C   UNL     1       6.439  -5.080  -6.995  1.00  0.00     0.135 A 
ATOM     69  F   UNL     1       8.856  -3.796  -9.379  1.00  0.00    -0.206 F 
ATOM     70  C   UNL     1       8.528  -5.979  -8.579  1.00  0.00     0.059 A 
ATOM     71  C   UNL     1       6.791  -6.428  -6.963  1.00  0.00     0.059 A 
ATOM     72  F   UNL     1       5.474  -4.707  -6.140  1.00  0.00    -0.206 F 
ATOM     73  C   UNL     1       7.850  -6.869  -7.744  1.00  0.00     0.060 A 
BRANCH  73  74
ATOM     74  S   UNL     1       8.422  -8.579  -7.607  1.00  0.00     0.124 S 
ATOM     75  O   UNL     1       8.102  -9.111  -8.927  1.00  0.00    -0.237 OA
ATOM     76  O   UNL     1       9.841  -8.407  -7.314  1.00  0.00    -0.237 OA
ATOM     77  O   UNL     1       7.622  -9.117  -6.509  1.00  0.00    -0.744 OA
ENDBRANCH  73  74
ENDBRANCH  41  66
BRANCH  53  78
ATOM     78  C   UNL     1       7.396   2.174  -8.705  1.00  0.00     0.058 A 
ATOM     79  C   UNL     1       6.081   1.785  -9.017  1.00  0.00     0.135 A 
ATOM     80  C   UNL     1       7.965   3.182  -9.497  1.00  0.00     0.135 A 
ATOM     81  F   UNL     1       5.425   0.902  -8.254  1.00  0.00    -0.206 F 
ATOM     82  C   UNL     1       5.374   2.353 -10.080  1.00  0.00     0.059 A 
ATOM     83  C   UNL     1       7.269   3.784 -10.544  1.00  0.00     0.059 A 
ATOM     84  F   UNL     1       9.194   3.644  -9.213  1.00  0.00    -0.206 F 
ATOM     85  C   UNL     1       5.974   3.360 -10.834  1.00  0.00     0.060 A 
BRANCH  85  86
ATOM     86  S   UNL     1       5.017   4.173 -12.133  1.00  0.00     0.124 S 
ATOM     87  O   UNL     1       4.953   3.140 -13.161  1.00  0.00    -0.237 OA
ATOM     88  O   UNL     1       3.757   4.476 -11.459  1.00  0.00    -0.237 OA
ATOM     89  O   UNL     1       5.826   5.342 -12.473  1.00  0.00    -0.744 OA
ENDBRANCH  85  86
ENDBRANCH  53  78
ENDBRANCH  27  28
ENDBRANCH  20  22
ENDBRANCH  19  20
ENDBRANCH  18  19
ENDBRANCH   1  18
TORSDOF 19
