REMARK SMILES Cc1ccccc1/[NH+]=C1\S[C@@H](CC(=O)Nc2ccc(C(=O)OCCOCCOC(=O)c3ccc(-c4c5nc(c(-c6c(F)cc(S(=O)(=O)[O-])cc6F)c6ccc([nH]6)c(-c6c(F)cc(S(=O)(=O)[O-])cc6F)c6nc(c(-c7c(F)cc(S(=O)(=O)[O-])cc7F)c7ccc4[nH]7)C=C6)C=C5)cc3)cc2)C(=O)N1C
REMARK SMILES IDX 24 1 23 2 22 3 20 4 21 5 19 6 16 7 17 8 98 9 18 10 97 11
REMARK SMILES IDX 15 12 13 13 14 14 12 16 11 17 8 18 9 19 10 21 101 22 99 23
REMARK SMILES IDX 102 24 100 25 7 26 1 27 2 28 3 29 4 30 6 31 5 32 25 33 26 34
REMARK SMILES IDX 27 35 28 36 29 37 30 38 31 39 32 40 96 41 33 42 95 43 34 44
REMARK SMILES IDX 35 45 36 46 89 47 37 48 94 49 88 50 90 51 38 52 93 53 87 54
REMARK SMILES IDX 86 55 39 57 73 58 52 59 72 60 53 61 56 62 71 63 91 64 54 65
REMARK SMILES IDX 55 66 70 68 92 69 57 70 40 71 41 72 50 73 42 74 43 75 49 76
REMARK SMILES IDX 51 77 44 78 45 79 46 80 47 81 48 82 74 83 75 84 84 85 76 86
REMARK SMILES IDX 77 87 83 88 85 89 78 90 79 91 80 92 81 93 82 94 58 95 59 96
REMARK SMILES IDX 68 97 60 98 61 99 67 100 69 101 62 102 63 103 64 104 65 105
REMARK SMILES IDX 66 106
REMARK H PARENT 15 15 8 20 90 56 56 67
REMARK Flexibility Score: inf
ROOT
ATOM      1  C   UNL     1       4.129   8.179  -1.737  1.00  0.00     0.202 C 
ENDROOT
BRANCH   1   2
ATOM      2  C   UNL     1       3.713   6.871  -2.304  1.00  0.00     0.261 C 
BRANCH   2   3
ATOM      3  O   UNL     1       4.670   5.814  -2.018  1.00  0.00    -0.460 OA
BRANCH   3   4
ATOM      4  C   UNL     1       5.988   5.780  -2.386  1.00  0.00     0.338 C 
ATOM      5  O   UNL     1       6.536   6.186  -3.374  1.00  0.00    -0.246 OA
BRANCH   4   6
ATOM      6  C   UNL     1       6.689   5.107  -1.269  1.00  0.00     0.060 A 
ATOM      7  C   UNL     1       7.835   3.747   0.849  1.00  0.00     0.041 A 
ATOM      8  C   UNL     1       6.605   4.361   0.993  1.00  0.00     0.027 A 
ATOM      9  C   UNL     1       8.611   4.001  -0.277  1.00  0.00     0.027 A 
ATOM     10  C   UNL     1       5.996   4.966  -0.072  1.00  0.00     0.018 A 
ATOM     11  C   UNL     1       8.027   4.691  -1.354  1.00  0.00     0.018 A 
BRANCH   7  12
ATOM     12  N   UNL     1       8.175   2.798   1.818  1.00  0.00    -0.326 N 
ATOM     13  C   UNL     1       7.279   1.846   2.292  1.00  0.00     0.226 C 
ATOM     14  O   UNL     1       7.458   1.283   3.370  1.00  0.00    -0.275 OA
ATOM     15  H   UNL     1       9.090   2.804   2.181  1.00  0.00     0.169 HD
BRANCH  13  16
ATOM     16  C   UNL     1       6.212   1.360   1.305  1.00  0.00     0.128 C 
BRANCH  16  17
ATOM     17  C   UNL     1       4.742   1.530   1.642  1.00  0.00     0.183 C 
ATOM     18  N   UNL     1       1.214   1.932   0.962  1.00  0.00    -0.234 N 
ATOM     19  C   UNL     1       2.466   2.197   0.868  1.00  0.00     0.319 C 
ATOM     20  H   UNL     1       0.698   2.586   1.486  1.00  0.00     0.313 HD
ATOM     21  S   UNL     1       3.769   1.383   0.084  1.00  0.00    -0.022 SA
ATOM     22  N   UNL     1       3.032   3.209   1.587  1.00  0.00    -0.193 N 
ATOM     23  C   UNL     1       4.192   2.829   2.231  1.00  0.00     0.324 C 
ATOM     24  C   UNL     1       2.408   4.507   1.755  1.00  0.00     0.301 C 
ATOM     25  O   UNL     1       4.643   3.371   3.234  1.00  0.00    -0.245 OA
BRANCH  18  26
ATOM     26  C   UNL     1       0.452   0.867   0.447  1.00  0.00     0.128 A 
ATOM     27  C   UNL     1       2.123  -1.119   0.565  1.00  0.00     0.049 C 
ATOM     28  C   UNL     1       0.774  -0.505   0.340  1.00  0.00    -0.004 A 
ATOM     29  C   UNL     1      -0.232  -1.432  -0.022  1.00  0.00     0.008 A 
ATOM     30  C   UNL     1      -1.550  -1.042  -0.223  1.00  0.00     0.001 A 
ATOM     31  C   UNL     1      -0.892   1.228   0.212  1.00  0.00     0.052 A 
ATOM     32  C   UNL     1      -1.882   0.296  -0.108  1.00  0.00     0.004 A 
ENDBRANCH  18  26
ENDBRANCH  16  17
ENDBRANCH  13  16
ENDBRANCH   7  12
ENDBRANCH   4   6
ENDBRANCH   3   4
ENDBRANCH   2   3
ENDBRANCH   1   2
BRANCH   1  33
ATOM     33  O   UNL     1       5.420   8.414  -2.267  1.00  0.00    -0.374 OA
BRANCH  33  34
ATOM     34  C   UNL     1       6.119   9.473  -1.666  1.00  0.00     0.202 C 
BRANCH  34  35
ATOM     35  C   UNL     1       5.391  10.799  -1.877  1.00  0.00     0.261 C 
BRANCH  35  36
ATOM     36  O   UNL     1       5.370  11.126  -3.285  1.00  0.00    -0.460 OA
BRANCH  36  37
ATOM     37  C   UNL     1       4.173  10.940  -3.921  1.00  0.00     0.338 C 
ATOM     38  O   UNL     1       3.190  11.634  -3.734  1.00  0.00    -0.246 OA
BRANCH  37  39
ATOM     39  C   UNL     1       4.243   9.763  -4.837  1.00  0.00     0.060 A 
ATOM     40  C   UNL     1       3.077   9.095  -5.265  1.00  0.00     0.016 A 
ATOM     41  C   UNL     1       5.490   9.201  -5.089  1.00  0.00     0.016 A 
ATOM     42  C   UNL     1       3.159   7.800  -5.812  1.00  0.00     0.010 A 
ATOM     43  C   UNL     1       5.557   7.903  -5.542  1.00  0.00     0.010 A 
ATOM     44  C   UNL     1       4.401   7.175  -5.873  1.00  0.00    -0.014 A 
BRANCH  44  45
ATOM     45  C   UNL     1       4.661   5.763  -6.181  1.00  0.00     0.031 A 
ATOM     46  C   UNL     1       5.546   5.472  -7.325  1.00  0.00     0.074 A 
ATOM     47  C   UNL     1       4.434   4.811  -5.243  1.00  0.00     0.049 A 
ATOM     48  N   UNL     1       5.850   4.287  -7.714  1.00  0.00    -0.248 NA
ATOM     49  C   UNL     1       6.142   6.504  -8.175  1.00  0.00     0.031 C 
ATOM     50  C   UNL     1       5.153   3.563  -4.981  1.00  0.00     0.029 A 
ATOM     51  N   UNL     1       3.491   4.815  -4.220  1.00  0.00    -0.354 N 
ATOM     52  C   UNL     1       6.968   4.403  -8.504  1.00  0.00     0.074 A 
ATOM     53  C   UNL     1       6.954   5.771  -8.942  1.00  0.00     0.031 C 
ATOM     54  C   UNL     1       4.460   2.813  -4.101  1.00  0.00     0.029 A 
ATOM     55  C   UNL     1       3.204   3.504  -3.850  1.00  0.00     0.049 A 
ATOM     56  H   UNL     1       3.089   5.620  -3.820  1.00  0.00     0.167 HD
ATOM     57  C   UNL     1       7.856   3.368  -8.504  1.00  0.00     0.037 A 
ATOM     58  C   UNL     1       1.936   3.040  -3.961  1.00  0.00     0.037 A 
ATOM     59  C   UNL     1       7.281   2.207  -7.778  1.00  0.00     0.049 A 
ATOM     60  C   UNL     1       2.020   1.965  -4.995  1.00  0.00     0.074 A 
ATOM     61  C   UNL     1       7.624   1.520  -6.626  1.00  0.00     0.029 A 
ATOM     62  N   UNL     1       5.976   1.786  -8.087  1.00  0.00    -0.354 N 
ATOM     63  N   UNL     1       2.821   2.040  -6.032  1.00  0.00    -0.248 NA
ATOM     64  C   UNL     1       1.504   0.623  -4.744  1.00  0.00     0.031 C 
ATOM     65  C   UNL     1       6.484   0.758  -6.207  1.00  0.00     0.029 A 
ATOM     66  C   UNL     1       5.442   0.969  -7.105  1.00  0.00     0.049 A 
ATOM     67  H   UNL     1       5.496   2.043  -8.907  1.00  0.00     0.167 HD
ATOM     68  C   UNL     1       3.087   0.765  -6.446  1.00  0.00     0.074 A 
ATOM     69  C   UNL     1       2.208  -0.081  -5.644  1.00  0.00     0.031 C 
ATOM     70  C   UNL     1       4.111   0.378  -7.260  1.00  0.00     0.037 A 
BRANCH  57  71
ATOM     71  C   UNL     1       9.313   3.462  -8.973  1.00  0.00     0.058 A 
ATOM     72  C   UNL     1      10.153   2.326  -8.928  1.00  0.00     0.135 A 
ATOM     73  C   UNL     1       9.977   4.632  -9.425  1.00  0.00     0.135 A 
ATOM     74  F   UNL     1       9.697   1.145  -8.487  1.00  0.00    -0.206 F 
ATOM     75  C   UNL     1      11.502   2.344  -9.317  1.00  0.00     0.059 A 
ATOM     76  C   UNL     1      11.307   4.664  -9.860  1.00  0.00     0.059 A 
ATOM     77  F   UNL     1       9.402   5.836  -9.428  1.00  0.00    -0.206 F 
ATOM     78  C   UNL     1      12.069   3.514  -9.801  1.00  0.00     0.060 A 
BRANCH  78  79
ATOM     79  S   UNL     1      13.786   3.522 -10.350  1.00  0.00     0.124 S 
ATOM     80  O   UNL     1      14.503   3.239  -9.112  1.00  0.00    -0.237 OA
ATOM     81  O   UNL     1      13.794   2.459 -11.349  1.00  0.00    -0.237 OA
ATOM     82  O   UNL     1      13.971   4.872 -10.880  1.00  0.00    -0.744 OA
ENDBRANCH  78  79
ENDBRANCH  57  71
BRANCH  58  83
ATOM     83  C   UNL     1       0.904   4.079  -3.640  1.00  0.00     0.058 A 
ATOM     84  C   UNL     1       0.733   4.377  -2.268  1.00  0.00     0.135 A 
ATOM     85  C   UNL     1       0.497   5.079  -4.538  1.00  0.00     0.135 A 
ATOM     86  F   UNL     1       1.161   3.505  -1.346  1.00  0.00    -0.206 F 
ATOM     87  C   UNL     1       0.300   5.621  -1.802  1.00  0.00     0.059 A 
ATOM     88  C   UNL     1       0.093   6.354  -4.093  1.00  0.00     0.059 A 
ATOM     89  F   UNL     1       0.636   4.895  -5.858  1.00  0.00    -0.206 F 
ATOM     90  C   UNL     1       0.048   6.630  -2.725  1.00  0.00     0.060 A 
BRANCH  90  91
ATOM     91  S   UNL     1      -0.058   8.335  -2.102  1.00  0.00     0.124 S 
ATOM     92  O   UNL     1      -1.349   8.335  -1.426  1.00  0.00    -0.237 OA
ATOM     93  O   UNL     1       1.108   8.405  -1.220  1.00  0.00    -0.237 OA
ATOM     94  O   UNL     1       0.034   9.139  -3.314  1.00  0.00    -0.744 OA
ENDBRANCH  90  91
ENDBRANCH  58  83
BRANCH  70  95
ATOM     95  C   UNL     1       3.853  -0.656  -8.327  1.00  0.00     0.058 A 
ATOM     96  C   UNL     1       2.568  -1.153  -8.629  1.00  0.00     0.135 A 
ATOM     97  C   UNL     1       4.881  -1.049  -9.215  1.00  0.00     0.135 A 
ATOM     98  F   UNL     1       1.473  -0.778  -7.954  1.00  0.00    -0.206 F 
ATOM     99  C   UNL     1       2.337  -2.037  -9.670  1.00  0.00     0.059 A 
ATOM    100  C   UNL     1       4.655  -1.874 -10.308  1.00  0.00     0.059 A 
ATOM    101  F   UNL     1       6.144  -0.624  -9.077  1.00  0.00    -0.206 F 
ATOM    102  C   UNL     1       3.385  -2.389 -10.506  1.00  0.00     0.060 A 
BRANCH 102 103
ATOM    103  S   UNL     1       3.051  -3.509 -11.864  1.00  0.00     0.124 S 
ATOM    104  O   UNL     1       2.974  -4.788 -11.164  1.00  0.00    -0.237 OA
ATOM    105  O   UNL     1       1.788  -2.997 -12.388  1.00  0.00    -0.237 OA
ATOM    106  O   UNL     1       4.205  -3.335 -12.739  1.00  0.00    -0.744 OA
ENDBRANCH 102 103
ENDBRANCH  70  95
ENDBRANCH  44  45
ENDBRANCH  37  39
ENDBRANCH  36  37
ENDBRANCH  35  36
ENDBRANCH  34  35
ENDBRANCH  33  34
ENDBRANCH   1  33
TORSDOF 21
