REMARK SMILES Cc1nn(-c2ccc(C(=O)OCCOCCOC(=O)c3ccc(-c4c5nc(c(-c6c(F)cc(S(=O)(=O)[O-])cc6F)c6ccc([nH]6)c(-c6c(F)cc(S(=O)(=O)[O-])cc6F)c6nc(c(-c7c(F)cc(S(=O)(=O)[O-])cc7F)c7ccc4[nH]7)C=C6)C=C5)cc3)cc2)c(=O)c2ccccc12
REMARK SMILES IDX 15 1 14 2 13 3 12 4 11 5 9 6 10 7 8 8 5 9 6 10 87 11 7 12
REMARK SMILES IDX 86 13 4 14 1 15 2 16 3 17 95 18 90 19 94 20 88 21 91 22
REMARK SMILES IDX 93 23 89 24 92 25 16 26 17 27 18 28 19 29 20 30 21 31 85 32
REMARK SMILES IDX 22 33 84 34 23 35 24 36 25 37 78 38 26 39 83 40 77 41 79 42
REMARK SMILES IDX 27 43 82 44 76 45 75 46 28 48 62 49 41 50 61 51 42 52 45 53
REMARK SMILES IDX 60 54 80 55 43 56 44 57 59 59 81 60 46 61 29 62 30 63 39 64
REMARK SMILES IDX 31 65 32 66 38 67 40 68 33 69 34 70 35 71 36 72 37 73 63 74
REMARK SMILES IDX 64 75 73 76 65 77 66 78 72 79 74 80 67 81 68 82 69 83 70 84
REMARK SMILES IDX 71 85 47 86 48 87 57 88 49 89 50 90 56 91 58 92 51 93 52 94
REMARK SMILES IDX 53 95 54 96 55 97
REMARK H PARENT 79 47 45 58
REMARK Flexibility Score: inf
ROOT
ATOM      1  C   UNL     1       2.461   8.696   1.061  1.00  0.00     0.202 C 
ENDROOT
BRANCH   1   2
ATOM      2  O   UNL     1       2.219  10.065   1.387  1.00  0.00    -0.374 OA
BRANCH   2   3
ATOM      3  C   UNL     1       2.500  10.490   2.720  1.00  0.00     0.202 C 
BRANCH   3   4
ATOM      4  C   UNL     1       1.486  10.125   3.811  1.00  0.00     0.261 C 
BRANCH   4   5
ATOM      5  O   UNL     1       1.349   8.704   3.955  1.00  0.00    -0.460 OA
BRANCH   5   6
ATOM      6  C   UNL     1       0.178   8.194   3.501  1.00  0.00     0.338 C 
ATOM      7  O   UNL     1      -0.794   8.819   3.107  1.00  0.00    -0.246 OA
BRANCH   6   8
ATOM      8  C   UNL     1       0.306   6.729   3.338  1.00  0.00     0.060 A 
ATOM      9  C   UNL     1       0.399   3.957   2.959  1.00  0.00     0.069 A 
ATOM     10  C   UNL     1      -0.200   4.775   1.994  1.00  0.00     0.029 A 
ATOM     11  C   UNL     1       1.017   4.547   4.073  1.00  0.00     0.029 A 
ATOM     12  C   UNL     1      -0.279   6.152   2.203  1.00  0.00     0.018 A 
ATOM     13  C   UNL     1       0.996   5.933   4.253  1.00  0.00     0.018 A 
BRANCH   9  14
ATOM     14  N   UNL     1       0.284   2.545   2.847  1.00  0.00    -0.196 N 
ATOM     15  C   UNL     1       0.858   0.262   0.028  1.00  0.00     0.069 C 
ATOM     16  C   UNL     1       0.436   0.765   1.392  1.00  0.00     0.066 A 
ATOM     17  N   UNL     1       0.539   2.043   1.593  1.00  0.00    -0.169 NA
ATOM     18  C   UNL     1      -0.040  -0.184   2.424  1.00  0.00     0.010 A 
ATOM     19  C   UNL     1      -0.349   0.348   3.671  1.00  0.00     0.051 A 
ATOM     20  C   UNL     1      -0.242  -1.551   2.197  1.00  0.00     0.011 A 
ATOM     21  C   UNL     1      -0.115   1.775   3.939  1.00  0.00     0.279 A 
ATOM     22  C   UNL     1      -0.908  -0.459   4.673  1.00  0.00     0.014 A 
ATOM     23  C   UNL     1      -0.793  -2.357   3.200  1.00  0.00     0.001 A 
ATOM     24  O   UNL     1      -0.343   2.192   5.073  1.00  0.00    -0.267 OA
ATOM     25  C   UNL     1      -1.138  -1.810   4.433  1.00  0.00     0.001 A 
ENDBRANCH   9  14
ENDBRANCH   6   8
ENDBRANCH   5   6
ENDBRANCH   4   5
ENDBRANCH   3   4
ENDBRANCH   2   3
ENDBRANCH   1   2
BRANCH   1  26
ATOM     26  C   UNL     1       3.914   8.253   0.854  1.00  0.00     0.261 C 
BRANCH  26  27
ATOM     27  O   UNL     1       4.697   8.341   2.055  1.00  0.00    -0.460 OA
BRANCH  27  28
ATOM     28  C   UNL     1       5.592   9.360   2.084  1.00  0.00     0.338 C 
ATOM     29  O   UNL     1       5.831  10.157   1.190  1.00  0.00    -0.246 OA
BRANCH  28  30
ATOM     30  C   UNL     1       6.118   9.502   3.456  1.00  0.00     0.060 A 
ATOM     31  C   UNL     1       6.672   8.418   4.137  1.00  0.00     0.016 A 
ATOM     32  C   UNL     1       6.067  10.768   4.054  1.00  0.00     0.016 A 
ATOM     33  C   UNL     1       7.201   8.613   5.416  1.00  0.00     0.010 A 
ATOM     34  C   UNL     1       6.597  10.960   5.330  1.00  0.00     0.010 A 
ATOM     35  C   UNL     1       7.186   9.888   6.014  1.00  0.00    -0.014 A 
BRANCH  35  36
ATOM     36  C   UNL     1       7.899  10.116   7.296  1.00  0.00     0.031 A 
ATOM     37  C   UNL     1       7.155  10.339   8.580  1.00  0.00     0.074 A 
ATOM     38  C   UNL     1       9.246  10.126   7.284  1.00  0.00     0.049 A 
ATOM     39  N   UNL     1       7.634  10.477   9.790  1.00  0.00    -0.248 NA
ATOM     40  C   UNL     1       5.690  10.423   8.498  1.00  0.00     0.031 C 
ATOM     41  C   UNL     1      10.074   9.961   6.087  1.00  0.00     0.029 A 
ATOM     42  N   UNL     1      10.156  10.268   8.301  1.00  0.00    -0.354 N 
ATOM     43  C   UNL     1       6.532  10.641  10.620  1.00  0.00     0.074 A 
ATOM     44  C   UNL     1       5.362  10.640   9.766  1.00  0.00     0.031 C 
ATOM     45  C   UNL     1      11.367   9.971   6.444  1.00  0.00     0.029 A 
ATOM     46  C   UNL     1      11.464  10.176   7.886  1.00  0.00     0.049 A 
ATOM     47  H   UNL     1       9.897  10.421   9.238  1.00  0.00     0.167 HD
ATOM     48  C   UNL     1       6.503  10.757  11.970  1.00  0.00     0.037 A 
ATOM     49  C   UNL     1      12.613  10.245   8.586  1.00  0.00     0.037 A 
ATOM     50  C   UNL     1       7.677  10.774  12.808  1.00  0.00     0.049 A 
ATOM     51  C   UNL     1      12.553  10.425  10.078  1.00  0.00     0.074 A 
ATOM     52  C   UNL     1       7.745  10.856  14.189  1.00  0.00     0.029 A 
ATOM     53  N   UNL     1       8.986  10.720  12.350  1.00  0.00    -0.354 N 
ATOM     54  N   UNL     1      11.499  10.504  10.856  1.00  0.00    -0.248 NA
ATOM     55  C   UNL     1      13.835  10.522  10.789  1.00  0.00     0.031 C 
ATOM     56  C   UNL     1       9.092  10.910  14.561  1.00  0.00     0.029 A 
ATOM     57  C   UNL     1       9.867  10.800  13.418  1.00  0.00     0.049 A 
ATOM     58  H   UNL     1       9.250  10.639  11.405  1.00  0.00     0.167 HD
ATOM     59  C   UNL     1      11.992  10.639  12.149  1.00  0.00     0.074 A 
ATOM     60  C   UNL     1      13.436  10.612  12.051  1.00  0.00     0.031 C 
ATOM     61  C   UNL     1      11.306  10.775  13.312  1.00  0.00     0.037 A 
BRANCH  48  62
ATOM     62  C   UNL     1       5.159  10.864  12.640  1.00  0.00     0.058 A 
ATOM     63  C   UNL     1       4.287   9.765  12.707  1.00  0.00     0.135 A 
ATOM     64  C   UNL     1       4.770  12.046  13.292  1.00  0.00     0.135 A 
ATOM     65  F   UNL     1       4.602   8.613  12.094  1.00  0.00    -0.206 F 
ATOM     66  C   UNL     1       3.071   9.839  13.379  1.00  0.00     0.059 A 
ATOM     67  C   UNL     1       3.570  12.134  13.994  1.00  0.00     0.059 A 
ATOM     68  F   UNL     1       5.565  13.127  13.264  1.00  0.00    -0.206 F 
ATOM     69  C   UNL     1       2.724  11.027  14.025  1.00  0.00     0.060 A 
BRANCH  69  70
ATOM     70  S   UNL     1       1.150  11.095  14.906  1.00  0.00     0.124 S 
ATOM     71  O   UNL     1       0.195  11.021  13.805  1.00  0.00    -0.237 OA
ATOM     72  O   UNL     1       1.223   9.915  15.762  1.00  0.00    -0.237 OA
ATOM     73  O   UNL     1       1.202  12.377  15.603  1.00  0.00    -0.744 OA
ENDBRANCH  69  70
ENDBRANCH  48  62
BRANCH  49  74
ATOM     74  C   UNL     1      13.915  10.108   7.880  1.00  0.00     0.058 A 
ATOM     75  C   UNL     1      14.718   8.973   8.063  1.00  0.00     0.135 A 
ATOM     76  C   UNL     1      14.367  11.092   6.987  1.00  0.00     0.135 A 
ATOM     77  F   UNL     1      14.332   8.008   8.911  1.00  0.00    -0.206 F 
ATOM     78  C   UNL     1      15.928   8.822   7.394  1.00  0.00     0.059 A 
ATOM     79  C   UNL     1      15.560  10.951   6.285  1.00  0.00     0.059 A 
ATOM     80  F   UNL     1      13.628  12.191   6.766  1.00  0.00    -0.206 F 
ATOM     81  C   UNL     1      16.337   9.814   6.501  1.00  0.00     0.060 A 
BRANCH  81  82
ATOM     82  S   UNL     1      17.884   9.578   5.600  1.00  0.00     0.124 S 
ATOM     83  O   UNL     1      18.868   9.694   6.670  1.00  0.00    -0.237 OA
ATOM     84  O   UNL     1      17.706   8.243   5.037  1.00  0.00    -0.237 OA
ATOM     85  O   UNL     1      17.878  10.667   4.628  1.00  0.00    -0.744 OA
ENDBRANCH  81  82
ENDBRANCH  49  74
BRANCH  61  86
ATOM     86  C   UNL     1      12.103  10.896  14.584  1.00  0.00     0.058 A 
ATOM     87  C   UNL     1      12.828  12.058  14.890  1.00  0.00     0.135 A 
ATOM     88  C   UNL     1      12.081   9.868  15.542  1.00  0.00     0.135 A 
ATOM     89  F   UNL     1      12.891  13.068  14.007  1.00  0.00    -0.206 F 
ATOM     90  C   UNL     1      13.515  12.192  16.093  1.00  0.00     0.059 A 
ATOM     91  C   UNL     1      12.734   9.993  16.764  1.00  0.00     0.059 A 
ATOM     92  F   UNL     1      11.396   8.738  15.305  1.00  0.00    -0.206 F 
ATOM     93  C   UNL     1      13.455  11.156  17.028  1.00  0.00     0.060 A 
BRANCH  93  94
ATOM     94  S   UNL     1      14.311  11.368  18.603  1.00  0.00     0.124 S 
ATOM     95  O   UNL     1      15.710  11.323  18.188  1.00  0.00    -0.237 OA
ATOM     96  O   UNL     1      13.824  12.671  19.047  1.00  0.00    -0.237 OA
ATOM     97  O   UNL     1      13.856  10.230  19.396  1.00  0.00    -0.744 OA
ENDBRANCH  93  94
ENDBRANCH  61  86
ENDBRANCH  35  36
ENDBRANCH  28  30
ENDBRANCH  27  28
ENDBRANCH  26  27
ENDBRANCH   1  26
TORSDOF 18
