REMARK SMILES C[C@H]([C@@H](C)O)[N@H+]1CC[C@@](C)(C(=O)OCCOCCOC(=O)c2ccc(-c3c4nc(c(-c5c(F)cc(S(=O)(=O)[O-])cc5F)c5ccc([nH]5)c(-c5c(F)cc(S(=O)(=O)[O-])cc5F)c5nc(c(-c6c(F)cc(S(=O)(=O)[O-])cc6F)c6ccc3[nH]6)C=C5)C=C4)cc2)C1
REMARK SMILES IDX 16 1 15 2 14 3 13 4 11 5 12 6 9 7 6 8 7 9 88 10 8 12 10 13
REMARK SMILES IDX 2 14 1 15 3 16 4 17 5 18 17 20 18 21 19 22 20 23 21 24 22 25
REMARK SMILES IDX 23 26 87 27 24 28 86 29 25 30 26 31 27 32 80 33 28 34 85 35
REMARK SMILES IDX 79 36 81 37 29 38 84 39 78 40 77 41 30 43 64 44 43 45 63 46
REMARK SMILES IDX 44 47 47 48 62 49 82 50 45 51 46 52 61 54 83 55 48 56 31 57
REMARK SMILES IDX 32 58 41 59 33 60 34 61 40 62 42 63 35 64 36 65 37 66 38 67
REMARK SMILES IDX 39 68 65 69 66 70 75 71 67 72 68 73 74 74 76 75 69 76 70 77
REMARK SMILES IDX 71 78 72 79 73 80 49 81 50 82 59 83 51 84 52 85 58 86 60 87
REMARK SMILES IDX 53 88 54 89 55 90 56 91 57 92
REMARK H PARENT 6 11 5 19 81 42 47 53
REMARK Flexibility Score: inf
ROOT
ATOM      1  O   UNL     1      -1.094   2.680   5.184  1.00  0.00    -0.374 OA
ENDROOT
BRANCH   1   2
ATOM      2  C   UNL     1      -2.398   2.238   5.570  1.00  0.00     0.202 C 
BRANCH   2   3
ATOM      3  C   UNL     1      -3.551   2.755   4.705  1.00  0.00     0.261 C 
BRANCH   3   4
ATOM      4  O   UNL     1      -3.547   2.147   3.398  1.00  0.00    -0.463 OA
BRANCH   4   5
ATOM      5  C   UNL     1      -3.391   2.984   2.340  1.00  0.00     0.317 C 
ATOM      6  O   UNL     1      -3.290   4.204   2.432  1.00  0.00    -0.251 OA
BRANCH   5   7
ATOM      7  C   UNL     1      -3.321   2.262   0.994  1.00  0.00     0.119 C 
ATOM      8  N   UNL     1      -1.344   1.340  -0.077  1.00  0.00    -0.330 N 
ATOM      9  C   UNL     1      -1.871   0.325   0.835  1.00  0.00     0.263 C 
ATOM     10  C   UNL     1      -1.960   2.612   0.362  1.00  0.00     0.281 C 
ATOM     11  H   UNL     1      -1.587   1.082  -1.034  1.00  0.00     0.348 HD
ATOM     12  C   UNL     1      -3.327   0.727   1.026  1.00  0.00     0.086 C 
ATOM     13  C   UNL     1      -4.498   2.781   0.160  1.00  0.00     0.030 C 
BRANCH   8  14
ATOM     14  C   UNL     1       0.142   1.443  -0.152  1.00  0.00     0.209 C 
ATOM     15  C   UNL     1       0.455   2.242  -1.434  1.00  0.00     0.078 C 
BRANCH  14  16
ATOM     16  C   UNL     1       0.989   0.115  -0.145  1.00  0.00     0.169 C 
ATOM     17  C   UNL     1       2.495   0.398  -0.040  1.00  0.00     0.045 C 
BRANCH  16  18
ATOM     18  O   UNL     1       0.645  -0.709   0.976  1.00  0.00    -0.387 OA
ATOM     19  H   UNL     1       0.856  -0.239   1.799  1.00  0.00     0.211 HD
ENDBRANCH  16  18
ENDBRANCH  14  16
ENDBRANCH   8  14
ENDBRANCH   5   7
ENDBRANCH   4   5
ENDBRANCH   3   4
ENDBRANCH   2   3
ENDBRANCH   1   2
BRANCH   1  20
ATOM     20  C   UNL     1      -0.505   2.032   4.058  1.00  0.00     0.202 C 
BRANCH  20  21
ATOM     21  C   UNL     1       0.106   0.655   4.335  1.00  0.00     0.261 C 
BRANCH  21  22
ATOM     22  O   UNL     1      -0.902  -0.313   4.678  1.00  0.00    -0.460 OA
BRANCH  22  23
ATOM     23  C   UNL     1      -0.745  -0.874   5.899  1.00  0.00     0.338 C 
ATOM     24  O   UNL     1       0.210  -0.740   6.653  1.00  0.00    -0.246 OA
BRANCH  23  25
ATOM     25  C   UNL     1      -1.977  -1.565   6.318  1.00  0.00     0.060 A 
ATOM     26  C   UNL     1      -2.537  -1.177   7.541  1.00  0.00     0.016 A 
ATOM     27  C   UNL     1      -2.507  -2.642   5.604  1.00  0.00     0.016 A 
ATOM     28  C   UNL     1      -3.582  -1.912   8.093  1.00  0.00     0.010 A 
ATOM     29  C   UNL     1      -3.556  -3.384   6.165  1.00  0.00     0.010 A 
ATOM     30  C   UNL     1      -4.063  -3.051   7.434  1.00  0.00    -0.014 A 
BRANCH  30  31
ATOM     31  C   UNL     1      -4.963  -3.973   8.172  1.00  0.00     0.031 A 
ATOM     32  C   UNL     1      -4.373  -5.190   8.838  1.00  0.00     0.074 A 
ATOM     33  C   UNL     1      -6.271  -3.692   8.319  1.00  0.00     0.049 A 
ATOM     34  N   UNL     1      -4.959  -6.099   9.573  1.00  0.00    -0.248 NA
ATOM     35  C   UNL     1      -2.928  -5.407   8.653  1.00  0.00     0.031 C 
ATOM     36  C   UNL     1      -6.952  -2.528   7.754  1.00  0.00     0.029 A 
ATOM     37  N   UNL     1      -7.258  -4.364   8.995  1.00  0.00    -0.354 N 
ATOM     38  C   UNL     1      -3.959  -6.994   9.939  1.00  0.00     0.074 A 
ATOM     39  C   UNL     1      -2.734  -6.536   9.319  1.00  0.00     0.031 C 
ATOM     40  C   UNL     1      -8.249  -2.569   8.106  1.00  0.00     0.029 A 
ATOM     41  C   UNL     1      -8.494  -3.770   8.903  1.00  0.00     0.049 A 
ATOM     42  H   UNL     1      -7.095  -5.194   9.500  1.00  0.00     0.167 HD
ATOM     43  C   UNL     1      -4.048  -8.089  10.731  1.00  0.00     0.037 A 
ATOM     44  C   UNL     1      -9.686  -4.157   9.398  1.00  0.00     0.037 A 
ATOM     45  C   UNL     1      -5.265  -8.539  11.354  1.00  0.00     0.049 A 
ATOM     46  C   UNL     1      -9.771  -5.408  10.233  1.00  0.00     0.074 A 
ATOM     47  C   UNL     1      -5.452  -9.627  12.189  1.00  0.00     0.029 A 
ATOM     48  N   UNL     1      -6.501  -7.929  11.209  1.00  0.00    -0.354 N 
ATOM     49  N   UNL     1      -8.810  -6.227  10.593  1.00  0.00    -0.248 NA
ATOM     50  C   UNL     1     -11.100  -5.785  10.736  1.00  0.00     0.031 C 
ATOM     51  C   UNL     1      -6.811  -9.698  12.515  1.00  0.00     0.029 A 
ATOM     52  C   UNL     1      -7.461  -8.630  11.920  1.00  0.00     0.049 A 
ATOM     53  H   UNL     1      -6.672  -7.117  10.678  1.00  0.00     0.167 HD
ATOM     54  C   UNL     1      -9.415  -7.200  11.382  1.00  0.00     0.074 A 
ATOM     55  C   UNL     1     -10.821  -6.862  11.458  1.00  0.00     0.031 C 
ATOM     56  C   UNL     1      -8.857  -8.276  11.991  1.00  0.00     0.037 A 
BRANCH  43  57
ATOM     57  C   UNL     1      -2.796  -8.889  10.956  1.00  0.00     0.058 A 
ATOM     58  C   UNL     1      -1.766  -8.428  11.790  1.00  0.00     0.135 A 
ATOM     59  C   UNL     1      -2.642 -10.151  10.360  1.00  0.00     0.135 A 
ATOM     60  F   UNL     1      -1.855  -7.220  12.369  1.00  0.00    -0.206 F 
ATOM     61  C   UNL     1      -0.617  -9.181  12.010  1.00  0.00     0.059 A 
ATOM     62  C   UNL     1      -1.512 -10.932  10.584  1.00  0.00     0.059 A 
ATOM     63  F   UNL     1      -3.596 -10.638   9.551  1.00  0.00    -0.206 F 
ATOM     64  C   UNL     1      -0.499 -10.432  11.402  1.00  0.00     0.060 A 
BRANCH  64  65
ATOM     65  S   UNL     1       0.993 -11.403  11.704  1.00  0.00     0.124 S 
ATOM     66  O   UNL     1       1.974 -10.689  10.894  1.00  0.00    -0.237 OA
ATOM     67  O   UNL     1       1.158 -11.283  13.149  1.00  0.00    -0.237 OA
ATOM     68  O   UNL     1       0.635 -12.735  11.226  1.00  0.00    -0.744 OA
ENDBRANCH  64  65
ENDBRANCH  43  57
BRANCH  44  69
ATOM     69  C   UNL     1     -10.906  -3.357   9.108  1.00  0.00     0.058 A 
ATOM     70  C   UNL     1     -11.554  -2.625  10.114  1.00  0.00     0.135 A 
ATOM     71  C   UNL     1     -11.454  -3.320   7.816  1.00  0.00     0.135 A 
ATOM     72  F   UNL     1     -11.074  -2.638  11.367  1.00  0.00    -0.206 F 
ATOM     73  C   UNL     1     -12.711  -1.898   9.855  1.00  0.00     0.059 A 
ATOM     74  C   UNL     1     -12.597  -2.581   7.527  1.00  0.00     0.059 A 
ATOM     75  F   UNL     1     -10.867  -3.996   6.817  1.00  0.00    -0.206 F 
ATOM     76  C   UNL     1     -13.225  -1.883   8.557  1.00  0.00     0.060 A 
BRANCH  76  77
ATOM     77  S   UNL     1     -14.705  -0.903   8.218  1.00  0.00     0.124 S 
ATOM     78  O   UNL     1     -15.749  -1.739   8.798  1.00  0.00    -0.237 OA
ATOM     79  O   UNL     1     -14.418   0.343   8.923  1.00  0.00    -0.237 OA
ATOM     80  O   UNL     1     -14.711  -0.802   6.762  1.00  0.00    -0.744 OA
ENDBRANCH  76  77
ENDBRANCH  44  69
BRANCH  56  81
ATOM     81  C   UNL     1      -9.758  -9.152  12.816  1.00  0.00     0.058 A 
ATOM     82  C   UNL     1     -10.677 -10.030  12.222  1.00  0.00     0.135 A 
ATOM     83  C   UNL     1      -9.664  -9.150  14.217  1.00  0.00     0.135 A 
ATOM     84  F   UNL     1     -10.809 -10.067  10.886  1.00  0.00    -0.206 F 
ATOM     85  C   UNL     1     -11.489 -10.860  12.988  1.00  0.00     0.059 A 
ATOM     86  C   UNL     1     -10.448  -9.990  15.003  1.00  0.00     0.059 A 
ATOM     87  F   UNL     1      -8.792  -8.338  14.835  1.00  0.00    -0.206 F 
ATOM     88  C   UNL     1     -11.367 -10.833  14.379  1.00  0.00     0.060 A 
BRANCH  88  89
ATOM     89  S   UNL     1     -12.403 -11.936  15.364  1.00  0.00     0.124 S 
ATOM     90  O   UNL     1     -13.693 -11.257  15.306  1.00  0.00    -0.237 OA
ATOM     91  O   UNL     1     -12.315 -13.193  14.625  1.00  0.00    -0.237 OA
ATOM     92  O   UNL     1     -11.751 -11.938  16.670  1.00  0.00    -0.744 OA
ENDBRANCH  88  89
ENDBRANCH  56  81
ENDBRANCH  30  31
ENDBRANCH  23  25
ENDBRANCH  22  23
ENDBRANCH  21  22
ENDBRANCH  20  21
ENDBRANCH   1  20
TORSDOF 20
