REMARK SMILES Cc1cc(C)n2nc(SCC(=O)N3CCC(C(=O)OCCOCCOC(=O)c4ccc(-c5c6nc(c(-c7c(F)cc(S(=O)(=O)[O-])cc7F)c7ccc([nH]7)c(-c7c(F)cc(S(=O)(=O)[O-])cc7F)c7nc(c(-c8c(F)cc(S(=O)(=O)[O-])cc8F)c8ccc5[nH]8)C=C7)C=C6)cc4)CC3)nc2n1
REMARK SMILES IDX 22 1 21 2 20 3 19 4 17 5 18 6 16 7 11 8 12 9 13 10 14 11
REMARK SMILES IDX 95 12 15 13 94 14 10 15 9 16 8 17 1 18 2 19 3 20 98 21 4 22
REMARK SMILES IDX 97 23 5 24 6 25 96 26 7 27 23 28 24 29 25 30 26 31 27 32
REMARK SMILES IDX 28 33 29 34 93 35 30 36 92 37 31 38 32 39 33 40 86 41 34 42
REMARK SMILES IDX 91 43 85 44 87 45 35 46 90 47 84 48 83 49 36 51 70 52 49 53
REMARK SMILES IDX 69 54 50 55 53 56 68 57 88 58 51 59 52 60 67 62 89 63 54 64
REMARK SMILES IDX 37 65 38 66 47 67 39 68 40 69 46 70 48 71 41 72 42 73 43 74
REMARK SMILES IDX 44 75 45 76 71 77 72 78 81 79 73 80 74 81 80 82 82 83 75 84
REMARK SMILES IDX 76 85 77 86 78 87 79 88 55 89 56 90 65 91 57 92 58 93 64 94
REMARK SMILES IDX 66 95 59 96 60 97 61 98 62 99 63 100
REMARK H PARENT 87 50 53 61
REMARK Flexibility Score: inf
ROOT
ATOM      1  O   UNL     1      -9.139   2.433   2.417  1.00  0.00    -0.374 OA
ENDROOT
BRANCH   1   2
ATOM      2  C   UNL     1      -8.219   1.481   1.885  1.00  0.00     0.202 C 
BRANCH   2   3
ATOM      3  C   UNL     1      -6.733   1.829   1.873  1.00  0.00     0.261 C 
BRANCH   3   4
ATOM      4  O   UNL     1      -6.212   2.033   3.193  1.00  0.00    -0.463 OA
BRANCH   4   5
ATOM      5  C   UNL     1      -5.944   3.325   3.504  1.00  0.00     0.309 C 
ATOM      6  O   UNL     1      -6.066   4.274   2.737  1.00  0.00    -0.252 OA
BRANCH   5   7
ATOM      7  C   UNL     1      -5.494   3.515   4.934  1.00  0.00     0.103 C 
ATOM      8  C   UNL     1      -2.666   2.176   7.385  1.00  0.00     0.233 C 
ATOM      9  O   UNL     1      -2.909   0.975   7.552  1.00  0.00    -0.274 OA
ATOM     10  N   UNL     1      -3.702   3.069   7.117  1.00  0.00    -0.342 N 
ATOM     11  C   UNL     1      -5.082   2.606   7.256  1.00  0.00     0.120 C 
ATOM     12  C   UNL     1      -3.573   4.283   6.324  1.00  0.00     0.120 C 
ATOM     13  C   UNL     1      -5.704   2.324   5.886  1.00  0.00     0.037 C 
ATOM     14  C   UNL     1      -4.028   3.962   4.906  1.00  0.00     0.037 C 
BRANCH   8  15
ATOM     15  C   UNL     1      -1.277   2.704   7.716  1.00  0.00     0.178 C 
BRANCH  15  16
ATOM     16  S   UNL     1      -0.318   3.509   6.430  1.00  0.00    -0.074 SA
BRANCH  16  17
ATOM     17  C   UNL     1      -0.308   2.389   5.109  1.00  0.00     0.211 A 
ATOM     18  C   UNL     1       0.861   0.030   0.009  1.00  0.00     0.067 C 
ATOM     19  C   UNL     1       0.400   0.280   1.423  1.00  0.00     0.043 A 
ATOM     20  C   UNL     1      -0.037  -0.911   2.221  1.00  0.00     0.047 A 
ATOM     21  N   UNL     1       0.443   1.502   1.866  1.00  0.00    -0.216 NA
ATOM     22  C   UNL     1      -0.392  -0.681   3.498  1.00  0.00     0.045 A 
ATOM     23  C   UNL     1       0.075   1.689   3.166  1.00  0.00     0.253 A 
ATOM     24  C   UNL     1      -0.839  -1.763   4.431  1.00  0.00     0.067 C 
ATOM     25  N   UNL     1      -0.329   0.628   3.988  1.00  0.00    -0.200 N 
ATOM     26  N   UNL     1       0.067   2.799   3.867  1.00  0.00    -0.183 NA
ATOM     27  N   UNL     1      -0.580   1.095   5.234  1.00  0.00    -0.138 NA
ENDBRANCH  16  17
ENDBRANCH  15  16
ENDBRANCH   8  15
ENDBRANCH   5   7
ENDBRANCH   4   5
ENDBRANCH   3   4
ENDBRANCH   2   3
ENDBRANCH   1   2
BRANCH   1  28
ATOM     28  C   UNL     1      -9.176   2.711   3.815  1.00  0.00     0.202 C 
BRANCH  28  29
ATOM     29  C   UNL     1      -9.712   1.643   4.758  1.00  0.00     0.261 C 
BRANCH  29  30
ATOM     30  O   UNL     1      -8.890   0.490   4.728  1.00  0.00    -0.460 OA
BRANCH  30  31
ATOM     31  C   UNL     1      -9.389  -0.515   3.969  1.00  0.00     0.338 C 
ATOM     32  O   UNL     1     -10.356  -0.476   3.240  1.00  0.00    -0.246 OA
BRANCH  31  33
ATOM     33  C   UNL     1      -8.614  -1.731   4.252  1.00  0.00     0.060 A 
ATOM     34  C   UNL     1      -9.188  -2.898   3.749  1.00  0.00     0.016 A 
ATOM     35  C   UNL     1      -7.745  -1.723   5.350  1.00  0.00     0.016 A 
ATOM     36  C   UNL     1      -9.208  -3.988   4.578  1.00  0.00     0.010 A 
ATOM     37  C   UNL     1      -7.796  -2.799   6.191  1.00  0.00     0.010 A 
ATOM     38  C   UNL     1      -8.622  -3.865   5.840  1.00  0.00    -0.014 A 
BRANCH  38  39
ATOM     39  C   UNL     1      -8.769  -4.963   6.763  1.00  0.00     0.031 A 
ATOM     40  C   UNL     1      -7.824  -6.041   6.413  1.00  0.00     0.074 A 
ATOM     41  C   UNL     1      -9.585  -4.897   7.832  1.00  0.00     0.049 A 
ATOM     42  N   UNL     1      -8.082  -7.147   5.798  1.00  0.00    -0.248 NA
ATOM     43  C   UNL     1      -6.385  -5.719   6.485  1.00  0.00     0.031 C 
ATOM     44  C   UNL     1     -10.319  -3.731   8.339  1.00  0.00     0.029 A 
ATOM     45  N   UNL     1      -9.855  -5.852   8.762  1.00  0.00    -0.354 N 
ATOM     46  C   UNL     1      -6.847  -7.776   5.695  1.00  0.00     0.074 A 
ATOM     47  C   UNL     1      -5.851  -6.751   5.830  1.00  0.00     0.031 C 
ATOM     48  C   UNL     1     -10.752  -3.985   9.597  1.00  0.00     0.029 A 
ATOM     49  C   UNL     1     -10.453  -5.367   9.927  1.00  0.00     0.049 A 
ATOM     50  H   UNL     1      -9.647  -6.805   8.626  1.00  0.00     0.167 HD
ATOM     51  C   UNL     1      -6.735  -9.111   5.930  1.00  0.00     0.037 A 
ATOM     52  C   UNL     1     -10.604  -6.072  11.079  1.00  0.00     0.037 A 
ATOM     53  C   UNL     1      -8.024  -9.748   5.891  1.00  0.00     0.049 A 
ATOM     54  C   UNL     1     -10.496  -7.508  10.708  1.00  0.00     0.074 A 
ATOM     55  C   UNL     1      -8.942 -10.062   4.912  1.00  0.00     0.029 A 
ATOM     56  N   UNL     1      -8.691  -9.726   7.090  1.00  0.00    -0.354 N 
ATOM     57  N   UNL     1     -11.364  -8.120   9.948  1.00  0.00    -0.248 NA
ATOM     58  C   UNL     1      -9.211  -8.182  10.854  1.00  0.00     0.031 C 
ATOM     59  C   UNL     1     -10.220 -10.035   5.545  1.00  0.00     0.029 A 
ATOM     60  C   UNL     1     -10.047  -9.759   6.901  1.00  0.00     0.049 A 
ATOM     61  H   UNL     1      -8.252  -9.692   7.970  1.00  0.00     0.167 HD
ATOM     62  C   UNL     1     -10.612  -9.017   9.210  1.00  0.00     0.074 A 
ATOM     63  C   UNL     1      -9.339  -9.123   9.915  1.00  0.00     0.031 C 
ATOM     64  C   UNL     1     -10.971  -9.339   7.935  1.00  0.00     0.037 A 
BRANCH  51  65
ATOM     65  C   UNL     1      -5.564  -9.715   6.672  1.00  0.00     0.058 A 
ATOM     66  C   UNL     1      -5.372 -11.107   6.653  1.00  0.00     0.135 A 
ATOM     67  C   UNL     1      -4.765  -9.006   7.602  1.00  0.00     0.135 A 
ATOM     68  F   UNL     1      -6.118 -11.886   5.854  1.00  0.00    -0.206 F 
ATOM     69  C   UNL     1      -4.449 -11.743   7.489  1.00  0.00     0.059 A 
ATOM     70  C   UNL     1      -3.797  -9.607   8.392  1.00  0.00     0.059 A 
ATOM     71  F   UNL     1      -4.949  -7.708   7.868  1.00  0.00    -0.206 F 
ATOM     72  C   UNL     1      -3.660 -10.980   8.348  1.00  0.00     0.060 A 
BRANCH  72  73
ATOM     73  S   UNL     1      -2.481 -11.789   9.441  1.00  0.00     0.124 S 
ATOM     74  O   UNL     1      -3.367 -12.501  10.353  1.00  0.00    -0.237 OA
ATOM     75  O   UNL     1      -1.723 -12.613   8.505  1.00  0.00    -0.237 OA
ATOM     76  O   UNL     1      -1.740 -10.672  10.022  1.00  0.00    -0.744 OA
ENDBRANCH  72  73
ENDBRANCH  51  65
BRANCH  52  77
ATOM     77  C   UNL     1     -10.480  -5.625  12.494  1.00  0.00     0.058 A 
ATOM     78  C   UNL     1     -10.861  -6.475  13.551  1.00  0.00     0.135 A 
ATOM     79  C   UNL     1      -9.687  -4.517  12.846  1.00  0.00     0.135 A 
ATOM     80  F   UNL     1     -11.616  -7.558  13.308  1.00  0.00    -0.206 F 
ATOM     81  C   UNL     1     -10.409  -6.289  14.862  1.00  0.00     0.059 A 
ATOM     82  C   UNL     1      -9.228  -4.307  14.148  1.00  0.00     0.059 A 
ATOM     83  F   UNL     1      -9.248  -3.660  11.912  1.00  0.00    -0.206 F 
ATOM     84  C   UNL     1      -9.563  -5.218  15.144  1.00  0.00     0.060 A 
BRANCH  84  85
ATOM     85  S   UNL     1      -8.804  -5.098  16.784  1.00  0.00     0.124 S 
ATOM     86  O   UNL     1      -9.958  -4.819  17.632  1.00  0.00    -0.237 OA
ATOM     87  O   UNL     1      -8.203  -6.418  16.939  1.00  0.00    -0.237 OA
ATOM     88  O   UNL     1      -7.856  -3.997  16.638  1.00  0.00    -0.744 OA
ENDBRANCH  84  85
ENDBRANCH  52  77
BRANCH  64  89
ATOM     89  C   UNL     1     -12.405  -9.119   7.542  1.00  0.00     0.058 A 
ATOM     90  C   UNL     1     -13.016  -7.865   7.366  1.00  0.00     0.135 A 
ATOM     91  C   UNL     1     -13.166 -10.255   7.231  1.00  0.00     0.135 A 
ATOM     92  F   UNL     1     -12.330  -6.732   7.571  1.00  0.00    -0.206 F 
ATOM     93  C   UNL     1     -14.337  -7.752   6.923  1.00  0.00     0.059 A 
ATOM     94  C   UNL     1     -14.470 -10.166   6.761  1.00  0.00     0.059 A 
ATOM     95  F   UNL     1     -12.620 -11.478   7.338  1.00  0.00    -0.206 F 
ATOM     96  C   UNL     1     -15.054  -8.910   6.619  1.00  0.00     0.060 A 
BRANCH  96  97
ATOM     97  S   UNL     1     -16.739  -8.770   5.982  1.00  0.00     0.124 S 
ATOM     98  O   UNL     1     -17.464  -8.257   7.139  1.00  0.00    -0.237 OA
ATOM     99  O   UNL     1     -16.577  -7.838   4.869  1.00  0.00    -0.237 OA
ATOM    100  O   UNL     1     -17.073 -10.138   5.594  1.00  0.00    -0.744 OA
ENDBRANCH  96  97
ENDBRANCH  64  89
ENDBRANCH  38  39
ENDBRANCH  31  33
ENDBRANCH  30  31
ENDBRANCH  29  30
ENDBRANCH  28  29
ENDBRANCH   1  28
TORSDOF 20
