REMARK SMILES Cc1c(Cl)ccc2c1C=C(C(=O)OCCOCCOC(=O)c1ccc(-c3c4nc(c(-c5c(F)cc(S(=O)(=O)[O-])cc5F)c5ccc([nH]5)c(-c5c(F)cc(S(=O)(=O)[O-])cc5F)c5nc(c(-c6c(F)cc(S(=O)(=O)[O-])cc6F)c6ccc3[nH]6)C=C5)C=C4)cc1)[C@@H](C(F)(F)F)O2
REMARK SMILES IDX 17 1 16 2 15 3 14 4 13 5 11 6 12 7 10 8 1 9 2 10 3 11 8 12
REMARK SMILES IDX 4 13 5 14 7 15 9 16 6 17 93 18 88 19 89 20 90 21 91 22 92 23
REMARK SMILES IDX 18 24 19 25 20 26 21 27 22 28 23 29 87 30 24 31 86 32 25 33
REMARK SMILES IDX 26 34 27 35 80 36 28 37 85 38 79 39 81 40 29 41 84 42 78 43
REMARK SMILES IDX 77 44 30 46 64 47 43 48 63 49 44 50 47 51 62 52 82 53 45 54
REMARK SMILES IDX 46 55 61 57 83 58 48 59 31 60 32 61 41 62 33 63 34 64 40 65
REMARK SMILES IDX 42 66 35 67 36 68 37 69 38 70 39 71 65 72 66 73 75 74 67 75
REMARK SMILES IDX 68 76 74 77 76 78 69 79 70 80 71 81 72 82 73 83 49 84 50 85
REMARK SMILES IDX 59 86 51 87 52 88 58 89 60 90 53 91 54 92 55 93 56 94 57 95
REMARK H PARENT 81 45 47 56
REMARK Flexibility Score: inf
ROOT
ATOM      1  C   UNL     1       5.695   2.069  -1.583  1.00  0.00     0.202 C 
ENDROOT
BRANCH   1   2
ATOM      2  O   UNL     1       6.010   1.816  -2.955  1.00  0.00    -0.374 OA
BRANCH   2   3
ATOM      3  C   UNL     1       6.167   2.942  -3.816  1.00  0.00     0.202 C 
BRANCH   3   4
ATOM      4  C   UNL     1       4.880   3.581  -4.347  1.00  0.00     0.261 C 
BRANCH   4   5
ATOM      5  O   UNL     1       3.972   3.919  -3.288  1.00  0.00    -0.460 OA
BRANCH   5   6
ATOM      6  C   UNL     1       2.851   3.162  -3.246  1.00  0.00     0.338 C 
ATOM      7  O   UNL     1       2.490   2.334  -4.069  1.00  0.00    -0.246 OA
BRANCH   6   8
ATOM      8  C   UNL     1       2.155   3.372  -1.963  1.00  0.00     0.087 C 
ATOM      9  C   UNL     1       0.730  -0.144   0.044  1.00  0.00     0.047 C 
ATOM     10  C   UNL     1       0.381   1.247   0.514  1.00  0.00    -0.021 A 
ATOM     11  C   UNL     1      -0.505   1.463   1.587  1.00  0.00     0.044 A 
ATOM     12  C   UNL     1       0.930   2.380  -0.140  1.00  0.00     0.022 A 
ATOM     13  Cl  UNL     1      -1.317   0.166   2.394  1.00  0.00    -0.084 Cl
ATOM     14  C   UNL     1      -0.785   2.756   2.036  1.00  0.00     0.024 A 
ATOM     15  C   UNL     1       0.672   3.669   0.346  1.00  0.00     0.128 A 
ATOM     16  C   UNL     1       1.717   2.259  -1.362  1.00  0.00     0.027 C 
ATOM     17  C   UNL     1      -0.178   3.854   1.433  1.00  0.00     0.048 A 
ATOM     18  O   UNL     1       1.212   4.812  -0.172  1.00  0.00    -0.475 OA
ATOM     19  C   UNL     1       1.955   4.755  -1.420  1.00  0.00     0.316 C 
BRANCH  19  20
ATOM     20  C   UNL     1       1.271   5.693  -2.426  1.00  0.00     0.430 C 
ATOM     21  F   UNL     1       1.065   6.919  -1.889  1.00  0.00    -0.167 F 
ATOM     22  F   UNL     1       2.022   5.873  -3.537  1.00  0.00    -0.167 F 
ATOM     23  F   UNL     1       0.069   5.214  -2.821  1.00  0.00    -0.167 F 
ENDBRANCH  19  20
ENDBRANCH   6   8
ENDBRANCH   5   6
ENDBRANCH   4   5
ENDBRANCH   3   4
ENDBRANCH   2   3
ENDBRANCH   1   2
BRANCH   1  24
ATOM     24  C   UNL     1       6.782   2.724  -0.724  1.00  0.00     0.261 C 
BRANCH  24  25
ATOM     25  O   UNL     1       6.941   4.121  -1.041  1.00  0.00    -0.460 OA
BRANCH  25  26
ATOM     26  C   UNL     1       8.183   4.473  -1.450  1.00  0.00     0.338 C 
ATOM     27  O   UNL     1       9.170   3.755  -1.520  1.00  0.00    -0.246 OA
BRANCH  26  28
ATOM     28  C   UNL     1       8.166   5.842  -1.986  1.00  0.00     0.060 A 
ATOM     29  C   UNL     1       8.427   6.018  -3.352  1.00  0.00     0.016 A 
ATOM     30  C   UNL     1       8.038   6.940  -1.135  1.00  0.00     0.016 A 
ATOM     31  C   UNL     1       8.610   7.300  -3.864  1.00  0.00     0.010 A 
ATOM     32  C   UNL     1       8.245   8.224  -1.647  1.00  0.00     0.010 A 
ATOM     33  C   UNL     1       8.574   8.403  -3.003  1.00  0.00    -0.014 A 
BRANCH  33  34
ATOM     34  C   UNL     1       9.088   9.709  -3.475  1.00  0.00     0.031 A 
ATOM     35  C   UNL     1      10.543  10.026  -3.254  1.00  0.00     0.074 A 
ATOM     36  C   UNL     1       8.289  10.580  -4.112  1.00  0.00     0.049 A 
ATOM     37  N   UNL     1      11.206  11.116  -3.538  1.00  0.00    -0.248 NA
ATOM     38  C   UNL     1      11.360   8.969  -2.633  1.00  0.00     0.031 C 
ATOM     39  C   UNL     1       6.881  10.355  -4.436  1.00  0.00     0.029 A 
ATOM     40  N   UNL     1       8.552  11.835  -4.599  1.00  0.00    -0.354 N 
ATOM     41  C   UNL     1      12.516  10.875  -3.141  1.00  0.00     0.074 A 
ATOM     42  C   UNL     1      12.550   9.547  -2.569  1.00  0.00     0.031 C 
ATOM     43  C   UNL     1       6.399  11.446  -5.057  1.00  0.00     0.029 A 
ATOM     44  C   UNL     1       7.454  12.454  -5.148  1.00  0.00     0.049 A 
ATOM     45  H   UNL     1       9.442  12.253  -4.559  1.00  0.00     0.167 HD
ATOM     46  C   UNL     1      13.594  11.684  -3.251  1.00  0.00     0.037 A 
ATOM     47  C   UNL     1       7.317  13.699  -5.644  1.00  0.00     0.037 A 
ATOM     48  C   UNL     1      13.551  13.012  -3.804  1.00  0.00     0.049 A 
ATOM     49  C   UNL     1       8.508  14.623  -5.657  1.00  0.00     0.074 A 
ATOM     50  C   UNL     1      14.587  13.916  -3.954  1.00  0.00     0.029 A 
ATOM     51  N   UNL     1      12.407  13.628  -4.290  1.00  0.00    -0.354 N 
ATOM     52  N   UNL     1       9.741  14.385  -5.276  1.00  0.00    -0.248 NA
ATOM     53  C   UNL     1       8.287  15.987  -6.159  1.00  0.00     0.031 C 
ATOM     54  C   UNL     1      14.061  15.096  -4.491  1.00  0.00     0.029 A 
ATOM     55  C   UNL     1      12.706  14.911  -4.716  1.00  0.00     0.049 A 
ATOM     56  H   UNL     1      11.515  13.213  -4.326  1.00  0.00     0.167 HD
ATOM     57  C   UNL     1      10.445  15.563  -5.506  1.00  0.00     0.074 A 
ATOM     58  C   UNL     1       9.504  16.507  -6.073  1.00  0.00     0.031 C 
ATOM     59  C   UNL     1      11.752  15.839  -5.270  1.00  0.00     0.037 A 
BRANCH  46  60
ATOM     60  C   UNL     1      14.908  11.162  -2.745  1.00  0.00     0.058 A 
ATOM     61  C   UNL     1      15.630  10.187  -3.451  1.00  0.00     0.135 A 
ATOM     62  C   UNL     1      15.469  11.666  -1.561  1.00  0.00     0.135 A 
ATOM     63  F   UNL     1      15.127   9.657  -4.577  1.00  0.00    -0.206 F 
ATOM     64  C   UNL     1      16.857   9.718  -2.993  1.00  0.00     0.059 A 
ATOM     65  C   UNL     1      16.705  11.227  -1.095  1.00  0.00     0.059 A 
ATOM     66  F   UNL     1      14.814  12.593  -0.844  1.00  0.00    -0.206 F 
ATOM     67  C   UNL     1      17.387  10.246  -1.813  1.00  0.00     0.060 A 
BRANCH  67  68
ATOM     68  S   UNL     1      18.986   9.636  -1.241  1.00  0.00     0.124 S 
ATOM     69  O   UNL     1      18.643   8.288  -0.798  1.00  0.00    -0.237 OA
ATOM     70  O   UNL     1      19.801   9.718  -2.449  1.00  0.00    -0.237 OA
ATOM     71  O   UNL     1      19.348  10.571  -0.180  1.00  0.00    -0.744 OA
ENDBRANCH  67  68
ENDBRANCH  46  60
BRANCH  47  72
ATOM     72  C   UNL     1       5.997  14.154  -6.153  1.00  0.00     0.058 A 
ATOM     73  C   UNL     1       5.784  14.360  -7.523  1.00  0.00     0.135 A 
ATOM     74  C   UNL     1       4.923  14.388  -5.281  1.00  0.00     0.135 A 
ATOM     75  F   UNL     1       6.786  14.164  -8.394  1.00  0.00    -0.206 F 
ATOM     76  C   UNL     1       4.554  14.787  -8.013  1.00  0.00     0.059 A 
ATOM     77  C   UNL     1       3.677  14.794  -5.748  1.00  0.00     0.059 A 
ATOM     78  F   UNL     1       5.075  14.200  -3.961  1.00  0.00    -0.206 F 
ATOM     79  C   UNL     1       3.504  14.997  -7.116  1.00  0.00     0.060 A 
BRANCH  79  80
ATOM     80  S   UNL     1       1.897  15.498  -7.770  1.00  0.00     0.124 S 
ATOM     81  O   UNL     1       2.159  16.876  -8.171  1.00  0.00    -0.237 OA
ATOM     82  O   UNL     1       1.698  14.543  -8.855  1.00  0.00    -0.237 OA
ATOM     83  O   UNL     1       1.003  15.332  -6.627  1.00  0.00    -0.744 OA
ENDBRANCH  79  80
ENDBRANCH  47  72
BRANCH  59  84
ATOM     84  C   UNL     1      12.246  17.213  -5.626  1.00  0.00     0.058 A 
ATOM     85  C   UNL     1      11.926  18.331  -4.842  1.00  0.00     0.135 A 
ATOM     86  C   UNL     1      13.102  17.403  -6.723  1.00  0.00     0.135 A 
ATOM     87  F   UNL     1      11.108  18.204  -3.785  1.00  0.00    -0.206 F 
ATOM     88  C   UNL     1      12.424  19.595  -5.143  1.00  0.00     0.059 A 
ATOM     89  C   UNL     1      13.631  18.653  -7.029  1.00  0.00     0.059 A 
ATOM     90  F   UNL     1      13.448  16.363  -7.499  1.00  0.00    -0.206 F 
ATOM     91  C   UNL     1      13.278  19.745  -6.237  1.00  0.00     0.060 A 
BRANCH  91  92
ATOM     92  S   UNL     1      13.946  21.384  -6.592  1.00  0.00     0.124 S 
ATOM     93  O   UNL     1      12.776  22.068  -7.133  1.00  0.00    -0.237 OA
ATOM     94  O   UNL     1      14.390  21.833  -5.276  1.00  0.00    -0.237 OA
ATOM     95  O   UNL     1      15.015  21.116  -7.549  1.00  0.00    -0.744 OA
ENDBRANCH  91  92
ENDBRANCH  59  84
ENDBRANCH  33  34
ENDBRANCH  26  28
ENDBRANCH  25  26
ENDBRANCH  24  25
ENDBRANCH   1  24
TORSDOF 18
