REMARK SMILES Cc1cc(=O)cc(C)n1C[C@H]1CCCC[C@@H]1C(=O)OCCOCCOC(=O)c1ccc(-c2c3nc(c(-c4c(F)cc(S(=O)(=O)[O-])cc4F)c4ccc([nH]4)c(-c4c(F)cc(S(=O)(=O)[O-])cc4F)c4nc(c(-c5c(F)cc(S(=O)(=O)[O-])cc5F)c5ccc2[nH]5)C=C4)C=C3)cc1
REMARK SMILES IDX 23 1 22 2 21 3 20 4 19 5 17 6 18 7 16 8 11 9 12 10 13 11
REMARK SMILES IDX 15 12 14 13 10 14 9 15 1 16 2 17 3 18 4 19 7 20 5 21 6 22
REMARK SMILES IDX 8 23 24 24 25 25 26 26 27 27 28 28 29 29 93 30 30 31 92 32
REMARK SMILES IDX 31 33 32 34 33 35 86 36 34 37 91 38 85 39 87 40 35 41 90 42
REMARK SMILES IDX 84 43 83 44 36 46 70 47 49 48 69 49 50 50 53 51 68 52 88 53
REMARK SMILES IDX 51 54 52 55 67 57 89 58 54 59 37 60 38 61 47 62 39 63 40 64
REMARK SMILES IDX 46 65 48 66 41 67 42 68 43 69 44 70 45 71 71 72 72 73 81 74
REMARK SMILES IDX 73 75 74 76 80 77 82 78 75 79 76 80 77 81 78 82 79 83 55 84
REMARK SMILES IDX 56 85 65 86 57 87 58 88 64 89 66 90 59 91 60 92 61 93 62 94
REMARK SMILES IDX 63 95
REMARK H PARENT 87 45 53 56
REMARK Flexibility Score: inf
ROOT
ATOM      1  C   UNL     1      -2.958  -2.965   0.268  1.00  0.00     0.202 C 
ENDROOT
BRANCH   1   2
ATOM      2  O   UNL     1      -1.631  -3.401  -0.020  1.00  0.00    -0.374 OA
BRANCH   2   3
ATOM      3  C   UNL     1      -0.657  -3.122   0.988  1.00  0.00     0.202 C 
BRANCH   3   4
ATOM      4  C   UNL     1      -0.048  -1.720   0.910  1.00  0.00     0.261 C 
BRANCH   4   5
ATOM      5  O   UNL     1      -0.919  -0.743   1.516  1.00  0.00    -0.463 OA
BRANCH   5   6
ATOM      6  C   UNL     1      -1.532   0.147   0.702  1.00  0.00     0.309 C 
ATOM      7  O   UNL     1      -1.446   0.151  -0.520  1.00  0.00    -0.252 OA
BRANCH   6   8
ATOM      8  C   UNL     1      -2.424   1.133   1.458  1.00  0.00     0.104 C 
ATOM      9  C   UNL     1      -1.949   1.491   2.889  1.00  0.00     0.023 C 
ATOM     10  C   UNL     1      -2.393   0.402   3.885  1.00  0.00     0.006 C 
ATOM     11  C   UNL     1      -3.901   0.175   3.880  1.00  0.00     0.000 C 
ATOM     12  C   UNL     1      -3.906   0.727   1.387  1.00  0.00     0.016 C 
ATOM     13  C   UNL     1      -4.384  -0.216   2.493  1.00  0.00     0.001 C 
BRANCH   9  14
ATOM     14  C   UNL     1      -2.470   2.906   3.285  1.00  0.00     0.126 C 
BRANCH  14  15
ATOM     15  N   UNL     1      -1.590   3.583   4.274  1.00  0.00    -0.349 N 
ATOM     16  C   UNL     1      -0.379   4.763   2.367  1.00  0.00     0.064 C 
ATOM     17  C   UNL     1      -0.514   4.399   3.827  1.00  0.00     0.018 A 
ATOM     18  C   UNL     1       0.397   4.920   4.668  1.00  0.00     0.073 A 
ATOM     19  C   UNL     1       0.280   4.679   6.112  1.00  0.00     0.182 A 
ATOM     20  C   UNL     1      -1.760   3.414   5.676  1.00  0.00     0.018 A 
ATOM     21  O   UNL     1       1.073   5.174   6.902  1.00  0.00    -0.290 OA
ATOM     22  C   UNL     1      -0.875   3.896   6.570  1.00  0.00     0.073 A 
ATOM     23  C   UNL     1      -2.982   2.750   6.267  1.00  0.00     0.064 C 
ENDBRANCH  14  15
ENDBRANCH   9  14
ENDBRANCH   6   8
ENDBRANCH   5   6
ENDBRANCH   4   5
ENDBRANCH   3   4
ENDBRANCH   2   3
ENDBRANCH   1   2
BRANCH   1  24
ATOM     24  C   UNL     1      -3.799  -3.957   1.082  1.00  0.00     0.261 C 
BRANCH  24  25
ATOM     25  O   UNL     1      -3.353  -4.042   2.450  1.00  0.00    -0.460 OA
BRANCH  25  26
ATOM     26  C   UNL     1      -2.654  -5.159   2.756  1.00  0.00     0.338 C 
ATOM     27  O   UNL     1      -2.428  -6.111   2.018  1.00  0.00    -0.246 OA
BRANCH  26  28
ATOM     28  C   UNL     1      -2.025  -5.019   4.082  1.00  0.00     0.060 A 
ATOM     29  C   UNL     1      -0.647  -5.252   4.171  1.00  0.00     0.016 A 
ATOM     30  C   UNL     1      -2.771  -4.738   5.230  1.00  0.00     0.016 A 
ATOM     31  C   UNL     1      -0.017  -5.248   5.413  1.00  0.00     0.010 A 
ATOM     32  C   UNL     1      -2.136  -4.743   6.478  1.00  0.00     0.010 A 
ATOM     33  C   UNL     1      -0.763  -5.031   6.579  1.00  0.00    -0.014 A 
BRANCH  33  34
ATOM     34  C   UNL     1      -0.123  -5.239   7.902  1.00  0.00     0.031 A 
ATOM     35  C   UNL     1      -0.346  -6.540   8.627  1.00  0.00     0.074 A 
ATOM     36  C   UNL     1       0.693  -4.306   8.425  1.00  0.00     0.049 A 
ATOM     37  N   UNL     1       0.120  -6.933   9.784  1.00  0.00    -0.248 NA
ATOM     38  C   UNL     1      -1.205  -7.530   7.957  1.00  0.00     0.031 C 
ATOM     39  C   UNL     1       1.028  -3.030   7.795  1.00  0.00     0.029 A 
ATOM     40  N   UNL     1       1.396  -4.293   9.605  1.00  0.00    -0.354 N 
ATOM     41  C   UNL     1      -0.379  -8.216   9.978  1.00  0.00     0.074 A 
ATOM     42  C   UNL     1      -1.218  -8.520   8.838  1.00  0.00     0.031 C 
ATOM     43  C   UNL     1       1.878  -2.360   8.592  1.00  0.00     0.029 A 
ATOM     44  C   UNL     1       2.124  -3.144   9.802  1.00  0.00     0.049 A 
ATOM     45  H   UNL     1       1.380  -5.037  10.249  1.00  0.00     0.167 HD
ATOM     46  C   UNL     1      -0.148  -9.069  11.004  1.00  0.00     0.037 A 
ATOM     47  C   UNL     1       2.893  -2.764  10.842  1.00  0.00     0.037 A 
ATOM     48  C   UNL     1       0.686  -8.763  12.137  1.00  0.00     0.049 A 
ATOM     49  C   UNL     1       3.063  -3.695  12.015  1.00  0.00     0.074 A 
ATOM     50  C   UNL     1       0.980  -9.563  13.228  1.00  0.00     0.029 A 
ATOM     51  N   UNL     1       1.356  -7.564  12.329  1.00  0.00    -0.354 N 
ATOM     52  N   UNL     1       2.587  -4.906  12.183  1.00  0.00    -0.248 NA
ATOM     53  C   UNL     1       3.873  -3.209  13.142  1.00  0.00     0.031 C 
ATOM     54  C   UNL     1       1.789  -8.831  14.102  1.00  0.00     0.029 A 
ATOM     55  C   UNL     1       2.042  -7.593  13.532  1.00  0.00     0.049 A 
ATOM     56  H   UNL     1       1.345  -6.804  11.703  1.00  0.00     0.167 HD
ATOM     57  C   UNL     1       3.061  -5.335  13.419  1.00  0.00     0.074 A 
ATOM     58  C   UNL     1       3.868  -4.258  13.954  1.00  0.00     0.031 C 
ATOM     59  C   UNL     1       2.848  -6.516  14.052  1.00  0.00     0.037 A 
BRANCH  46  60
ATOM     60  C   UNL     1      -0.813 -10.417  10.957  1.00  0.00     0.058 A 
ATOM     61  C   UNL     1      -0.387 -11.415  10.066  1.00  0.00     0.135 A 
ATOM     62  C   UNL     1      -1.851 -10.733  11.848  1.00  0.00     0.135 A 
ATOM     63  F   UNL     1       0.589 -11.160   9.181  1.00  0.00    -0.206 F 
ATOM     64  C   UNL     1      -0.978 -12.674  10.049  1.00  0.00     0.059 A 
ATOM     65  C   UNL     1      -2.439 -11.995  11.866  1.00  0.00     0.059 A 
ATOM     66  F   UNL     1      -2.298  -9.815  12.718  1.00  0.00    -0.206 F 
ATOM     67  C   UNL     1      -2.002 -12.956  10.956  1.00  0.00     0.060 A 
BRANCH  67  68
ATOM     68  S   UNL     1      -2.747 -14.600  10.929  1.00  0.00     0.124 S 
ATOM     69  O   UNL     1      -3.475 -14.570   9.664  1.00  0.00    -0.237 OA
ATOM     70  O   UNL     1      -1.577 -15.471  10.966  1.00  0.00    -0.237 OA
ATOM     71  O   UNL     1      -3.578 -14.618  12.129  1.00  0.00    -0.744 OA
ENDBRANCH  67  68
ENDBRANCH  46  60
BRANCH  47  72
ATOM     72  C   UNL     1       3.572  -1.441  10.817  1.00  0.00     0.058 A 
ATOM     73  C   UNL     1       4.966  -1.351  10.694  1.00  0.00     0.135 A 
ATOM     74  C   UNL     1       2.845  -0.244  10.905  1.00  0.00     0.135 A 
ATOM     75  F   UNL     1       5.707  -2.467  10.618  1.00  0.00    -0.206 F 
ATOM     76  C   UNL     1       5.617  -0.122  10.666  1.00  0.00     0.059 A 
ATOM     77  C   UNL     1       3.470   0.998  10.854  1.00  0.00     0.059 A 
ATOM     78  F   UNL     1       1.507  -0.277  11.018  1.00  0.00    -0.206 F 
ATOM     79  C   UNL     1       4.859   1.048  10.742  1.00  0.00     0.060 A 
BRANCH  79  80
ATOM     80  S   UNL     1       5.720   2.633  10.664  1.00  0.00     0.124 S 
ATOM     81  O   UNL     1       6.464   2.626  11.918  1.00  0.00    -0.237 OA
ATOM     82  O   UNL     1       6.515   2.484   9.450  1.00  0.00    -0.237 OA
ATOM     83  O   UNL     1       4.633   3.603  10.585  1.00  0.00    -0.744 OA
ENDBRANCH  79  80
ENDBRANCH  47  72
BRANCH  59  84
ATOM     84  C   UNL     1       3.510  -6.729  15.386  1.00  0.00     0.058 A 
ATOM     85  C   UNL     1       3.049  -6.088  16.546  1.00  0.00     0.135 A 
ATOM     86  C   UNL     1       4.561  -7.651  15.520  1.00  0.00     0.135 A 
ATOM     87  F   UNL     1       2.051  -5.193  16.473  1.00  0.00    -0.206 F 
ATOM     88  C   UNL     1       3.613  -6.347  17.792  1.00  0.00     0.059 A 
ATOM     89  C   UNL     1       5.122  -7.945  16.759  1.00  0.00     0.059 A 
ATOM     90  F   UNL     1       5.033  -8.300  14.444  1.00  0.00    -0.206 F 
ATOM     91  C   UNL     1       4.645  -7.283  17.890  1.00  0.00     0.060 A 
BRANCH  91  92
ATOM     92  S   UNL     1       5.326  -7.649  19.521  1.00  0.00     0.124 S 
ATOM     93  O   UNL     1       6.057  -6.422  19.818  1.00  0.00    -0.237 OA
ATOM     94  O   UNL     1       4.123  -7.879  20.316  1.00  0.00    -0.237 OA
ATOM     95  O   UNL     1       6.152  -8.831  19.290  1.00  0.00    -0.744 OA
ENDBRANCH  91  92
ENDBRANCH  59  84
ENDBRANCH  33  34
ENDBRANCH  26  28
ENDBRANCH  25  26
ENDBRANCH  24  25
ENDBRANCH   1  24
TORSDOF 19
