REMARK SMILES C[C@H]1[C@H](C(=O)OCCOCCOC(=O)c2ccc(-c3c4nc(c(-c5c(F)cc(S(=O)(=O)[O-])cc5F)c5ccc([nH]5)c(-c5c(F)cc(S(=O)(=O)[O-])cc5F)c5nc(c(-c6c(F)cc(S(=O)(=O)[O-])cc6F)c6ccc3[nH]6)C=C5)C=C4)cc2)CCN1C(=O)c1ccc2ccccc2c1
REMARK SMILES IDX 10 1 9 2 8 3 7 4 6 5 4 6 5 7 3 8 1 9 2 10 83 11 81 12 82 13
REMARK SMILES IDX 84 14 85 15 86 16 87 17 95 18 88 19 94 20 89 21 93 22 90 23
REMARK SMILES IDX 92 24 91 25 11 26 12 27 13 28 14 29 15 30 16 31 80 32 17 33
REMARK SMILES IDX 79 34 18 35 19 36 20 37 73 38 21 39 78 40 72 41 74 42 22 43
REMARK SMILES IDX 77 44 71 45 70 46 23 48 57 49 36 50 56 51 37 52 40 53 55 54
REMARK SMILES IDX 75 55 38 56 39 57 54 59 76 60 41 61 24 62 25 63 34 64 26 65
REMARK SMILES IDX 27 66 33 67 35 68 28 69 29 70 30 71 31 72 32 73 58 74 59 75
REMARK SMILES IDX 68 76 60 77 61 78 67 79 69 80 62 81 63 82 64 83 65 84 66 85
REMARK SMILES IDX 42 86 43 87 52 88 44 89 45 90 51 91 53 92 46 93 47 94 48 95
REMARK SMILES IDX 49 96 50 97
REMARK H PARENT 74 47 40 58
REMARK Flexibility Score: inf
ROOT
ATOM      1  C   UNL     1       2.210   3.237   1.775  1.00  0.00     0.202 C 
ENDROOT
BRANCH   1   2
ATOM      2  O   UNL     1       1.496   4.254   2.472  1.00  0.00    -0.374 OA
BRANCH   2   3
ATOM      3  C   UNL     1       0.465   3.849   3.371  1.00  0.00     0.202 C 
BRANCH   3   4
ATOM      4  C   UNL     1      -0.845   3.358   2.748  1.00  0.00     0.261 C 
BRANCH   4   5
ATOM      5  O   UNL     1      -0.665   2.158   1.974  1.00  0.00    -0.463 OA
BRANCH   5   6
ATOM      6  C   UNL     1      -0.824   2.291   0.631  1.00  0.00     0.311 C 
ATOM      7  O   UNL     1      -1.132   3.328   0.057  1.00  0.00    -0.252 OA
BRANCH   6   8
ATOM      8  C   UNL     1      -0.637   0.992  -0.117  1.00  0.00     0.123 C 
ATOM      9  C   UNL     1       1.694   0.087  -0.412  1.00  0.00     0.032 C 
ATOM     10  C   UNL     1       0.417  -0.003   0.429  1.00  0.00     0.096 C 
ATOM     11  N   UNL     1      -0.241  -1.316   0.327  1.00  0.00    -0.335 N 
ATOM     12  C   UNL     1      -1.955   0.227  -0.120  1.00  0.00     0.039 C 
ATOM     13  C   UNL     1      -1.530  -1.207  -0.329  1.00  0.00     0.121 C 
BRANCH  11  14
ATOM     14  C   UNL     1       0.148  -2.550   0.819  1.00  0.00     0.254 C 
ATOM     15  O   UNL     1      -0.595  -3.530   0.839  1.00  0.00    -0.269 OA
BRANCH  14  16
ATOM     16  C   UNL     1       1.546  -2.781   1.213  1.00  0.00     0.040 A 
ATOM     17  C   UNL     1       2.402  -3.278   0.226  1.00  0.00     0.014 A 
ATOM     18  C   UNL     1       1.960  -2.712   2.545  1.00  0.00     0.022 A 
ATOM     19  C   UNL     1       3.697  -3.667   0.558  1.00  0.00     0.009 A 
ATOM     20  C   UNL     1       3.261  -3.130   2.896  1.00  0.00    -0.018 A 
ATOM     21  C   UNL     1       4.139  -3.600   1.887  1.00  0.00    -0.018 A 
ATOM     22  C   UNL     1       3.710  -3.131   4.229  1.00  0.00     0.009 A 
ATOM     23  C   UNL     1       5.432  -4.027   2.231  1.00  0.00     0.009 A 
ATOM     24  C   UNL     1       4.999  -3.561   4.555  1.00  0.00     0.001 A 
ATOM     25  C   UNL     1       5.861  -4.004   3.557  1.00  0.00     0.001 A 
ENDBRANCH  14  16
ENDBRANCH  11  14
ENDBRANCH   6   8
ENDBRANCH   5   6
ENDBRANCH   4   5
ENDBRANCH   3   4
ENDBRANCH   2   3
ENDBRANCH   1   2
BRANCH   1  26
ATOM     26  C   UNL     1       3.242   2.424   2.565  1.00  0.00     0.261 C 
BRANCH  26  27
ATOM     27  O   UNL     1       2.654   1.670   3.637  1.00  0.00    -0.460 OA
BRANCH  27  28
ATOM     28  C   UNL     1       2.966   2.137   4.873  1.00  0.00     0.338 C 
ATOM     29  O   UNL     1       3.715   3.062   5.136  1.00  0.00    -0.246 OA
BRANCH  28  30
ATOM     30  C   UNL     1       2.142   1.481   5.907  1.00  0.00     0.060 A 
ATOM     31  C   UNL     1       1.538   2.308   6.860  1.00  0.00     0.016 A 
ATOM     32  C   UNL     1       2.050   0.092   6.015  1.00  0.00     0.016 A 
ATOM     33  C   UNL     1       0.918   1.749   7.973  1.00  0.00     0.010 A 
ATOM     34  C   UNL     1       1.426  -0.471   7.136  1.00  0.00     0.010 A 
ATOM     35  C   UNL     1       0.908   0.358   8.147  1.00  0.00    -0.014 A 
BRANCH  35  36
ATOM     36  C   UNL     1       0.521  -0.185   9.473  1.00  0.00     0.031 A 
ATOM     37  C   UNL     1       1.605  -0.572  10.446  1.00  0.00     0.074 A 
ATOM     38  C   UNL     1      -0.771  -0.243   9.843  1.00  0.00     0.049 A 
ATOM     39  N   UNL     1       1.502  -0.985  11.683  1.00  0.00    -0.248 NA
ATOM     40  C   UNL     1       2.992  -0.479   9.960  1.00  0.00     0.031 C 
ATOM     41  C   UNL     1      -1.907   0.128   9.001  1.00  0.00     0.029 A 
ATOM     42  N   UNL     1      -1.342  -0.625  11.031  1.00  0.00    -0.354 N 
ATOM     43  C   UNL     1       2.804  -1.198  12.123  1.00  0.00     0.074 A 
ATOM     44  C   UNL     1       3.679  -0.908  11.008  1.00  0.00     0.031 C 
ATOM     45  C   UNL     1      -3.042  -0.039   9.702  1.00  0.00     0.029 A 
ATOM     46  C   UNL     1      -2.714  -0.543  11.035  1.00  0.00     0.049 A 
ATOM     47  H   UNL     1      -0.819  -0.930  11.807  1.00  0.00     0.167 HD
ATOM     48  C   UNL     1       3.235  -1.582  13.348  1.00  0.00     0.037 A 
ATOM     49  C   UNL     1      -3.602  -0.841  12.004  1.00  0.00     0.037 A 
ATOM     50  C   UNL     1       2.363  -1.862  14.459  1.00  0.00     0.049 A 
ATOM     51  C   UNL     1      -3.102  -1.300  13.348  1.00  0.00     0.074 A 
ATOM     52  C   UNL     1       2.701  -2.243  15.746  1.00  0.00     0.029 A 
ATOM     53  N   UNL     1       0.978  -1.795  14.415  1.00  0.00    -0.354 N 
ATOM     54  N   UNL     1      -1.866  -1.468  13.757  1.00  0.00    -0.248 NA
ATOM     55  C   UNL     1      -4.117  -1.597  14.368  1.00  0.00     0.031 C 
ATOM     56  C   UNL     1       1.519  -2.447  16.468  1.00  0.00     0.029 A 
ATOM     57  C   UNL     1       0.446  -2.145  15.645  1.00  0.00     0.049 A 
ATOM     58  H   UNL     1       0.450  -1.536  13.624  1.00  0.00     0.167 HD
ATOM     59  C   UNL     1      -1.955  -1.864  15.088  1.00  0.00     0.074 A 
ATOM     60  C   UNL     1      -3.365  -1.897  15.419  1.00  0.00     0.031 C 
ATOM     61  C   UNL     1      -0.961  -2.170  15.959  1.00  0.00     0.037 A 
BRANCH  48  62
ATOM     62  C   UNL     1       4.718  -1.738  13.546  1.00  0.00     0.058 A 
ATOM     63  C   UNL     1       5.576  -0.628  13.607  1.00  0.00     0.135 A 
ATOM     64  C   UNL     1       5.285  -3.013  13.699  1.00  0.00     0.135 A 
ATOM     65  F   UNL     1       5.090   0.613  13.447  1.00  0.00    -0.206 F 
ATOM     66  C   UNL     1       6.948  -0.778  13.784  1.00  0.00     0.059 A 
ATOM     67  C   UNL     1       6.652  -3.186  13.904  1.00  0.00     0.059 A 
ATOM     68  F   UNL     1       4.511  -4.108  13.647  1.00  0.00    -0.206 F 
ATOM     69  C   UNL     1       7.477  -2.062  13.929  1.00  0.00     0.060 A 
BRANCH  69  70
ATOM     70  S   UNL     1       9.259  -2.243  14.155  1.00  0.00     0.124 S 
ATOM     71  O   UNL     1       9.752  -1.962  12.810  1.00  0.00    -0.237 OA
ATOM     72  O   UNL     1       9.552  -1.228  15.162  1.00  0.00    -0.237 OA
ATOM     73  O   UNL     1       9.407  -3.625  14.601  1.00  0.00    -0.744 OA
ENDBRANCH  69  70
ENDBRANCH  48  62
BRANCH  49  74
ATOM     74  C   UNL     1      -5.060  -0.703  11.741  1.00  0.00     0.058 A 
ATOM     75  C   UNL     1      -5.820   0.301  12.357  1.00  0.00     0.135 A 
ATOM     76  C   UNL     1      -5.720  -1.578  10.864  1.00  0.00     0.135 A 
ATOM     77  F   UNL     1      -5.236   1.156  13.211  1.00  0.00    -0.206 F 
ATOM     78  C   UNL     1      -7.186   0.427  12.125  1.00  0.00     0.059 A 
ATOM     79  C   UNL     1      -7.080  -1.457  10.596  1.00  0.00     0.059 A 
ATOM     80  F   UNL     1      -5.035  -2.549  10.240  1.00  0.00    -0.206 F 
ATOM     81  C   UNL     1      -7.807  -0.457  11.240  1.00  0.00     0.060 A 
BRANCH  81  82
ATOM     82  S   UNL     1      -9.570  -0.254  10.904  1.00  0.00     0.124 S 
ATOM     83  O   UNL     1     -10.164  -0.768  12.132  1.00  0.00    -0.237 OA
ATOM     84  O   UNL     1      -9.679   1.187  10.696  1.00  0.00    -0.237 OA
ATOM     85  O   UNL     1      -9.779  -1.068   9.711  1.00  0.00    -0.744 OA
ENDBRANCH  81  82
ENDBRANCH  49  74
BRANCH  61  86
ATOM     86  C   UNL     1      -1.361  -2.532  17.363  1.00  0.00     0.058 A 
ATOM     87  C   UNL     1      -1.978  -3.757  17.664  1.00  0.00     0.135 A 
ATOM     88  C   UNL     1      -1.100  -1.651  18.426  1.00  0.00     0.135 A 
ATOM     89  F   UNL     1      -2.252  -4.633  16.686  1.00  0.00    -0.206 F 
ATOM     90  C   UNL     1      -2.356  -4.080  18.964  1.00  0.00     0.059 A 
ATOM     91  C   UNL     1      -1.444  -1.966  19.737  1.00  0.00     0.059 A 
ATOM     92  F   UNL     1      -0.499  -0.473  18.196  1.00  0.00    -0.206 F 
ATOM     93  C   UNL     1      -2.088  -3.175  19.993  1.00  0.00     0.060 A 
BRANCH  93  94
ATOM     94  S   UNL     1      -2.579  -3.606  21.677  1.00  0.00     0.124 S 
ATOM     95  O   UNL     1      -4.019  -3.374  21.631  1.00  0.00    -0.237 OA
ATOM     96  O   UNL     1      -2.164  -5.002  21.779  1.00  0.00    -0.237 OA
ATOM     97  O   UNL     1      -1.818  -2.671  22.501  1.00  0.00    -0.744 OA
ENDBRANCH  93  94
ENDBRANCH  61  86
ENDBRANCH  35  36
ENDBRANCH  28  30
ENDBRANCH  27  28
ENDBRANCH  26  27
ENDBRANCH   1  26
TORSDOF 19
