REMARK SMILES C=CC[N@@H+](CC(=O)OCCOCCOC(=O)c1ccc(-c2c3nc(c(-c4c(F)cc(S(=O)(=O)[O-])cc4F)c4ccc([nH]4)c(-c4c(F)cc(S(=O)(=O)[O-])cc4F)c4nc(c(-c5c(F)cc(S(=O)(=O)[O-])cc5F)c5ccc2[nH]5)C=C4)C=C3)cc1)[C@@H]1CCCOC1
REMARK SMILES IDX 11 1 10 2 9 3 8 4 6 5 7 6 5 7 4 8 3 10 2 11 1 12 83 13 84 14
REMARK SMILES IDX 88 15 85 16 87 17 86 18 12 19 13 20 14 21 15 22 16 23 17 24
REMARK SMILES IDX 18 25 82 26 19 27 81 28 20 29 21 30 22 31 75 32 23 33 80 34
REMARK SMILES IDX 74 35 76 36 24 37 79 38 73 39 72 40 25 42 59 43 38 44 58 45
REMARK SMILES IDX 39 46 42 47 57 48 77 49 40 50 41 51 56 53 78 54 43 55 26 56
REMARK SMILES IDX 27 57 36 58 28 59 29 60 35 61 37 62 30 63 31 64 32 65 33 66
REMARK SMILES IDX 34 67 60 68 61 69 70 70 62 71 63 72 69 73 71 74 64 75 65 76
REMARK SMILES IDX 66 77 67 78 68 79 44 80 45 81 54 82 46 83 47 84 53 85 55 86
REMARK SMILES IDX 48 87 49 88 50 89 51 90 52 91
REMARK H PARENT 4 9 76 41 42 52
REMARK Flexibility Score: inf
ROOT
ATOM      1  O   UNL     1      -4.306  -0.306   3.408  1.00  0.00    -0.374 OA
ENDROOT
BRANCH   1   2
ATOM      2  C   UNL     1      -4.080  -1.079   2.219  1.00  0.00     0.202 C 
BRANCH   2   3
ATOM      3  C   UNL     1      -4.745  -0.499   0.961  1.00  0.00     0.261 C 
BRANCH   3   4
ATOM      4  O   UNL     1      -3.828   0.315   0.185  1.00  0.00    -0.459 OA
BRANCH   4   5
ATOM      5  C   UNL     1      -4.207   1.590  -0.107  1.00  0.00     0.361 C 
ATOM      6  O   UNL     1      -5.194   2.143   0.367  1.00  0.00    -0.245 OA
BRANCH   5   7
ATOM      7  C   UNL     1      -3.334   2.250  -1.179  1.00  0.00     0.387 C 
BRANCH   7   8
ATOM      8  N   UNL     1      -1.878   2.380  -0.934  1.00  0.00    -0.318 N 
ATOM      9  H   UNL     1      -1.537   2.843  -1.777  1.00  0.00     0.349 HD
BRANCH   8  10
ATOM     10  C   UNL     1      -1.208   1.077  -0.874  1.00  0.00     0.291 C 
BRANCH  10  11
ATOM     11  C   UNL     1       0.278   1.163  -1.077  1.00  0.00     0.025 C 
ATOM     12  C   UNL     1       1.168   0.507  -0.320  1.00  0.00     0.010 C 
ENDBRANCH  10  11
ENDBRANCH   8  10
BRANCH   8  13
ATOM     13  C   UNL     1      -1.431   3.377   0.062  1.00  0.00     0.211 C 
ATOM     14  C   UNL     1      -1.857   3.081   1.499  1.00  0.00     0.070 C 
ATOM     15  C   UNL     1      -1.815   4.837  -0.280  1.00  0.00     0.225 C 
ATOM     16  C   UNL     1      -1.365   4.141   2.476  1.00  0.00     0.035 C 
ATOM     17  O   UNL     1      -1.274   5.760   0.678  1.00  0.00    -0.375 OA
ATOM     18  C   UNL     1      -1.770   5.524   1.995  1.00  0.00     0.160 C 
ENDBRANCH   8  13
ENDBRANCH   7   8
ENDBRANCH   5   7
ENDBRANCH   4   5
ENDBRANCH   3   4
ENDBRANCH   2   3
ENDBRANCH   1   2
BRANCH   1  19
ATOM     19  C   UNL     1      -3.551   0.902   3.480  1.00  0.00     0.202 C 
BRANCH  19  20
ATOM     20  C   UNL     1      -2.223   0.749   4.224  1.00  0.00     0.261 C 
BRANCH  20  21
ATOM     21  O   UNL     1      -1.413  -0.244   3.579  1.00  0.00    -0.460 OA
BRANCH  21  22
ATOM     22  C   UNL     1      -1.083  -1.280   4.380  1.00  0.00     0.338 C 
ATOM     23  O   UNL     1      -1.165  -1.333   5.599  1.00  0.00    -0.246 OA
BRANCH  22  24
ATOM     24  C   UNL     1      -0.788  -2.454   3.553  1.00  0.00     0.060 A 
ATOM     25  C   UNL     1      -1.572  -3.590   3.775  1.00  0.00     0.016 A 
ATOM     26  C   UNL     1       0.272  -2.474   2.643  1.00  0.00     0.016 A 
ATOM     27  C   UNL     1      -1.245  -4.782   3.147  1.00  0.00     0.010 A 
ATOM     28  C   UNL     1       0.594  -3.674   2.002  1.00  0.00     0.010 A 
ATOM     29  C   UNL     1      -0.131  -4.841   2.297  1.00  0.00    -0.014 A 
BRANCH  29  30
ATOM     30  C   UNL     1       0.364  -6.176   1.894  1.00  0.00     0.031 A 
ATOM     31  C   UNL     1       1.509  -6.779   2.663  1.00  0.00     0.074 A 
ATOM     32  C   UNL     1      -0.274  -6.870   0.935  1.00  0.00     0.049 A 
ATOM     33  N   UNL     1       2.044  -7.966   2.559  1.00  0.00    -0.248 NA
ATOM     34  C   UNL     1       2.134  -5.928   3.692  1.00  0.00     0.031 C 
ATOM     35  C   UNL     1      -1.412  -6.377   0.158  1.00  0.00     0.029 A 
ATOM     36  N   UNL     1      -0.073  -8.142   0.468  1.00  0.00    -0.354 N 
ATOM     37  C   UNL     1       3.063  -8.006   3.505  1.00  0.00     0.074 A 
ATOM     38  C   UNL     1       3.099  -6.712   4.148  1.00  0.00     0.031 C 
ATOM     39  C   UNL     1      -1.818  -7.343  -0.683  1.00  0.00     0.029 A 
ATOM     40  C   UNL     1      -0.958  -8.512  -0.516  1.00  0.00     0.049 A 
ATOM     41  H   UNL     1       0.638  -8.733   0.804  1.00  0.00     0.167 HD
ATOM     42  C   UNL     1       3.882  -9.037   3.819  1.00  0.00     0.037 A 
ATOM     43  C   UNL     1      -1.058  -9.668  -1.201  1.00  0.00     0.037 A 
ATOM     44  C   UNL     1       3.823 -10.320   3.171  1.00  0.00     0.049 A 
ATOM     45  C   UNL     1      -0.117 -10.791  -0.856  1.00  0.00     0.074 A 
ATOM     46  C   UNL     1       4.594 -11.444   3.406  1.00  0.00     0.029 A 
ATOM     47  N   UNL     1       2.936 -10.647   2.153  1.00  0.00    -0.354 N 
ATOM     48  N   UNL     1       0.828 -10.822   0.056  1.00  0.00    -0.248 NA
ATOM     49  C   UNL     1      -0.256 -12.036  -1.621  1.00  0.00     0.031 C 
ATOM     50  C   UNL     1       4.200 -12.437   2.502  1.00  0.00     0.029 A 
ATOM     51  C   UNL     1       3.154 -11.947   1.734  1.00  0.00     0.049 A 
ATOM     52  H   UNL     1       2.253 -10.042   1.784  1.00  0.00     0.167 HD
ATOM     53  C   UNL     1       1.389 -12.091  -0.018  1.00  0.00     0.074 A 
ATOM     54  C   UNL     1       0.663 -12.805  -1.051  1.00  0.00     0.031 C 
ATOM     55  C   UNL     1       2.413 -12.622   0.697  1.00  0.00     0.037 A 
BRANCH  42  56
ATOM     56  C   UNL     1       4.919  -8.805   4.885  1.00  0.00     0.058 A 
ATOM     57  C   UNL     1       4.574  -8.684   6.241  1.00  0.00     0.135 A 
ATOM     58  C   UNL     1       6.279  -8.710   4.547  1.00  0.00     0.135 A 
ATOM     59  F   UNL     1       3.287  -8.746   6.619  1.00  0.00    -0.206 F 
ATOM     60  C   UNL     1       5.535  -8.447   7.220  1.00  0.00     0.059 A 
ATOM     61  C   UNL     1       7.260  -8.498   5.513  1.00  0.00     0.059 A 
ATOM     62  F   UNL     1       6.665  -8.812   3.266  1.00  0.00    -0.206 F 
ATOM     63  C   UNL     1       6.876  -8.352   6.845  1.00  0.00     0.060 A 
BRANCH  63  64
ATOM     64  S   UNL     1       8.113  -8.040   8.123  1.00  0.00     0.124 S 
ATOM     65  O   UNL     1       7.876  -6.630   8.419  1.00  0.00    -0.237 OA
ATOM     66  O   UNL     1       7.726  -8.980   9.170  1.00  0.00    -0.237 OA
ATOM     67  O   UNL     1       9.376  -8.336   7.455  1.00  0.00    -0.744 OA
ENDBRANCH  63  64
ENDBRANCH  42  56
BRANCH  43  68
ATOM     68  C   UNL     1      -2.085  -9.811  -2.268  1.00  0.00     0.058 A 
ATOM     69  C   UNL     1      -3.196 -10.651  -2.107  1.00  0.00     0.135 A 
ATOM     70  C   UNL     1      -1.990  -9.078  -3.461  1.00  0.00     0.135 A 
ATOM     71  F   UNL     1      -3.331 -11.379  -0.988  1.00  0.00    -0.206 F 
ATOM     72  C   UNL     1      -4.175 -10.762  -3.091  1.00  0.00     0.059 A 
ATOM     73  C   UNL     1      -2.966  -9.153  -4.449  1.00  0.00     0.059 A 
ATOM     74  F   UNL     1      -0.953  -8.249  -3.660  1.00  0.00    -0.206 F 
ATOM     75  C   UNL     1      -4.054 -10.004  -4.257  1.00  0.00     0.060 A 
BRANCH  75  76
ATOM     76  S   UNL     1      -5.364 -10.097  -5.498  1.00  0.00     0.124 S 
ATOM     77  O   UNL     1      -5.106 -11.398  -6.102  1.00  0.00    -0.237 OA
ATOM     78  O   UNL     1      -6.569  -9.999  -4.680  1.00  0.00    -0.237 OA
ATOM     79  O   UNL     1      -5.101  -8.940  -6.350  1.00  0.00    -0.744 OA
ENDBRANCH  75  76
ENDBRANCH  43  68
BRANCH  55  80
ATOM     80  C   UNL     1       2.798 -14.039   0.386  1.00  0.00     0.058 A 
ATOM     81  C   UNL     1       3.509 -14.364  -0.779  1.00  0.00     0.135 A 
ATOM     82  C   UNL     1       2.500 -15.072   1.288  1.00  0.00     0.135 A 
ATOM     83  F   UNL     1       3.813 -13.411  -1.674  1.00  0.00    -0.206 F 
ATOM     84  C   UNL     1       3.891 -15.672  -1.052  1.00  0.00     0.059 A 
ATOM     85  C   UNL     1       2.894 -16.384   1.047  1.00  0.00     0.059 A 
ATOM     86  F   UNL     1       1.833 -14.808   2.423  1.00  0.00    -0.206 F 
ATOM     87  C   UNL     1       3.579 -16.676  -0.132  1.00  0.00     0.060 A 
BRANCH  87  88
ATOM     88  S   UNL     1       4.105 -18.366  -0.484  1.00  0.00     0.124 S 
ATOM     89  O   UNL     1       3.138 -18.767  -1.500  1.00  0.00    -0.237 OA
ATOM     90  O   UNL     1       5.475 -18.177  -0.952  1.00  0.00    -0.237 OA
ATOM     91  O   UNL     1       3.976 -19.036   0.806  1.00  0.00    -0.744 OA
ENDBRANCH  87  88
ENDBRANCH  55  80
ENDBRANCH  29  30
ENDBRANCH  22  24
ENDBRANCH  21  22
ENDBRANCH  20  21
ENDBRANCH  19  20
ENDBRANCH   1  19
TORSDOF 21
