REMARK SMILES C/C=C(\C)[C@H]1C(C)=C[C@H]2CC[C@@H](OS(=O)(=O)[O-])[C@@H](C)[C@H]2[C@H]1/C=C/C=C/C(=O)OCCOCCOC(=O)c1ccc(-c2c3nc(c(-c4c(F)cc(S(=O)(=O)[O-])cc4F)c4ccc([nH]4)c(-c4c(F)cc(S(=O)(=O)[O-])cc4F)c4nc(c(-c5c(F)cc(S(=O)(=O)[O-])cc5F)c5ccc2[nH]5)C=C4)C=C3)cc1
REMARK SMILES IDX 30 1 29 2 28 3 26 4 27 5 25 6 24 7 23 8 22 9 21 10 5 11 6 12
REMARK SMILES IDX 7 13 8 14 20 15 9 16 18 17 10 18 12 19 19 20 11 21 3 22 1 23
REMARK SMILES IDX 2 24 4 25 13 26 14 27 15 28 16 29 17 30 31 31 32 32 33 33
REMARK SMILES IDX 34 34 35 35 36 36 37 37 38 38 102 39 39 40 101 41 40 42
REMARK SMILES IDX 41 43 42 44 95 45 43 46 100 47 94 48 96 49 44 50 99 51 93 52
REMARK SMILES IDX 92 53 45 55 79 56 58 57 78 58 59 59 62 60 77 61 97 62 60 63
REMARK SMILES IDX 61 64 76 66 98 67 63 68 46 69 47 70 56 71 48 72 49 73 55 74
REMARK SMILES IDX 57 75 50 76 51 77 52 78 53 79 54 80 80 81 81 82 90 83 82 84
REMARK SMILES IDX 83 85 89 86 91 87 84 88 85 89 86 90 87 91 88 92 64 93 65 94
REMARK SMILES IDX 74 95 66 96 67 97 73 98 75 99 68 100 69 101 70 102 71 103
REMARK SMILES IDX 72 104
REMARK H PARENT 96 54 62 65
REMARK Flexibility Score: inf
ROOT
ATOM      1  C   UNL     1       4.875   0.231  -6.802  1.00  0.00     0.202 C 
ENDROOT
BRANCH   1   2
ATOM      2  C   UNL     1       5.402   1.520  -6.165  1.00  0.00     0.261 C 
BRANCH   2   3
ATOM      3  O   UNL     1       4.405   2.175  -5.369  1.00  0.00    -0.460 OA
BRANCH   3   4
ATOM      4  C   UNL     1       3.844   3.272  -5.932  1.00  0.00     0.330 C 
ATOM      5  O   UNL     1       4.156   3.790  -6.994  1.00  0.00    -0.247 OA
BRANCH   4   6
ATOM      6  C   UNL     1       2.688   3.761  -5.154  1.00  0.00     0.093 C 
ATOM      7  C   UNL     1       2.405   3.385  -3.900  1.00  0.00     0.007 C 
BRANCH   7   8
ATOM      8  C   UNL     1       1.292   3.926  -3.152  1.00  0.00    -0.004 C 
ATOM      9  C   UNL     1       1.149   3.655  -1.847  1.00  0.00    -0.022 C 
BRANCH   9  10
ATOM     10  C   UNL     1       0.089   4.225  -0.923  1.00  0.00     0.027 C 
ATOM     11  C   UNL     1      -0.847   3.161  -0.208  1.00  0.00     0.047 C 
ATOM     12  C   UNL     1      -1.179   3.467   1.255  1.00  0.00    -0.069 C 
ATOM     13  C   UNL     1      -1.879   2.421   2.083  1.00  0.00     0.040 C 
ATOM     14  C   UNL     1      -0.948   4.679   1.796  1.00  0.00    -0.024 C 
ATOM     15  C   UNL     1       0.719   5.316   0.009  1.00  0.00     0.009 C 
ATOM     16  C   UNL     1      -0.318   5.814   1.041  1.00  0.00     0.016 C 
ATOM     17  C   UNL     1       2.131   5.013   0.623  1.00  0.00     0.021 C 
ATOM     18  C   UNL     1       0.259   6.894   1.975  1.00  0.00     0.011 C 
ATOM     19  C   UNL     1       2.618   6.211   1.473  1.00  0.00     0.141 C 
ATOM     20  C   UNL     1       2.261   3.695   1.397  1.00  0.00     0.011 C 
ATOM     21  C   UNL     1       1.613   6.536   2.573  1.00  0.00     0.034 C 
BRANCH  11  22
ATOM     22  C   UNL     1      -0.479   1.695  -0.526  1.00  0.00    -0.070 C 
ATOM     23  C   UNL     1       0.899  -0.406   0.006  1.00  0.00     0.035 C 
ATOM     24  C   UNL     1       0.353   0.964   0.244  1.00  0.00    -0.031 C 
ATOM     25  C   UNL     1      -1.110   1.177  -1.799  1.00  0.00     0.040 C 
ENDBRANCH  11  22
BRANCH  19  26
ATOM     26  O   UNL     1       3.872   5.877   2.046  1.00  0.00    -0.276 OA
BRANCH  26  27
ATOM     27  S   UNL     1       5.000   7.015   2.274  1.00  0.00     0.217 S 
ATOM     28  O   UNL     1       5.224   7.715   1.032  1.00  0.00    -0.213 OA
ATOM     29  O   UNL     1       4.688   7.734   3.491  1.00  0.00    -0.213 OA
ATOM     30  O   UNL     1       6.313   6.138   2.573  1.00  0.00    -0.726 OA
ENDBRANCH  26  27
ENDBRANCH  19  26
ENDBRANCH   9  10
ENDBRANCH   7   8
ENDBRANCH   4   6
ENDBRANCH   3   4
ENDBRANCH   2   3
ENDBRANCH   1   2
BRANCH   1  31
ATOM     31  O   UNL     1       3.718   0.336  -7.629  1.00  0.00    -0.374 OA
BRANCH  31  32
ATOM     32  C   UNL     1       2.450   0.397  -6.974  1.00  0.00     0.202 C 
BRANCH  32  33
ATOM     33  C   UNL     1       1.883  -0.911  -6.404  1.00  0.00     0.261 C 
BRANCH  33  34
ATOM     34  O   UNL     1       2.668  -1.433  -5.317  1.00  0.00    -0.460 OA
BRANCH  34  35
ATOM     35  C   UNL     1       3.388  -2.543  -5.618  1.00  0.00     0.338 C 
ATOM     36  O   UNL     1       3.396  -3.154  -6.672  1.00  0.00    -0.246 OA
BRANCH  35  37
ATOM     37  C   UNL     1       4.337  -2.824  -4.524  1.00  0.00     0.060 A 
ATOM     38  C   UNL     1       5.701  -2.887  -4.840  1.00  0.00     0.016 A 
ATOM     39  C   UNL     1       3.896  -3.079  -3.225  1.00  0.00     0.016 A 
ATOM     40  C   UNL     1       6.629  -3.235  -3.861  1.00  0.00     0.010 A 
ATOM     41  C   UNL     1       4.829  -3.437  -2.247  1.00  0.00     0.010 A 
ATOM     42  C   UNL     1       6.196  -3.541  -2.564  1.00  0.00    -0.014 A 
BRANCH  42  43
ATOM     43  C   UNL     1       7.154  -4.071  -1.563  1.00  0.00     0.031 A 
ATOM     44  C   UNL     1       7.141  -5.540  -1.239  1.00  0.00     0.074 A 
ATOM     45  C   UNL     1       8.020  -3.247  -0.944  1.00  0.00     0.049 A 
ATOM     46  N   UNL     1       7.822  -6.195  -0.336  1.00  0.00    -0.248 NA
ATOM     47  C   UNL     1       6.233  -6.380  -2.036  1.00  0.00     0.031 C 
ATOM     48  C   UNL     1       8.148  -1.813  -1.200  1.00  0.00     0.029 A 
ATOM     49  N   UNL     1       8.943  -3.497   0.041  1.00  0.00    -0.354 N 
ATOM     50  C   UNL     1       7.416  -7.520  -0.442  1.00  0.00     0.074 A 
ATOM     51  C   UNL     1       6.410  -7.571  -1.482  1.00  0.00     0.031 C 
ATOM     52  C   UNL     1       9.082  -1.305  -0.377  1.00  0.00     0.029 A 
ATOM     53  C   UNL     1       9.586  -2.368   0.491  1.00  0.00     0.049 A 
ATOM     54  H   UNL     1       9.127  -4.398   0.392  1.00  0.00     0.167 HD
ATOM     55  C   UNL     1       7.847  -8.594   0.262  1.00  0.00     0.037 A 
ATOM     56  C   UNL     1      10.454  -2.204   1.509  1.00  0.00     0.037 A 
ATOM     57  C   UNL     1       8.852  -8.530   1.291  1.00  0.00     0.049 A 
ATOM     58  C   UNL     1      10.870  -3.403   2.323  1.00  0.00     0.074 A 
ATOM     59  C   UNL     1       9.384  -9.568   2.038  1.00  0.00     0.029 A 
ATOM     60  N   UNL     1       9.469  -7.367   1.729  1.00  0.00    -0.354 N 
ATOM     61  N   UNL     1      10.505  -4.657   2.189  1.00  0.00    -0.248 NA
ATOM     62  C   UNL     1      11.813  -3.168   3.425  1.00  0.00     0.031 C 
ATOM     63  C   UNL     1      10.273  -9.025   2.970  1.00  0.00     0.029 A 
ATOM     64  C   UNL     1      10.348  -7.657   2.760  1.00  0.00     0.049 A 
ATOM     65  H   UNL     1       9.306  -6.469   1.362  1.00  0.00     0.167 HD
ATOM     66  C   UNL     1      11.194  -5.362   3.172  1.00  0.00     0.074 A 
ATOM     67  C   UNL     1      12.007  -4.397   3.883  1.00  0.00     0.031 C 
ATOM     68  C   UNL     1      11.158  -6.687   3.457  1.00  0.00     0.037 A 
BRANCH  55  69
ATOM     69  C   UNL     1       7.215  -9.928  -0.032  1.00  0.00     0.058 A 
ATOM     70  C   UNL     1       7.456 -10.619  -1.230  1.00  0.00     0.135 A 
ATOM     71  C   UNL     1       6.395 -10.549   0.926  1.00  0.00     0.135 A 
ATOM     72  F   UNL     1       8.218 -10.067  -2.188  1.00  0.00    -0.206 F 
ATOM     73  C   UNL     1       6.889 -11.866  -1.478  1.00  0.00     0.059 A 
ATOM     74  C   UNL     1       5.843 -11.808   0.712  1.00  0.00     0.059 A 
ATOM     75  F   UNL     1       6.129  -9.933   2.088  1.00  0.00    -0.206 F 
ATOM     76  C   UNL     1       6.086 -12.454  -0.499  1.00  0.00     0.060 A 
BRANCH  76  77
ATOM     77  S   UNL     1       5.372 -14.078  -0.831  1.00  0.00     0.124 S 
ATOM     78  O   UNL     1       4.379 -13.756  -1.852  1.00  0.00    -0.237 OA
ATOM     79  O   UNL     1       6.529 -14.838  -1.291  1.00  0.00    -0.237 OA
ATOM     80  O   UNL     1       4.831 -14.484   0.462  1.00  0.00    -0.744 OA
ENDBRANCH  76  77
ENDBRANCH  55  69
BRANCH  56  81
ATOM     81  C   UNL     1      10.968  -0.845   1.836  1.00  0.00     0.058 A 
ATOM     82  C   UNL     1      12.316  -0.510   1.646  1.00  0.00     0.135 A 
ATOM     83  C   UNL     1      10.115   0.149   2.345  1.00  0.00     0.135 A 
ATOM     84  F   UNL     1      13.174  -1.427   1.175  1.00  0.00    -0.206 F 
ATOM     85  C   UNL     1      12.805   0.754   1.961  1.00  0.00     0.059 A 
ATOM     86  C   UNL     1      10.574   1.429   2.639  1.00  0.00     0.059 A 
ATOM     87  F   UNL     1       8.813  -0.115   2.538  1.00  0.00    -0.206 F 
ATOM     88  C   UNL     1      11.924   1.720   2.452  1.00  0.00     0.060 A 
BRANCH  88  89
ATOM     89  S   UNL     1      12.559   3.372   2.811  1.00  0.00     0.124 S 
ATOM     90  O   UNL     1      13.360   3.128   4.004  1.00  0.00    -0.237 OA
ATOM     91  O   UNL     1      13.302   3.684   1.594  1.00  0.00    -0.237 OA
ATOM     92  O   UNL     1      11.348   4.163   3.015  1.00  0.00    -0.744 OA
ENDBRANCH  88  89
ENDBRANCH  56  81
BRANCH  68  93
ATOM     93  C   UNL     1      12.046  -7.191   4.565  1.00  0.00     0.058 A 
ATOM     94  C   UNL     1      11.775  -6.916   5.914  1.00  0.00     0.135 A 
ATOM     95  C   UNL     1      13.142  -8.021   4.274  1.00  0.00     0.135 A 
ATOM     96  F   UNL     1      10.746  -6.122   6.249  1.00  0.00    -0.206 F 
ATOM     97  C   UNL     1      12.568  -7.433   6.935  1.00  0.00     0.059 A 
ATOM     98  C   UNL     1      13.928  -8.574   5.279  1.00  0.00     0.059 A 
ATOM     99  F   UNL     1      13.441  -8.324   3.001  1.00  0.00    -0.206 F 
ATOM    100  C   UNL     1      13.638  -8.268   6.607  1.00  0.00     0.060 A 
BRANCH 100 101
ATOM    101  S   UNL     1      14.625  -8.972   7.945  1.00  0.00     0.124 S 
ATOM    102  O   UNL     1      15.350  -7.800   8.426  1.00  0.00    -0.237 OA
ATOM    103  O   UNL     1      13.601  -9.497   8.844  1.00  0.00    -0.237 OA
ATOM    104  O   UNL     1      15.439  -9.981   7.274  1.00  0.00    -0.744 OA
ENDBRANCH 100 101
ENDBRANCH  68  93
ENDBRANCH  42  43
ENDBRANCH  35  37
ENDBRANCH  34  35
ENDBRANCH  33  34
ENDBRANCH  32  33
ENDBRANCH  31  32
ENDBRANCH   1  31
TORSDOF 22
