REMARK SMILES O=C(CS[C@H](C(=O)Nc1ccc(C(F)(F)F)cc1)c1ccccc1)OCCOCCOC(=O)c1ccc(-c2c3nc(c(-c4c(F)cc(S(=O)(=O)[O-])cc4F)c4ccc([nH]4)c(-c4c(F)cc(S(=O)(=O)[O-])cc4F)c4nc(c(-c5c(F)cc(S(=O)(=O)[O-])cc5F)c5ccc2[nH]5)C=C4)C=C3)cc1
REMARK SMILES IDX 27 1 26 2 25 3 2 4 1 5 3 6 4 7 5 8 19 9 20 10 24 11 21 12
REMARK SMILES IDX 23 13 22 14 6 15 7 16 8 17 9 19 10 20 18 21 11 22 17 23
REMARK SMILES IDX 12 24 13 25 14 26 15 27 16 28 28 29 29 30 30 31 31 32 32 33
REMARK SMILES IDX 33 34 34 35 35 36 99 37 36 38 98 39 37 40 38 41 39 42 92 43
REMARK SMILES IDX 40 44 97 45 91 46 93 47 41 48 96 49 90 50 89 51 42 53 76 54
REMARK SMILES IDX 55 55 75 56 56 57 59 58 74 59 94 60 57 61 58 62 73 64 95 65
REMARK SMILES IDX 60 66 43 67 44 68 53 69 45 70 46 71 52 72 54 73 47 74 48 75
REMARK SMILES IDX 49 76 50 77 51 78 77 79 78 80 87 81 79 82 80 83 86 84 88 85
REMARK SMILES IDX 81 86 82 87 83 88 84 89 85 90 61 91 62 92 71 93 63 94 64 95
REMARK SMILES IDX 70 96 72 97 65 98 66 99 67 100 68 101 69 102
REMARK H PARENT 8 18 93 52 59 63
REMARK Flexibility Score: inf
ROOT
ATOM      1  C   UNL     1       2.713  -0.207  -0.401  1.00  0.00     0.202 C 
ENDROOT
BRANCH   1   2
ATOM      2  C   UNL     1       2.489   0.510   0.972  1.00  0.00     0.261 C 
BRANCH   2   3
ATOM      3  O   UNL     1       1.161   1.155   1.421  1.00  0.00    -0.463 OA
BRANCH   3   4
ATOM      4  C   UNL     1       0.259   2.112   1.758  1.00  0.00     0.316 C 
ATOM      5  O   UNL     1      -0.799   1.678   2.251  1.00  0.00    -0.251 OA
BRANCH   4   6
ATOM      6  C   UNL     1       0.221   3.647   1.506  1.00  0.00     0.193 C 
BRANCH   6   7
ATOM      7  S   UNL     1       1.558   4.841   1.590  1.00  0.00    -0.132 SA
BRANCH   7   8
ATOM      8  C   UNL     1       2.908   3.672   1.629  1.00  0.00     0.166 C 
BRANCH   8   9
ATOM      9  C   UNL     1       2.896   2.801   2.963  1.00  0.00    -0.026 A 
ATOM     10  C   UNL     1       1.895   2.976   3.958  1.00  0.00     0.005 A 
ATOM     11  C   UNL     1       3.808   1.771   3.249  1.00  0.00     0.005 A 
ATOM     12  C   UNL     1       1.553   1.971   4.871  1.00  0.00     0.000 A 
ATOM     13  C   UNL     1       3.487   0.761   4.188  1.00  0.00     0.000 A 
ATOM     14  C   UNL     1       2.313   0.820   4.935  1.00  0.00     0.000 A 
ENDBRANCH   8   9
BRANCH   8  15
ATOM     15  C   UNL     1       3.011   3.126   0.093  1.00  0.00     0.242 C 
ATOM     16  O   UNL     1       4.167   2.852  -0.301  1.00  0.00    -0.273 OA
ATOM     17  N   UNL     1       2.043   3.058  -0.944  1.00  0.00    -0.325 N 
ATOM     18  H   UNL     1       2.438   3.388  -1.784  1.00  0.00     0.169 HD
BRANCH  17  19
ATOM     19  C   UNL     1       0.654   2.660  -1.180  1.00  0.00     0.041 A 
ATOM     20  C   UNL     1       0.119   1.378  -0.970  1.00  0.00     0.027 A 
ATOM     21  C   UNL     1      -0.238   3.510  -1.829  1.00  0.00     0.027 A 
ATOM     22  C   UNL     1      -1.211   0.992  -1.114  1.00  0.00     0.015 A 
ATOM     23  C   UNL     1      -1.616   3.153  -1.985  1.00  0.00     0.015 A 
ATOM     24  C   UNL     1      -2.125   1.911  -1.559  1.00  0.00     0.056 A 
BRANCH  24  25
ATOM     25  C   UNL     1      -3.574   1.499  -1.561  1.00  0.00     0.416 C 
ATOM     26  F   UNL     1      -3.916   0.802  -2.680  1.00  0.00    -0.166 F 
ATOM     27  F   UNL     1      -3.893   0.680  -0.515  1.00  0.00    -0.166 F 
ATOM     28  F   UNL     1      -4.434   2.548  -1.483  1.00  0.00    -0.166 F 
ENDBRANCH  24  25
ENDBRANCH  17  19
ENDBRANCH   8  15
ENDBRANCH   7   8
ENDBRANCH   6   7
ENDBRANCH   4   6
ENDBRANCH   3   4
ENDBRANCH   2   3
ENDBRANCH   1   2
BRANCH   1  29
ATOM     29  O   UNL     1       2.593   0.585  -1.581  1.00  0.00    -0.374 OA
BRANCH  29  30
ATOM     30  C   UNL     1       2.427  -0.020  -2.873  1.00  0.00     0.202 C 
BRANCH  30  31
ATOM     31  C   UNL     1       1.496  -1.240  -3.064  1.00  0.00     0.261 C 
BRANCH  31  32
ATOM     32  O   UNL     1       1.731  -2.327  -2.164  1.00  0.00    -0.460 OA
BRANCH  32  33
ATOM     33  C   UNL     1       2.999  -2.813  -2.181  1.00  0.00     0.338 C 
ATOM     34  O   UNL     1       3.830  -2.625  -3.031  1.00  0.00    -0.246 OA
BRANCH  33  35
ATOM     35  C   UNL     1       3.281  -3.344  -0.823  1.00  0.00     0.060 A 
ATOM     36  C   UNL     1       4.525  -3.015  -0.272  1.00  0.00     0.016 A 
ATOM     37  C   UNL     1       2.335  -4.055  -0.074  1.00  0.00     0.016 A 
ATOM     38  C   UNL     1       4.860  -3.462   0.997  1.00  0.00     0.010 A 
ATOM     39  C   UNL     1       2.684  -4.538   1.189  1.00  0.00     0.010 A 
ATOM     40  C   UNL     1       3.975  -4.298   1.688  1.00  0.00    -0.014 A 
BRANCH  40  41
ATOM     41  C   UNL     1       4.577  -5.184   2.707  1.00  0.00     0.031 A 
ATOM     42  C   UNL     1       5.087  -6.518   2.226  1.00  0.00     0.074 A 
ATOM     43  C   UNL     1       4.817  -4.752   3.955  1.00  0.00     0.049 A 
ATOM     44  N   UNL     1       5.776  -7.423   2.864  1.00  0.00    -0.248 NA
ATOM     45  C   UNL     1       4.794  -6.868   0.823  1.00  0.00     0.031 C 
ATOM     46  C   UNL     1       4.410  -3.456   4.496  1.00  0.00     0.029 A 
ATOM     47  N   UNL     1       5.489  -5.353   4.986  1.00  0.00    -0.354 N 
ATOM     48  C   UNL     1       6.015  -8.433   1.938  1.00  0.00     0.074 A 
ATOM     49  C   UNL     1       5.357  -8.058   0.710  1.00  0.00     0.031 C 
ATOM     50  C   UNL     1       4.844  -3.359   5.765  1.00  0.00     0.029 A 
ATOM     51  C   UNL     1       5.541  -4.592   6.128  1.00  0.00     0.049 A 
ATOM     52  H   UNL     1       5.896  -6.247   4.915  1.00  0.00     0.167 HD
ATOM     53  C   UNL     1       6.740  -9.563   2.091  1.00  0.00     0.037 A 
ATOM     54  C   UNL     1       6.082  -4.876   7.330  1.00  0.00     0.037 A 
ATOM     55  C   UNL     1       7.376  -9.933   3.324  1.00  0.00     0.049 A 
ATOM     56  C   UNL     1       6.815  -6.184   7.501  1.00  0.00     0.074 A 
ATOM     57  C   UNL     1       8.104 -11.072   3.611  1.00  0.00     0.029 A 
ATOM     58  N   UNL     1       7.354  -9.166   4.481  1.00  0.00    -0.354 N 
ATOM     59  N   UNL     1       7.031  -7.133   6.619  1.00  0.00    -0.248 NA
ATOM     60  C   UNL     1       7.389  -6.454   8.825  1.00  0.00     0.031 C 
ATOM     61  C   UNL     1       8.481 -11.017   4.957  1.00  0.00     0.029 A 
ATOM     62  C   UNL     1       8.039  -9.816   5.491  1.00  0.00     0.049 A 
ATOM     63  H   UNL     1       6.915  -8.290   4.569  1.00  0.00     0.167 HD
ATOM     64  C   UNL     1       7.779  -8.105   7.277  1.00  0.00     0.074 A 
ATOM     65  C   UNL     1       8.003  -7.610   8.621  1.00  0.00     0.031 C 
ATOM     66  C   UNL     1       8.236  -9.300   6.822  1.00  0.00     0.037 A 
BRANCH  53  67
ATOM     67  C   UNL     1       6.852 -10.480   0.905  1.00  0.00     0.058 A 
ATOM     68  C   UNL     1       7.618 -10.140  -0.223  1.00  0.00     0.135 A 
ATOM     69  C   UNL     1       6.196 -11.720   0.900  1.00  0.00     0.135 A 
ATOM     70  F   UNL     1       8.237  -8.950  -0.287  1.00  0.00    -0.206 F 
ATOM     71  C   UNL     1       7.720 -10.992  -1.317  1.00  0.00     0.059 A 
ATOM     72  C   UNL     1       6.306 -12.601  -0.171  1.00  0.00     0.059 A 
ATOM     73  F   UNL     1       5.435 -12.086   1.944  1.00  0.00    -0.206 F 
ATOM     74  C   UNL     1       7.064 -12.224  -1.279  1.00  0.00     0.060 A 
BRANCH  74  75
ATOM     75  S   UNL     1       7.229 -13.331  -2.695  1.00  0.00     0.124 S 
ATOM     76  O   UNL     1       6.444 -12.631  -3.707  1.00  0.00    -0.237 OA
ATOM     77  O   UNL     1       8.672 -13.346  -2.910  1.00  0.00    -0.237 OA
ATOM     78  O   UNL     1       6.657 -14.585  -2.216  1.00  0.00    -0.744 OA
ENDBRANCH  74  75
ENDBRANCH  53  67
BRANCH  54  79
ATOM     79  C   UNL     1       5.921  -3.928   8.466  1.00  0.00     0.058 A 
ATOM     80  C   UNL     1       7.016  -3.268   9.042  1.00  0.00     0.135 A 
ATOM     81  C   UNL     1       4.652  -3.681   9.015  1.00  0.00     0.135 A 
ATOM     82  F   UNL     1       8.252  -3.474   8.562  1.00  0.00    -0.206 F 
ATOM     83  C   UNL     1       6.865  -2.419  10.136  1.00  0.00     0.059 A 
ATOM     84  C   UNL     1       4.470  -2.813  10.087  1.00  0.00     0.059 A 
ATOM     85  F   UNL     1       3.567  -4.277   8.496  1.00  0.00    -0.206 F 
ATOM     86  C   UNL     1       5.586  -2.198  10.651  1.00  0.00     0.060 A 
BRANCH  86  87
ATOM     87  S   UNL     1       5.392  -1.075  12.052  1.00  0.00     0.124 S 
ATOM     88  O   UNL     1       5.949  -1.867  13.142  1.00  0.00    -0.237 OA
ATOM     89  O   UNL     1       6.182   0.078  11.630  1.00  0.00    -0.237 OA
ATOM     90  O   UNL     1       3.950  -0.852  12.105  1.00  0.00    -0.744 OA
ENDBRANCH  86  87
ENDBRANCH  54  79
BRANCH  66  91
ATOM     91  C   UNL     1       9.037 -10.135   7.783  1.00  0.00     0.058 A 
ATOM     92  C   UNL     1       8.444 -10.752   8.896  1.00  0.00     0.135 A 
ATOM     93  C   UNL     1      10.412 -10.335   7.578  1.00  0.00     0.135 A 
ATOM     94  F   UNL     1       7.132 -10.596   9.136  1.00  0.00    -0.206 F 
ATOM     95  C   UNL     1       9.195 -11.493   9.801  1.00  0.00     0.059 A 
ATOM     96  C   UNL     1      11.176 -11.102   8.450  1.00  0.00     0.059 A 
ATOM     97  F   UNL     1      11.025  -9.786   6.518  1.00  0.00    -0.206 F 
ATOM     98  C   UNL     1      10.563 -11.656   9.573  1.00  0.00     0.060 A 
BRANCH  98  99
ATOM     99  S   UNL     1      11.530 -12.605  10.764  1.00  0.00     0.124 S 
ATOM    100  O   UNL     1      11.612 -11.672  11.883  1.00  0.00    -0.237 OA
ATOM    101  O   UNL     1      10.695 -13.783  10.979  1.00  0.00    -0.237 OA
ATOM    102  O   UNL     1      12.785 -12.854  10.061  1.00  0.00    -0.744 OA
ENDBRANCH  98  99
ENDBRANCH  66  91
ENDBRANCH  40  41
ENDBRANCH  33  35
ENDBRANCH  32  33
ENDBRANCH  31  32
ENDBRANCH  30  31
ENDBRANCH  29  30
ENDBRANCH   1  29
TORSDOF 23
