REMARK SMILES C[NH2+][C@@]1(C(=O)OCCOCCOC(=O)c2ccc(-c3c4nc(c(-c5c(F)cc(S(=O)(=O)[O-])cc5F)c5ccc([nH]5)c(-c5c(F)cc(S(=O)(=O)[O-])cc5F)c5nc(c(-c6c(F)cc(S(=O)(=O)[O-])cc6F)c6ccc3[nH]6)C=C5)C=C4)cc2)CC[C@@H](OC2CCC2)C1
REMARK SMILES IDX 10 1 9 2 8 3 7 4 6 5 4 6 5 7 3 8 81 9 89 10 82 11 83 12 2 13
REMARK SMILES IDX 1 14 84 17 85 18 86 19 88 20 87 21 11 22 12 23 13 24 14 25
REMARK SMILES IDX 15 26 16 27 80 28 17 29 79 30 18 31 19 32 20 33 73 34 21 35
REMARK SMILES IDX 78 36 72 37 74 38 22 39 77 40 71 41 70 42 23 44 57 45 36 46
REMARK SMILES IDX 56 47 37 48 40 49 55 50 75 51 38 52 39 53 54 55 76 56 41 57
REMARK SMILES IDX 24 58 25 59 34 60 26 61 27 62 33 63 35 64 28 65 29 66 30 67
REMARK SMILES IDX 31 68 32 69 58 70 59 71 68 72 60 73 61 74 67 75 69 76 62 77
REMARK SMILES IDX 63 78 64 79 65 80 66 81 42 82 43 83 52 84 44 85 45 86 51 87
REMARK SMILES IDX 53 88 46 89 47 90 48 91 49 92 50 93
REMARK H PARENT 2 15 2 16 74 43 40 54
REMARK Flexibility Score: inf
ROOT
ATOM      1  C   UNL     1      -0.767  -0.938   2.223  1.00  0.00     0.202 C 
ENDROOT
BRANCH   1   2
ATOM      2  O   UNL     1      -1.180  -0.217   3.381  1.00  0.00    -0.374 OA
BRANCH   2   3
ATOM      3  C   UNL     1      -2.417   0.497   3.301  1.00  0.00     0.202 C 
BRANCH   3   4
ATOM      4  C   UNL     1      -2.379   1.818   2.530  1.00  0.00     0.261 C 
BRANCH   4   5
ATOM      5  O   UNL     1      -2.249   1.574   1.116  1.00  0.00    -0.459 OA
BRANCH   5   6
ATOM      6  C   UNL     1      -1.128   2.066   0.528  1.00  0.00     0.368 C 
ATOM      7  O   UNL     1      -0.312   2.799   1.081  1.00  0.00    -0.245 OA
BRANCH   6   8
ATOM      8  C   UNL     1      -0.983   1.616  -0.956  1.00  0.00     0.196 C 
ATOM      9  C   UNL     1      -1.638   2.720  -1.806  1.00  0.00     0.084 C 
ATOM     10  C   UNL     1      -1.723   0.320  -1.355  1.00  0.00     0.113 C 
ATOM     11  C   UNL     1      -3.072   2.257  -2.020  1.00  0.00     0.039 C 
ATOM     12  C   UNL     1      -2.978   0.744  -2.116  1.00  0.00     0.125 C 
BRANCH   8  13
ATOM     13  N   UNL     1       0.471   1.559  -1.297  1.00  0.00    -0.334 N 
ATOM     14  C   UNL     1       1.210   0.514  -0.593  1.00  0.00     0.331 C 
ATOM     15  H   UNL     1       0.558   1.392  -2.300  1.00  0.00     0.347 HD
ATOM     16  H   UNL     1       0.876   2.449  -1.009  1.00  0.00     0.347 HD
ENDBRANCH   8  13
BRANCH  12  17
ATOM     17  O   UNL     1      -3.143   0.163  -3.402  1.00  0.00    -0.375 OA
BRANCH  17  18
ATOM     18  C   UNL     1      -2.366   0.367  -4.602  1.00  0.00     0.118 C 
ATOM     19  C   UNL     1      -2.046   1.758  -5.166  1.00  0.00     0.032 C 
ATOM     20  C   UNL     1      -0.877  -0.003  -4.682  1.00  0.00     0.032 C 
ATOM     21  C   UNL     1      -0.551   1.408  -5.180  1.00  0.00     0.005 C 
ENDBRANCH  17  18
ENDBRANCH  12  17
ENDBRANCH   6   8
ENDBRANCH   5   6
ENDBRANCH   4   5
ENDBRANCH   3   4
ENDBRANCH   2   3
ENDBRANCH   1   2
BRANCH   1  22
ATOM     22  C   UNL     1      -1.427  -2.301   1.982  1.00  0.00     0.261 C 
BRANCH  22  23
ATOM     23  O   UNL     1      -2.847  -2.196   1.786  1.00  0.00    -0.460 OA
BRANCH  23  24
ATOM     24  C   UNL     1      -3.588  -2.647   2.825  1.00  0.00     0.338 C 
ATOM     25  O   UNL     1      -3.175  -3.202   3.837  1.00  0.00    -0.246 OA
BRANCH  24  26
ATOM     26  C   UNL     1      -4.988  -2.213   2.682  1.00  0.00     0.060 A 
ATOM     27  C   UNL     1      -5.564  -1.548   3.772  1.00  0.00     0.016 A 
ATOM     28  C   UNL     1      -5.747  -2.509   1.547  1.00  0.00     0.016 A 
ATOM     29  C   UNL     1      -6.918  -1.228   3.757  1.00  0.00     0.010 A 
ATOM     30  C   UNL     1      -7.112  -2.197   1.540  1.00  0.00     0.010 A 
ATOM     31  C   UNL     1      -7.709  -1.594   2.661  1.00  0.00    -0.014 A 
BRANCH  31  32
ATOM     32  C   UNL     1      -9.184  -1.499   2.780  1.00  0.00     0.031 A 
ATOM     33  C   UNL     1      -9.958  -2.731   3.167  1.00  0.00     0.074 A 
ATOM     34  C   UNL     1      -9.815  -0.325   2.605  1.00  0.00     0.049 A 
ATOM     35  N   UNL     1     -11.245  -2.881   3.340  1.00  0.00    -0.248 NA
ATOM     36  C   UNL     1      -9.173  -3.956   3.394  1.00  0.00     0.031 C 
ATOM     37  C   UNL     1      -9.165   0.941   2.270  1.00  0.00     0.029 A 
ATOM     38  N   UNL     1     -11.148  -0.009   2.687  1.00  0.00    -0.354 N 
ATOM     39  C   UNL     1     -11.425  -4.214   3.692  1.00  0.00     0.074 A 
ATOM     40  C   UNL     1     -10.120  -4.837   3.681  1.00  0.00     0.031 C 
ATOM     41  C   UNL     1     -10.104   1.898   2.166  1.00  0.00     0.029 A 
ATOM     42  C   UNL     1     -11.420   1.307   2.401  1.00  0.00     0.049 A 
ATOM     43  H   UNL     1     -11.843  -0.663   2.927  1.00  0.00     0.167 HD
ATOM     44  C   UNL     1     -12.575  -4.857   4.006  1.00  0.00     0.037 A 
ATOM     45  C   UNL     1     -12.600   1.954   2.323  1.00  0.00     0.037 A 
ATOM     46  C   UNL     1     -13.871  -4.232   4.016  1.00  0.00     0.049 A 
ATOM     47  C   UNL     1     -13.873   1.203   2.616  1.00  0.00     0.074 A 
ATOM     48  C   UNL     1     -15.096  -4.793   4.330  1.00  0.00     0.029 A 
ATOM     49  N   UNL     1     -14.110  -2.905   3.689  1.00  0.00    -0.354 N 
ATOM     50  N   UNL     1     -14.027  -0.052   2.966  1.00  0.00    -0.248 NA
ATOM     51  C   UNL     1     -15.131   1.955   2.508  1.00  0.00     0.031 C 
ATOM     52  C   UNL     1     -16.082  -3.816   4.151  1.00  0.00     0.029 A 
ATOM     53  C   UNL     1     -15.466  -2.634   3.771  1.00  0.00     0.049 A 
ATOM     54  H   UNL     1     -13.418  -2.252   3.435  1.00  0.00     0.167 HD
ATOM     55  C   UNL     1     -15.395  -0.233   3.143  1.00  0.00     0.074 A 
ATOM     56  C   UNL     1     -16.023   1.044   2.871  1.00  0.00     0.031 C 
ATOM     57  C   UNL     1     -16.071  -1.354   3.501  1.00  0.00     0.037 A 
BRANCH  44  58
ATOM     58  C   UNL     1     -12.482  -6.320   4.341  1.00  0.00     0.058 A 
ATOM     59  C   UNL     1     -11.933  -6.767   5.553  1.00  0.00     0.135 A 
ATOM     60  C   UNL     1     -12.970  -7.286   3.447  1.00  0.00     0.135 A 
ATOM     61  F   UNL     1     -11.433  -5.887   6.435  1.00  0.00    -0.206 F 
ATOM     62  C   UNL     1     -11.848  -8.123   5.856  1.00  0.00     0.059 A 
ATOM     63  C   UNL     1     -12.918  -8.646   3.740  1.00  0.00     0.059 A 
ATOM     64  F   UNL     1     -13.502  -6.912   2.272  1.00  0.00    -0.206 F 
ATOM     65  C   UNL     1     -12.342  -9.055   4.941  1.00  0.00     0.060 A 
BRANCH  65  66
ATOM     66  S   UNL     1     -12.226 -10.810   5.348  1.00  0.00     0.124 S 
ATOM     67  O   UNL     1     -10.802 -11.060   5.154  1.00  0.00    -0.237 OA
ATOM     68  O   UNL     1     -12.693 -10.843   6.730  1.00  0.00    -0.237 OA
ATOM     69  O   UNL     1     -13.112 -11.443   4.376  1.00  0.00    -0.744 OA
ENDBRANCH  65  66
ENDBRANCH  44  58
BRANCH  45  70
ATOM     70  C   UNL     1     -12.633   3.390   1.938  1.00  0.00     0.058 A 
ATOM     71  C   UNL     1     -12.978   4.385   2.864  1.00  0.00     0.135 A 
ATOM     72  C   UNL     1     -12.314   3.796   0.632  1.00  0.00     0.135 A 
ATOM     73  F   UNL     1     -13.302   4.047   4.122  1.00  0.00    -0.206 F 
ATOM     74  C   UNL     1     -13.014   5.730   2.510  1.00  0.00     0.059 A 
ATOM     75  C   UNL     1     -12.320   5.136   0.260  1.00  0.00     0.059 A 
ATOM     76  F   UNL     1     -11.969   2.883  -0.290  1.00  0.00    -0.206 F 
ATOM     77  C   UNL     1     -12.680   6.096   1.204  1.00  0.00     0.060 A 
BRANCH  77  78
ATOM     78  S   UNL     1     -12.674   7.848   0.767  1.00  0.00     0.124 S 
ATOM     79  O   UNL     1     -14.101   8.134   0.680  1.00  0.00    -0.237 OA
ATOM     80  O   UNL     1     -11.971   8.444   1.899  1.00  0.00    -0.237 OA
ATOM     81  O   UNL     1     -11.945   7.875  -0.497  1.00  0.00    -0.744 OA
ENDBRANCH  77  78
ENDBRANCH  45  70
BRANCH  57  82
ATOM     82  C   UNL     1     -17.564  -1.245   3.649  1.00  0.00     0.058 A 
ATOM     83  C   UNL     1     -18.410  -1.153   2.534  1.00  0.00     0.135 A 
ATOM     84  C   UNL     1     -18.156  -1.292   4.921  1.00  0.00     0.135 A 
ATOM     85  F   UNL     1     -17.893  -1.099   1.296  1.00  0.00    -0.206 F 
ATOM     86  C   UNL     1     -19.793  -1.089   2.675  1.00  0.00     0.059 A 
ATOM     87  C   UNL     1     -19.537  -1.255   5.085  1.00  0.00     0.059 A 
ATOM     88  F   UNL     1     -17.392  -1.392   6.020  1.00  0.00    -0.206 F 
ATOM     89  C   UNL     1     -20.347  -1.142   3.956  1.00  0.00     0.060 A 
BRANCH  89  90
ATOM     90  S   UNL     1     -22.144  -1.092   4.126  1.00  0.00     0.124 S 
ATOM     91  O   UNL     1     -22.424   0.318   3.875  1.00  0.00    -0.237 OA
ATOM     92  O   UNL     1     -22.583  -2.020   3.088  1.00  0.00    -0.237 OA
ATOM     93  O   UNL     1     -22.368  -1.543   5.496  1.00  0.00    -0.744 OA
ENDBRANCH  89  90
ENDBRANCH  57  82
ENDBRANCH  31  32
ENDBRANCH  24  26
ENDBRANCH  23  24
ENDBRANCH  22  23
ENDBRANCH   1  22
TORSDOF 20
