REMARK SMILES CSCc1ccc(C(=O)N[C@H]2C=C[C@@H](C(=O)OCCOCCOC(=O)c3ccc(-c4c5nc(c(-c6c(F)cc(S(=O)(=O)[O-])cc6F)c6ccc([nH]6)c(-c6c(F)cc(S(=O)(=O)[O-])cc6F)c6nc(c(-c7c(F)cc(S(=O)(=O)[O-])cc7F)c7ccc4[nH]7)C=C6)C=C5)cc3)C2)o1
REMARK SMILES IDX 19 1 18 2 17 3 15 4 16 5 14 6 11 7 12 8 92 9 13 10 10 11
REMARK SMILES IDX 8 12 9 13 7 15 4 16 5 17 93 18 6 19 3 20 2 21 1 22 20 23
REMARK SMILES IDX 21 24 22 25 23 26 24 27 25 28 26 29 27 30 91 31 28 32 90 33
REMARK SMILES IDX 29 34 30 35 31 36 84 37 32 38 89 39 83 40 85 41 33 42 88 43
REMARK SMILES IDX 82 44 81 45 34 47 68 48 47 49 67 50 48 51 51 52 66 53 86 54
REMARK SMILES IDX 49 55 50 56 65 58 87 59 52 60 35 61 36 62 45 63 37 64 38 65
REMARK SMILES IDX 44 66 46 67 39 68 40 69 41 70 42 71 43 72 69 73 70 74 79 75
REMARK SMILES IDX 71 76 72 77 78 78 80 79 73 80 74 81 75 82 76 83 77 84 53 85
REMARK SMILES IDX 54 86 63 87 55 88 56 89 62 90 64 91 57 92 58 93 59 94 60 95
REMARK SMILES IDX 61 96
REMARK H PARENT 10 14 85 46 51 57
REMARK Flexibility Score: inf
ROOT
ATOM      1  C   UNL     1       3.884   3.494   5.177  1.00  0.00     0.202 C 
ENDROOT
BRANCH   1   2
ATOM      2  C   UNL     1       2.873   2.832   4.233  1.00  0.00     0.261 C 
BRANCH   2   3
ATOM      3  O   UNL     1       1.848   3.780   3.897  1.00  0.00    -0.463 OA
BRANCH   3   4
ATOM      4  C   UNL     1       0.551   3.389   4.018  1.00  0.00     0.312 C 
ATOM      5  O   UNL     1       0.180   2.233   4.173  1.00  0.00    -0.252 OA
BRANCH   4   6
ATOM      6  C   UNL     1      -0.390   4.610   4.064  1.00  0.00     0.124 C 
ATOM      7  C   UNL     1      -0.793   6.382   2.390  1.00  0.00     0.106 C 
ATOM      8  C   UNL     1      -1.851   5.342   2.345  1.00  0.00    -0.006 C 
ATOM      9  C   UNL     1       0.195   5.902   3.454  1.00  0.00     0.048 C 
ATOM     10  C   UNL     1      -1.663   4.404   3.286  1.00  0.00    -0.014 C 
BRANCH   7  11
ATOM     11  N   UNL     1      -0.188   6.739   1.118  1.00  0.00    -0.343 N 
ATOM     12  C   UNL     1       0.417   6.119   0.047  1.00  0.00     0.287 C 
ATOM     13  O   UNL     1       0.948   6.900  -0.750  1.00  0.00    -0.266 OA
ATOM     14  H   UNL     1      -0.221   7.714   0.981  1.00  0.00     0.164 HD
BRANCH  12  15
ATOM     15  C   UNL     1       0.382   4.686  -0.166  1.00  0.00     0.191 A 
ATOM     16  C   UNL     1       0.550   2.828  -1.386  1.00  0.00     0.114 A 
ATOM     17  C   UNL     1      -0.035   2.476  -0.195  1.00  0.00     0.047 A 
ATOM     18  O   UNL     1       0.764   4.184  -1.400  1.00  0.00    -0.455 OA
ATOM     19  C   UNL     1       0.040   3.611   0.613  1.00  0.00     0.056 A 
BRANCH  16  20
ATOM     20  C   UNL     1       0.997   2.041  -2.567  1.00  0.00     0.144 C 
BRANCH  20  21
ATOM     21  S   UNL     1       0.557   0.259  -2.435  1.00  0.00    -0.157 SA
ATOM     22  C   UNL     1       1.638  -0.244  -1.061  1.00  0.00     0.085 C 
ENDBRANCH  20  21
ENDBRANCH  16  20
ENDBRANCH  12  15
ENDBRANCH   7  11
ENDBRANCH   4   6
ENDBRANCH   3   4
ENDBRANCH   2   3
ENDBRANCH   1   2
BRANCH   1  23
ATOM     23  O   UNL     1       3.390   3.863   6.469  1.00  0.00    -0.374 OA
BRANCH  23  24
ATOM     24  C   UNL     1       2.473   4.951   6.552  1.00  0.00     0.202 C 
BRANCH  24  25
ATOM     25  C   UNL     1       3.029   6.373   6.406  1.00  0.00     0.261 C 
BRANCH  25  26
ATOM     26  O   UNL     1       3.739   6.593   5.178  1.00  0.00    -0.460 OA
BRANCH  26  27
ATOM     27  C   UNL     1       5.080   6.713   5.332  1.00  0.00     0.338 C 
ATOM     28  O   UNL     1       5.703   6.691   6.389  1.00  0.00    -0.246 OA
BRANCH  27  29
ATOM     29  C   UNL     1       5.762   6.728   4.028  1.00  0.00     0.060 A 
ATOM     30  C   UNL     1       6.809   5.816   3.841  1.00  0.00     0.016 A 
ATOM     31  C   UNL     1       5.463   7.676   3.046  1.00  0.00     0.016 A 
ATOM     32  C   UNL     1       7.596   5.883   2.694  1.00  0.00     0.010 A 
ATOM     33  C   UNL     1       6.258   7.743   1.896  1.00  0.00     0.010 A 
ATOM     34  C   UNL     1       7.351   6.872   1.733  1.00  0.00    -0.014 A 
BRANCH  34  35
ATOM     35  C   UNL     1       8.320   7.071   0.628  1.00  0.00     0.031 A 
ATOM     36  C   UNL     1       9.328   8.183   0.724  1.00  0.00     0.074 A 
ATOM     37  C   UNL     1       8.312   6.258  -0.443  1.00  0.00     0.049 A 
ATOM     38  N   UNL     1      10.246   8.546  -0.133  1.00  0.00    -0.248 NA
ATOM     39  C   UNL     1       9.291   8.996   1.949  1.00  0.00     0.031 C 
ATOM     40  C   UNL     1       7.395   5.138  -0.643  1.00  0.00     0.029 A 
ATOM     41  N   UNL     1       9.093   6.263  -1.572  1.00  0.00    -0.354 N 
ATOM     42  C   UNL     1      10.887   9.639   0.438  1.00  0.00     0.074 A 
ATOM     43  C   UNL     1      10.236   9.893   1.706  1.00  0.00     0.031 C 
ATOM     44  C   UNL     1       7.648   4.577  -1.837  1.00  0.00     0.029 A 
ATOM     45  C   UNL     1       8.726   5.315  -2.496  1.00  0.00     0.049 A 
ATOM     46  H   UNL     1       9.843   6.886  -1.707  1.00  0.00     0.167 HD
ATOM     47  C   UNL     1      11.923  10.364  -0.049  1.00  0.00     0.037 A 
ATOM     48  C   UNL     1       9.185   5.087  -3.742  1.00  0.00     0.037 A 
ATOM     49  C   UNL     1      12.567  10.104  -1.310  1.00  0.00     0.049 A 
ATOM     50  C   UNL     1      10.315   5.920  -4.280  1.00  0.00     0.074 A 
ATOM     51  C   UNL     1      13.659  10.747  -1.868  1.00  0.00     0.029 A 
ATOM     52  N   UNL     1      12.166   9.136  -2.220  1.00  0.00    -0.354 N 
ATOM     53  N   UNL     1      10.951   6.915  -3.706  1.00  0.00    -0.248 NA
ATOM     54  C   UNL     1      10.798   5.598  -5.630  1.00  0.00     0.031 C 
ATOM     55  C   UNL     1      13.885  10.202  -3.137  1.00  0.00     0.029 A 
ATOM     56  C   UNL     1      12.968   9.185  -3.350  1.00  0.00     0.049 A 
ATOM     57  H   UNL     1      11.422   8.507  -2.083  1.00  0.00     0.167 HD
ATOM     58  C   UNL     1      11.918   7.327  -4.617  1.00  0.00     0.074 A 
ATOM     59  C   UNL     1      11.792   6.466  -5.776  1.00  0.00     0.031 C 
ATOM     60  C   UNL     1      12.829   8.325  -4.501  1.00  0.00     0.037 A 
BRANCH  47  61
ATOM     61  C   UNL     1      12.395  11.532   0.773  1.00  0.00     0.058 A 
ATOM     62  C   UNL     1      13.081  11.361   1.986  1.00  0.00     0.135 A 
ATOM     63  C   UNL     1      12.151  12.845   0.340  1.00  0.00     0.135 A 
ATOM     64  F   UNL     1      13.328  10.127   2.455  1.00  0.00    -0.206 F 
ATOM     65  C   UNL     1      13.468  12.449   2.763  1.00  0.00     0.059 A 
ATOM     66  C   UNL     1      12.554  13.949   1.086  1.00  0.00     0.059 A 
ATOM     67  F   UNL     1      11.502  13.067  -0.814  1.00  0.00    -0.206 F 
ATOM     68  C   UNL     1      13.191  13.739   2.308  1.00  0.00     0.060 A 
BRANCH  68  69
ATOM     69  S   UNL     1      13.666  15.142   3.341  1.00  0.00     0.124 S 
ATOM     70  O   UNL     1      12.654  15.083   4.392  1.00  0.00    -0.237 OA
ATOM     71  O   UNL     1      15.022  14.788   3.748  1.00  0.00    -0.237 OA
ATOM     72  O   UNL     1      13.564  16.282   2.435  1.00  0.00    -0.744 OA
ENDBRANCH  68  69
ENDBRANCH  47  61
BRANCH  48  73
ATOM     73  C   UNL     1       8.550   4.023  -4.563  1.00  0.00     0.058 A 
ATOM     74  C   UNL     1       9.202   2.809  -4.814  1.00  0.00     0.135 A 
ATOM     75  C   UNL     1       7.246   4.184  -5.060  1.00  0.00     0.135 A 
ATOM     76  F   UNL     1      10.453   2.614  -4.370  1.00  0.00    -0.206 F 
ATOM     77  C   UNL     1       8.581   1.784  -5.521  1.00  0.00     0.059 A 
ATOM     78  C   UNL     1       6.596   3.166  -5.749  1.00  0.00     0.059 A 
ATOM     79  F   UNL     1       6.578   5.326  -4.837  1.00  0.00    -0.206 F 
ATOM     80  C   UNL     1       7.272   1.968  -5.973  1.00  0.00     0.060 A 
BRANCH  80  81
ATOM     81  S   UNL     1       6.437   0.591  -6.792  1.00  0.00     0.124 S 
ATOM     82  O   UNL     1       7.090   0.584  -8.095  1.00  0.00    -0.237 OA
ATOM     83  O   UNL     1       6.757  -0.527  -5.910  1.00  0.00    -0.237 OA
ATOM     84  O   UNL     1       5.036   1.000  -6.787  1.00  0.00    -0.744 OA
ENDBRANCH  80  81
ENDBRANCH  48  73
BRANCH  60  85
ATOM     85  C   UNL     1      13.782   8.536  -5.647  1.00  0.00     0.058 A 
ATOM     86  C   UNL     1      13.367   9.124  -6.852  1.00  0.00     0.135 A 
ATOM     87  C   UNL     1      15.140   8.207  -5.512  1.00  0.00     0.135 A 
ATOM     88  F   UNL     1      12.079   9.451  -7.036  1.00  0.00    -0.206 F 
ATOM     89  C   UNL     1      14.263   9.363  -7.890  1.00  0.00     0.059 A 
ATOM     90  C   UNL     1      16.059   8.461  -6.526  1.00  0.00     0.059 A 
ATOM     91  F   UNL     1      15.592   7.652  -4.376  1.00  0.00    -0.206 F 
ATOM     92  C   UNL     1      15.608   9.031  -7.716  1.00  0.00     0.060 A 
BRANCH  92  93
ATOM     93  S   UNL     1      16.770   9.386  -9.052  1.00  0.00     0.124 S 
ATOM     94  O   UNL     1      16.441   8.339 -10.014  1.00  0.00    -0.237 OA
ATOM     95  O   UNL     1      16.397  10.743  -9.440  1.00  0.00    -0.237 OA
ATOM     96  O   UNL     1      18.075   9.261  -8.410  1.00  0.00    -0.744 OA
ENDBRANCH  92  93
ENDBRANCH  60  85
ENDBRANCH  34  35
ENDBRANCH  27  29
ENDBRANCH  26  27
ENDBRANCH  25  26
ENDBRANCH  24  25
ENDBRANCH  23  24
ENDBRANCH   1  23
TORSDOF 21
