REMARK SMILES Cc1ccc(Cl)c(Nc2ccccc2C(=O)NCC(=O)OCCOCCOC(=O)c2ccc(-c3c4nc(c(-c5c(F)cc(S(=O)(=O)[O-])cc5F)c5ccc([nH]5)c(-c5c(F)cc(S(=O)(=O)[O-])cc5F)c5nc(c(-c6c(F)cc(S(=O)(=O)[O-])cc6F)c6ccc3[nH]6)C=C5)C=C4)cc2)c1Cl
REMARK SMILES IDX 23 1 22 2 21 3 19 4 20 5 18 6 17 7 15 8 16 9 14 11 9 12
REMARK SMILES IDX 10 13 11 14 13 15 12 16 8 17 7 19 1 20 2 21 3 22 96 23 4 24
REMARK SMILES IDX 97 25 5 26 6 27 24 28 25 29 26 30 27 31 28 32 29 33 30 34
REMARK SMILES IDX 31 35 95 36 32 37 94 38 33 39 34 40 35 41 88 42 36 43 93 44
REMARK SMILES IDX 87 45 89 46 37 47 92 48 86 49 85 50 38 52 72 53 51 54 71 55
REMARK SMILES IDX 52 56 55 57 70 58 90 59 53 60 54 61 69 63 91 64 56 65 39 66
REMARK SMILES IDX 40 67 49 68 41 69 42 70 48 71 50 72 43 73 44 74 45 75 46 76
REMARK SMILES IDX 47 77 73 78 74 79 83 80 75 81 76 82 82 83 84 84 77 85 78 86
REMARK SMILES IDX 79 87 80 88 81 89 57 90 58 91 67 92 59 93 60 94 66 95 68 96
REMARK SMILES IDX 61 97 62 98 63 99 64 100 65 101
REMARK H PARENT 17 10 8 18 89 51 55 62
REMARK Flexibility Score: inf
ROOT
ATOM      1  C   UNL     1      -4.963  -1.216   3.231  1.00  0.00     0.202 C 
ENDROOT
BRANCH   1   2
ATOM      2  C   UNL     1      -4.259  -2.291   2.386  1.00  0.00     0.261 C 
BRANCH   2   3
ATOM      3  O   UNL     1      -2.833  -2.216   2.531  1.00  0.00    -0.462 OA
BRANCH   3   4
ATOM      4  C   UNL     1      -2.124  -2.069   1.378  1.00  0.00     0.325 C 
ATOM      5  O   UNL     1      -2.560  -2.257   0.250  1.00  0.00    -0.250 OA
BRANCH   4   6
ATOM      6  C   UNL     1      -0.788  -1.408   1.672  1.00  0.00     0.239 C 
BRANCH   6   7
ATOM      7  N   UNL     1       0.291  -2.160   2.248  1.00  0.00    -0.341 N 
ATOM      8  C   UNL     1       1.499  -2.287   1.603  1.00  0.00     0.253 C 
ATOM      9  O   UNL     1       2.512  -1.861   2.154  1.00  0.00    -0.269 OA
ATOM     10  H   UNL     1       0.164  -2.593   3.123  1.00  0.00     0.164 HD
BRANCH   8  11
ATOM     11  C   UNL     1       1.601  -3.240   0.467  1.00  0.00     0.063 A 
ATOM     12  C   UNL     1       1.019  -3.156  -0.813  1.00  0.00     0.051 A 
ATOM     13  C   UNL     1       1.146  -4.293  -1.646  1.00  0.00     0.027 A 
ATOM     14  C   UNL     1       1.860  -5.432  -1.264  1.00  0.00     0.002 A 
ATOM     15  C   UNL     1       2.346  -4.387   0.832  1.00  0.00     0.016 A 
ATOM     16  C   UNL     1       2.482  -5.470  -0.028  1.00  0.00     0.001 A 
BRANCH  12  17
ATOM     17  N   UNL     1       0.396  -2.050  -1.433  1.00  0.00    -0.352 N 
ATOM     18  H   UNL     1      -0.308  -2.328  -2.062  1.00  0.00     0.167 HD
BRANCH  17  19
ATOM     19  C   UNL     1       0.533  -0.641  -1.375  1.00  0.00     0.077 A 
ATOM     20  C   UNL     1       2.778   2.130   0.051  1.00  0.00     0.046 C 
ATOM     21  C   UNL     1       1.600   1.409  -0.547  1.00  0.00    -0.030 A 
ATOM     22  C   UNL     1       0.401   2.113  -0.732  1.00  0.00     0.006 A 
ATOM     23  C   UNL     1       1.673   0.044  -0.911  1.00  0.00     0.069 A 
ATOM     24  C   UNL     1      -0.689   1.493  -1.330  1.00  0.00     0.023 A 
ATOM     25  Cl  UNL     1       3.229  -0.729  -0.919  1.00  0.00    -0.082 Cl
ATOM     26  C   UNL     1      -0.614   0.142  -1.666  1.00  0.00     0.066 A 
ATOM     27  Cl  UNL     1      -1.998  -0.561  -2.438  1.00  0.00    -0.082 Cl
ENDBRANCH  17  19
ENDBRANCH  12  17
ENDBRANCH   8  11
ENDBRANCH   6   7
ENDBRANCH   4   6
ENDBRANCH   3   4
ENDBRANCH   2   3
ENDBRANCH   1   2
BRANCH   1  28
ATOM     28  O   UNL     1      -4.740   0.153   2.894  1.00  0.00    -0.374 OA
BRANCH  28  29
ATOM     29  C   UNL     1      -3.418   0.675   2.992  1.00  0.00     0.202 C 
BRANCH  29  30
ATOM     30  C   UNL     1      -2.689   0.599   4.348  1.00  0.00     0.261 C 
BRANCH  30  31
ATOM     31  O   UNL     1      -2.475  -0.748   4.814  1.00  0.00    -0.460 OA
BRANCH  31  32
ATOM     32  C   UNL     1      -2.943  -1.003   6.060  1.00  0.00     0.338 C 
ATOM     33  O   UNL     1      -3.414  -0.191   6.846  1.00  0.00    -0.246 OA
BRANCH  32  34
ATOM     34  C   UNL     1      -3.002  -2.454   6.313  1.00  0.00     0.060 A 
ATOM     35  C   UNL     1      -4.268  -3.046   6.394  1.00  0.00     0.016 A 
ATOM     36  C   UNL     1      -1.855  -3.190   6.620  1.00  0.00     0.016 A 
ATOM     37  C   UNL     1      -4.398  -4.366   6.814  1.00  0.00     0.010 A 
ATOM     38  C   UNL     1      -1.990  -4.514   7.062  1.00  0.00     0.010 A 
ATOM     39  C   UNL     1      -3.265  -5.093   7.198  1.00  0.00    -0.014 A 
BRANCH  39  40
ATOM     40  C   UNL     1      -3.464  -6.385   7.901  1.00  0.00     0.031 A 
ATOM     41  C   UNL     1      -3.478  -6.402   9.406  1.00  0.00     0.074 A 
ATOM     42  C   UNL     1      -3.725  -7.508   7.210  1.00  0.00     0.049 A 
ATOM     43  N   UNL     1      -3.716  -7.395  10.223  1.00  0.00    -0.248 NA
ATOM     44  C   UNL     1      -3.194  -5.124  10.078  1.00  0.00     0.031 C 
ATOM     45  C   UNL     1      -3.774  -7.609   5.753  1.00  0.00     0.029 A 
ATOM     46  N   UNL     1      -4.007  -8.778   7.647  1.00  0.00    -0.354 N 
ATOM     47  C   UNL     1      -3.621  -6.863  11.504  1.00  0.00     0.074 A 
ATOM     48  C   UNL     1      -3.265  -5.468  11.355  1.00  0.00     0.031 C 
ATOM     49  C   UNL     1      -4.063  -8.878   5.414  1.00  0.00     0.029 A 
ATOM     50  C   UNL     1      -4.204  -9.679   6.629  1.00  0.00     0.049 A 
ATOM     51  H   UNL     1      -4.063  -9.020   8.600  1.00  0.00     0.167 HD
ATOM     52  C   UNL     1      -3.823  -7.476  12.695  1.00  0.00     0.037 A 
ATOM     53  C   UNL     1      -4.460 -11.001   6.673  1.00  0.00     0.037 A 
ATOM     54  C   UNL     1      -4.157  -8.869  12.841  1.00  0.00     0.049 A 
ATOM     55  C   UNL     1      -4.633 -11.676   8.008  1.00  0.00     0.074 A 
ATOM     56  C   UNL     1      -4.371  -9.590  14.003  1.00  0.00     0.029 A 
ATOM     57  N   UNL     1      -4.316  -9.758  11.787  1.00  0.00    -0.354 N 
ATOM     58  N   UNL     1      -4.555 -11.157   9.211  1.00  0.00    -0.248 NA
ATOM     59  C   UNL     1      -4.944 -13.111   7.991  1.00  0.00     0.031 C 
ATOM     60  C   UNL     1      -4.621 -10.923  13.653  1.00  0.00     0.029 A 
ATOM     61  C   UNL     1      -4.609 -11.023  12.271  1.00  0.00     0.049 A 
ATOM     62  H   UNL     1      -4.232  -9.524  10.834  1.00  0.00     0.167 HD
ATOM     63  C   UNL     1      -4.822 -12.199  10.094  1.00  0.00     0.074 A 
ATOM     64  C   UNL     1      -5.082 -13.372   9.284  1.00  0.00     0.031 C 
ATOM     65  C   UNL     1      -4.852 -12.185  11.451  1.00  0.00     0.037 A 
BRANCH  52  66
ATOM     66  C   UNL     1      -3.657  -6.637  13.933  1.00  0.00     0.058 A 
ATOM     67  C   UNL     1      -4.588  -5.646  14.283  1.00  0.00     0.135 A 
ATOM     68  C   UNL     1      -2.546  -6.815  14.772  1.00  0.00     0.135 A 
ATOM     69  F   UNL     1      -5.660  -5.421  13.505  1.00  0.00    -0.206 F 
ATOM     70  C   UNL     1      -4.404  -4.834  15.398  1.00  0.00     0.059 A 
ATOM     71  C   UNL     1      -2.354  -6.031  15.907  1.00  0.00     0.059 A 
ATOM     72  F   UNL     1      -1.624  -7.747  14.485  1.00  0.00    -0.206 F 
ATOM     73  C   UNL     1      -3.277  -5.029  16.199  1.00  0.00     0.060 A 
BRANCH  73  74
ATOM     74  S   UNL     1      -3.031  -3.949  17.625  1.00  0.00     0.124 S 
ATOM     75  O   UNL     1      -2.592  -2.714  16.981  1.00  0.00    -0.237 OA
ATOM     76  O   UNL     1      -4.361  -3.911  18.224  1.00  0.00    -0.237 OA
ATOM     77  O   UNL     1      -2.015  -4.645  18.407  1.00  0.00    -0.744 OA
ENDBRANCH  73  74
ENDBRANCH  52  66
BRANCH  53  78
ATOM     78  C   UNL     1      -4.567 -11.768   5.405  1.00  0.00     0.058 A 
ATOM     79  C   UNL     1      -5.801 -12.246   4.940  1.00  0.00     0.135 A 
ATOM     80  C   UNL     1      -3.432 -12.008   4.614  1.00  0.00     0.135 A 
ATOM     81  F   UNL     1      -6.912 -12.052   5.667  1.00  0.00    -0.206 F 
ATOM     82  C   UNL     1      -5.907 -12.934   3.735  1.00  0.00     0.059 A 
ATOM     83  C   UNL     1      -3.517 -12.672   3.395  1.00  0.00     0.059 A 
ATOM     84  F   UNL     1      -2.230 -11.562   5.011  1.00  0.00    -0.206 F 
ATOM     85  C   UNL     1      -4.759 -13.135   2.965  1.00  0.00     0.060 A 
BRANCH  85  86
ATOM     86  S   UNL     1      -4.919 -13.953   1.363  1.00  0.00     0.124 S 
ATOM     87  O   UNL     1      -5.113 -15.343   1.760  1.00  0.00    -0.237 OA
ATOM     88  O   UNL     1      -6.084 -13.284   0.792  1.00  0.00    -0.237 OA
ATOM     89  O   UNL     1      -3.651 -13.654   0.706  1.00  0.00    -0.744 OA
ENDBRANCH  85  86
ENDBRANCH  53  78
BRANCH  65  90
ATOM     90  C   UNL     1      -5.195 -13.478  12.141  1.00  0.00     0.058 A 
ATOM     91  C   UNL     1      -4.293 -14.552  12.186  1.00  0.00     0.135 A 
ATOM     92  C   UNL     1      -6.435 -13.637  12.780  1.00  0.00     0.135 A 
ATOM     93  F   UNL     1      -3.094 -14.453  11.589  1.00  0.00    -0.206 F 
ATOM     94  C   UNL     1      -4.624 -15.754  12.804  1.00  0.00     0.059 A 
ATOM     95  C   UNL     1      -6.777 -14.821  13.427  1.00  0.00     0.059 A 
ATOM     96  F   UNL     1      -7.330 -12.636  12.780  1.00  0.00    -0.206 F 
ATOM     97  C   UNL     1      -5.872 -15.881  13.416  1.00  0.00     0.060 A 
BRANCH  97  98
ATOM     98  S   UNL     1      -6.296 -17.446  14.210  1.00  0.00     0.124 S 
ATOM     99  O   UNL     1      -6.616 -18.282  13.058  1.00  0.00    -0.237 OA
ATOM    100  O   UNL     1      -5.064 -17.786  14.917  1.00  0.00    -0.237 OA
ATOM    101  O   UNL     1      -7.425 -17.096  15.066  1.00  0.00    -0.744 OA
ENDBRANCH  97  98
ENDBRANCH  65  90
ENDBRANCH  39  40
ENDBRANCH  32  34
ENDBRANCH  31  32
ENDBRANCH  30  31
ENDBRANCH  29  30
ENDBRANCH  28  29
ENDBRANCH   1  28
TORSDOF 21
