REMARK SMILES NC(=O)c1c(-c2ccc(Cl)cc2)csc1NC(=O)[C@H]1[C@@H](C(=O)OCCOCCOC(=O)c2ccc(-c3c4nc(c(-c5c(F)cc(S(=O)(=O)[O-])cc5F)c5ccc([nH]5)c(-c5c(F)cc(S(=O)(=O)[O-])cc5F)c5nc(c(-c6c(F)cc(S(=O)(=O)[O-])cc6F)c6ccc3[nH]6)C=C5)C=C4)cc2)[C@@H]2CC[C@H]1O2
REMARK SMILES IDX 26 1 25 2 24 3 23 4 21 5 22 6 20 7 19 8 101 9 98 10 100 11
REMARK SMILES IDX 102 12 99 13 17 14 16 15 18 17 15 18 4 19 5 20 13 21 14 22
REMARK SMILES IDX 2 23 1 24 3 27 6 28 7 29 12 30 8 31 11 32 9 33 10 34 27 35
REMARK SMILES IDX 28 36 29 37 30 38 31 39 32 40 33 41 97 42 34 43 96 44 35 45
REMARK SMILES IDX 36 46 37 47 90 48 38 49 95 50 89 51 91 52 39 53 94 54 88 55
REMARK SMILES IDX 87 56 40 58 74 59 53 60 73 61 54 62 57 63 72 64 92 65 55 66
REMARK SMILES IDX 56 67 71 69 93 70 58 71 41 72 42 73 51 74 43 75 44 76 50 77
REMARK SMILES IDX 52 78 45 79 46 80 47 81 48 82 49 83 75 84 76 85 85 86 77 87
REMARK SMILES IDX 78 88 84 89 86 90 79 91 80 92 81 93 82 94 83 95 59 96 60 97
REMARK SMILES IDX 69 98 61 99 62 100 68 101 70 102 63 103 64 104 65 105 66 106
REMARK SMILES IDX 67 107
REMARK H PARENT 16 16 1 25 1 26 91 57 57 68
REMARK Flexibility Score: inf
ROOT
ATOM      1  O   UNL     1       4.000   8.948   0.975  1.00  0.00    -0.374 OA
ENDROOT
BRANCH   1   2
ATOM      2  C   UNL     1       4.412   7.967   0.023  1.00  0.00     0.202 C 
BRANCH   2   3
ATOM      3  C   UNL     1       3.618   6.659  -0.035  1.00  0.00     0.261 C 
BRANCH   3   4
ATOM      4  O   UNL     1       2.233   6.855  -0.376  1.00  0.00    -0.463 OA
BRANCH   4   5
ATOM      5  C   UNL     1       1.345   6.536   0.596  1.00  0.00     0.312 C 
ATOM      6  O   UNL     1       1.645   6.262   1.755  1.00  0.00    -0.252 OA
BRANCH   5   7
ATOM      7  C   UNL     1      -0.104   6.643   0.178  1.00  0.00     0.143 C 
ATOM      8  C   UNL     1      -0.583   6.091  -1.183  1.00  0.00     0.124 C 
ATOM      9  C   UNL     1      -1.528   7.193  -1.602  1.00  0.00     0.132 C 
ATOM     10  C   UNL     1      -0.601   8.096   0.147  1.00  0.00     0.133 C 
ATOM     11  C   UNL     1      -2.709   7.392  -0.640  1.00  0.00     0.035 C 
ATOM     12  O   UNL     1      -0.729   8.353  -1.262  1.00  0.00    -0.373 OA
ATOM     13  C   UNL     1      -2.078   8.199   0.495  1.00  0.00     0.036 C 
BRANCH   8  14
ATOM     14  C   UNL     1       0.515   5.549  -2.110  1.00  0.00     0.231 C 
ATOM     15  N   UNL     1       0.877   5.867  -3.379  1.00  0.00    -0.317 N 
ATOM     16  H   UNL     1       1.509   5.199  -3.729  1.00  0.00     0.170 HD
ATOM     17  O   UNL     1       1.135   4.570  -1.643  1.00  0.00    -0.274 OA
BRANCH  15  18
ATOM     18  C   UNL     1       0.633   6.844  -4.336  1.00  0.00     0.108 A 
ATOM     19  C   UNL     1       1.077   6.854  -5.667  1.00  0.00     0.082 A 
ATOM     20  C   UNL     1       0.471   7.955  -6.402  1.00  0.00     0.007 A 
ATOM     21  C   UNL     1      -0.332   8.718  -5.581  1.00  0.00     0.076 A 
ATOM     22  S   UNL     1      -0.062   8.332  -3.970  1.00  0.00    -0.125 S 
BRANCH  19  23
ATOM     23  C   UNL     1       2.014   5.848  -6.161  1.00  0.00     0.252 C 
ATOM     24  N   UNL     1       2.805   6.213  -7.206  1.00  0.00    -0.365 N 
ATOM     25  H   UNL     1       3.454   5.573  -7.579  1.00  0.00     0.159 HD
ATOM     26  H   UNL     1       2.728   7.116  -7.590  1.00  0.00     0.159 HD
ATOM     27  O   UNL     1       2.152   4.755  -5.616  1.00  0.00    -0.269 OA
ENDBRANCH  19  23
BRANCH  20  28
ATOM     28  C   UNL     1       0.560   8.375  -7.793  1.00  0.00    -0.017 A 
ATOM     29  C   UNL     1       0.945   9.700  -8.066  1.00  0.00     0.010 A 
ATOM     30  C   UNL     1       0.176   7.538  -8.844  1.00  0.00     0.010 A 
ATOM     31  C   UNL     1       0.913  10.196  -9.367  1.00  0.00     0.021 A 
ATOM     32  C   UNL     1       0.153   8.037 -10.152  1.00  0.00     0.021 A 
ATOM     33  C   UNL     1       0.509   9.363 -10.405  1.00  0.00     0.041 A 
ATOM     34  Cl  UNL     1       0.420   9.989 -12.004  1.00  0.00    -0.084 Cl
ENDBRANCH  20  28
ENDBRANCH  15  18
ENDBRANCH   8  14
ENDBRANCH   5   7
ENDBRANCH   4   5
ENDBRANCH   3   4
ENDBRANCH   2   3
ENDBRANCH   1   2
BRANCH   1  35
ATOM     35  C   UNL     1       2.803   9.662   0.680  1.00  0.00     0.202 C 
BRANCH  35  36
ATOM     36  C   UNL     1       2.890  10.814  -0.326  1.00  0.00     0.261 C 
BRANCH  36  37
ATOM     37  O   UNL     1       3.271  10.373  -1.639  1.00  0.00    -0.460 OA
BRANCH  37  38
ATOM     38  C   UNL     1       4.552  10.660  -1.972  1.00  0.00     0.338 C 
ATOM     39  O   UNL     1       5.360  11.293  -1.314  1.00  0.00    -0.246 OA
BRANCH  38  40
ATOM     40  C   UNL     1       4.927   9.945  -3.205  1.00  0.00     0.060 A 
ATOM     41  C   UNL     1       6.098   9.177  -3.169  1.00  0.00     0.016 A 
ATOM     42  C   UNL     1       4.209  10.094  -4.394  1.00  0.00     0.016 A 
ATOM     43  C   UNL     1       6.596   8.611  -4.337  1.00  0.00     0.010 A 
ATOM     44  C   UNL     1       4.715   9.529  -5.569  1.00  0.00     0.010 A 
ATOM     45  C   UNL     1       5.933   8.823  -5.552  1.00  0.00    -0.014 A 
BRANCH  45  46
ATOM     46  C   UNL     1       6.593   8.426  -6.819  1.00  0.00     0.031 A 
ATOM     47  C   UNL     1       7.242   9.485  -7.670  1.00  0.00     0.074 A 
ATOM     48  C   UNL     1       6.648   7.132  -7.184  1.00  0.00     0.049 A 
ATOM     49  N   UNL     1       7.835   9.368  -8.829  1.00  0.00    -0.248 NA
ATOM     50  C   UNL     1       7.215  10.860  -7.144  1.00  0.00     0.031 C 
ATOM     51  C   UNL     1       6.109   6.014  -6.411  1.00  0.00     0.029 A 
ATOM     52  N   UNL     1       7.182   6.543  -8.302  1.00  0.00    -0.354 N 
ATOM     53  C   UNL     1       8.248  10.650  -9.175  1.00  0.00     0.074 A 
ATOM     54  C   UNL     1       7.803  11.535  -8.121  1.00  0.00     0.031 C 
ATOM     55  C   UNL     1       6.329   4.873  -7.086  1.00  0.00     0.029 A 
ATOM     56  C   UNL     1       6.995   5.183  -8.349  1.00  0.00     0.049 A 
ATOM     57  H   UNL     1       7.654   7.047  -9.003  1.00  0.00     0.167 HD
ATOM     58  C   UNL     1       8.946  11.050 -10.265  1.00  0.00     0.037 A 
ATOM     59  C   UNL     1       7.306   4.294  -9.313  1.00  0.00     0.037 A 
ATOM     60  C   UNL     1       9.393  10.157 -11.305  1.00  0.00     0.049 A 
ATOM     61  C   UNL     1       8.016   4.772 -10.553  1.00  0.00     0.074 A 
ATOM     62  C   UNL     1      10.120  10.459 -12.443  1.00  0.00     0.029 A 
ATOM     63  N   UNL     1       9.152   8.791 -11.336  1.00  0.00    -0.354 N 
ATOM     64  N   UNL     1       8.409   5.985 -10.863  1.00  0.00    -0.248 NA
ATOM     65  C   UNL     1       8.330   3.761 -11.573  1.00  0.00     0.031 C 
ATOM     66  C   UNL     1      10.265   9.287 -13.192  1.00  0.00     0.029 A 
ATOM     67  C   UNL     1       9.687   8.242 -12.490  1.00  0.00     0.049 A 
ATOM     68  H   UNL     1       8.670   8.287 -10.642  1.00  0.00     0.167 HD
ATOM     69  C   UNL     1       9.047   5.877 -12.095  1.00  0.00     0.074 A 
ATOM     70  C   UNL     1       8.993   4.479 -12.469  1.00  0.00     0.031 C 
ATOM     71  C   UNL     1       9.629   6.845 -12.847  1.00  0.00     0.037 A 
BRANCH  58  72
ATOM     72  C   UNL     1       9.244  12.518 -10.409  1.00  0.00     0.058 A 
ATOM     73  C   UNL     1      10.161  13.178  -9.575  1.00  0.00     0.135 A 
ATOM     74  C   UNL     1       8.630  13.270 -11.425  1.00  0.00     0.135 A 
ATOM     75  F   UNL     1      10.765  12.514  -8.576  1.00  0.00    -0.206 F 
ATOM     76  C   UNL     1      10.437  14.534  -9.724  1.00  0.00     0.059 A 
ATOM     77  C   UNL     1       8.914  14.620 -11.613  1.00  0.00     0.059 A 
ATOM     78  F   UNL     1       7.743  12.693 -12.251  1.00  0.00    -0.206 F 
ATOM     79  C   UNL     1       9.809  15.246 -10.747  1.00  0.00     0.060 A 
BRANCH  79  80
ATOM     80  S   UNL     1      10.181  17.003 -10.930  1.00  0.00     0.124 S 
ATOM     81  O   UNL     1       9.514  17.564  -9.758  1.00  0.00    -0.237 OA
ATOM     82  O   UNL     1      11.639  17.018 -10.897  1.00  0.00    -0.237 OA
ATOM     83  O   UNL     1       9.581  17.347 -12.215  1.00  0.00    -0.744 OA
ENDBRANCH  79  80
ENDBRANCH  58  72
BRANCH  59  84
ATOM     84  C   UNL     1       6.933   2.864  -9.147  1.00  0.00     0.058 A 
ATOM     85  C   UNL     1       7.909   1.871  -8.986  1.00  0.00     0.135 A 
ATOM     86  C   UNL     1       5.586   2.464  -9.144  1.00  0.00     0.135 A 
ATOM     87  F   UNL     1       9.210   2.202  -8.989  1.00  0.00    -0.206 F 
ATOM     88  C   UNL     1       7.568   0.529  -8.848  1.00  0.00     0.059 A 
ATOM     89  C   UNL     1       5.218   1.133  -8.979  1.00  0.00     0.059 A 
ATOM     90  F   UNL     1       4.613   3.380  -9.278  1.00  0.00    -0.206 F 
ATOM     91  C   UNL     1       6.218   0.171  -8.843  1.00  0.00     0.060 A 
BRANCH  91  92
ATOM     92  S   UNL     1       5.789  -1.570  -8.629  1.00  0.00     0.124 S 
ATOM     93  O   UNL     1       6.222  -2.137  -9.901  1.00  0.00    -0.237 OA
ATOM     94  O   UNL     1       6.585  -1.938  -7.462  1.00  0.00    -0.237 OA
ATOM     95  O   UNL     1       4.346  -1.536  -8.413  1.00  0.00    -0.744 OA
ENDBRANCH  91  92
ENDBRANCH  59  84
BRANCH  71  96
ATOM     96  C   UNL     1      10.290   6.426 -14.134  1.00  0.00     0.058 A 
ATOM     97  C   UNL     1       9.546   6.017 -15.251  1.00  0.00     0.135 A 
ATOM     98  C   UNL     1      11.687   6.489 -14.268  1.00  0.00     0.135 A 
ATOM     99  F   UNL     1       8.208   5.933 -15.178  1.00  0.00    -0.206 F 
ATOM    100  C   UNL     1      10.164   5.660 -16.446  1.00  0.00     0.059 A 
ATOM    101  C   UNL     1      12.324   6.169 -15.462  1.00  0.00     0.059 A 
ATOM    102  F   UNL     1      12.448   6.886 -13.235  1.00  0.00    -0.206 F 
ATOM    103  C   UNL     1      11.554   5.742 -16.543  1.00  0.00     0.060 A 
BRANCH 103 104
ATOM    104  S   UNL     1      12.339   5.309 -18.110  1.00  0.00     0.124 S 
ATOM    105  O   UNL     1      12.179   3.858 -18.127  1.00  0.00    -0.237 OA
ATOM    106  O   UNL     1      11.533   6.048 -19.076  1.00  0.00    -0.237 OA
ATOM    107  O   UNL     1      13.709   5.787 -17.948  1.00  0.00    -0.744 OA
ENDBRANCH 103 104
ENDBRANCH  71  96
ENDBRANCH  45  46
ENDBRANCH  38  40
ENDBRANCH  37  38
ENDBRANCH  36  37
ENDBRANCH  35  36
ENDBRANCH   1  35
TORSDOF 21
