REMARK SMILES CC(=O)NS(=O)(=O)c1ccc(-c2ccn(C(F)F)c(=O)c2)cc1C(=O)OCCOCCOC(=O)c1ccc(-c2c3nc(c(-c4c(F)cc(S(=O)(=O)[O-])cc4F)c4ccc([nH]4)c(-c4c(F)cc(S(=O)(=O)[O-])cc4F)c4nc(c(-c5c(F)cc(S(=O)(=O)[O-])cc5F)c5ccc2[nH]5)C=C4)C=C3)cc1
REMARK SMILES IDX 30 1 29 2 28 3 27 4 26 5 24 6 25 7 23 8 8 9 9 10 10 11 22 12
REMARK SMILES IDX 11 13 5 14 6 15 7 16 4 17 1 18 2 19 3 20 12 22 13 23 21 24
REMARK SMILES IDX 14 25 19 26 15 27 20 28 16 29 17 30 18 31 31 32 32 33 33 34
REMARK SMILES IDX 34 35 35 36 36 37 100 38 37 39 99 40 38 41 39 42 40 43 93 44
REMARK SMILES IDX 41 45 98 46 92 47 94 48 42 49 97 50 91 51 90 52 43 54 77 55
REMARK SMILES IDX 56 56 76 57 57 58 60 59 75 60 95 61 58 62 59 63 74 65 96 66
REMARK SMILES IDX 61 67 44 68 45 69 54 70 46 71 47 72 53 73 55 74 48 75 49 76
REMARK SMILES IDX 50 77 51 78 52 79 78 80 79 81 88 82 80 83 81 84 87 85 89 86
REMARK SMILES IDX 82 87 83 88 84 89 85 90 86 91 62 92 63 93 72 94 64 95 65 96
REMARK SMILES IDX 71 97 73 98 66 99 67 100 68 101 69 102 70 103
REMARK H PARENT 4 21 94 53 60 64
REMARK Flexibility Score: inf
ROOT
ATOM      1  C   UNL     1       0.304   3.369  -4.770  1.00  0.00     0.202 C 
ENDROOT
BRANCH   1   2
ATOM      2  O   UNL     1       1.205   3.497  -5.872  1.00  0.00    -0.374 OA
BRANCH   2   3
ATOM      3  C   UNL     1       1.887   2.291  -6.237  1.00  0.00     0.202 C 
BRANCH   3   4
ATOM      4  C   UNL     1       3.338   2.284  -5.746  1.00  0.00     0.261 C 
BRANCH   4   5
ATOM      5  O   UNL     1       3.419   1.925  -4.352  1.00  0.00    -0.460 OA
BRANCH   5   6
ATOM      6  C   UNL     1       3.302   2.929  -3.470  1.00  0.00     0.339 C 
ATOM      7  O   UNL     1       3.255   4.119  -3.745  1.00  0.00    -0.246 OA
BRANCH   6   8
ATOM      8  C   UNL     1       3.251   2.460  -2.054  1.00  0.00     0.081 A 
ATOM      9  C   UNL     1       3.069   1.153  -1.575  1.00  0.00     0.102 A 
ATOM     10  C   UNL     1       3.119   0.904  -0.188  1.00  0.00     0.024 A 
ATOM     11  C   UNL     1       3.240   1.956   0.726  1.00  0.00     0.010 A 
ATOM     12  C   UNL     1       3.376   3.501  -1.111  1.00  0.00     0.025 A 
ATOM     13  C   UNL     1       3.332   3.268   0.268  1.00  0.00    -0.017 A 
BRANCH   9  14
ATOM     14  S   UNL     1       2.620  -0.186  -2.656  1.00  0.00     0.264 S 
ATOM     15  O   UNL     1       3.845  -0.708  -3.212  1.00  0.00    -0.201 OA
ATOM     16  O   UNL     1       1.498   0.238  -3.463  1.00  0.00    -0.201 OA
BRANCH  14  17
ATOM     17  N   UNL     1       2.046  -1.379  -1.645  1.00  0.00    -0.249 N 
ATOM     18  C   UNL     1      -0.142  -0.368  -0.932  1.00  0.00     0.115 C 
ATOM     19  C   UNL     1       0.720  -1.568  -1.222  1.00  0.00     0.230 C 
ATOM     20  O   UNL     1       0.354  -2.700  -0.933  1.00  0.00    -0.274 OA
ATOM     21  H   UNL     1       2.710  -2.023  -1.307  1.00  0.00     0.183 HD
ENDBRANCH  14  17
ENDBRANCH   9  14
BRANCH  13  22
ATOM     22  C   UNL     1       3.289   4.424   1.180  1.00  0.00    -0.011 A 
ATOM     23  C   UNL     1       2.182   5.363   1.151  1.00  0.00     0.027 A 
ATOM     24  C   UNL     1       4.307   4.640   2.029  1.00  0.00     0.080 A 
ATOM     25  C   UNL     1       2.183   6.444   1.938  1.00  0.00     0.095 A 
ATOM     26  C   UNL     1       4.312   5.831   2.927  1.00  0.00     0.255 A 
ATOM     27  N   UNL     1       3.227   6.686   2.808  1.00  0.00    -0.258 N 
ATOM     28  O   UNL     1       5.256   5.981   3.696  1.00  0.00    -0.269 OA
BRANCH  27  29
ATOM     29  C   UNL     1       3.219   7.860   3.643  1.00  0.00     0.451 C 
ATOM     30  F   UNL     1       3.211   7.525   4.956  1.00  0.00    -0.185 F 
ATOM     31  F   UNL     1       4.307   8.634   3.412  1.00  0.00    -0.185 F 
ENDBRANCH  27  29
ENDBRANCH  13  22
ENDBRANCH   6   8
ENDBRANCH   5   6
ENDBRANCH   4   5
ENDBRANCH   3   4
ENDBRANCH   2   3
ENDBRANCH   1   2
BRANCH   1  32
ATOM     32  C   UNL     1      -1.130   3.094  -5.221  1.00  0.00     0.261 C 
BRANCH  32  33
ATOM     33  O   UNL     1      -1.221   1.771  -5.772  1.00  0.00    -0.460 OA
BRANCH  33  34
ATOM     34  C   UNL     1      -1.252   1.704  -7.125  1.00  0.00     0.338 C 
ATOM     35  O   UNL     1      -1.387   2.640  -7.895  1.00  0.00    -0.246 OA
BRANCH  34  36
ATOM     36  C   UNL     1      -0.999   0.310  -7.571  1.00  0.00     0.060 A 
ATOM     37  C   UNL     1      -0.659   0.111  -8.915  1.00  0.00     0.016 A 
ATOM     38  C   UNL     1      -1.078  -0.789  -6.704  1.00  0.00     0.016 A 
ATOM     39  C   UNL     1      -0.432  -1.177  -9.399  1.00  0.00     0.010 A 
ATOM     40  C   UNL     1      -0.856  -2.081  -7.189  1.00  0.00     0.010 A 
ATOM     41  C   UNL     1      -0.554  -2.280  -8.543  1.00  0.00    -0.014 A 
BRANCH  41  42
ATOM     42  C   UNL     1      -0.478  -3.643  -9.113  1.00  0.00     0.031 A 
ATOM     43  C   UNL     1      -1.715  -4.251  -9.707  1.00  0.00     0.074 A 
ATOM     44  C   UNL     1       0.687  -4.313  -9.136  1.00  0.00     0.049 A 
ATOM     45  N   UNL     1      -1.847  -5.362 -10.381  1.00  0.00    -0.248 NA
ATOM     46  C   UNL     1      -2.968  -3.501  -9.521  1.00  0.00     0.031 C 
ATOM     47  C   UNL     1       1.952  -3.836  -8.579  1.00  0.00     0.029 A 
ATOM     48  N   UNL     1       0.990  -5.542  -9.661  1.00  0.00    -0.354 N 
ATOM     49  C   UNL     1      -3.188  -5.431 -10.731  1.00  0.00     0.074 A 
ATOM     50  C   UNL     1      -3.837  -4.267 -10.164  1.00  0.00     0.031 C 
ATOM     51  C   UNL     1       2.900  -4.766  -8.794  1.00  0.00     0.029 A 
ATOM     52  C   UNL     1       2.308  -5.894  -9.513  1.00  0.00     0.049 A 
ATOM     53  H   UNL     1       0.325  -6.118 -10.103  1.00  0.00     0.167 HD
ATOM     54  C   UNL     1      -3.822  -6.370 -11.471  1.00  0.00     0.037 A 
ATOM     55  C   UNL     1       2.963  -6.995  -9.926  1.00  0.00     0.037 A 
ATOM     56  C   UNL     1      -3.191  -7.539 -12.017  1.00  0.00     0.049 A 
ATOM     57  C   UNL     1       2.231  -8.048 -10.709  1.00  0.00     0.074 A 
ATOM     58  C   UNL     1      -3.742  -8.535 -12.803  1.00  0.00     0.029 A 
ATOM     59  N   UNL     1      -1.861  -7.876 -11.815  1.00  0.00    -0.354 N 
ATOM     60  N   UNL     1       0.978  -8.065 -11.095  1.00  0.00    -0.248 NA
ATOM     61  C   UNL     1       3.006  -9.226 -11.122  1.00  0.00     0.031 C 
ATOM     62  C   UNL     1      -2.746  -9.486 -13.063  1.00  0.00     0.029 A 
ATOM     63  C   UNL     1      -1.576  -9.075 -12.444  1.00  0.00     0.049 A 
ATOM     64  H   UNL     1      -1.215  -7.341 -11.300  1.00  0.00     0.167 HD
ATOM     65  C   UNL     1       0.817  -9.247 -11.807  1.00  0.00     0.074 A 
ATOM     66  C   UNL     1       2.100  -9.921 -11.798  1.00  0.00     0.031 C 
ATOM     67  C   UNL     1      -0.293  -9.728 -12.419  1.00  0.00     0.037 A 
BRANCH  54  68
ATOM     68  C   UNL     1      -5.278  -6.142 -11.729  1.00  0.00     0.058 A 
ATOM     69  C   UNL     1      -5.698  -5.306 -12.775  1.00  0.00     0.135 A 
ATOM     70  C   UNL     1      -6.255  -6.711 -10.901  1.00  0.00     0.135 A 
ATOM     71  F   UNL     1      -4.795  -4.724 -13.579  1.00  0.00    -0.206 F 
ATOM     72  C   UNL     1      -7.044  -5.019 -12.976  1.00  0.00     0.059 A 
ATOM     73  C   UNL     1      -7.607  -6.441 -11.087  1.00  0.00     0.059 A 
ATOM     74  F   UNL     1      -5.897  -7.502  -9.878  1.00  0.00    -0.206 F 
ATOM     75  C   UNL     1      -7.989  -5.577 -12.114  1.00  0.00     0.060 A 
BRANCH  75  76
ATOM     76  S   UNL     1      -9.734  -5.165 -12.333  1.00  0.00     0.124 S 
ATOM     77  O   UNL     1      -9.841  -3.942 -11.543  1.00  0.00    -0.237 OA
ATOM     78  O   UNL     1      -9.850  -4.996 -13.778  1.00  0.00    -0.237 OA
ATOM     79  O   UNL     1     -10.420  -6.331 -11.786  1.00  0.00    -0.744 OA
ENDBRANCH  75  76
ENDBRANCH  54  68
BRANCH  55  80
ATOM     80  C   UNL     1       4.404  -7.148  -9.620  1.00  0.00     0.058 A 
ATOM     81  C   UNL     1       5.381  -6.816 -10.567  1.00  0.00     0.135 A 
ATOM     82  C   UNL     1       4.826  -7.613  -8.367  1.00  0.00     0.135 A 
ATOM     83  F   UNL     1       5.017  -6.370 -11.779  1.00  0.00    -0.206 F 
ATOM     84  C   UNL     1       6.737  -6.942 -10.284  1.00  0.00     0.059 A 
ATOM     85  C   UNL     1       6.175  -7.742  -8.059  1.00  0.00     0.059 A 
ATOM     86  F   UNL     1       3.921  -7.935  -7.430  1.00  0.00    -0.206 F 
ATOM     87  C   UNL     1       7.124  -7.410  -9.027  1.00  0.00     0.060 A 
BRANCH  87  88
ATOM     88  S   UNL     1       8.882  -7.523  -8.624  1.00  0.00     0.124 S 
ATOM     89  O   UNL     1       9.192  -8.882  -9.052  1.00  0.00    -0.237 OA
ATOM     90  O   UNL     1       9.466  -6.453  -9.428  1.00  0.00    -0.237 OA
ATOM     91  O   UNL     1       8.898  -7.290  -7.183  1.00  0.00    -0.744 OA
ENDBRANCH  87  88
ENDBRANCH  55  80
BRANCH  67  92
ATOM     92  C   UNL     1      -0.166 -11.041 -13.128  1.00  0.00     0.058 A 
ATOM     93  C   UNL     1      -0.313 -12.252 -12.435  1.00  0.00     0.135 A 
ATOM     94  C   UNL     1       0.056 -11.091 -14.512  1.00  0.00     0.135 A 
ATOM     95  F   UNL     1      -0.521 -12.251 -11.109  1.00  0.00    -0.206 F 
ATOM     96  C   UNL     1      -0.240 -13.475 -13.093  1.00  0.00     0.059 A 
ATOM     97  C   UNL     1       0.126 -12.303 -15.191  1.00  0.00     0.059 A 
ATOM     98  F   UNL     1       0.200  -9.957 -15.214  1.00  0.00    -0.206 F 
ATOM     99  C   UNL     1      -0.017 -13.490 -14.471  1.00  0.00     0.060 A 
BRANCH  99 100
ATOM    100  S   UNL     1       0.036 -15.071 -15.344  1.00  0.00     0.124 S 
ATOM    101  O   UNL     1       1.454 -15.405 -15.258  1.00  0.00    -0.237 OA
ATOM    102  O   UNL     1      -0.861 -15.910 -14.554  1.00  0.00    -0.237 OA
ATOM    103  O   UNL     1      -0.453 -14.727 -16.676  1.00  0.00    -0.744 OA
ENDBRANCH  99 100
ENDBRANCH  67  92
ENDBRANCH  41  42
ENDBRANCH  34  36
ENDBRANCH  33  34
ENDBRANCH  32  33
ENDBRANCH   1  32
TORSDOF 21
