REMARK SMILES O=C(OCCOCCOC(=O)[C@@H]([NH2+]CC1CC1)c1cccc(C2CC2)c1)c1ccc(-c2c3nc(c(-c4c(F)cc(S(=O)(=O)[O-])cc4F)c4ccc([nH]4)c(-c4c(F)cc(S(=O)(=O)[O-])cc4F)c4nc(c(-c5c(F)cc(S(=O)(=O)[O-])cc5F)c5ccc2[nH]5)C=C4)C=C3)cc1
REMARK SMILES IDX 6 1 5 2 4 3 3 4 2 5 1 6 27 7 28 8 92 9 29 10 91 11 30 12
REMARK SMILES IDX 31 13 32 14 85 15 33 16 90 17 84 18 86 19 34 20 89 21 83 22
REMARK SMILES IDX 82 23 35 25 69 26 48 27 68 28 49 29 52 30 67 31 87 32 50 33
REMARK SMILES IDX 51 34 66 36 88 37 53 38 36 39 37 40 46 41 38 42 39 43 45 44
REMARK SMILES IDX 47 45 40 46 41 47 42 48 43 49 44 50 70 51 71 52 80 53 72 54
REMARK SMILES IDX 73 55 79 56 81 57 74 58 75 59 76 60 77 61 78 62 54 63 55 64
REMARK SMILES IDX 64 65 56 66 57 67 63 68 65 69 58 70 59 71 60 72 61 73 62 74
REMARK SMILES IDX 7 75 8 76 9 77 10 78 11 79 12 80 13 81 14 84 15 85 16 86
REMARK SMILES IDX 17 87 18 88 19 89 26 90 20 91 22 92 21 93 23 94 24 95 25 96
REMARK H PARENT 86 24 52 35 13 82 13 83
REMARK Flexibility Score: inf
ROOT
ATOM      1  O   UNL     1       4.179   1.054   0.610  1.00  0.00    -0.374 OA
ENDROOT
BRANCH   1   2
ATOM      2  C   UNL     1       4.389   1.101  -0.802  1.00  0.00     0.202 C 
BRANCH   2   3
ATOM      3  C   UNL     1       4.082  -0.205  -1.546  1.00  0.00     0.261 C 
BRANCH   3   4
ATOM      4  O   UNL     1       2.706  -0.593  -1.361  1.00  0.00    -0.460 OA
BRANCH   4   5
ATOM      5  C   UNL     1       2.182  -1.501  -0.502  1.00  0.00     0.338 C 
ATOM      6  O   UNL     1       0.975  -1.733  -0.560  1.00  0.00    -0.246 OA
BRANCH   5   7
ATOM      7  C   UNL     1       2.986  -2.229   0.527  1.00  0.00     0.060 A 
ATOM      8  C   UNL     1       4.232  -1.815   0.983  1.00  0.00     0.016 A 
ATOM      9  C   UNL     1       2.423  -3.372   1.126  1.00  0.00     0.016 A 
ATOM     10  C   UNL     1       4.922  -2.495   1.958  1.00  0.00     0.010 A 
ATOM     11  C   UNL     1       3.107  -4.072   2.130  1.00  0.00     0.010 A 
ATOM     12  C   UNL     1       4.367  -3.627   2.536  1.00  0.00    -0.014 A 
BRANCH  12  13
ATOM     13  C   UNL     1       5.272  -4.346   3.440  1.00  0.00     0.031 A 
ATOM     14  C   UNL     1       6.073  -5.470   2.861  1.00  0.00     0.074 A 
ATOM     15  C   UNL     1       5.589  -3.764   4.612  1.00  0.00     0.049 A 
ATOM     16  N   UNL     1       7.022  -6.172   3.410  1.00  0.00    -0.248 NA
ATOM     17  C   UNL     1       5.798  -5.820   1.454  1.00  0.00     0.031 C 
ATOM     18  C   UNL     1       4.982  -2.529   5.127  1.00  0.00     0.029 A 
ATOM     19  N   UNL     1       6.550  -4.068   5.535  1.00  0.00    -0.354 N 
ATOM     20  C   UNL     1       7.447  -7.056   2.427  1.00  0.00     0.074 A 
ATOM     21  C   UNL     1       6.663  -6.800   1.242  1.00  0.00     0.031 C 
ATOM     22  C   UNL     1       5.615  -2.163   6.252  1.00  0.00     0.029 A 
ATOM     23  C   UNL     1       6.613  -3.173   6.577  1.00  0.00     0.049 A 
ATOM     24  H   UNL     1       7.141  -4.852   5.460  1.00  0.00     0.167 HD
ATOM     25  C   UNL     1       8.404  -8.005   2.526  1.00  0.00     0.037 A 
ATOM     26  C   UNL     1       7.373  -3.202   7.688  1.00  0.00     0.037 A 
ATOM     27  C   UNL     1       9.147  -8.230   3.735  1.00  0.00     0.049 A 
ATOM     28  C   UNL     1       8.337  -4.349   7.827  1.00  0.00     0.074 A 
ATOM     29  C   UNL     1      10.022  -9.253   4.041  1.00  0.00     0.029 A 
ATOM     30  N   UNL     1       9.095  -7.394   4.845  1.00  0.00    -0.354 N 
ATOM     31  N   UNL     1       8.623  -5.291   6.956  1.00  0.00    -0.248 NA
ATOM     32  C   UNL     1       9.059  -4.462   9.098  1.00  0.00     0.031 C 
ATOM     33  C   UNL     1      10.476  -9.051   5.350  1.00  0.00     0.029 A 
ATOM     34  C   UNL     1       9.917  -7.879   5.843  1.00  0.00     0.049 A 
ATOM     35  H   UNL     1       8.552  -6.575   4.910  1.00  0.00     0.167 HD
ATOM     36  C   UNL     1       9.551  -6.115   7.576  1.00  0.00     0.074 A 
ATOM     37  C   UNL     1       9.807  -5.534   8.882  1.00  0.00     0.031 C 
ATOM     38  C   UNL     1      10.130  -7.257   7.126  1.00  0.00     0.037 A 
BRANCH  25  39
ATOM     39  C   UNL     1       8.602  -8.899   1.339  1.00  0.00     0.058 A 
ATOM     40  C   UNL     1       9.272  -8.469   0.184  1.00  0.00     0.135 A 
ATOM     41  C   UNL     1       8.058 -10.194   1.337  1.00  0.00     0.135 A 
ATOM     42  F   UNL     1       9.772  -7.224   0.116  1.00  0.00    -0.206 F 
ATOM     43  C   UNL     1       9.382  -9.285  -0.939  1.00  0.00     0.059 A 
ATOM     44  C   UNL     1       8.170 -11.033   0.233  1.00  0.00     0.059 A 
ATOM     45  F   UNL     1       7.385 -10.645   2.408  1.00  0.00    -0.206 F 
ATOM     46  C   UNL     1       8.822 -10.564  -0.907  1.00  0.00     0.060 A 
BRANCH  46  47
ATOM     47  S   UNL     1       8.948 -11.604  -2.377  1.00  0.00     0.124 S 
ATOM     48  O   UNL     1       7.994 -10.959  -3.274  1.00  0.00    -0.237 OA
ATOM     49  O   UNL     1      10.354 -11.462  -2.740  1.00  0.00    -0.237 OA
ATOM     50  O   UNL     1       8.559 -12.925  -1.894  1.00  0.00    -0.744 OA
ENDBRANCH  46  47
ENDBRANCH  25  39
BRANCH  26  51
ATOM     51  C   UNL     1       7.172  -2.203   8.774  1.00  0.00     0.058 A 
ATOM     52  C   UNL     1       8.189  -1.330   9.187  1.00  0.00     0.135 A 
ATOM     53  C   UNL     1       5.941  -2.126   9.452  1.00  0.00     0.135 A 
ATOM     54  F   UNL     1       9.387  -1.362   8.582  1.00  0.00    -0.206 F 
ATOM     55  C   UNL     1       8.005  -0.439  10.243  1.00  0.00     0.059 A 
ATOM     56  C   UNL     1       5.723  -1.223  10.487  1.00  0.00     0.059 A 
ATOM     57  F   UNL     1       4.926  -2.930   9.100  1.00  0.00    -0.206 F 
ATOM     58  C   UNL     1       6.768  -0.398  10.891  1.00  0.00     0.060 A 
BRANCH  58  59
ATOM     59  S   UNL     1       6.527   0.754  12.261  1.00  0.00     0.124 S 
ATOM     60  O   UNL     1       7.231   0.074  13.341  1.00  0.00    -0.237 OA
ATOM     61  O   UNL     1       7.152   1.973  11.758  1.00  0.00    -0.237 OA
ATOM     62  O   UNL     1       5.074   0.815  12.395  1.00  0.00    -0.744 OA
ENDBRANCH  58  59
ENDBRANCH  26  51
BRANCH  38  63
ATOM     63  C   UNL     1      11.091  -7.927   8.058  1.00  0.00     0.058 A 
ATOM     64  C   UNL     1      10.639  -8.649   9.173  1.00  0.00     0.135 A 
ATOM     65  C   UNL     1      12.470  -7.878   7.810  1.00  0.00     0.135 A 
ATOM     66  F   UNL     1       9.327  -8.716   9.450  1.00  0.00    -0.206 F 
ATOM     67  C   UNL     1      11.530  -9.279  10.031  1.00  0.00     0.059 A 
ATOM     68  C   UNL     1      13.377  -8.522   8.641  1.00  0.00     0.059 A 
ATOM     69  F   UNL     1      12.943  -7.207   6.747  1.00  0.00    -0.206 F 
ATOM     70  C   UNL     1      12.897  -9.208   9.757  1.00  0.00     0.060 A 
BRANCH  70  71
ATOM     71  S   UNL     1      14.046 -10.050  10.863  1.00  0.00     0.124 S 
ATOM     72  O   UNL     1      14.101  -9.123  11.988  1.00  0.00    -0.237 OA
ATOM     73  O   UNL     1      13.368 -11.317  11.117  1.00  0.00    -0.237 OA
ATOM     74  O   UNL     1      15.267 -10.149  10.068  1.00  0.00    -0.744 OA
ENDBRANCH  70  71
ENDBRANCH  38  63
ENDBRANCH  12  13
ENDBRANCH   5   7
ENDBRANCH   4   5
ENDBRANCH   3   4
ENDBRANCH   2   3
ENDBRANCH   1   2
BRANCH   1  75
ATOM     75  C   UNL     1       2.858   1.383   1.047  1.00  0.00     0.202 C 
BRANCH  75  76
ATOM     76  C   UNL     1       2.845   2.790   1.613  1.00  0.00     0.261 C 
BRANCH  76  77
ATOM     77  O   UNL     1       3.261   3.690   0.578  1.00  0.00    -0.459 OA
BRANCH  77  78
ATOM     78  C   UNL     1       4.556   4.131   0.635  1.00  0.00     0.369 C 
ATOM     79  O   UNL     1       5.383   3.796   1.477  1.00  0.00    -0.245 OA
BRANCH  78  80
ATOM     80  C   UNL     1       4.823   5.192  -0.466  1.00  0.00     0.324 C 
BRANCH  80  81
ATOM     81  N   UNL     1       4.249   4.742  -1.757  1.00  0.00    -0.330 N 
ATOM     82  H   UNL     1       3.295   5.097  -1.819  1.00  0.00     0.347 HD
ATOM     83  H   UNL     1       4.307   3.724  -1.752  1.00  0.00     0.347 HD
BRANCH  81  84
ATOM     84  C   UNL     1       4.969   5.180  -2.944  1.00  0.00     0.264 C 
BRANCH  84  85
ATOM     85  C   UNL     1       6.379   4.659  -3.026  1.00  0.00     0.044 C 
ATOM     86  C   UNL     1       6.961   4.146  -4.322  1.00  0.00     0.010 C 
ATOM     87  C   UNL     1       7.389   5.481  -3.790  1.00  0.00     0.010 C 
ENDBRANCH  84  85
ENDBRANCH  81  84
ENDBRANCH  80  81
BRANCH  80  88
ATOM     88  C   UNL     1       4.334   6.561  -0.016  1.00  0.00     0.021 A 
ATOM     89  C   UNL     1       4.991   7.723  -0.423  1.00  0.00     0.010 A 
ATOM     90  C   UNL     1       3.300   6.682   0.930  1.00  0.00     0.014 A 
ATOM     91  C   UNL     1       4.660   8.946   0.158  1.00  0.00     0.001 A 
ATOM     92  C   UNL     1       3.021   7.867   1.616  1.00  0.00    -0.044 A 
ATOM     93  C   UNL     1       3.710   9.008   1.185  1.00  0.00     0.004 A 
BRANCH  92  94
ATOM     94  C   UNL     1       2.110   7.892   2.831  1.00  0.00     0.019 C 
ATOM     95  C   UNL     1       1.407   6.673   3.392  1.00  0.00     0.009 C 
ATOM     96  C   UNL     1       2.624   7.204   4.084  1.00  0.00     0.009 C 
ENDBRANCH  92  94
ENDBRANCH  80  88
ENDBRANCH  78  80
ENDBRANCH  77  78
ENDBRANCH  76  77
ENDBRANCH  75  76
ENDBRANCH   1  75
TORSDOF 22
