REMARK SMILES CSc1ccc(/C=C2\C(C)=C(CC(=O)OCCOCCOC(=O)c3ccc(-c4c5nc(c(-c6c(F)cc(S(=O)(=O)[O-])cc6F)c6ccc([nH]6)c(-c6c(F)cc(S(=O)(=O)[O-])cc6F)c6nc(c(-c7c(F)cc(S(=O)(=O)[O-])cc7F)c7ccc4[nH]7)C=C6)C=C5)cc3)c3cc(F)ccc32)cc1
REMARK SMILES IDX 18 1 17 2 16 3 15 4 13 5 14 6 12 7 11 8 7 9 8 10 9 11 96 12
REMARK SMILES IDX 10 13 90 14 95 15 91 16 94 17 92 18 93 19 6 20 3 21 4 22
REMARK SMILES IDX 98 23 5 24 97 25 2 26 1 27 19 28 20 29 21 30 22 31 23 32
REMARK SMILES IDX 24 33 25 34 89 35 26 36 88 37 27 38 28 39 29 40 82 41 30 42
REMARK SMILES IDX 87 43 81 44 83 45 31 46 86 47 80 48 79 49 32 51 66 52 45 53
REMARK SMILES IDX 65 54 46 55 49 56 64 57 84 58 47 59 48 60 63 62 85 63 50 64
REMARK SMILES IDX 33 65 34 66 43 67 35 68 36 69 42 70 44 71 37 72 38 73 39 74
REMARK SMILES IDX 40 75 41 76 67 77 68 78 77 79 69 80 70 81 76 82 78 83 71 84
REMARK SMILES IDX 72 85 73 86 74 87 75 88 51 89 52 90 61 91 53 92 54 93 60 94
REMARK SMILES IDX 62 95 55 96 56 97 57 98 58 99 59 100
REMARK H PARENT 83 50 49 61
REMARK Flexibility Score: inf
ROOT
ATOM      1  O   UNL     1      -1.467 -10.427   6.872  1.00  0.00    -0.374 OA
ENDROOT
BRANCH   1   2
ATOM      2  C   UNL     1      -2.407  -9.539   7.478  1.00  0.00     0.202 C 
BRANCH   2   3
ATOM      3  C   UNL     1      -1.828  -8.247   8.062  1.00  0.00     0.261 C 
BRANCH   3   4
ATOM      4  O   UNL     1      -1.172  -7.426   7.080  1.00  0.00    -0.463 OA
BRANCH   4   5
ATOM      5  C   UNL     1       0.165  -7.285   7.252  1.00  0.00     0.310 C 
ATOM      6  O   UNL     1       0.815  -7.800   8.160  1.00  0.00    -0.252 OA
BRANCH   5   7
ATOM      7  C   UNL     1       0.833  -6.373   6.246  1.00  0.00     0.159 C 
BRANCH   7   8
ATOM      8  C   UNL     1       0.180  -6.101   4.880  1.00  0.00    -0.025 C 
ATOM      9  C   UNL     1       2.228  -3.364   4.220  1.00  0.00     0.017 C 
ATOM     10  C   UNL     1       1.501  -4.480   4.074  1.00  0.00    -0.014 C 
ATOM     11  C   UNL     1       0.105  -4.796   4.483  1.00  0.00    -0.039 C 
ATOM     12  C   UNL     1       1.967  -5.702   3.385  1.00  0.00    -0.010 A 
ATOM     13  C   UNL     1      -0.906  -4.422   3.395  1.00  0.00     0.045 C 
ATOM     14  C   UNL     1       1.001  -6.659   3.754  1.00  0.00    -0.011 A 
ATOM     15  C   UNL     1       2.705  -5.806   2.213  1.00  0.00     0.012 A 
ATOM     16  C   UNL     1       0.659  -7.666   2.869  1.00  0.00     0.048 A 
ATOM     17  C   UNL     1       2.390  -6.855   1.347  1.00  0.00     0.040 A 
ATOM     18  C   UNL     1       1.357  -7.747   1.665  1.00  0.00     0.123 A 
ATOM     19  F   UNL     1       0.961  -8.636   0.744  1.00  0.00    -0.207 F 
BRANCH   9  20
ATOM     20  C   UNL     1       1.780  -1.977   4.487  1.00  0.00    -0.025 A 
ATOM     21  C   UNL     1       1.170   0.467   3.329  1.00  0.00     0.007 A 
ATOM     22  C   UNL     1       0.142  -0.399   3.684  1.00  0.00     0.015 A 
ATOM     23  C   UNL     1       2.458   0.243   3.814  1.00  0.00     0.015 A 
ATOM     24  C   UNL     1       0.448  -1.597   4.321  1.00  0.00     0.009 A 
ATOM     25  C   UNL     1       2.764  -0.984   4.402  1.00  0.00     0.009 A 
BRANCH  21  26
ATOM     26  S   UNL     1       0.902   1.661   2.034  1.00  0.00    -0.130 SA
ATOM     27  C   UNL     1       1.086   0.506   0.631  1.00  0.00     0.091 C 
ENDBRANCH  21  26
ENDBRANCH   9  20
ENDBRANCH   7   8
ENDBRANCH   5   7
ENDBRANCH   4   5
ENDBRANCH   3   4
ENDBRANCH   2   3
ENDBRANCH   1   2
BRANCH   1  28
ATOM     28  C   UNL     1      -0.973 -10.077   5.575  1.00  0.00     0.202 C 
BRANCH  28  29
ATOM     29  C   UNL     1      -2.049  -9.799   4.523  1.00  0.00     0.261 C 
BRANCH  29  30
ATOM     30  O   UNL     1      -2.622  -8.498   4.755  1.00  0.00    -0.460 OA
BRANCH  30  31
ATOM     31  C   UNL     1      -3.680  -8.205   3.981  1.00  0.00     0.338 C 
ATOM     32  O   UNL     1      -4.024  -8.795   2.953  1.00  0.00    -0.246 OA
BRANCH  31  33
ATOM     33  C   UNL     1      -4.481  -7.154   4.622  1.00  0.00     0.060 A 
ATOM     34  C   UNL     1      -5.366  -7.518   5.644  1.00  0.00     0.016 A 
ATOM     35  C   UNL     1      -4.460  -5.844   4.141  1.00  0.00     0.016 A 
ATOM     36  C   UNL     1      -6.268  -6.579   6.150  1.00  0.00     0.010 A 
ATOM     37  C   UNL     1      -5.350  -4.898   4.669  1.00  0.00     0.010 A 
ATOM     38  C   UNL     1      -6.290  -5.269   5.647  1.00  0.00    -0.014 A 
BRANCH  38  39
ATOM     39  C   UNL     1      -7.371  -4.335   6.072  1.00  0.00     0.031 A 
ATOM     40  C   UNL     1      -8.518  -4.039   5.138  1.00  0.00     0.074 A 
ATOM     41  C   UNL     1      -7.363  -3.790   7.304  1.00  0.00     0.049 A 
ATOM     42  N   UNL     1      -9.574  -3.289   5.336  1.00  0.00    -0.248 NA
ATOM     43  C   UNL     1      -8.472  -4.669   3.810  1.00  0.00     0.031 C 
ATOM     44  C   UNL     1      -6.325  -4.000   8.312  1.00  0.00     0.029 A 
ATOM     45  N   UNL     1      -8.260  -2.949   7.916  1.00  0.00    -0.354 N 
ATOM     46  C   UNL     1     -10.317  -3.358   4.162  1.00  0.00     0.074 A 
ATOM     47  C   UNL     1      -9.573  -4.194   3.244  1.00  0.00     0.031 C 
ATOM     48  C   UNL     1      -6.647  -3.310   9.420  1.00  0.00     0.029 A 
ATOM     49  C   UNL     1      -7.898  -2.589   9.193  1.00  0.00     0.049 A 
ATOM     50  H   UNL     1      -9.085  -2.633   7.481  1.00  0.00     0.167 HD
ATOM     51  C   UNL     1     -11.515  -2.791   3.878  1.00  0.00     0.037 A 
ATOM     52  C   UNL     1      -8.498  -1.765  10.077  1.00  0.00     0.037 A 
ATOM     53  C   UNL     1     -12.266  -1.965   4.789  1.00  0.00     0.049 A 
ATOM     54  C   UNL     1      -9.805  -1.106   9.719  1.00  0.00     0.074 A 
ATOM     55  C   UNL     1     -13.506  -1.379   4.594  1.00  0.00     0.029 A 
ATOM     56  N   UNL     1     -11.849  -1.598   6.059  1.00  0.00    -0.354 N 
ATOM     57  N   UNL     1     -10.513  -1.219   8.621  1.00  0.00    -0.248 NA
ATOM     58  C   UNL     1     -10.398  -0.212  10.725  1.00  0.00     0.031 C 
ATOM     59  C   UNL     1     -13.816  -0.619   5.728  1.00  0.00     0.029 A 
ATOM     60  C   UNL     1     -12.793  -0.772   6.649  1.00  0.00     0.049 A 
ATOM     61  H   UNL     1     -11.006  -1.883   6.480  1.00  0.00     0.167 HD
ATOM     62  C   UNL     1     -11.644  -0.430   8.814  1.00  0.00     0.074 A 
ATOM     63  C   UNL     1     -11.533   0.144  10.138  1.00  0.00     0.031 C 
ATOM     64  C   UNL     1     -12.680  -0.203   7.968  1.00  0.00     0.037 A 
BRANCH  51  65
ATOM     65  C   UNL     1     -12.096  -3.035   2.511  1.00  0.00     0.058 A 
ATOM     66  C   UNL     1     -12.641  -4.278   2.153  1.00  0.00     0.135 A 
ATOM     67  C   UNL     1     -12.161  -1.996   1.569  1.00  0.00     0.135 A 
ATOM     68  F   UNL     1     -12.595  -5.310   3.012  1.00  0.00    -0.206 F 
ATOM     69  C   UNL     1     -13.210  -4.489   0.901  1.00  0.00     0.059 A 
ATOM     70  C   UNL     1     -12.747  -2.177   0.320  1.00  0.00     0.059 A 
ATOM     71  F   UNL     1     -11.656  -0.787   1.861  1.00  0.00    -0.206 F 
ATOM     72  C   UNL     1     -13.258  -3.432  -0.009  1.00  0.00     0.060 A 
BRANCH  72  73
ATOM     73  S   UNL     1     -14.010  -3.717  -1.626  1.00  0.00     0.124 S 
ATOM     74  O   UNL     1     -12.988  -4.528  -2.282  1.00  0.00    -0.237 OA
ATOM     75  O   UNL     1     -15.244  -4.413  -1.279  1.00  0.00    -0.237 OA
ATOM     76  O   UNL     1     -14.182  -2.372  -2.164  1.00  0.00    -0.744 OA
ENDBRANCH  72  73
ENDBRANCH  51  65
BRANCH  52  77
ATOM     77  C   UNL     1      -7.863  -1.507  11.397  1.00  0.00     0.058 A 
ATOM     78  C   UNL     1      -8.426  -1.998  12.584  1.00  0.00     0.135 A 
ATOM     79  C   UNL     1      -6.681  -0.756  11.495  1.00  0.00     0.135 A 
ATOM     80  F   UNL     1      -9.563  -2.710  12.542  1.00  0.00    -0.206 F 
ATOM     81  C   UNL     1      -7.849  -1.743  13.823  1.00  0.00     0.059 A 
ATOM     82  C   UNL     1      -6.071  -0.510  12.720  1.00  0.00     0.059 A 
ATOM     83  F   UNL     1      -6.098  -0.272  10.387  1.00  0.00    -0.206 F 
ATOM     84  C   UNL     1      -6.669  -0.999  13.881  1.00  0.00     0.060 A 
BRANCH  84  85
ATOM     85  S   UNL     1      -5.899  -0.715  15.489  1.00  0.00     0.124 S 
ATOM     86  O   UNL     1      -6.778   0.297  16.061  1.00  0.00    -0.237 OA
ATOM     87  O   UNL     1      -5.967  -2.039  16.100  1.00  0.00    -0.237 OA
ATOM     88  O   UNL     1      -4.555  -0.263  15.141  1.00  0.00    -0.744 OA
ENDBRANCH  84  85
ENDBRANCH  52  77
BRANCH  64  89
ATOM     89  C   UNL     1     -13.795   0.684   8.454  1.00  0.00     0.058 A 
ATOM     90  C   UNL     1     -13.632   2.073   8.577  1.00  0.00     0.135 A 
ATOM     91  C   UNL     1     -15.055   0.144   8.759  1.00  0.00     0.135 A 
ATOM     92  F   UNL     1     -12.447   2.641   8.304  1.00  0.00    -0.206 F 
ATOM     93  C   UNL     1     -14.671   2.892   9.011  1.00  0.00     0.059 A 
ATOM     94  C   UNL     1     -16.116   0.948   9.169  1.00  0.00     0.059 A 
ATOM     95  F   UNL     1     -15.270  -1.176   8.647  1.00  0.00    -0.206 F 
ATOM     96  C   UNL     1     -15.910   2.320   9.305  1.00  0.00     0.060 A 
BRANCH  96  97
ATOM     97  S   UNL     1     -17.258   3.395   9.843  1.00  0.00     0.124 S 
ATOM     98  O   UNL     1     -16.866   3.692  11.217  1.00  0.00    -0.237 OA
ATOM     99  O   UNL     1     -17.166   4.508   8.903  1.00  0.00    -0.237 OA
ATOM    100  O   UNL     1     -18.442   2.555   9.696  1.00  0.00    -0.744 OA
ENDBRANCH  96  97
ENDBRANCH  64  89
ENDBRANCH  38  39
ENDBRANCH  31  33
ENDBRANCH  30  31
ENDBRANCH  29  30
ENDBRANCH  28  29
ENDBRANCH   1  28
TORSDOF 20
