REMARK SMILES CS(=O)(=O)c1ccc(/C=C(/C(=O)OCCOCCOC(=O)c2ccc(-c3c4nc(c(-c5c(F)cc(S(=O)(=O)[O-])cc5F)c5ccc([nH]5)c(-c5c(F)cc(S(=O)(=O)[O-])cc5F)c5nc(c(-c6c(F)cc(S(=O)(=O)[O-])cc6F)c6ccc3[nH]6)C=C5)C=C4)cc2)c2cccc(-c3ccc(S(C)(=O)=O)cc3)c2)cc1
REMARK SMILES IDX 16 1 15 2 14 3 13 4 11 5 12 6 10 7 9 8 8 9 5 10 6 11 105 12
REMARK SMILES IDX 7 13 104 14 2 15 1 16 3 17 4 18 88 19 89 20 103 21 90 22
REMARK SMILES IDX 92 23 91 24 93 25 94 26 102 27 95 28 101 29 96 30 97 31
REMARK SMILES IDX 98 32 99 33 100 34 17 35 18 36 19 37 20 38 21 39 22 40 23 41
REMARK SMILES IDX 87 42 24 43 86 44 25 45 26 46 27 47 80 48 28 49 85 50 79 51
REMARK SMILES IDX 81 52 29 53 84 54 78 55 77 56 30 58 64 59 43 60 63 61 44 62
REMARK SMILES IDX 47 63 62 64 82 65 45 66 46 67 61 69 83 70 48 71 31 72 32 73
REMARK SMILES IDX 41 74 33 75 34 76 40 77 42 78 35 79 36 80 37 81 38 82 39 83
REMARK SMILES IDX 65 84 66 85 75 86 67 87 68 88 74 89 76 90 69 91 70 92 71 93
REMARK SMILES IDX 72 94 73 95 49 96 50 97 59 98 51 99 52 100 58 101 60 102
REMARK SMILES IDX 53 103 54 104 55 105 56 106 57 107
REMARK H PARENT 81 57 47 68
REMARK Flexibility Score: inf
ROOT
ATOM      1  O   UNL     1       3.788  -7.717  -8.816  1.00  0.00    -0.374 OA
ENDROOT
BRANCH   1   2
ATOM      2  C   UNL     1       3.684  -6.556  -9.638  1.00  0.00     0.202 C 
BRANCH   2   3
ATOM      3  C   UNL     1       2.495  -5.614  -9.424  1.00  0.00     0.261 C 
BRANCH   3   4
ATOM      4  O   UNL     1       2.462  -5.086  -8.088  1.00  0.00    -0.460 OA
BRANCH   4   5
ATOM      5  C   UNL     1       1.366  -5.454  -7.377  1.00  0.00     0.338 C 
ATOM      6  O   UNL     1       0.387  -6.034  -7.827  1.00  0.00    -0.246 OA
BRANCH   5   7
ATOM      7  C   UNL     1       1.528  -5.200  -5.910  1.00  0.00     0.067 C 
ATOM      8  C   UNL     1       2.104  -4.056  -5.467  1.00  0.00     0.024 C 
BRANCH   8   9
ATOM      9  C   UNL     1       2.020  -3.478  -4.097  1.00  0.00    -0.025 A 
ATOM     10  C   UNL     1       1.234  -2.295  -1.669  1.00  0.00     0.067 A 
ATOM     11  C   UNL     1       1.508  -3.661  -1.722  1.00  0.00     0.021 A 
ATOM     12  C   UNL     1       1.477  -1.490  -2.781  1.00  0.00     0.021 A 
ATOM     13  C   UNL     1       1.940  -4.237  -2.921  1.00  0.00     0.009 A 
ATOM     14  C   UNL     1       1.870  -2.085  -3.988  1.00  0.00     0.009 A 
BRANCH  10  15
ATOM     15  S   UNL     1       0.490  -1.643  -0.193  1.00  0.00     0.175 S 
ATOM     16  C   UNL     1       1.092   0.008   0.000  1.00  0.00     0.163 C 
ATOM     17  O   UNL     1       1.010  -2.417   0.921  1.00  0.00    -0.224 OA
ATOM     18  O   UNL     1      -0.935  -1.574  -0.449  1.00  0.00    -0.224 OA
ENDBRANCH  10  15
ENDBRANCH   8   9
BRANCH   7  19
ATOM     19  C   UNL     1       0.864  -6.182  -5.033  1.00  0.00    -0.010 A 
ATOM     20  C   UNL     1       1.455  -7.420  -4.748  1.00  0.00     0.009 A 
ATOM     21  C   UNL     1      -0.357  -5.859  -4.446  1.00  0.00     0.017 A 
ATOM     22  C   UNL     1       0.832  -8.316  -3.883  1.00  0.00     0.001 A 
ATOM     23  C   UNL     1      -0.974  -6.724  -3.533  1.00  0.00    -0.018 A 
ATOM     24  C   UNL     1      -0.372  -7.965  -3.273  1.00  0.00     0.009 A 
BRANCH  23  25
ATOM     25  C   UNL     1      -2.175  -6.271  -2.826  1.00  0.00    -0.018 A 
ATOM     26  C   UNL     1      -2.250  -6.348  -1.425  1.00  0.00     0.010 A 
ATOM     27  C   UNL     1      -3.229  -5.654  -3.525  1.00  0.00     0.010 A 
ATOM     28  C   UNL     1      -3.342  -5.820  -0.740  1.00  0.00     0.021 A 
ATOM     29  C   UNL     1      -4.324  -5.122  -2.849  1.00  0.00     0.021 A 
ATOM     30  C   UNL     1      -4.376  -5.219  -1.460  1.00  0.00     0.067 A 
BRANCH  30  31
ATOM     31  S   UNL     1      -5.786  -4.601  -0.585  1.00  0.00     0.175 S 
ATOM     32  C   UNL     1      -6.563  -6.090  -0.014  1.00  0.00     0.163 C 
ATOM     33  O   UNL     1      -5.305  -3.872   0.572  1.00  0.00    -0.224 OA
ATOM     34  O   UNL     1      -6.682  -3.985  -1.545  1.00  0.00    -0.224 OA
ENDBRANCH  30  31
ENDBRANCH  23  25
ENDBRANCH   7  19
ENDBRANCH   5   7
ENDBRANCH   4   5
ENDBRANCH   3   4
ENDBRANCH   2   3
ENDBRANCH   1   2
BRANCH   1  35
ATOM     35  C   UNL     1       4.091  -7.540  -7.436  1.00  0.00     0.202 C 
BRANCH  35  36
ATOM     36  C   UNL     1       5.510  -7.132  -7.023  1.00  0.00     0.261 C 
BRANCH  36  37
ATOM     37  O   UNL     1       5.939  -5.894  -7.603  1.00  0.00    -0.460 OA
BRANCH  37  38
ATOM     38  C   UNL     1       6.809  -6.035  -8.631  1.00  0.00     0.338 C 
ATOM     39  O   UNL     1       7.269  -7.080  -9.075  1.00  0.00    -0.246 OA
BRANCH  38  40
ATOM     40  C   UNL     1       6.992  -4.735  -9.293  1.00  0.00     0.060 A 
ATOM     41  C   UNL     1       6.723  -4.650 -10.666  1.00  0.00     0.016 A 
ATOM     42  C   UNL     1       7.476  -3.634  -8.587  1.00  0.00     0.016 A 
ATOM     43  C   UNL     1       6.977  -3.467 -11.353  1.00  0.00     0.010 A 
ATOM     44  C   UNL     1       7.746  -2.455  -9.280  1.00  0.00     0.010 A 
ATOM     45  C   UNL     1       7.531  -2.380 -10.669  1.00  0.00    -0.014 A 
BRANCH  45  46
ATOM     46  C   UNL     1       8.071  -1.224 -11.418  1.00  0.00     0.031 A 
ATOM     47  C   UNL     1       9.556  -1.154 -11.636  1.00  0.00     0.074 A 
ATOM     48  C   UNL     1       7.262  -0.249 -11.866  1.00  0.00     0.049 A 
ATOM     49  N   UNL     1      10.280  -0.174 -12.107  1.00  0.00    -0.248 NA
ATOM     50  C   UNL     1      10.330  -2.349 -11.257  1.00  0.00     0.031 C 
ATOM     51  C   UNL     1       5.804  -0.243 -11.758  1.00  0.00     0.029 A 
ATOM     52  N   UNL     1       7.561   0.941 -12.479  1.00  0.00    -0.354 N 
ATOM     53  C   UNL     1      11.595  -0.623 -12.058  1.00  0.00     0.074 A 
ATOM     54  C   UNL     1      11.572  -1.954 -11.493  1.00  0.00     0.031 C 
ATOM     55  C   UNL     1       5.336   0.911 -12.263  1.00  0.00     0.029 A 
ATOM     56  C   UNL     1       6.464   1.741 -12.686  1.00  0.00     0.049 A 
ATOM     57  H   UNL     1       8.474   1.196 -12.745  1.00  0.00     0.167 HD
ATOM     58  C   UNL     1      12.718   0.022 -12.452  1.00  0.00     0.037 A 
ATOM     59  C   UNL     1       6.387   3.012 -13.128  1.00  0.00     0.037 A 
ATOM     60  C   UNL     1      12.722   1.345 -13.016  1.00  0.00     0.049 A 
ATOM     61  C   UNL     1       7.656   3.736 -13.499  1.00  0.00     0.074 A 
ATOM     62  C   UNL     1      13.800   2.089 -13.458  1.00  0.00     0.029 A 
ATOM     63  N   UNL     1      11.589   2.123 -13.213  1.00  0.00    -0.354 N 
ATOM     64  N   UNL     1       8.896   3.307 -13.449  1.00  0.00    -0.248 NA
ATOM     65  C   UNL     1       7.519   5.116 -13.986  1.00  0.00     0.031 C 
ATOM     66  C   UNL     1      13.327   3.337 -13.874  1.00  0.00     0.029 A 
ATOM     67  C   UNL     1      11.946   3.347 -13.753  1.00  0.00     0.049 A 
ATOM     68  H   UNL     1      10.669   1.846 -13.000  1.00  0.00     0.167 HD
ATOM     69  C   UNL     1       9.680   4.347 -13.940  1.00  0.00     0.074 A 
ATOM     70  C   UNL     1       8.776   5.428 -14.274  1.00  0.00     0.031 C 
ATOM     71  C   UNL     1      11.025   4.399 -14.106  1.00  0.00     0.037 A 
BRANCH  58  72
ATOM     72  C   UNL     1      14.033  -0.679 -12.252  1.00  0.00     0.058 A 
ATOM     73  C   UNL     1      14.401  -1.799 -13.015  1.00  0.00     0.135 A 
ATOM     74  C   UNL     1      14.951  -0.206 -11.301  1.00  0.00     0.135 A 
ATOM     75  F   UNL     1      13.553  -2.307 -13.924  1.00  0.00    -0.206 F 
ATOM     76  C   UNL     1      15.621  -2.439 -12.825  1.00  0.00     0.059 A 
ATOM     77  C   UNL     1      16.189  -0.812 -11.114  1.00  0.00     0.059 A 
ATOM     78  F   UNL     1      14.648   0.857 -10.540  1.00  0.00    -0.206 F 
ATOM     79  C   UNL     1      16.510  -1.937 -11.872  1.00  0.00     0.060 A 
BRANCH  79  80
ATOM     80  S   UNL     1      18.091  -2.776 -11.641  1.00  0.00     0.124 S 
ATOM     81  O   UNL     1      17.674  -4.006 -10.975  1.00  0.00    -0.237 OA
ATOM     82  O   UNL     1      18.566  -2.927 -13.012  1.00  0.00    -0.237 OA
ATOM     83  O   UNL     1      18.853  -1.844 -10.815  1.00  0.00    -0.744 OA
ENDBRANCH  79  80
ENDBRANCH  58  72
BRANCH  59  84
ATOM     84  C   UNL     1       5.065   3.685 -13.229  1.00  0.00     0.058 A 
ATOM     85  C   UNL     1       4.511   4.006 -14.477  1.00  0.00     0.135 A 
ATOM     86  C   UNL     1       4.327   4.017 -12.082  1.00  0.00     0.135 A 
ATOM     87  F   UNL     1       5.181   3.718 -15.602  1.00  0.00    -0.206 F 
ATOM     88  C   UNL     1       3.280   4.646 -14.585  1.00  0.00     0.059 A 
ATOM     89  C   UNL     1       3.082   4.632 -12.165  1.00  0.00     0.059 A 
ATOM     90  F   UNL     1       4.806   3.721 -10.863  1.00  0.00    -0.206 F 
ATOM     91  C   UNL     1       2.571   4.952 -13.422  1.00  0.00     0.060 A 
BRANCH  91  92
ATOM     92  S   UNL     1       0.954   5.740 -13.577  1.00  0.00     0.124 S 
ATOM     93  O   UNL     1       1.323   7.085 -14.003  1.00  0.00    -0.237 OA
ATOM     94  O   UNL     1       0.304   4.905 -14.582  1.00  0.00    -0.237 OA
ATOM     95  O   UNL     1       0.400   5.633 -12.230  1.00  0.00    -0.744 OA
ENDBRANCH  91  92
ENDBRANCH  59  84
BRANCH  71  96
ATOM     96  C   UNL     1      11.608   5.631 -14.743  1.00  0.00     0.058 A 
ATOM     97  C   UNL     1      11.711   6.849 -14.055  1.00  0.00     0.135 A 
ATOM     98  C   UNL     1      12.156   5.559 -16.035  1.00  0.00     0.135 A 
ATOM     99  F   UNL     1      11.198   6.974 -12.820  1.00  0.00    -0.206 F 
ATOM    100  C   UNL     1      12.330   7.956 -14.628  1.00  0.00     0.059 A 
ATOM    101  C   UNL     1      12.804   6.643 -16.616  1.00  0.00     0.059 A 
ATOM    102  F   UNL     1      12.092   4.413 -16.733  1.00  0.00    -0.206 F 
ATOM    103  C   UNL     1      12.881   7.840 -15.907  1.00  0.00     0.060 A 
BRANCH 103 104
ATOM    104  S   UNL     1      13.738   9.264 -16.613  1.00  0.00     0.124 S 
ATOM    105  O   UNL     1      12.624  10.153 -16.923  1.00  0.00    -0.237 OA
ATOM    106  O   UNL     1      14.599   9.685 -15.512  1.00  0.00    -0.237 OA
ATOM    107  O   UNL     1      14.434   8.704 -17.767  1.00  0.00    -0.744 OA
ENDBRANCH 103 104
ENDBRANCH  71  96
ENDBRANCH  45  46
ENDBRANCH  38  40
ENDBRANCH  37  38
ENDBRANCH  36  37
ENDBRANCH  35  36
ENDBRANCH   1  35
TORSDOF 22
