REMARK SMILES O=C(C[C@@H]1CN(C(=O)NCc2cccs2)CCO1)OCCOCCOC(=O)c1ccc(-c2c3nc(c(-c4c(F)cc(S(=O)(=O)[O-])cc4F)c4ccc([nH]4)c(-c4c(F)cc(S(=O)(=O)[O-])cc4F)c4nc(c(-c5c(F)cc(S(=O)(=O)[O-])cc5F)c5ccc2[nH]5)C=C4)C=C3)cc1
REMARK SMILES IDX 21 1 20 2 19 3 2 4 1 5 3 6 4 7 5 8 18 9 6 10 17 11 16 12
REMARK SMILES IDX 7 13 8 14 9 15 10 17 11 18 12 19 15 20 13 21 14 22 22 23
REMARK SMILES IDX 23 24 24 25 25 26 26 27 27 28 28 29 29 30 93 31 30 32 92 33
REMARK SMILES IDX 31 34 32 35 33 36 86 37 34 38 91 39 85 40 87 41 35 42 90 43
REMARK SMILES IDX 84 44 83 45 36 47 70 48 49 49 69 50 50 51 53 52 68 53 88 54
REMARK SMILES IDX 51 55 52 56 67 58 89 59 54 60 37 61 38 62 47 63 39 64 40 65
REMARK SMILES IDX 46 66 48 67 41 68 42 69 43 70 44 71 45 72 71 73 72 74 81 75
REMARK SMILES IDX 73 76 74 77 80 78 82 79 75 80 76 81 77 82 78 83 79 84 55 85
REMARK SMILES IDX 56 86 65 87 57 88 58 89 64 90 66 91 59 92 60 93 61 94 62 95
REMARK SMILES IDX 63 96
REMARK H PARENT 9 16 87 46 53 57
REMARK Flexibility Score: inf
ROOT
ATOM      1  C   UNL     1       4.595  -0.062   1.209  1.00  0.00     0.202 C 
ENDROOT
BRANCH   1   2
ATOM      2  C   UNL     1       4.091   1.153   0.444  1.00  0.00     0.261 C 
BRANCH   2   3
ATOM      3  O   UNL     1       2.670   1.175   0.265  1.00  0.00    -0.463 OA
BRANCH   3   4
ATOM      4  C   UNL     1       1.990   0.713  -0.804  1.00  0.00     0.308 C 
ATOM      5  O   UNL     1       0.772   0.897  -0.859  1.00  0.00    -0.252 OA
BRANCH   4   6
ATOM      6  C   UNL     1       2.647  -0.186  -1.823  1.00  0.00     0.156 C 
BRANCH   6   7
ATOM      7  C   UNL     1       3.762   0.359  -2.710  1.00  0.00     0.149 C 
ATOM      8  C   UNL     1       5.077  -0.420  -2.455  1.00  0.00     0.154 C 
ATOM      9  O   UNL     1       3.906   1.775  -2.549  1.00  0.00    -0.374 OA
ATOM     10  N   UNL     1       6.184   0.149  -3.212  1.00  0.00    -0.320 N 
ATOM     11  C   UNL     1       4.985   2.299  -3.338  1.00  0.00     0.182 C 
ATOM     12  C   UNL     1       6.308   1.599  -3.009  1.00  0.00     0.150 C 
BRANCH  10  13
ATOM     13  C   UNL     1       6.963  -0.446  -4.155  1.00  0.00     0.317 C 
ATOM     14  O   UNL     1       7.652   0.216  -4.938  1.00  0.00    -0.249 OA
ATOM     15  N   UNL     1       7.044  -1.778  -4.307  1.00  0.00    -0.333 N 
ATOM     16  H   UNL     1       7.480  -2.032  -5.152  1.00  0.00     0.165 HD
BRANCH  15  17
ATOM     17  C   UNL     1       6.644  -2.930  -3.529  1.00  0.00     0.164 C 
BRANCH  17  18
ATOM     18  C   UNL     1       5.546  -3.696  -4.223  1.00  0.00     0.024 A 
ATOM     19  C   UNL     1       5.394  -5.071  -4.276  1.00  0.00     0.017 A 
ATOM     20  S   UNL     1       4.266  -2.914  -5.067  1.00  0.00    -0.147 S 
ATOM     21  C   UNL     1       4.245  -5.473  -5.019  1.00  0.00     0.012 A 
ATOM     22  C   UNL     1       3.542  -4.395  -5.502  1.00  0.00     0.065 A 
ENDBRANCH  17  18
ENDBRANCH  15  17
ENDBRANCH  10  13
ENDBRANCH   6   7
ENDBRANCH   4   6
ENDBRANCH   3   4
ENDBRANCH   2   3
ENDBRANCH   1   2
BRANCH   1  23
ATOM     23  O   UNL     1       4.139  -1.341   0.773  1.00  0.00    -0.374 OA
BRANCH  23  24
ATOM     24  C   UNL     1       2.897  -1.781   1.341  1.00  0.00     0.202 C 
BRANCH  24  25
ATOM     25  C   UNL     1       2.939  -2.324   2.778  1.00  0.00     0.261 C 
BRANCH  25  26
ATOM     26  O   UNL     1       3.317  -1.317   3.730  1.00  0.00    -0.460 OA
BRANCH  26  27
ATOM     27  C   UNL     1       4.616  -1.364   4.113  1.00  0.00     0.338 C 
ATOM     28  O   UNL     1       5.427  -2.238   3.838  1.00  0.00    -0.246 OA
BRANCH  27  29
ATOM     29  C   UNL     1       5.006  -0.071   4.716  1.00  0.00     0.060 A 
ATOM     30  C   UNL     1       6.259   0.448   4.359  1.00  0.00     0.016 A 
ATOM     31  C   UNL     1       4.184   0.615   5.614  1.00  0.00     0.016 A 
ATOM     32  C   UNL     1       6.745   1.589   4.985  1.00  0.00     0.010 A 
ATOM     33  C   UNL     1       4.675   1.761   6.247  1.00  0.00     0.010 A 
ATOM     34  C   UNL     1       5.984   2.203   5.987  1.00  0.00    -0.014 A 
BRANCH  34  35
ATOM     35  C   UNL     1       6.673   3.104   6.941  1.00  0.00     0.031 A 
ATOM     36  C   UNL     1       7.105   2.524   8.264  1.00  0.00     0.074 A 
ATOM     37  C   UNL     1       6.974   4.372   6.614  1.00  0.00     0.049 A 
ATOM     38  N   UNL     1       7.737   3.093   9.256  1.00  0.00    -0.248 NA
ATOM     39  C   UNL     1       6.774   1.107   8.501  1.00  0.00     0.031 C 
ATOM     40  C   UNL     1       6.647   5.019   5.345  1.00  0.00     0.029 A 
ATOM     41  N   UNL     1       7.633   5.340   7.327  1.00  0.00    -0.354 N 
ATOM     42  C   UNL     1       7.863   2.112  10.235  1.00  0.00     0.074 A 
ATOM     43  C   UNL     1       7.211   0.924   9.736  1.00  0.00     0.031 C 
ATOM     44  C   UNL     1       7.108   6.282   5.369  1.00  0.00     0.029 A 
ATOM     45  C   UNL     1       7.737   6.538   6.663  1.00  0.00     0.049 A 
ATOM     46  H   UNL     1       7.997   5.190   8.229  1.00  0.00     0.167 HD
ATOM     47  C   UNL     1       8.480   2.191  11.437  1.00  0.00     0.037 A 
ATOM     48  C   UNL     1       8.272   7.708   7.066  1.00  0.00     0.037 A 
ATOM     49  C   UNL     1       9.138   3.378  11.916  1.00  0.00     0.049 A 
ATOM     50  C   UNL     1       8.913   7.786   8.429  1.00  0.00     0.074 A 
ATOM     51  C   UNL     1       9.812   3.566  13.109  1.00  0.00     0.029 A 
ATOM     52  N   UNL     1       9.199   4.580  11.226  1.00  0.00    -0.354 N 
ATOM     53  N   UNL     1       9.043   6.847   9.338  1.00  0.00    -0.248 NA
ATOM     54  C   UNL     1       9.493   9.079   8.815  1.00  0.00     0.031 C 
ATOM     55  C   UNL     1      10.229   4.900  13.166  1.00  0.00     0.029 A 
ATOM     56  C   UNL     1       9.879   5.522  11.978  1.00  0.00     0.049 A 
ATOM     57  H   UNL     1       8.815   4.739  10.334  1.00  0.00     0.167 HD
ATOM     58  C   UNL     1       9.757   7.425  10.384  1.00  0.00     0.074 A 
ATOM     59  C   UNL     1      10.034   8.791   9.990  1.00  0.00     0.031 C 
ATOM     60  C   UNL     1      10.155   6.875  11.560  1.00  0.00     0.037 A 
BRANCH  47  61
ATOM     61  C   UNL     1       8.440   0.977  12.326  1.00  0.00     0.058 A 
ATOM     62  C   UNL     1       9.143  -0.199  12.019  1.00  0.00     0.135 A 
ATOM     63  C   UNL     1       7.696   0.999  13.517  1.00  0.00     0.135 A 
ATOM     64  F   UNL     1       9.851  -0.287  10.881  1.00  0.00    -0.206 F 
ATOM     65  C   UNL     1       9.088  -1.318  12.845  1.00  0.00     0.059 A 
ATOM     66  C   UNL     1       7.653  -0.096  14.375  1.00  0.00     0.059 A 
ATOM     67  F   UNL     1       6.997   2.093  13.857  1.00  0.00    -0.206 F 
ATOM     68  C   UNL     1       8.342  -1.255  14.023  1.00  0.00     0.060 A 
BRANCH  68  69
ATOM     69  S   UNL     1       8.288  -2.710  15.090  1.00  0.00     0.124 S 
ATOM     70  O   UNL     1       7.463  -3.620  14.301  1.00  0.00    -0.237 OA
ATOM     71  O   UNL     1       9.699  -3.068  15.199  1.00  0.00    -0.237 OA
ATOM     72  O   UNL     1       7.674  -2.212  16.316  1.00  0.00    -0.744 OA
ENDBRANCH  68  69
ENDBRANCH  47  61
BRANCH  48  73
ATOM     73  C   UNL     1       8.237   8.893   6.167  1.00  0.00     0.058 A 
ATOM     74  C   UNL     1       9.413   9.419   5.612  1.00  0.00     0.135 A 
ATOM     75  C   UNL     1       7.026   9.527   5.847  1.00  0.00     0.135 A 
ATOM     76  F   UNL     1      10.598   8.856   5.893  1.00  0.00    -0.206 F 
ATOM     77  C   UNL     1       9.394  10.540   4.788  1.00  0.00     0.059 A 
ATOM     78  C   UNL     1       6.977  10.631   5.002  1.00  0.00     0.059 A 
ATOM     79  F   UNL     1       5.870   9.057   6.342  1.00  0.00    -0.206 F 
ATOM     80  C   UNL     1       8.169  11.137   4.486  1.00  0.00     0.060 A 
BRANCH  80  81
ATOM     81  S   UNL     1       8.151  12.565   3.380  1.00  0.00     0.124 S 
ATOM     82  O   UNL     1       8.744  13.597   4.222  1.00  0.00    -0.237 OA
ATOM     83  O   UNL     1       8.973  12.097   2.267  1.00  0.00    -0.237 OA
ATOM     84  O   UNL     1       6.734  12.736   3.074  1.00  0.00    -0.744 OA
ENDBRANCH  80  81
ENDBRANCH  48  73
BRANCH  60  85
ATOM     85  C   UNL     1      10.991   7.730  12.476  1.00  0.00     0.058 A 
ATOM     86  C   UNL     1      10.461   8.835  13.158  1.00  0.00     0.135 A 
ATOM     87  C   UNL     1      12.342   7.411  12.694  1.00  0.00     0.135 A 
ATOM     88  F   UNL     1       9.176   9.184  12.987  1.00  0.00    -0.206 F 
ATOM     89  C   UNL     1      11.252   9.623  13.989  1.00  0.00     0.059 A 
ATOM     90  C   UNL     1      13.142   8.162  13.548  1.00  0.00     0.059 A 
ATOM     91  F   UNL     1      12.896   6.353  12.082  1.00  0.00    -0.206 F 
ATOM     92  C   UNL     1      12.593   9.280  14.175  1.00  0.00     0.060 A 
BRANCH  92  93
ATOM     93  S   UNL     1      13.610  10.309  15.254  1.00  0.00     0.124 S 
ATOM     94  O   UNL     1      13.797  11.499  14.431  1.00  0.00    -0.237 OA
ATOM     95  O   UNL     1      12.754  10.475  16.424  1.00  0.00    -0.237 OA
ATOM     96  O   UNL     1      14.806   9.500  15.468  1.00  0.00    -0.744 OA
ENDBRANCH  92  93
ENDBRANCH  60  85
ENDBRANCH  34  35
ENDBRANCH  27  29
ENDBRANCH  26  27
ENDBRANCH  25  26
ENDBRANCH  24  25
ENDBRANCH  23  24
ENDBRANCH   1  23
TORSDOF 21
