REMARK SMILES Cc1c(Cl)cccc1NC(=O)C[C@](C)(C(=O)OCCOCCOC(=O)c1ccc(-c2c3nc(c(-c4c(F)cc(S(=O)(=O)[O-])cc4F)c4ccc([nH]4)c(-c4c(F)cc(S(=O)(=O)[O-])cc4F)c4nc(c(-c5c(F)cc(S(=O)(=O)[O-])cc5F)c5ccc2[nH]5)C=C4)C=C3)cc1)c1ccccc1
REMARK SMILES IDX 20 1 19 2 18 3 17 4 15 5 16 6 13 7 14 8 12 9 10 10 9 11
REMARK SMILES IDX 11 13 8 14 1 15 2 16 3 17 4 18 5 19 7 20 6 21 92 22 93 23
REMARK SMILES IDX 97 24 94 25 96 26 95 27 21 28 22 29 23 30 24 31 25 32 26 33
REMARK SMILES IDX 27 34 91 35 28 36 90 37 29 38 30 39 31 40 84 41 32 42 89 43
REMARK SMILES IDX 83 44 85 45 33 46 88 47 82 48 81 49 34 51 68 52 47 53 67 54
REMARK SMILES IDX 48 55 51 56 66 57 86 58 49 59 50 60 65 62 87 63 52 64 35 65
REMARK SMILES IDX 36 66 45 67 37 68 38 69 44 70 46 71 39 72 40 73 41 74 42 75
REMARK SMILES IDX 43 76 69 77 70 78 79 79 71 80 72 81 78 82 80 83 73 84 74 85
REMARK SMILES IDX 75 86 76 87 77 88 53 89 54 90 63 91 55 92 56 93 62 94 64 95
REMARK SMILES IDX 57 96 58 97 59 98 60 99 61 100
REMARK H PARENT 9 12 85 50 51 61
REMARK Flexibility Score: inf
ROOT
ATOM      1  O   UNL     1      -8.415  -1.702  -1.517  1.00  0.00    -0.374 OA
ENDROOT
BRANCH   1   2
ATOM      2  C   UNL     1      -7.613  -2.748  -0.965  1.00  0.00     0.202 C 
BRANCH   2   3
ATOM      3  C   UNL     1      -6.184  -2.845  -1.504  1.00  0.00     0.261 C 
BRANCH   3   4
ATOM      4  O   UNL     1      -5.434  -1.670  -1.155  1.00  0.00    -0.463 OA
BRANCH   4   5
ATOM      5  C   UNL     1      -4.537  -1.238  -2.080  1.00  0.00     0.316 C 
ATOM      6  O   UNL     1      -4.220  -1.893  -3.068  1.00  0.00    -0.251 OA
BRANCH   5   7
ATOM      7  C   UNL     1      -3.995   0.186  -1.781  1.00  0.00     0.099 C 
ATOM      8  C   UNL     1      -4.625   0.820  -0.505  1.00  0.00     0.029 C 
BRANCH   7   9
ATOM      9  C   UNL     1      -2.443   0.118  -1.594  1.00  0.00     0.123 C 
BRANCH   9  10
ATOM     10  C   UNL     1      -1.730  -1.220  -1.719  1.00  0.00     0.225 C 
ATOM     11  N   UNL     1      -1.919  -2.266  -0.871  1.00  0.00    -0.326 N 
ATOM     12  H   UNL     1      -1.447  -3.083  -1.152  1.00  0.00     0.169 HD
ATOM     13  O   UNL     1      -0.941  -1.395  -2.655  1.00  0.00    -0.275 OA
BRANCH  11  14
ATOM     14  C   UNL     1      -2.645  -2.429   0.319  1.00  0.00     0.045 A 
ATOM     15  C   UNL     1      -2.996  -4.924  -0.231  1.00  0.00     0.048 C 
ATOM     16  C   UNL     1      -3.227  -3.685   0.600  1.00  0.00    -0.009 A 
ATOM     17  C   UNL     1      -4.112  -3.777   1.690  1.00  0.00     0.046 A 
ATOM     18  Cl  UNL     1      -5.095  -5.186   1.900  1.00  0.00    -0.084 Cl
ATOM     19  C   UNL     1      -4.289  -2.711   2.570  1.00  0.00     0.021 A 
ATOM     20  C   UNL     1      -2.806  -1.377   1.228  1.00  0.00     0.026 A 
ATOM     21  C   UNL     1      -3.615  -1.518   2.356  1.00  0.00     0.004 A 
ENDBRANCH  11  14
ENDBRANCH   9  10
ENDBRANCH   7   9
BRANCH   7  22
ATOM     22  C   UNL     1      -4.365   1.184  -2.926  1.00  0.00    -0.030 A 
ATOM     23  C   UNL     1      -3.881   2.509  -2.895  1.00  0.00     0.005 A 
ATOM     24  C   UNL     1      -5.238   0.843  -3.976  1.00  0.00     0.005 A 
ATOM     25  C   UNL     1      -4.236   3.438  -3.878  1.00  0.00     0.000 A 
ATOM     26  C   UNL     1      -5.585   1.772  -4.963  1.00  0.00     0.000 A 
ATOM     27  C   UNL     1      -5.084   3.067  -4.915  1.00  0.00     0.000 A 
ENDBRANCH   7  22
ENDBRANCH   5   7
ENDBRANCH   4   5
ENDBRANCH   3   4
ENDBRANCH   2   3
ENDBRANCH   1   2
BRANCH   1  28
ATOM     28  C   UNL     1      -8.093  -0.366  -1.140  1.00  0.00     0.202 C 
BRANCH  28  29
ATOM     29  C   UNL     1      -8.515   0.097   0.263  1.00  0.00     0.261 C 
BRANCH  29  30
ATOM     30  O   UNL     1      -7.980  -0.686   1.346  1.00  0.00    -0.460 OA
BRANCH  30  31
ATOM     31  C   UNL     1      -8.868  -1.539   1.913  1.00  0.00     0.338 C 
ATOM     32  O   UNL     1     -10.035  -1.715   1.567  1.00  0.00    -0.246 OA
BRANCH  31  33
ATOM     33  C   UNL     1      -8.232  -2.359   2.961  1.00  0.00     0.060 A 
ATOM     34  C   UNL     1      -8.407  -3.747   2.901  1.00  0.00     0.016 A 
ATOM     35  C   UNL     1      -7.576  -1.781   4.051  1.00  0.00     0.016 A 
ATOM     36  C   UNL     1      -7.958  -4.556   3.947  1.00  0.00     0.010 A 
ATOM     37  C   UNL     1      -7.128  -2.597   5.103  1.00  0.00     0.010 A 
ATOM     38  C   UNL     1      -7.342  -3.987   5.072  1.00  0.00    -0.014 A 
BRANCH  38  39
ATOM     39  C   UNL     1      -7.113  -4.835   6.275  1.00  0.00     0.031 A 
ATOM     40  C   UNL     1      -8.120  -4.784   7.388  1.00  0.00     0.074 A 
ATOM     41  C   UNL     1      -6.073  -5.688   6.358  1.00  0.00     0.049 A 
ATOM     42  N   UNL     1      -8.161  -5.473   8.497  1.00  0.00    -0.248 NA
ATOM     43  C   UNL     1      -9.209  -3.806   7.242  1.00  0.00     0.031 C 
ATOM     44  C   UNL     1      -5.010  -5.799   5.371  1.00  0.00     0.029 A 
ATOM     45  N   UNL     1      -5.743  -6.632   7.301  1.00  0.00    -0.354 N 
ATOM     46  C   UNL     1      -9.270  -5.004   9.189  1.00  0.00     0.074 A 
ATOM     47  C   UNL     1      -9.850  -3.944   8.392  1.00  0.00     0.031 C 
ATOM     48  C   UNL     1      -4.184  -6.802   5.709  1.00  0.00     0.029 A 
ATOM     49  C   UNL     1      -4.625  -7.370   6.979  1.00  0.00     0.049 A 
ATOM     50  H   UNL     1      -6.258  -6.768   8.129  1.00  0.00     0.167 HD
ATOM     51  C   UNL     1      -9.765  -5.423  10.377  1.00  0.00     0.037 A 
ATOM     52  C   UNL     1      -4.019  -8.380   7.638  1.00  0.00     0.037 A 
ATOM     53  C   UNL     1      -9.183  -6.475  11.166  1.00  0.00     0.049 A 
ATOM     54  C   UNL     1      -4.587  -8.827   8.960  1.00  0.00     0.074 A 
ATOM     55  C   UNL     1      -9.610  -6.974  12.384  1.00  0.00     0.029 A 
ATOM     56  N   UNL     1      -8.046  -7.191  10.817  1.00  0.00    -0.354 N 
ATOM     57  N   UNL     1      -5.649  -8.384   9.591  1.00  0.00    -0.248 NA
ATOM     58  C   UNL     1      -3.871  -9.898   9.667  1.00  0.00     0.031 C 
ATOM     59  C   UNL     1      -8.708  -7.963  12.791  1.00  0.00     0.029 A 
ATOM     60  C   UNL     1      -7.750  -8.119  11.802  1.00  0.00     0.049 A 
ATOM     61  H   UNL     1      -7.526  -7.058   9.992  1.00  0.00     0.167 HD
ATOM     62  C   UNL     1      -5.739  -9.134  10.759  1.00  0.00     0.074 A 
ATOM     63  C   UNL     1      -4.633 -10.071  10.738  1.00  0.00     0.031 C 
ATOM     64  C   UNL     1      -6.651  -9.052  11.759  1.00  0.00     0.037 A 
BRANCH  51  65
ATOM     65  C   UNL     1     -10.983  -4.713  10.895  1.00  0.00     0.058 A 
ATOM     66  C   UNL     1     -12.240  -4.860  10.285  1.00  0.00     0.135 A 
ATOM     67  C   UNL     1     -10.890  -3.859  12.005  1.00  0.00     0.135 A 
ATOM     68  F   UNL     1     -12.379  -5.646   9.204  1.00  0.00    -0.206 F 
ATOM     69  C   UNL     1     -13.351  -4.155  10.731  1.00  0.00     0.059 A 
ATOM     70  C   UNL     1     -11.996  -3.167  12.488  1.00  0.00     0.059 A 
ATOM     71  F   UNL     1      -9.712  -3.677  12.622  1.00  0.00    -0.206 F 
ATOM     72  C   UNL     1     -13.218  -3.307  11.832  1.00  0.00     0.060 A 
BRANCH  72  73
ATOM     73  S   UNL     1     -14.665  -2.382  12.388  1.00  0.00     0.124 S 
ATOM     74  O   UNL     1     -14.783  -1.371  11.341  1.00  0.00    -0.237 OA
ATOM     75  O   UNL     1     -15.704  -3.406  12.399  1.00  0.00    -0.237 OA
ATOM     76  O   UNL     1     -14.265  -1.883  13.700  1.00  0.00    -0.744 OA
ENDBRANCH  72  73
ENDBRANCH  51  65
BRANCH  52  77
ATOM     77  C   UNL     1      -2.808  -9.038   7.069  1.00  0.00     0.058 A 
ATOM     78  C   UNL     1      -2.841 -10.375   6.639  1.00  0.00     0.135 A 
ATOM     79  C   UNL     1      -1.590  -8.350   6.949  1.00  0.00     0.135 A 
ATOM     80  F   UNL     1      -3.974 -11.085   6.745  1.00  0.00    -0.206 F 
ATOM     81  C   UNL     1      -1.711 -11.008   6.126  1.00  0.00     0.059 A 
ATOM     82  C   UNL     1      -0.455  -8.953   6.412  1.00  0.00     0.059 A 
ATOM     83  F   UNL     1      -1.500  -7.069   7.337  1.00  0.00    -0.206 F 
ATOM     84  C   UNL     1      -0.522 -10.286   6.013  1.00  0.00     0.060 A 
BRANCH  84  85
ATOM     85  S   UNL     1       0.925 -11.099   5.299  1.00  0.00     0.124 S 
ATOM     86  O   UNL     1       1.325 -11.991   6.381  1.00  0.00    -0.237 OA
ATOM     87  O   UNL     1       0.364 -11.741   4.115  1.00  0.00    -0.237 OA
ATOM     88  O   UNL     1       1.833  -9.988   5.029  1.00  0.00    -0.744 OA
ENDBRANCH  84  85
ENDBRANCH  52  77
BRANCH  64  89
ATOM     89  C   UNL     1      -6.524 -10.030  12.894  1.00  0.00     0.058 A 
ATOM     90  C   UNL     1      -5.512  -9.920  13.860  1.00  0.00     0.135 A 
ATOM     91  C   UNL     1      -7.468 -11.059  13.047  1.00  0.00     0.135 A 
ATOM     92  F   UNL     1      -4.582  -8.957  13.758  1.00  0.00    -0.206 F 
ATOM     93  C   UNL     1      -5.426 -10.810  14.925  1.00  0.00     0.059 A 
ATOM     94  C   UNL     1      -7.417 -11.944  14.119  1.00  0.00     0.059 A 
ATOM     95  F   UNL     1      -8.463 -11.202  12.157  1.00  0.00    -0.206 F 
ATOM     96  C   UNL     1      -6.385 -11.819  15.047  1.00  0.00     0.060 A 
BRANCH  96  97
ATOM     97  S   UNL     1      -6.283 -12.947  16.452  1.00  0.00     0.124 S 
ATOM     98  O   UNL     1      -5.155 -13.791  16.070  1.00  0.00    -0.237 OA
ATOM     99  O   UNL     1      -6.044 -12.037  17.568  1.00  0.00    -0.237 OA
ATOM    100  O   UNL     1      -7.586 -13.604  16.456  1.00  0.00    -0.744 OA
ENDBRANCH  96  97
ENDBRANCH  64  89
ENDBRANCH  38  39
ENDBRANCH  31  33
ENDBRANCH  30  31
ENDBRANCH  29  30
ENDBRANCH  28  29
ENDBRANCH   1  28
TORSDOF 21
