REMARK SMILES COc1ccc([C@@H]2[C@@H](C(=O)c3cccc4c3CCCC4)[C@H](C(=O)OCCOCCOC(=O)c3ccc(-c4c5nc(c(-c6c(F)cc(S(=O)(=O)[O-])cc6F)c6ccc([nH]6)c(-c6c(F)cc(S(=O)(=O)[O-])cc6F)c6nc(c(-c7c(F)cc(S(=O)(=O)[O-])cc7F)c7ccc4[nH]7)C=C6)C=C5)cc3)SC3=NC(=O)S[C@H]32)cc1
REMARK SMILES IDX 28 1 27 2 26 3 25 4 24 5 22 6 23 7 21 8 7 9 8 10 105 11
REMARK SMILES IDX 100 12 104 13 99 14 101 15 102 16 103 17 6 18 3 19 4 20
REMARK SMILES IDX 107 21 5 22 106 23 2 24 1 25 9 26 10 27 11 28 12 29 16 30
REMARK SMILES IDX 13 31 15 32 17 33 14 34 20 35 18 36 19 37 29 38 30 39 31 40
REMARK SMILES IDX 32 41 33 42 34 43 98 44 35 45 97 46 36 47 37 48 38 49 91 50
REMARK SMILES IDX 39 51 96 52 90 53 92 54 40 55 95 56 89 57 88 58 41 60 75 61
REMARK SMILES IDX 54 62 74 63 55 64 58 65 73 66 93 67 56 68 57 69 72 71 94 72
REMARK SMILES IDX 59 73 42 74 43 75 52 76 44 77 45 78 51 79 53 80 46 81 47 82
REMARK SMILES IDX 48 83 49 84 50 85 76 86 77 87 86 88 78 89 79 90 85 91 87 92
REMARK SMILES IDX 80 93 81 94 82 95 83 96 84 97 60 98 61 99 70 100 62 101
REMARK SMILES IDX 63 102 69 103 71 104 64 105 65 106 66 107 67 108 68 109
REMARK H PARENT 92 59 58 70
REMARK Flexibility Score: inf
ROOT
ATOM      1  C   UNL     1       4.537   3.121   9.362  1.00  0.00     0.202 C 
ENDROOT
BRANCH   1   2
ATOM      2  O   UNL     1       5.629   2.890  10.247  1.00  0.00    -0.374 OA
BRANCH   2   3
ATOM      3  C   UNL     1       6.711   2.095   9.778  1.00  0.00     0.202 C 
BRANCH   3   4
ATOM      4  C   UNL     1       6.481   0.587   9.638  1.00  0.00     0.261 C 
BRANCH   4   5
ATOM      5  O   UNL     1       5.333   0.219   8.852  1.00  0.00    -0.462 OA
BRANCH   5   6
ATOM      6  C   UNL     1       4.207  -0.044   9.575  1.00  0.00     0.320 C 
ATOM      7  O   UNL     1       4.085   0.145  10.781  1.00  0.00    -0.251 OA
BRANCH   6   8
ATOM      8  C   UNL     1       3.132  -0.750   8.754  1.00  0.00     0.174 C 
ATOM      9  C   UNL     1       1.838  -1.176   6.551  1.00  0.00     0.052 C 
ATOM     10  C   UNL     1       2.848  -0.234   7.318  1.00  0.00     0.095 C 
ATOM     11  C   UNL     1       2.293  -2.656   6.479  1.00  0.00     0.121 C 
ATOM     12  C   UNL     1       2.489  -3.227   7.846  1.00  0.00     0.093 C 
ATOM     13  S   UNL     1       1.025  -3.792   5.798  1.00  0.00    -0.052 SA
ATOM     14  S   UNL     1       3.707  -2.512   8.822  1.00  0.00    -0.093 SA
ATOM     15  N   UNL     1       1.805  -4.228   8.275  1.00  0.00    -0.200 NA
ATOM     16  C   UNL     1       0.929  -4.674   7.320  1.00  0.00     0.306 C 
ATOM     17  O   UNL     1       0.127  -5.571   7.477  1.00  0.00    -0.259 OA
BRANCH   9  18
ATOM     18  C   UNL     1       1.532  -0.706   5.130  1.00  0.00    -0.042 A 
ATOM     19  C   UNL     1       0.870   0.072   2.504  1.00  0.00     0.118 A 
ATOM     20  C   UNL     1      -0.108   0.030   3.493  1.00  0.00     0.047 A 
ATOM     21  C   UNL     1       2.183  -0.271   2.825  1.00  0.00     0.047 A 
ATOM     22  C   UNL     1       0.211  -0.398   4.780  1.00  0.00     0.008 A 
ATOM     23  C   UNL     1       2.516  -0.642   4.134  1.00  0.00     0.008 A 
BRANCH  19  24
ATOM     24  O   UNL     1       0.437   0.505   1.282  1.00  0.00    -0.497 OA
ATOM     25  C   UNL     1       1.111  -0.054   0.162  1.00  0.00     0.278 C 
ENDBRANCH  19  24
ENDBRANCH   9  18
BRANCH  10  26
ATOM     26  C   UNL     1       2.389   1.264   7.219  1.00  0.00     0.168 C 
ATOM     27  O   UNL     1       2.962   2.042   6.458  1.00  0.00    -0.294 OA
BRANCH  26  28
ATOM     28  C   UNL     1       1.145   1.776   7.868  1.00  0.00     0.021 A 
ATOM     29  C   UNL     1      -0.034   1.759   7.143  1.00  0.00     0.012 A 
ATOM     30  C   UNL     1       1.049   2.072   9.225  1.00  0.00    -0.034 A 
ATOM     31  C   UNL     1      -1.224   1.509   7.827  1.00  0.00     0.001 A 
ATOM     32  C   UNL     1      -0.015   1.484   9.920  1.00  0.00    -0.044 A 
ATOM     33  C   UNL     1       0.996   3.606   9.589  1.00  0.00     0.036 C 
ATOM     34  C   UNL     1      -1.189   1.240   9.202  1.00  0.00     0.004 A 
ATOM     35  C   UNL     1       0.049   1.490  11.425  1.00  0.00     0.036 C 
ATOM     36  C   UNL     1       0.882   3.875  11.102  1.00  0.00     0.005 C 
ATOM     37  C   UNL     1       0.979   2.601  11.941  1.00  0.00     0.005 C 
ENDBRANCH  26  28
ENDBRANCH  10  26
ENDBRANCH   6   8
ENDBRANCH   5   6
ENDBRANCH   4   5
ENDBRANCH   3   4
ENDBRANCH   2   3
ENDBRANCH   1   2
BRANCH   1  38
ATOM     38  C   UNL     1       4.803   3.900   8.076  1.00  0.00     0.261 C 
BRANCH  38  39
ATOM     39  O   UNL     1       5.699   3.193   7.202  1.00  0.00    -0.460 OA
BRANCH  39  40
ATOM     40  C   UNL     1       6.710   3.963   6.740  1.00  0.00     0.338 C 
ATOM     41  O   UNL     1       6.860   5.162   6.911  1.00  0.00    -0.246 OA
BRANCH  40  42
ATOM     42  C   UNL     1       7.771   3.139   6.146  1.00  0.00     0.060 A 
ATOM     43  C   UNL     1       8.996   3.110   6.822  1.00  0.00     0.016 A 
ATOM     44  C   UNL     1       7.644   2.594   4.867  1.00  0.00     0.016 A 
ATOM     45  C   UNL     1      10.127   2.617   6.183  1.00  0.00     0.010 A 
ATOM     46  C   UNL     1       8.785   2.095   4.228  1.00  0.00     0.010 A 
ATOM     47  C   UNL     1      10.040   2.156   4.863  1.00  0.00    -0.014 A 
BRANCH  47  48
ATOM     48  C   UNL     1      11.295   1.891   4.115  1.00  0.00     0.031 A 
ATOM     49  C   UNL     1      11.776   2.895   3.100  1.00  0.00     0.074 A 
ATOM     50  C   UNL     1      12.034   0.804   4.401  1.00  0.00     0.049 A 
ATOM     51  N   UNL     1      12.830   2.850   2.327  1.00  0.00    -0.248 NA
ATOM     52  C   UNL     1      10.963   4.112   2.936  1.00  0.00     0.031 C 
ATOM     53  C   UNL     1      11.692  -0.207   5.402  1.00  0.00     0.029 A 
ATOM     54  N   UNL     1      13.224   0.368   3.876  1.00  0.00    -0.354 N 
ATOM     55  C   UNL     1      12.811   4.029   1.589  1.00  0.00     0.074 A 
ATOM     56  C   UNL     1      11.618   4.750   1.975  1.00  0.00     0.031 C 
ATOM     57  C   UNL     1      12.645  -1.154   5.408  1.00  0.00     0.029 A 
ATOM     58  C   UNL     1      13.640  -0.838   4.386  1.00  0.00     0.049 A 
ATOM     59  H   UNL     1      13.731   0.871   3.198  1.00  0.00     0.167 HD
ATOM     60  C   UNL     1      13.716   4.477   0.685  1.00  0.00     0.037 A 
ATOM     61  C   UNL     1      14.687  -1.615   4.044  1.00  0.00     0.037 A 
ATOM     62  C   UNL     1      14.901   3.749   0.307  1.00  0.00     0.049 A 
ATOM     63  C   UNL     1      15.633  -1.137   2.974  1.00  0.00     0.074 A 
ATOM     64  C   UNL     1      15.876   4.106  -0.608  1.00  0.00     0.029 A 
ATOM     65  N   UNL     1      15.273   2.516   0.824  1.00  0.00    -0.354 N 
ATOM     66  N   UNL     1      15.603  -0.020   2.285  1.00  0.00    -0.248 NA
ATOM     67  C   UNL     1      16.760  -2.018   2.638  1.00  0.00     0.031 C 
ATOM     68  C   UNL     1      16.809   3.067  -0.682  1.00  0.00     0.029 A 
ATOM     69  C   UNL     1      16.451   2.089   0.233  1.00  0.00     0.049 A 
ATOM     70  H   UNL     1      14.773   2.017   1.510  1.00  0.00     0.167 HD
ATOM     71  C   UNL     1      16.721  -0.052   1.457  1.00  0.00     0.074 A 
ATOM     72  C   UNL     1      17.415  -1.291   1.744  1.00  0.00     0.031 C 
ATOM     73  C   UNL     1      17.136   0.858   0.541  1.00  0.00     0.037 A 
BRANCH  60  74
ATOM     74  C   UNL     1      13.459   5.808   0.029  1.00  0.00     0.058 A 
ATOM     75  C   UNL     1      13.570   7.015   0.740  1.00  0.00     0.135 A 
ATOM     76  C   UNL     1      13.152   5.885  -1.339  1.00  0.00     0.135 A 
ATOM     77  F   UNL     1      13.845   7.003   2.054  1.00  0.00    -0.206 F 
ATOM     78  C   UNL     1      13.369   8.246   0.123  1.00  0.00     0.059 A 
ATOM     79  C   UNL     1      12.975   7.106  -1.984  1.00  0.00     0.059 A 
ATOM     80  F   UNL     1      13.031   4.764  -2.068  1.00  0.00    -0.206 F 
ATOM     81  C   UNL     1      13.076   8.282  -1.242  1.00  0.00     0.060 A 
BRANCH  81  82
ATOM     82  S   UNL     1      12.840   9.889  -2.030  1.00  0.00     0.124 S 
ATOM     83  O   UNL     1      11.571  10.316  -1.448  1.00  0.00    -0.237 OA
ATOM     84  O   UNL     1      14.020  10.627  -1.590  1.00  0.00    -0.237 OA
ATOM     85  O   UNL     1      12.799   9.569  -3.453  1.00  0.00    -0.744 OA
ENDBRANCH  81  82
ENDBRANCH  60  74
BRANCH  61  86
ATOM     86  C   UNL     1      14.870  -2.944   4.689  1.00  0.00     0.058 A 
ATOM     87  C   UNL     1      15.974  -3.215   5.511  1.00  0.00     0.135 A 
ATOM     88  C   UNL     1      13.946  -3.980   4.476  1.00  0.00     0.135 A 
ATOM     89  F   UNL     1      16.889  -2.262   5.742  1.00  0.00    -0.206 F 
ATOM     90  C   UNL     1      16.172  -4.473   6.073  1.00  0.00     0.059 A 
ATOM     91  C   UNL     1      14.103  -5.234   5.054  1.00  0.00     0.059 A 
ATOM     92  F   UNL     1      12.863  -3.770   3.711  1.00  0.00    -0.206 F 
ATOM     93  C   UNL     1      15.230  -5.476   5.838  1.00  0.00     0.060 A 
BRANCH  93  94
ATOM     94  S   UNL     1      15.485  -7.100   6.586  1.00  0.00     0.124 S 
ATOM     95  O   UNL     1      16.598  -7.614   5.796  1.00  0.00    -0.237 OA
ATOM     96  O   UNL     1      15.789  -6.753   7.970  1.00  0.00    -0.237 OA
ATOM     97  O   UNL     1      14.203  -7.768   6.381  1.00  0.00    -0.744 OA
ENDBRANCH  93  94
ENDBRANCH  61  86
BRANCH  73  98
ATOM     98  C   UNL     1      18.423   0.574  -0.187  1.00  0.00     0.058 A 
ATOM     99  C   UNL     1      18.520  -0.437  -1.156  1.00  0.00     0.135 A 
ATOM    100  C   UNL     1      19.561   1.362   0.052  1.00  0.00     0.135 A 
ATOM    101  F   UNL     1      17.464  -1.224  -1.420  1.00  0.00    -0.206 F 
ATOM    102  C   UNL     1      19.706  -0.675  -1.841  1.00  0.00     0.059 A 
ATOM    103  C   UNL     1      20.748   1.163  -0.645  1.00  0.00     0.059 A 
ATOM    104  F   UNL     1      19.521   2.350   0.961  1.00  0.00    -0.206 F 
ATOM    105  C   UNL     1      20.815   0.134  -1.582  1.00  0.00     0.060 A 
BRANCH 105 106
ATOM    106  S   UNL     1      22.337  -0.164  -2.506  1.00  0.00     0.124 S 
ATOM    107  O   UNL     1      22.797  -1.418  -1.918  1.00  0.00    -0.237 OA
ATOM    108  O   UNL     1      21.854  -0.248  -3.881  1.00  0.00    -0.237 OA
ATOM    109  O   UNL     1      23.154   1.008  -2.204  1.00  0.00    -0.744 OA
ENDBRANCH 105 106
ENDBRANCH  73  98
ENDBRANCH  47  48
ENDBRANCH  40  42
ENDBRANCH  39  40
ENDBRANCH  38  39
ENDBRANCH   1  38
TORSDOF 21
