REMARK SMILES O=C(Cc1ccc(=O)n(C(F)F)c1)OCCOCCOC(=O)c1ccc(-c2c3nc(c(-c4c(F)cc(S(=O)(=O)[O-])cc4F)c4ccc([nH]4)c(-c4c(F)cc(S(=O)(=O)[O-])cc4F)c4nc(c(-c5c(F)cc(S(=O)(=O)[O-])cc5F)c5ccc2[nH]5)C=C4)C=C3)cc1
REMARK SMILES IDX 18 1 17 2 16 3 15 4 14 5 2 6 1 7 3 8 4 9 5 10 13 11 6 12
REMARK SMILES IDX 9 13 7 14 8 15 10 16 11 17 12 18 19 19 20 20 21 21 22 22
REMARK SMILES IDX 23 23 24 24 88 25 25 26 87 27 26 28 27 29 28 30 81 31 29 32
REMARK SMILES IDX 86 33 80 34 82 35 30 36 85 37 79 38 78 39 31 41 65 42 44 43
REMARK SMILES IDX 64 44 45 45 48 46 63 47 83 48 46 49 47 50 62 52 84 53 49 54
REMARK SMILES IDX 32 55 33 56 42 57 34 58 35 59 41 60 43 61 36 62 37 63 38 64
REMARK SMILES IDX 39 65 40 66 66 67 67 68 76 69 68 70 69 71 75 72 77 73 70 74
REMARK SMILES IDX 71 75 72 76 73 77 74 78 50 79 51 80 60 81 52 82 53 83 59 84
REMARK SMILES IDX 61 85 54 86 55 87 56 88 57 89 58 90
REMARK H PARENT 82 40 48 51
REMARK Flexibility Score: inf
ROOT
ATOM      1  C   UNL     1       2.957  -1.778  -1.353  1.00  0.00     0.202 C 
ENDROOT
BRANCH   1   2
ATOM      2  O   UNL     1       4.178  -1.134  -0.954  1.00  0.00    -0.374 OA
BRANCH   2   3
ATOM      3  C   UNL     1       4.444  -1.200   0.447  1.00  0.00     0.202 C 
BRANCH   3   4
ATOM      4  C   UNL     1       3.923  -0.023   1.266  1.00  0.00     0.261 C 
BRANCH   4   5
ATOM      5  O   UNL     1       2.545   0.289   1.010  1.00  0.00    -0.463 OA
BRANCH   5   6
ATOM      6  C   UNL     1       2.085   1.212   0.134  1.00  0.00     0.310 C 
ATOM      7  O   UNL     1       0.901   1.547   0.183  1.00  0.00    -0.252 OA
BRANCH   6   8
ATOM      8  C   UNL     1       2.985   1.763  -0.965  1.00  0.00     0.159 C 
BRANCH   8   9
ATOM      9  C   UNL     1       4.026   2.750  -0.527  1.00  0.00    -0.020 A 
ATOM     10  C   UNL     1       3.611   4.098  -0.209  1.00  0.00     0.011 A 
ATOM     11  C   UNL     1       5.330   2.437  -0.444  1.00  0.00     0.099 A 
ATOM     12  C   UNL     1       4.506   5.011   0.187  1.00  0.00     0.072 A 
ATOM     13  N   UNL     1       6.257   3.328   0.061  1.00  0.00    -0.258 N 
ATOM     14  C   UNL     1       5.940   4.643   0.358  1.00  0.00     0.254 A 
ATOM     15  O   UNL     1       6.727   5.501   0.743  1.00  0.00    -0.269 OA
BRANCH  13  16
ATOM     16  C   UNL     1       7.596   2.887   0.362  1.00  0.00     0.451 C 
ATOM     17  F   UNL     1       8.507   3.516  -0.417  1.00  0.00    -0.185 F 
ATOM     18  F   UNL     1       7.906   3.131   1.659  1.00  0.00    -0.185 F 
ENDBRANCH  13  16
ENDBRANCH   8   9
ENDBRANCH   6   8
ENDBRANCH   5   6
ENDBRANCH   4   5
ENDBRANCH   3   4
ENDBRANCH   2   3
ENDBRANCH   1   2
BRANCH   1  19
ATOM     19  C   UNL     1       3.100  -3.271  -1.669  1.00  0.00     0.261 C 
BRANCH  19  20
ATOM     20  O   UNL     1       3.475  -4.005  -0.495  1.00  0.00    -0.460 OA
BRANCH  20  21
ATOM     21  C   UNL     1       4.800  -4.274  -0.380  1.00  0.00     0.338 C 
ATOM     22  O   UNL     1       5.652  -4.134  -1.242  1.00  0.00    -0.246 OA
BRANCH  21  23
ATOM     23  C   UNL     1       5.111  -4.547   1.044  1.00  0.00     0.060 A 
ATOM     24  C   UNL     1       4.183  -5.139   1.906  1.00  0.00     0.016 A 
ATOM     25  C   UNL     1       6.359  -4.132   1.532  1.00  0.00     0.016 A 
ATOM     26  C   UNL     1       4.524  -5.355   3.242  1.00  0.00     0.010 A 
ATOM     27  C   UNL     1       6.704  -4.359   2.864  1.00  0.00     0.010 A 
ATOM     28  C   UNL     1       5.800  -5.002   3.719  1.00  0.00    -0.014 A 
BRANCH  28  29
ATOM     29  C   UNL     1       6.251  -5.518   5.033  1.00  0.00     0.031 A 
ATOM     30  C   UNL     1       6.373  -4.642   6.241  1.00  0.00     0.074 A 
ATOM     31  C   UNL     1       6.555  -6.829   5.101  1.00  0.00     0.049 A 
ATOM     32  N   UNL     1       6.644  -4.988   7.472  1.00  0.00    -0.248 NA
ATOM     33  C   UNL     1       6.177  -3.197   6.050  1.00  0.00     0.031 C 
ATOM     34  C   UNL     1       6.524  -7.753   3.963  1.00  0.00     0.029 A 
ATOM     35  N   UNL     1       6.930  -7.617   6.157  1.00  0.00    -0.354 N 
ATOM     36  C   UNL     1       6.627  -3.813   8.213  1.00  0.00     0.074 A 
ATOM     37  C   UNL     1       6.369  -2.735   7.281  1.00  0.00     0.031 C 
ATOM     38  C   UNL     1       6.820  -8.988   4.390  1.00  0.00     0.029 A 
ATOM     39  C   UNL     1       7.089  -8.941   5.823  1.00  0.00     0.049 A 
ATOM     40  H   UNL     1       7.071  -7.269   7.067  1.00  0.00     0.167 HD
ATOM     41  C   UNL     1       6.793  -3.664   9.549  1.00  0.00     0.037 A 
ATOM     42  C   UNL     1       7.405 -10.004   6.586  1.00  0.00     0.037 A 
ATOM     43  C   UNL     1       7.061  -4.753  10.456  1.00  0.00     0.049 A 
ATOM     44  C   UNL     1       7.605  -9.803   8.060  1.00  0.00     0.074 A 
ATOM     45  C   UNL     1       7.198  -4.710  11.833  1.00  0.00     0.029 A 
ATOM     46  N   UNL     1       7.244  -6.077  10.080  1.00  0.00    -0.354 N 
ATOM     47  N   UNL     1       7.490  -8.699   8.759  1.00  0.00    -0.248 NA
ATOM     48  C   UNL     1       7.972 -10.984   8.852  1.00  0.00     0.031 C 
ATOM     49  C   UNL     1       7.513  -5.995  12.283  1.00  0.00     0.029 A 
ATOM     50  C   UNL     1       7.522  -6.852  11.194  1.00  0.00     0.049 A 
ATOM     51  H   UNL     1       7.185  -6.415   9.157  1.00  0.00     0.167 HD
ATOM     52  C   UNL     1       7.753  -9.056  10.076  1.00  0.00     0.074 A 
ATOM     53  C   UNL     1       8.018 -10.480  10.079  1.00  0.00     0.031 C 
ATOM     54  C   UNL     1       7.776  -8.272  11.180  1.00  0.00     0.037 A 
BRANCH  41  55
ATOM     55  C   UNL     1       6.666  -2.284  10.136  1.00  0.00     0.058 A 
ATOM     56  C   UNL     1       5.415  -1.659  10.254  1.00  0.00     0.135 A 
ATOM     57  C   UNL     1       7.778  -1.631  10.692  1.00  0.00     0.135 A 
ATOM     58  F   UNL     1       4.319  -2.235   9.732  1.00  0.00    -0.206 F 
ATOM     59  C   UNL     1       5.271  -0.435  10.899  1.00  0.00     0.059 A 
ATOM     60  C   UNL     1       7.654  -0.416  11.362  1.00  0.00     0.059 A 
ATOM     61  F   UNL     1       8.998  -2.186  10.609  1.00  0.00    -0.206 F 
ATOM     62  C   UNL     1       6.395   0.174  11.458  1.00  0.00     0.060 A 
BRANCH  62  63
ATOM     63  S   UNL     1       6.176   1.741  12.329  1.00  0.00     0.124 S 
ATOM     64  O   UNL     1       5.832   2.639  11.231  1.00  0.00    -0.237 OA
ATOM     65  O   UNL     1       5.093   1.430  13.256  1.00  0.00    -0.237 OA
ATOM     66  O   UNL     1       7.478   1.975  12.945  1.00  0.00    -0.744 OA
ENDBRANCH  62  63
ENDBRANCH  41  55
BRANCH  42  67
ATOM     67  C   UNL     1       7.511 -11.351   5.966  1.00  0.00     0.058 A 
ATOM     68  C   UNL     1       6.559 -12.344   6.234  1.00  0.00     0.135 A 
ATOM     69  C   UNL     1       8.545 -11.659   5.068  1.00  0.00     0.135 A 
ATOM     70  F   UNL     1       5.550 -12.096   7.083  1.00  0.00    -0.206 F 
ATOM     71  C   UNL     1       6.636 -13.603   5.647  1.00  0.00     0.059 A 
ATOM     72  C   UNL     1       8.628 -12.901   4.448  1.00  0.00     0.059 A 
ATOM     73  F   UNL     1       9.467 -10.733   4.760  1.00  0.00    -0.206 F 
ATOM     74  C   UNL     1       7.675 -13.870   4.753  1.00  0.00     0.060 A 
BRANCH  74  75
ATOM     75  S   UNL     1       7.743 -15.496   3.972  1.00  0.00     0.124 S 
ATOM     76  O   UNL     1       8.121 -16.346   5.096  1.00  0.00    -0.237 OA
ATOM     77  O   UNL     1       6.378 -15.656   3.481  1.00  0.00    -0.237 OA
ATOM     78  O   UNL     1       8.759 -15.329   2.937  1.00  0.00    -0.744 OA
ENDBRANCH  74  75
ENDBRANCH  42  67
BRANCH  54  79
ATOM     79  C   UNL     1       8.091  -8.925  12.496  1.00  0.00     0.058 A 
ATOM     80  C   UNL     1       9.399  -9.309  12.825  1.00  0.00     0.135 A 
ATOM     81  C   UNL     1       7.096  -9.065  13.478  1.00  0.00     0.135 A 
ATOM     82  F   UNL     1      10.382  -9.207  11.916  1.00  0.00    -0.206 F 
ATOM     83  C   UNL     1       9.714  -9.802  14.086  1.00  0.00     0.059 A 
ATOM     84  C   UNL     1       7.394  -9.532  14.755  1.00  0.00     0.059 A 
ATOM     85  F   UNL     1       5.830  -8.708  13.213  1.00  0.00    -0.206 F 
ATOM     86  C   UNL     1       8.707  -9.895  15.049  1.00  0.00     0.060 A 
BRANCH  86  87
ATOM     87  S   UNL     1       9.153 -10.450  16.708  1.00  0.00     0.124 S 
ATOM     88  O   UNL     1       9.456 -11.859  16.477  1.00  0.00    -0.237 OA
ATOM     89  O   UNL     1      10.297  -9.599  17.021  1.00  0.00    -0.237 OA
ATOM     90  O   UNL     1       7.950 -10.188  17.492  1.00  0.00    -0.744 OA
ENDBRANCH  86  87
ENDBRANCH  54  79
ENDBRANCH  28  29
ENDBRANCH  21  23
ENDBRANCH  20  21
ENDBRANCH  19  20
ENDBRANCH   1  19
TORSDOF 19
