REMARK SMILES COc1ccc(NC(=O)[C@@H]2[C@@H](C(=O)OCCOCCOC(=O)c3ccc(-c4c5nc(c(-c6c(F)cc(S(=O)(=O)[O-])cc6F)c6ccc([nH]6)c(-c6c(F)cc(S(=O)(=O)[O-])cc6F)c6nc(c(-c7c(F)cc(S(=O)(=O)[O-])cc7F)c7ccc4[nH]7)C=C6)C=C5)cc3)[C@@H]3CC[C@H]2C3=C(C)C)cc1
REMARK SMILES IDX 17 1 16 2 15 3 14 4 12 5 13 6 11 7 10 8 92 9 89 10 91 11
REMARK SMILES IDX 93 12 90 13 94 14 95 15 96 16 8 17 7 18 9 20 6 21 3 22 4 23
REMARK SMILES IDX 98 24 5 25 97 26 2 27 1 28 18 29 19 30 20 31 21 32 22 33
REMARK SMILES IDX 23 34 24 35 88 36 25 37 87 38 26 39 27 40 28 41 81 42 29 43
REMARK SMILES IDX 86 44 80 45 82 46 30 47 85 48 79 49 78 50 31 52 65 53 44 54
REMARK SMILES IDX 64 55 45 56 48 57 63 58 83 59 46 60 47 61 62 63 84 64 49 65
REMARK SMILES IDX 32 66 33 67 42 68 34 69 35 70 41 71 43 72 36 73 37 74 38 75
REMARK SMILES IDX 39 76 40 77 66 78 67 79 76 80 68 81 69 82 75 83 77 84 70 85
REMARK SMILES IDX 71 86 72 87 73 88 74 89 50 90 51 91 60 92 52 93 53 94 59 95
REMARK SMILES IDX 61 96 54 97 55 98 56 99 57 100 58 101
REMARK H PARENT 7 19 82 51 48 62
REMARK Flexibility Score: inf
ROOT
ATOM      1  O   UNL     1      -5.694   8.180  -0.994  1.00  0.00    -0.374 OA
ENDROOT
BRANCH   1   2
ATOM      2  C   UNL     1      -4.855   9.317  -0.808  1.00  0.00     0.202 C 
BRANCH   2   3
ATOM      3  C   UNL     1      -3.470   9.116  -0.177  1.00  0.00     0.261 C 
BRANCH   3   4
ATOM      4  O   UNL     1      -2.644   8.133  -0.850  1.00  0.00    -0.463 OA
BRANCH   4   5
ATOM      5  C   UNL     1      -2.111   7.180  -0.043  1.00  0.00     0.310 C 
ATOM      6  O   UNL     1      -2.274   7.141   1.176  1.00  0.00    -0.252 OA
BRANCH   5   7
ATOM      7  C   UNL     1      -1.345   6.058  -0.735  1.00  0.00     0.119 C 
ATOM      8  C   UNL     1      -0.523   6.372  -1.980  1.00  0.00     0.101 C 
ATOM      9  C   UNL     1      -0.934   5.269  -2.991  1.00  0.00     0.029 C 
ATOM     10  C   UNL     1      -2.269   4.893  -1.176  1.00  0.00     0.030 C 
ATOM     11  C   UNL     1      -0.573   3.842  -2.561  1.00  0.00     0.009 C 
ATOM     12  C   UNL     1      -2.398   5.038  -2.667  1.00  0.00    -0.064 C 
ATOM     13  C   UNL     1      -1.489   3.584  -1.322  1.00  0.00     0.009 C 
ATOM     14  C   UNL     1      -3.376   4.566  -3.475  1.00  0.00    -0.077 C 
ATOM     15  C   UNL     1      -4.607   3.869  -2.950  1.00  0.00     0.039 C 
ATOM     16  C   UNL     1      -3.253   4.559  -4.975  1.00  0.00     0.039 C 
BRANCH   8  17
ATOM     17  C   UNL     1       0.979   6.705  -1.775  1.00  0.00     0.228 C 
ATOM     18  N   UNL     1       2.032   5.924  -1.406  1.00  0.00    -0.326 N 
ATOM     19  H   UNL     1       2.884   6.409  -1.500  1.00  0.00     0.169 HD
ATOM     20  O   UNL     1       1.320   7.872  -2.047  1.00  0.00    -0.274 OA
BRANCH  18  21
ATOM     21  C   UNL     1       2.245   4.622  -0.929  1.00  0.00     0.041 A 
ATOM     22  C   UNL     1       2.482   1.830  -0.525  1.00  0.00     0.119 A 
ATOM     23  C   UNL     1       1.440   2.546   0.036  1.00  0.00     0.048 A 
ATOM     24  C   UNL     1       3.505   2.553  -1.141  1.00  0.00     0.048 A 
ATOM     25  C   UNL     1       1.372   3.940  -0.106  1.00  0.00     0.030 A 
ATOM     26  C   UNL     1       3.398   3.943  -1.331  1.00  0.00     0.030 A 
BRANCH  22  27
ATOM     27  O   UNL     1       2.617   0.475  -0.546  1.00  0.00    -0.497 OA
ATOM     28  C   UNL     1       1.688  -0.343   0.158  1.00  0.00     0.278 C 
ENDBRANCH  22  27
ENDBRANCH  18  21
ENDBRANCH   8  17
ENDBRANCH   5   7
ENDBRANCH   4   5
ENDBRANCH   3   4
ENDBRANCH   2   3
ENDBRANCH   1   2
BRANCH   1  29
ATOM     29  C   UNL     1      -5.175   7.087  -1.732  1.00  0.00     0.202 C 
BRANCH  29  30
ATOM     30  C   UNL     1      -4.737   7.301  -3.184  1.00  0.00     0.261 C 
BRANCH  30  31
ATOM     31  O   UNL     1      -4.571   8.633  -3.591  1.00  0.00    -0.460 OA
BRANCH  31  32
ATOM     32  C   UNL     1      -5.582   9.123  -4.319  1.00  0.00     0.338 C 
ATOM     33  O   UNL     1      -6.628   8.598  -4.653  1.00  0.00    -0.246 OA
BRANCH  32  34
ATOM     34  C   UNL     1      -5.188  10.502  -4.530  1.00  0.00     0.060 A 
ATOM     35  C   UNL     1      -5.899  11.479  -3.837  1.00  0.00     0.016 A 
ATOM     36  C   UNL     1      -4.067  10.790  -5.319  1.00  0.00     0.016 A 
ATOM     37  C   UNL     1      -5.537  12.796  -4.012  1.00  0.00     0.010 A 
ATOM     38  C   UNL     1      -3.699  12.112  -5.482  1.00  0.00     0.010 A 
ATOM     39  C   UNL     1      -4.476  13.108  -4.875  1.00  0.00    -0.014 A 
BRANCH  39  40
ATOM     40  C   UNL     1      -4.329  14.503  -5.298  1.00  0.00     0.031 A 
ATOM     41  C   UNL     1      -4.891  14.885  -6.633  1.00  0.00     0.074 A 
ATOM     42  C   UNL     1      -3.781  15.387  -4.452  1.00  0.00     0.049 A 
ATOM     43  N   UNL     1      -4.923  16.054  -7.207  1.00  0.00    -0.248 NA
ATOM     44  C   UNL     1      -5.498  13.803  -7.433  1.00  0.00     0.031 C 
ATOM     45  C   UNL     1      -3.246  15.064  -3.127  1.00  0.00     0.029 A 
ATOM     46  N   UNL     1      -3.594  16.732  -4.577  1.00  0.00    -0.354 N 
ATOM     47  C   UNL     1      -5.541  15.848  -8.434  1.00  0.00     0.074 A 
ATOM     48  C   UNL     1      -5.836  14.440  -8.543  1.00  0.00     0.031 C 
ATOM     49  C   UNL     1      -2.791  16.192  -2.558  1.00  0.00     0.029 A 
ATOM     50  C   UNL     1      -2.971  17.297  -3.494  1.00  0.00     0.049 A 
ATOM     51  H   UNL     1      -3.879  17.246  -5.367  1.00  0.00     0.167 HD
ATOM     52  C   UNL     1      -5.840  16.770  -9.375  1.00  0.00     0.037 A 
ATOM     53  C   UNL     1      -2.575  18.567  -3.306  1.00  0.00     0.037 A 
ATOM     54  C   UNL     1      -5.533  18.166  -9.218  1.00  0.00     0.049 A 
ATOM     55  C   UNL     1      -2.883  19.566  -4.388  1.00  0.00     0.074 A 
ATOM     56  C   UNL     1      -5.800  19.209 -10.083  1.00  0.00     0.029 A 
ATOM     57  N   UNL     1      -4.877  18.709  -8.119  1.00  0.00    -0.354 N 
ATOM     58  N   UNL     1      -3.497  19.375  -5.535  1.00  0.00    -0.248 NA
ATOM     59  C   UNL     1      -2.458  20.948  -4.154  1.00  0.00     0.031 C 
ATOM     60  C   UNL     1      -5.250  20.372  -9.536  1.00  0.00     0.029 A 
ATOM     61  C   UNL     1      -4.702  20.068  -8.297  1.00  0.00     0.049 A 
ATOM     62  H   UNL     1      -4.581  18.199  -7.330  1.00  0.00     0.167 HD
ATOM     63  C   UNL     1      -3.552  20.618  -6.150  1.00  0.00     0.074 A 
ATOM     64  C   UNL     1      -2.925  21.555  -5.236  1.00  0.00     0.031 C 
ATOM     65  C   UNL     1      -4.072  20.962  -7.356  1.00  0.00     0.037 A 
BRANCH  52  66
ATOM     66  C   UNL     1      -6.485  16.296 -10.646  1.00  0.00     0.058 A 
ATOM     67  C   UNL     1      -7.803  15.813 -10.684  1.00  0.00     0.135 A 
ATOM     68  C   UNL     1      -5.776  16.350 -11.858  1.00  0.00     0.135 A 
ATOM     69  F   UNL     1      -8.519  15.709  -9.552  1.00  0.00    -0.206 F 
ATOM     70  C   UNL     1      -8.390  15.388 -11.872  1.00  0.00     0.059 A 
ATOM     71  C   UNL     1      -6.353  15.960 -13.062  1.00  0.00     0.059 A 
ATOM     72  F   UNL     1      -4.507  16.787 -11.879  1.00  0.00    -0.206 F 
ATOM     73  C   UNL     1      -7.658  15.473 -13.058  1.00  0.00     0.060 A 
BRANCH  73  74
ATOM     74  S   UNL     1      -8.445  14.950 -14.596  1.00  0.00     0.124 S 
ATOM     75  O   UNL     1      -8.517  13.504 -14.413  1.00  0.00    -0.237 OA
ATOM     76  O   UNL     1      -9.720  15.659 -14.548  1.00  0.00    -0.237 OA
ATOM     77  O   UNL     1      -7.517  15.405 -15.626  1.00  0.00    -0.744 OA
ENDBRANCH  73  74
ENDBRANCH  52  66
BRANCH  53  78
ATOM     78  C   UNL     1      -1.845  18.939  -2.068  1.00  0.00     0.058 A 
ATOM     79  C   UNL     1      -2.415  19.786  -1.109  1.00  0.00     0.135 A 
ATOM     80  C   UNL     1      -0.564  18.425  -1.807  1.00  0.00     0.135 A 
ATOM     81  F   UNL     1      -3.638  20.300  -1.308  1.00  0.00    -0.206 F 
ATOM     82  C   UNL     1      -1.734  20.130   0.055  1.00  0.00     0.059 A 
ATOM     83  C   UNL     1       0.124  18.729  -0.638  1.00  0.00     0.059 A 
ATOM     84  F   UNL     1       0.019  17.591  -2.683  1.00  0.00    -0.206 F 
ATOM     85  C   UNL     1      -0.465  19.594   0.282  1.00  0.00     0.060 A 
BRANCH  85  86
ATOM     86  S   UNL     1       0.397  20.023   1.809  1.00  0.00     0.124 S 
ATOM     87  O   UNL     1       0.734  21.421   1.572  1.00  0.00    -0.237 OA
ATOM     88  O   UNL     1      -0.629  19.774   2.817  1.00  0.00    -0.237 OA
ATOM     89  O   UNL     1       1.525  19.096   1.831  1.00  0.00    -0.744 OA
ENDBRANCH  85  86
ENDBRANCH  53  78
BRANCH  65  90
ATOM     90  C   UNL     1      -4.011  22.415  -7.733  1.00  0.00     0.058 A 
ATOM     91  C   UNL     1      -2.802  23.038  -8.076  1.00  0.00     0.135 A 
ATOM     92  C   UNL     1      -5.190  23.174  -7.805  1.00  0.00     0.135 A 
ATOM     93  F   UNL     1      -1.647  22.356  -8.016  1.00  0.00    -0.206 F 
ATOM     94  C   UNL     1      -2.760  24.376  -8.450  1.00  0.00     0.059 A 
ATOM     95  C   UNL     1      -5.175  24.502  -8.213  1.00  0.00     0.059 A 
ATOM     96  F   UNL     1      -6.373  22.618  -7.501  1.00  0.00    -0.206 F 
ATOM     97  C   UNL     1      -3.953  25.098  -8.519  1.00  0.00     0.060 A 
BRANCH  97  98
ATOM     98  S   UNL     1      -3.886  26.823  -9.038  1.00  0.00     0.124 S 
ATOM     99  O   UNL     1      -3.282  27.457  -7.871  1.00  0.00    -0.237 OA
ATOM    100  O   UNL     1      -3.047  26.757 -10.230  1.00  0.00    -0.237 OA
ATOM    101  O   UNL     1      -5.286  27.160  -9.282  1.00  0.00    -0.744 OA
ENDBRANCH  97  98
ENDBRANCH  65  90
ENDBRANCH  39  40
ENDBRANCH  32  34
ENDBRANCH  31  32
ENDBRANCH  30  31
ENDBRANCH  29  30
ENDBRANCH   1  29
TORSDOF 20
