REMARK SMILES CC(C)(CC(=O)OCCOCCOC(=O)c1ccc(-c2c3nc(c(-c4c(F)cc(S(=O)(=O)[O-])cc4F)c4ccc([nH]4)c(-c4c(F)cc(S(=O)(=O)[O-])cc4F)c4nc(c(-c5c(F)cc(S(=O)(=O)[O-])cc5F)c5ccc2[nH]5)C=C4)C=C3)cc1)Cc1nc([C@@]2(C)CCCO2)no1
REMARK SMILES IDX 9 1 8 2 7 3 5 4 6 5 4 6 2 7 1 8 3 9 82 10 83 11 84 12 93 13
REMARK SMILES IDX 85 14 92 15 86 16 87 17 88 18 91 19 89 20 90 21 10 22 11 23
REMARK SMILES IDX 12 24 13 25 14 26 15 27 16 28 17 29 81 30 18 31 80 32 19 33
REMARK SMILES IDX 20 34 21 35 74 36 22 37 79 38 73 39 75 40 23 41 78 42 72 43
REMARK SMILES IDX 71 44 24 46 58 47 37 48 57 49 38 50 41 51 56 52 76 53 39 54
REMARK SMILES IDX 40 55 55 57 77 58 42 59 25 60 26 61 35 62 27 63 28 64 34 65
REMARK SMILES IDX 36 66 29 67 30 68 31 69 32 70 33 71 59 72 60 73 69 74 61 75
REMARK SMILES IDX 62 76 68 77 70 78 63 79 64 80 65 81 66 82 67 83 43 84 44 85
REMARK SMILES IDX 53 86 45 87 46 88 52 89 54 90 47 91 48 92 49 93 50 94 51 95
REMARK H PARENT 75 45 41 56
REMARK Flexibility Score: inf
ROOT
ATOM      1  C   UNL     1      -2.832   3.057   0.852  1.00  0.00     0.202 C 
ENDROOT
BRANCH   1   2
ATOM      2  C   UNL     1      -2.687   1.586   1.274  1.00  0.00     0.261 C 
BRANCH   2   3
ATOM      3  O   UNL     1      -1.645   0.873   0.610  1.00  0.00    -0.463 OA
BRANCH   3   4
ATOM      4  C   UNL     1      -2.024   0.367  -0.575  1.00  0.00     0.306 C 
ATOM      5  O   UNL     1      -3.174   0.361  -1.003  1.00  0.00    -0.252 OA
BRANCH   4   6
ATOM      6  C   UNL     1      -0.886  -0.173  -1.397  1.00  0.00     0.129 C 
BRANCH   6   7
ATOM      7  C   UNL     1       0.630   0.040  -1.106  1.00  0.00    -0.016 C 
ATOM      8  C   UNL     1       1.069  -0.436   0.282  1.00  0.00     0.012 C 
ATOM      9  C   UNL     1       1.288  -0.931  -2.148  1.00  0.00     0.012 C 
BRANCH   7  10
ATOM     10  C   UNL     1       1.215   1.452  -1.402  1.00  0.00     0.107 C 
BRANCH  10  11
ATOM     11  C   UNL     1       0.975   2.614  -0.476  1.00  0.00     0.227 A 
ATOM     12  N   UNL     1      -0.141   3.066   0.650  1.00  0.00    -0.193 NA
ATOM     13  O   UNL     1       1.826   4.190  -1.022  1.00  0.00    -0.339 OA
ATOM     14  C   UNL     1      -0.151   4.928   0.952  1.00  0.00     0.203 A 
ATOM     15  N   UNL     1       1.028   5.677  -0.038  1.00  0.00    -0.059 NA
BRANCH  14  16
ATOM     16  C   UNL     1      -0.752   5.695   2.141  1.00  0.00     0.128 C 
ATOM     17  C   UNL     1      -1.663   4.932   3.141  1.00  0.00     0.051 C 
ATOM     18  C   UNL     1       0.350   6.457   2.897  1.00  0.00     0.046 C 
ATOM     19  O   UNL     1      -1.594   6.789   1.669  1.00  0.00    -0.367 OA
ATOM     20  C   UNL     1      -0.418   7.538   3.615  1.00  0.00     0.032 C 
ATOM     21  C   UNL     1      -1.550   7.841   2.652  1.00  0.00     0.161 C 
ENDBRANCH  14  16
ENDBRANCH  10  11
ENDBRANCH   7  10
ENDBRANCH   6   7
ENDBRANCH   4   6
ENDBRANCH   3   4
ENDBRANCH   2   3
ENDBRANCH   1   2
BRANCH   1  22
ATOM     22  O   UNL     1      -2.742   3.525  -0.481  1.00  0.00    -0.374 OA
BRANCH  22  23
ATOM     23  C   UNL     1      -1.521   3.404  -1.199  1.00  0.00     0.202 C 
BRANCH  23  24
ATOM     24  C   UNL     1      -0.085   4.250  -0.940  1.00  0.00     0.261 C 
BRANCH  24  25
ATOM     25  O   UNL     1       1.350   4.020   0.579  1.00  0.00    -0.460 OA
BRANCH  25  26
ATOM     26  C   UNL     1       2.255   3.843   1.581  1.00  0.00     0.338 C 
ATOM     27  O   UNL     1       3.266   4.543   1.638  1.00  0.00    -0.246 OA
BRANCH  26  28
ATOM     28  C   UNL     1       2.065   2.884   2.716  1.00  0.00     0.060 A 
ATOM     29  C   UNL     1       1.030   3.084   3.620  1.00  0.00     0.016 A 
ATOM     30  C   UNL     1       3.252   2.349   3.211  1.00  0.00     0.016 A 
ATOM     31  C   UNL     1       1.270   3.167   4.989  1.00  0.00     0.010 A 
ATOM     32  C   UNL     1       3.463   2.264   4.587  1.00  0.00     0.010 A 
ATOM     33  C   UNL     1       2.507   2.763   5.483  1.00  0.00    -0.014 A 
BRANCH  33  34
ATOM     34  C   UNL     1       2.787   2.774   6.934  1.00  0.00     0.031 A 
ATOM     35  C   UNL     1       3.893   3.626   7.484  1.00  0.00     0.074 A 
ATOM     36  C   UNL     1       2.067   1.962   7.730  1.00  0.00     0.049 A 
ATOM     37  N   UNL     1       4.409   3.623   8.684  1.00  0.00    -0.248 NA
ATOM     38  C   UNL     1       4.504   4.600   6.566  1.00  0.00     0.031 C 
ATOM     39  C   UNL     1       0.936   1.143   7.286  1.00  0.00     0.029 A 
ATOM     40  N   UNL     1       2.182   1.672   9.063  1.00  0.00    -0.354 N 
ATOM     41  C   UNL     1       5.426   4.569   8.661  1.00  0.00     0.074 A 
ATOM     42  C   UNL     1       5.467   5.113   7.321  1.00  0.00     0.031 C 
ATOM     43  C   UNL     1       0.458   0.448   8.326  1.00  0.00     0.029 A 
ATOM     44  C   UNL     1       1.303   0.701   9.483  1.00  0.00     0.049 A 
ATOM     45  H   UNL     1       2.827   2.115   9.660  1.00  0.00     0.167 HD
ATOM     46  C   UNL     1       6.249   4.932   9.673  1.00  0.00     0.037 A 
ATOM     47  C   UNL     1       1.225   0.045  10.655  1.00  0.00     0.037 A 
ATOM     48  C   UNL     1       6.188   4.349  10.991  1.00  0.00     0.049 A 
ATOM     49  C   UNL     1       2.213   0.402  11.728  1.00  0.00     0.074 A 
ATOM     50  C   UNL     1       6.968   4.636  12.097  1.00  0.00     0.029 A 
ATOM     51  N   UNL     1       5.305   3.346  11.375  1.00  0.00    -0.354 N 
ATOM     52  N   UNL     1       3.174   1.296  11.697  1.00  0.00    -0.248 NA
ATOM     53  C   UNL     1       2.110  -0.334  12.991  1.00  0.00     0.031 C 
ATOM     54  C   UNL     1       6.617   3.748  13.118  1.00  0.00     0.029 A 
ATOM     55  C   UNL     1       5.548   2.976  12.687  1.00  0.00     0.049 A 
ATOM     56  H   UNL     1       4.609   2.956  10.798  1.00  0.00     0.167 HD
ATOM     57  C   UNL     1       3.767   1.258  12.953  1.00  0.00     0.074 A 
ATOM     58  C   UNL     1       3.043   0.262  13.719  1.00  0.00     0.031 C 
ATOM     59  C   UNL     1       4.810   1.982  13.430  1.00  0.00     0.037 A 
BRANCH  46  60
ATOM     60  C   UNL     1       7.313   5.956   9.381  1.00  0.00     0.058 A 
ATOM     61  C   UNL     1       7.006   7.292   9.078  1.00  0.00     0.135 A 
ATOM     62  C   UNL     1       8.671   5.595   9.429  1.00  0.00     0.135 A 
ATOM     63  F   UNL     1       5.727   7.693   9.001  1.00  0.00    -0.206 F 
ATOM     64  C   UNL     1       8.003   8.225   8.806  1.00  0.00     0.059 A 
ATOM     65  C   UNL     1       9.685   6.520   9.200  1.00  0.00     0.059 A 
ATOM     66  F   UNL     1       9.026   4.331   9.706  1.00  0.00    -0.206 F 
ATOM     67  C   UNL     1       9.340   7.830   8.878  1.00  0.00     0.060 A 
BRANCH  67  68
ATOM     68  S   UNL     1      10.618   9.062   8.556  1.00  0.00     0.124 S 
ATOM     69  O   UNL     1      10.416   9.334   7.136  1.00  0.00    -0.237 OA
ATOM     70  O   UNL     1      10.242  10.139   9.467  1.00  0.00    -0.237 OA
ATOM     71  O   UNL     1      11.857   8.366   8.890  1.00  0.00    -0.744 OA
ENDBRANCH  67  68
ENDBRANCH  46  60
BRANCH  47  72
ATOM     72  C   UNL     1       0.206  -1.020  10.853  1.00  0.00     0.058 A 
ATOM     73  C   UNL     1      -0.817  -0.875  11.802  1.00  0.00     0.135 A 
ATOM     74  C   UNL     1       0.228  -2.204  10.096  1.00  0.00     0.135 A 
ATOM     75  F   UNL     1      -0.883   0.235  12.551  1.00  0.00    -0.206 F 
ATOM     76  C   UNL     1      -1.763  -1.872  12.012  1.00  0.00     0.059 A 
ATOM     77  C   UNL     1      -0.732  -3.198  10.259  1.00  0.00     0.059 A 
ATOM     78  F   UNL     1       1.172  -2.390   9.160  1.00  0.00    -0.206 F 
ATOM     79  C   UNL     1      -1.716  -3.027  11.230  1.00  0.00     0.060 A 
BRANCH  79  80
ATOM     80  S   UNL     1      -2.980  -4.291  11.482  1.00  0.00     0.124 S 
ATOM     81  O   UNL     1      -2.655  -4.771  12.820  1.00  0.00    -0.237 OA
ATOM     82  O   UNL     1      -4.209  -3.514  11.361  1.00  0.00    -0.237 OA
ATOM     83  O   UNL     1      -2.733  -5.235  10.396  1.00  0.00    -0.744 OA
ENDBRANCH  79  80
ENDBRANCH  47  72
BRANCH  59  84
ATOM     84  C   UNL     1       5.192   1.764  14.869  1.00  0.00     0.058 A 
ATOM     85  C   UNL     1       5.752   0.559  15.322  1.00  0.00     0.135 A 
ATOM     86  C   UNL     1       5.032   2.803  15.802  1.00  0.00     0.135 A 
ATOM     87  F   UNL     1       5.921  -0.470  14.476  1.00  0.00    -0.206 F 
ATOM     88  C   UNL     1       6.102   0.378  16.655  1.00  0.00     0.059 A 
ATOM     89  C   UNL     1       5.422   2.662  17.128  1.00  0.00     0.059 A 
ATOM     90  F   UNL     1       4.511   3.981  15.422  1.00  0.00    -0.206 F 
ATOM     91  C   UNL     1       5.941   1.440  17.548  1.00  0.00     0.060 A 
BRANCH  91  92
ATOM     92  S   UNL     1       6.438   1.201  19.265  1.00  0.00     0.124 S 
ATOM     93  O   UNL     1       5.447   0.235  19.728  1.00  0.00    -0.237 OA
ATOM     94  O   UNL     1       7.800   0.696  19.123  1.00  0.00    -0.237 OA
ATOM     95  O   UNL     1       6.327   2.538  19.842  1.00  0.00    -0.744 OA
ENDBRANCH  91  92
ENDBRANCH  59  84
ENDBRANCH  33  34
ENDBRANCH  26  28
ENDBRANCH  25  26
ENDBRANCH  24  25
ENDBRANCH  23  24
ENDBRANCH  22  23
ENDBRANCH   1  22
TORSDOF 21
