REMARK SMILES O=C(OCCOCCOC(=O)c1ccc(-c2c3nc(c(-c4c(F)cc(S(=O)(=O)[O-])cc4F)c4ccc([nH]4)c(-c4c(F)cc(S(=O)(=O)[O-])cc4F)c4nc(c(-c5c(F)cc(S(=O)(=O)[O-])cc5F)c5ccc2[nH]5)C=C4)C=C3)cc1)C1=Cc2ccc(Cl)c(Cl)c2O[C@@H]1C(F)(F)F
REMARK SMILES IDX 7 1 6 2 5 3 4 4 3 5 2 6 1 7 78 8 79 9 89 10 80 11 88 12
REMARK SMILES IDX 81 13 87 14 82 15 85 16 83 17 86 18 84 19 90 20 91 21 92 22
REMARK SMILES IDX 93 23 8 24 9 25 10 26 11 27 12 28 13 29 77 30 14 31 76 32
REMARK SMILES IDX 15 33 16 34 17 35 70 36 18 37 75 38 69 39 71 40 19 41 74 42
REMARK SMILES IDX 68 43 67 44 20 46 54 47 33 48 53 49 34 50 37 51 52 52 72 53
REMARK SMILES IDX 35 54 36 55 51 57 73 58 38 59 21 60 22 61 31 62 23 63 24 64
REMARK SMILES IDX 30 65 32 66 25 67 26 68 27 69 28 70 29 71 55 72 56 73 65 74
REMARK SMILES IDX 57 75 58 76 64 77 66 78 59 79 60 80 61 81 62 82 63 83 39 84
REMARK SMILES IDX 40 85 49 86 41 87 42 88 48 89 50 90 43 91 44 92 45 93 46 94
REMARK SMILES IDX 47 95
REMARK H PARENT 71 45 37 56
REMARK Flexibility Score: inf
ROOT
ATOM      1  C   UNL     1       2.697  -0.508   2.951  1.00  0.00     0.202 C 
ENDROOT
BRANCH   1   2
ATOM      2  O   UNL     1       3.841  -1.006   2.240  1.00  0.00    -0.374 OA
BRANCH   2   3
ATOM      3  C   UNL     1       4.290  -1.018   0.704  1.00  0.00     0.202 C 
BRANCH   3   4
ATOM      4  C   UNL     1       3.425  -0.162  -1.096  1.00  0.00     0.261 C 
BRANCH   4   5
ATOM      5  O   UNL     1       2.458  -0.848  -2.073  1.00  0.00    -0.460 OA
BRANCH   5   6
ATOM      6  C   UNL     1       2.614  -2.173  -2.107  1.00  0.00     0.338 C 
ATOM      7  O   UNL     1       1.965  -3.007  -2.684  1.00  0.00    -0.246 OA
BRANCH   6   8
ATOM      8  C   UNL     1       3.504  -2.246  -0.968  1.00  0.00     0.087 C 
ATOM      9  C   UNL     1       4.888  -1.863  -1.326  1.00  0.00     0.027 C 
ATOM     10  C   UNL     1       2.363  -1.258   0.240  1.00  0.00     0.316 C 
ATOM     11  C   UNL     1       5.644  -0.285  -0.854  1.00  0.00     0.019 A 
ATOM     12  O   UNL     1       3.117   0.461   0.694  1.00  0.00    -0.474 OA
ATOM     13  C   UNL     1       6.851   0.043  -1.405  1.00  0.00     0.013 A 
ATOM     14  C   UNL     1       4.759   0.927   0.029  1.00  0.00     0.148 A 
ATOM     15  C   UNL     1       7.210   1.390  -1.267  1.00  0.00     0.023 A 
ATOM     16  C   UNL     1       5.113   2.250  -0.054  1.00  0.00     0.102 A 
ATOM     17  C   UNL     1       6.374   2.438  -0.691  1.00  0.00     0.063 A 
ATOM     18  Cl  UNL     1       3.976   3.496   0.210  1.00  0.00    -0.079 Cl
ATOM     19  Cl  UNL     1       7.038   4.018  -0.959  1.00  0.00    -0.083 Cl
BRANCH  10  20
ATOM     20  C   UNL     1       1.914  -2.497   1.135  1.00  0.00     0.430 C 
ATOM     21  F   UNL     1       1.039  -2.233   2.119  1.00  0.00    -0.167 F 
ATOM     22  F   UNL     1       1.247  -3.362   0.308  1.00  0.00    -0.167 F 
ATOM     23  F   UNL     1       2.931  -3.236   1.635  1.00  0.00    -0.167 F 
ENDBRANCH  10  20
ENDBRANCH   6   8
ENDBRANCH   5   6
ENDBRANCH   4   5
ENDBRANCH   3   4
ENDBRANCH   2   3
ENDBRANCH   1   2
BRANCH   1  24
ATOM     24  C   UNL     1       2.884   0.569   4.006  1.00  0.00     0.261 C 
BRANCH  24  25
ATOM     25  O   UNL     1       3.447   1.754   3.486  1.00  0.00    -0.460 OA
BRANCH  25  26
ATOM     26  C   UNL     1       4.780   1.850   3.674  1.00  0.00     0.338 C 
ATOM     27  O   UNL     1       5.547   0.981   4.046  1.00  0.00    -0.246 OA
BRANCH  26  28
ATOM     28  C   UNL     1       5.176   3.221   3.322  1.00  0.00     0.060 A 
ATOM     29  C   UNL     1       6.455   3.418   2.801  1.00  0.00     0.016 A 
ATOM     30  C   UNL     1       4.274   4.288   3.459  1.00  0.00     0.016 A 
ATOM     31  C   UNL     1       6.822   4.689   2.374  1.00  0.00     0.010 A 
ATOM     32  C   UNL     1       4.638   5.553   3.020  1.00  0.00     0.010 A 
ATOM     33  C   UNL     1       5.914   5.753   2.479  1.00  0.00    -0.014 A 
BRANCH  33  34
ATOM     34  C   UNL     1       6.384   7.127   2.239  1.00  0.00     0.031 A 
ATOM     35  C   UNL     1       6.921   7.868   3.420  1.00  0.00     0.074 A 
ATOM     36  C   UNL     1       6.343   7.684   1.017  1.00  0.00     0.049 A 
ATOM     37  N   UNL     1       7.413   9.072   3.481  1.00  0.00    -0.248 NA
ATOM     38  C   UNL     1       6.883   7.157   4.711  1.00  0.00     0.031 C 
ATOM     39  C   UNL     1       5.820   7.043  -0.182  1.00  0.00     0.029 A 
ATOM     40  N   UNL     1       6.755   8.916   0.581  1.00  0.00    -0.354 N 
ATOM     41  C   UNL     1       7.751   9.262   4.812  1.00  0.00     0.074 A 
ATOM     42  C   UNL     1       7.367   8.071   5.534  1.00  0.00     0.031 C 
ATOM     43  C   UNL     1       5.986   7.862  -1.234  1.00  0.00     0.029 A 
ATOM     44  C   UNL     1       6.554   9.120  -0.764  1.00  0.00     0.049 A 
ATOM     45  H   UNL     1       7.156   9.591   1.175  1.00  0.00     0.167 HD
ATOM     46  C   UNL     1       8.340  10.338   5.375  1.00  0.00     0.037 A 
ATOM     47  C   UNL     1       6.781  10.215  -1.517  1.00  0.00     0.037 A 
ATOM     48  C   UNL     1       8.674  11.528   4.642  1.00  0.00     0.049 A 
ATOM     49  C   UNL     1       7.361  11.433  -0.845  1.00  0.00     0.074 A 
ATOM     50  C   UNL     1       9.267  12.684   5.111  1.00  0.00     0.029 A 
ATOM     51  N   UNL     1       8.420  11.722   3.291  1.00  0.00    -0.354 N 
ATOM     52  N   UNL     1       7.725  11.590   0.407  1.00  0.00    -0.248 NA
ATOM     53  C   UNL     1       7.560  12.623  -1.681  1.00  0.00     0.031 C 
ATOM     54  C   UNL     1       9.306  13.604   4.060  1.00  0.00     0.029 A 
ATOM     55  C   UNL     1       8.814  12.994   2.915  1.00  0.00     0.049 A 
ATOM     56  H   UNL     1       8.018  11.054   2.689  1.00  0.00     0.167 HD
ATOM     57  C   UNL     1       8.225  12.884   0.501  1.00  0.00     0.074 A 
ATOM     58  C   UNL     1       8.131  13.460  -0.826  1.00  0.00     0.031 C 
ATOM     59  C   UNL     1       8.717  13.539   1.582  1.00  0.00     0.037 A 
BRANCH  46  60
ATOM     60  C   UNL     1       8.606  10.279   6.849  1.00  0.00     0.058 A 
ATOM     61  C   UNL     1       9.560   9.404   7.395  1.00  0.00     0.135 A 
ATOM     62  C   UNL     1       7.893  11.106   7.730  1.00  0.00     0.135 A 
ATOM     63  F   UNL     1      10.245   8.565   6.600  1.00  0.00    -0.206 F 
ATOM     64  C   UNL     1       9.781   9.336   8.765  1.00  0.00     0.059 A 
ATOM     65  C   UNL     1       8.123  11.081   9.100  1.00  0.00     0.059 A 
ATOM     66  F   UNL     1       6.956  11.945   7.262  1.00  0.00    -0.206 F 
ATOM     67  C   UNL     1       9.062  10.184   9.609  1.00  0.00     0.060 A 
BRANCH  67  68
ATOM     68  S   UNL     1       9.379  10.098  11.382  1.00  0.00     0.124 S 
ATOM     69  O   UNL     1       8.826   8.789  11.715  1.00  0.00    -0.237 OA
ATOM     70  O   UNL     1      10.833  10.206  11.441  1.00  0.00    -0.237 OA
ATOM     71  O   UNL     1       8.645  11.242  11.915  1.00  0.00    -0.744 OA
ENDBRANCH  67  68
ENDBRANCH  46  60
BRANCH  47  72
ATOM     72  C   UNL     1       6.442  10.223  -2.968  1.00  0.00     0.058 A 
ATOM     73  C   UNL     1       7.436  10.357  -3.949  1.00  0.00     0.135 A 
ATOM     74  C   UNL     1       5.111  10.118  -3.406  1.00  0.00     0.135 A 
ATOM     75  F   UNL     1       8.723  10.472  -3.588  1.00  0.00    -0.206 F 
ATOM     76  C   UNL     1       7.125  10.410  -5.305  1.00  0.00     0.059 A 
ATOM     77  C   UNL     1       4.777  10.134  -4.757  1.00  0.00     0.059 A 
ATOM     78  F   UNL     1       4.117   9.982  -2.514  1.00  0.00    -0.206 F 
ATOM     79  C   UNL     1       5.791  10.293  -5.699  1.00  0.00     0.060 A 
BRANCH  79  80
ATOM     80  S   UNL     1       5.404  10.325  -7.463  1.00  0.00     0.124 S 
ATOM     81  O   UNL     1       5.709  11.709  -7.808  1.00  0.00    -0.237 OA
ATOM     82  O   UNL     1       6.319   9.319  -7.993  1.00  0.00    -0.237 OA
ATOM     83  O   UNL     1       3.991   9.961  -7.505  1.00  0.00    -0.744 OA
ENDBRANCH  79  80
ENDBRANCH  47  72
BRANCH  59  84
ATOM     84  C   UNL     1       9.239  14.935   1.371  1.00  0.00     0.058 A 
ATOM     85  C   UNL     1       8.387  16.014   1.090  1.00  0.00     0.135 A 
ATOM     86  C   UNL     1      10.610  15.204   1.523  1.00  0.00     0.135 A 
ATOM     87  F   UNL     1       7.069  15.813   0.930  1.00  0.00    -0.206 F 
ATOM     88  C   UNL     1       8.880  17.306   0.940  1.00  0.00     0.059 A 
ATOM     89  C   UNL     1      11.118  16.493   1.417  1.00  0.00     0.059 A 
ATOM     90  F   UNL     1      11.468  14.210   1.806  1.00  0.00    -0.206 F 
ATOM     91  C   UNL     1      10.246  17.536   1.113  1.00  0.00     0.060 A 
BRANCH  91  92
ATOM     92  S   UNL     1      10.863  19.224   0.956  1.00  0.00     0.124 S 
ATOM     93  O   UNL     1      10.711  19.462  -0.475  1.00  0.00    -0.237 OA
ATOM     94  O   UNL     1       9.954  19.967   1.823  1.00  0.00    -0.237 OA
ATOM     95  O   UNL     1      12.239  19.130   1.434  1.00  0.00    -0.744 OA
ENDBRANCH  91  92
ENDBRANCH  59  84
ENDBRANCH  33  34
ENDBRANCH  26  28
ENDBRANCH  25  26
ENDBRANCH  24  25
ENDBRANCH   1  24
TORSDOF 18
