REMARK SMILES CCC(=O)N1c2ccc(S(=O)(=O)N3CCC(C)CC3)cc2C[C@H]1C(=O)OCCOCCOC(=O)c1ccc(-c2c3nc(c(-c4c(F)cc(S(=O)(=O)[O-])cc4F)c4ccc([nH]4)c(-c4c(F)cc(S(=O)(=O)[O-])cc4F)c4nc(c(-c5c(F)cc(S(=O)(=O)[O-])cc5F)c5ccc2[nH]5)C=C4)C=C3)cc1
REMARK SMILES IDX 30 1 29 2 28 3 27 4 26 5 24 6 25 7 23 8 5 9 6 10 7 11 21 12
REMARK SMILES IDX 22 13 8 14 20 15 9 16 3 17 4 18 2 19 1 20 10 21 11 22 12 23
REMARK SMILES IDX 13 24 14 25 19 26 15 27 18 28 16 29 17 30 31 31 32 32 33 33
REMARK SMILES IDX 34 34 35 35 36 36 100 37 37 38 99 39 38 40 39 41 40 42 93 43
REMARK SMILES IDX 41 44 98 45 92 46 94 47 42 48 97 49 91 50 90 51 43 53 77 54
REMARK SMILES IDX 56 55 76 56 57 57 60 58 75 59 95 60 58 61 59 62 74 64 96 65
REMARK SMILES IDX 61 66 44 67 45 68 54 69 46 70 47 71 53 72 55 73 48 74 49 75
REMARK SMILES IDX 50 76 51 77 52 78 78 79 79 80 88 81 80 82 81 83 87 84 89 85
REMARK SMILES IDX 82 86 83 87 84 88 85 89 86 90 62 91 63 92 72 93 64 94 65 95
REMARK SMILES IDX 71 96 73 97 66 98 67 99 68 100 69 101 70 102
REMARK H PARENT 94 52 60 63
REMARK Flexibility Score: inf
ROOT
ATOM      1  C   UNL     1       0.007  -3.195   4.987  1.00  0.00     0.202 C 
ENDROOT
BRANCH   1   2
ATOM      2  O   UNL     1       0.297  -3.333   6.380  1.00  0.00    -0.374 OA
BRANCH   2   3
ATOM      3  C   UNL     1       0.631  -2.149   7.104  1.00  0.00     0.202 C 
BRANCH   3   4
ATOM      4  C   UNL     1       2.070  -1.645   6.955  1.00  0.00     0.261 C 
BRANCH   4   5
ATOM      5  O   UNL     1       2.449  -1.456   5.585  1.00  0.00    -0.462 OA
BRANCH   5   6
ATOM      6  C   UNL     1       3.295  -2.381   5.061  1.00  0.00     0.329 C 
ATOM      7  O   UNL     1       3.786  -3.320   5.679  1.00  0.00    -0.250 OA
BRANCH   6   8
ATOM      8  C   UNL     1       3.570  -2.164   3.571  1.00  0.00     0.204 C 
ATOM      9  N   UNL     1       2.886  -1.000   2.965  1.00  0.00    -0.298 N 
ATOM     10  C   UNL     1       3.847  -0.194   2.360  1.00  0.00     0.048 A 
ATOM     11  C   UNL     1       3.587   0.920   1.607  1.00  0.00     0.028 A 
ATOM     12  C   UNL     1       5.131  -0.714   2.506  1.00  0.00    -0.020 A 
ATOM     13  C   UNL     1       5.095  -1.912   3.403  1.00  0.00     0.075 C 
ATOM     14  C   UNL     1       4.657   1.505   0.967  1.00  0.00     0.024 A 
ATOM     15  C   UNL     1       6.212  -0.124   1.853  1.00  0.00     0.027 A 
ATOM     16  C   UNL     1       5.952   0.998   1.053  1.00  0.00     0.083 A 
BRANCH   9  17
ATOM     17  C   UNL     1       1.563  -0.858   2.614  1.00  0.00     0.227 C 
ATOM     18  O   UNL     1       0.876   0.093   2.991  1.00  0.00    -0.275 OA
BRANCH  17  19
ATOM     19  C   UNL     1       1.069  -1.759   1.495  1.00  0.00     0.097 C 
ATOM     20  C   UNL     1       0.916  -0.956   0.203  1.00  0.00     0.014 C 
ENDBRANCH  17  19
ENDBRANCH   9  17
BRANCH  16  21
ATOM     21  S   UNL     1       7.243   1.783   0.101  1.00  0.00     0.243 S 
ATOM     22  O   UNL     1       7.854   2.760   0.981  1.00  0.00    -0.207 OA
ATOM     23  O   UNL     1       8.014   0.712  -0.489  1.00  0.00    -0.207 OA
BRANCH  21  24
ATOM     24  N   UNL     1       6.468   2.617  -1.157  1.00  0.00    -0.198 NA
ATOM     25  C   UNL     1       5.854   3.946  -0.982  1.00  0.00     0.103 C 
ATOM     26  C   UNL     1       6.191   1.984  -2.445  1.00  0.00     0.103 C 
ATOM     27  C   UNL     1       4.354   3.975  -1.338  1.00  0.00     0.020 C 
ATOM     28  C   UNL     1       4.711   1.679  -2.542  1.00  0.00     0.020 C 
ATOM     29  C   UNL     1       3.824   2.918  -2.336  1.00  0.00    -0.012 C 
ATOM     30  C   UNL     1       2.407   2.453  -1.959  1.00  0.00     0.008 C 
ENDBRANCH  21  24
ENDBRANCH  16  21
ENDBRANCH   6   8
ENDBRANCH   5   6
ENDBRANCH   4   5
ENDBRANCH   3   4
ENDBRANCH   2   3
ENDBRANCH   1   2
BRANCH   1  31
ATOM     31  C   UNL     1      -1.245  -2.392   4.620  1.00  0.00     0.261 C 
BRANCH  31  32
ATOM     32  O   UNL     1      -1.043  -0.987   4.849  1.00  0.00    -0.460 OA
BRANCH  32  33
ATOM     33  C   UNL     1      -2.039  -0.373   5.526  1.00  0.00     0.338 C 
ATOM     34  O   UNL     1      -3.103  -0.866   5.863  1.00  0.00    -0.246 OA
BRANCH  33  35
ATOM     35  C   UNL     1      -1.609   0.956   6.003  1.00  0.00     0.060 A 
ATOM     36  C   UNL     1      -1.593   1.158   7.387  1.00  0.00     0.016 A 
ATOM     37  C   UNL     1      -1.379   2.020   5.128  1.00  0.00     0.016 A 
ATOM     38  C   UNL     1      -1.433   2.442   7.902  1.00  0.00     0.010 A 
ATOM     39  C   UNL     1      -1.221   3.313   5.650  1.00  0.00     0.010 A 
ATOM     40  C   UNL     1      -1.299   3.538   7.037  1.00  0.00    -0.014 A 
BRANCH  40  41
ATOM     41  C   UNL     1      -1.387   4.909   7.607  1.00  0.00     0.031 A 
ATOM     42  C   UNL     1      -2.679   5.680   7.491  1.00  0.00     0.074 A 
ATOM     43  C   UNL     1      -0.360   5.428   8.305  1.00  0.00     0.049 A 
ATOM     44  N   UNL     1      -2.995   6.849   7.987  1.00  0.00    -0.248 NA
ATOM     45  C   UNL     1      -3.758   5.047   6.717  1.00  0.00     0.031 C 
ATOM     46  C   UNL     1       0.929   4.773   8.517  1.00  0.00     0.029 A 
ATOM     47  N   UNL     1      -0.247   6.620   8.977  1.00  0.00    -0.354 N 
ATOM     48  C   UNL     1      -4.305   7.092   7.590  1.00  0.00     0.074 A 
ATOM     49  C   UNL     1      -4.713   5.965   6.779  1.00  0.00     0.031 C 
ATOM     50  C   UNL     1       1.703   5.569   9.275  1.00  0.00     0.029 A 
ATOM     51  C   UNL     1       0.975   6.799   9.581  1.00  0.00     0.049 A 
ATOM     52  H   UNL     1      -0.972   7.285   9.021  1.00  0.00     0.167 HD
ATOM     53  C   UNL     1      -5.102   8.149   7.884  1.00  0.00     0.037 A 
ATOM     54  C   UNL     1       1.455   7.837  10.296  1.00  0.00     0.037 A 
ATOM     55  C   UNL     1      -4.696   9.270   8.694  1.00  0.00     0.049 A 
ATOM     56  C   UNL     1       0.567   9.023  10.570  1.00  0.00     0.074 A 
ATOM     57  C   UNL     1      -5.438  10.381   9.059  1.00  0.00     0.029 A 
ATOM     58  N   UNL     1      -3.439   9.430   9.258  1.00  0.00    -0.354 N 
ATOM     59  N   UNL     1      -0.679   9.223  10.210  1.00  0.00    -0.248 NA
ATOM     60  C   UNL     1       1.147  10.118  11.360  1.00  0.00     0.031 C 
ATOM     61  C   UNL     1      -4.614  11.235   9.802  1.00  0.00     0.029 A 
ATOM     62  C   UNL     1      -3.377  10.629   9.951  1.00  0.00     0.049 A 
ATOM     63  H   UNL     1      -2.699   8.785   9.179  1.00  0.00     0.167 HD
ATOM     64  C   UNL     1      -1.041  10.451  10.758  1.00  0.00     0.074 A 
ATOM     65  C   UNL     1       0.114  10.941  11.481  1.00  0.00     0.031 C 
ATOM     66  C   UNL     1      -2.225  11.108  10.674  1.00  0.00     0.037 A 
BRANCH  53  67
ATOM     67  C   UNL     1      -6.493   8.158   7.308  1.00  0.00     0.058 A 
ATOM     68  C   UNL     1      -7.493   7.287   7.771  1.00  0.00     0.135 A 
ATOM     69  C   UNL     1      -6.843   9.079   6.307  1.00  0.00     0.135 A 
ATOM     70  F   UNL     1      -7.212   6.376   8.716  1.00  0.00    -0.206 F 
ATOM     71  C   UNL     1      -8.782   7.313   7.245  1.00  0.00     0.059 A 
ATOM     72  C   UNL     1      -8.132   9.142   5.787  1.00  0.00     0.059 A 
ATOM     73  F   UNL     1      -5.927   9.936   5.828  1.00  0.00    -0.206 F 
ATOM     74  C   UNL     1      -9.091   8.244   6.253  1.00  0.00     0.060 A 
BRANCH  74  75
ATOM     75  S   UNL     1     -10.768   8.269   5.584  1.00  0.00     0.124 S 
ATOM     76  O   UNL     1     -10.781   7.049   4.782  1.00  0.00    -0.237 OA
ATOM     77  O   UNL     1     -11.587   8.242   6.791  1.00  0.00    -0.237 OA
ATOM     78  O   UNL     1     -10.815   9.516   4.826  1.00  0.00    -0.744 OA
ENDBRANCH  74  75
ENDBRANCH  53  67
BRANCH  54  79
ATOM     79  C   UNL     1       2.851   7.800  10.807  1.00  0.00     0.058 A 
ATOM     80  C   UNL     1       3.123   7.693  12.179  1.00  0.00     0.135 A 
ATOM     81  C   UNL     1       3.944   7.871   9.929  1.00  0.00     0.135 A 
ATOM     82  F   UNL     1       2.114   7.633  13.061  1.00  0.00    -0.206 F 
ATOM     83  C   UNL     1       4.427   7.674  12.664  1.00  0.00     0.059 A 
ATOM     84  C   UNL     1       5.256   7.826  10.387  1.00  0.00     0.059 A 
ATOM     85  F   UNL     1       3.738   7.965   8.606  1.00  0.00    -0.206 F 
ATOM     86  C   UNL     1       5.488   7.738  11.758  1.00  0.00     0.060 A 
BRANCH  86  87
ATOM     87  S   UNL     1       7.177   7.663  12.394  1.00  0.00     0.124 S 
ATOM     88  O   UNL     1       7.323   8.983  12.995  1.00  0.00    -0.237 OA
ATOM     89  O   UNL     1       7.104   6.541  13.325  1.00  0.00    -0.237 OA
ATOM     90  O   UNL     1       7.975   7.421  11.196  1.00  0.00    -0.744 OA
ENDBRANCH  86  87
ENDBRANCH  54  79
BRANCH  66  91
ATOM     91  C   UNL     1      -2.352  12.409  11.422  1.00  0.00     0.058 A 
ATOM     92  C   UNL     1      -1.682  13.573  11.012  1.00  0.00     0.135 A 
ATOM     93  C   UNL     1      -3.183  12.499  12.552  1.00  0.00     0.135 A 
ATOM     94  F   UNL     1      -0.874  13.545   9.940  1.00  0.00    -0.206 F 
ATOM     95  C   UNL     1      -1.801  14.768  11.716  1.00  0.00     0.059 A 
ATOM     96  C   UNL     1      -3.341  13.691  13.253  1.00  0.00     0.059 A 
ATOM     97  F   UNL     1      -3.859  11.422  12.982  1.00  0.00    -0.206 F 
ATOM     98  C   UNL     1      -2.631  14.816  12.837  1.00  0.00     0.060 A 
BRANCH  98  99
ATOM     99  S   UNL     1      -2.784  16.374  13.738  1.00  0.00     0.124 S 
ATOM    100  O   UNL     1      -1.504  16.436  14.437  1.00  0.00    -0.237 OA
ATOM    101  O   UNL     1      -2.965  17.343  12.661  1.00  0.00    -0.237 OA
ATOM    102  O   UNL     1      -3.953  16.163  14.587  1.00  0.00    -0.744 OA
ENDBRANCH  98  99
ENDBRANCH  66  91
ENDBRANCH  40  41
ENDBRANCH  33  35
ENDBRANCH  32  33
ENDBRANCH  31  32
ENDBRANCH   1  31
TORSDOF 21
