REMARK SMILES Cc1cccc(Cl)c1Nc1ccccc1CC(=O)OCCOCCOC(=O)c1ccc(-c2c3nc(c(-c4c(F)cc(S(=O)(=O)[O-])cc4F)c4ccc([nH]4)c(-c4c(F)cc(S(=O)(=O)[O-])cc4F)c4nc(c(-c5c(F)cc(S(=O)(=O)[O-])cc5F)c5ccc2[nH]5)C=C4)C=C3)cc1
REMARK SMILES IDX 22 1 21 2 20 3 19 4 17 5 18 6 16 7 15 8 10 9 11 10 12 11
REMARK SMILES IDX 14 12 13 13 9 14 8 16 1 17 2 18 3 19 4 20 6 21 5 22 7 23
REMARK SMILES IDX 23 24 24 25 25 26 26 27 27 28 28 29 29 30 93 31 30 32 92 33
REMARK SMILES IDX 31 34 32 35 33 36 86 37 34 38 91 39 85 40 87 41 35 42 90 43
REMARK SMILES IDX 84 44 83 45 36 47 70 48 49 49 69 50 50 51 53 52 68 53 88 54
REMARK SMILES IDX 51 55 52 56 67 58 89 59 54 60 37 61 38 62 47 63 39 64 40 65
REMARK SMILES IDX 46 66 48 67 41 68 42 69 43 70 44 71 45 72 71 73 72 74 81 75
REMARK SMILES IDX 73 76 74 77 80 78 82 79 75 80 76 81 77 82 78 83 79 84 55 85
REMARK SMILES IDX 56 86 65 87 57 88 58 89 64 90 66 91 59 92 60 93 61 94 62 95
REMARK SMILES IDX 63 96
REMARK H PARENT 9 15 87 46 53 57
REMARK Flexibility Score: inf
ROOT
ATOM      1  O   UNL     1       3.360   3.115  -5.564  1.00  0.00    -0.374 OA
ENDROOT
BRANCH   1   2
ATOM      2  C   UNL     1       2.113   3.806  -5.500  1.00  0.00     0.202 C 
BRANCH   2   3
ATOM      3  C   UNL     1       0.927   3.067  -4.870  1.00  0.00     0.261 C 
BRANCH   3   4
ATOM      4  O   UNL     1       1.156   2.680  -3.501  1.00  0.00    -0.463 OA
BRANCH   4   5
ATOM      5  C   UNL     1       1.309   1.346  -3.296  1.00  0.00     0.310 C 
ATOM      6  O   UNL     1       1.228   0.498  -4.183  1.00  0.00    -0.252 OA
BRANCH   5   7
ATOM      7  C   UNL     1       1.556   0.939  -1.866  1.00  0.00     0.160 C 
BRANCH   7   8
ATOM      8  C   UNL     1       2.036   1.964  -0.854  1.00  0.00    -0.013 A 
ATOM      9  C   UNL     1       1.218   2.497   0.166  1.00  0.00     0.042 A 
ATOM     10  C   UNL     1       1.742   3.498   1.008  1.00  0.00     0.026 A 
ATOM     11  C   UNL     1       3.069   3.915   0.908  1.00  0.00     0.002 A 
ATOM     12  C   UNL     1       3.388   2.361  -0.899  1.00  0.00     0.006 A 
ATOM     13  C   UNL     1       3.900   3.326  -0.032  1.00  0.00     0.000 A 
BRANCH   9  14
ATOM     14  N   UNL     1      -0.053   1.989   0.510  1.00  0.00    -0.354 N 
ATOM     15  H   UNL     1      -0.719   2.677   0.740  1.00  0.00     0.167 HD
BRANCH  14  16
ATOM     16  C   UNL     1      -0.534   0.659   0.583  1.00  0.00     0.060 A 
ATOM     17  C   UNL     1      -2.834   1.541  -0.087  1.00  0.00     0.046 C 
ATOM     18  C   UNL     1      -1.873   0.413   0.189  1.00  0.00    -0.026 A 
ATOM     19  C   UNL     1      -2.315  -0.907  -0.008  1.00  0.00     0.005 A 
ATOM     20  C   UNL     1      -1.464  -1.987   0.204  1.00  0.00     0.002 A 
ATOM     21  C   UNL     1       0.285  -0.460   0.877  1.00  0.00     0.064 A 
ATOM     22  C   UNL     1      -0.173  -1.765   0.668  1.00  0.00     0.023 A 
ATOM     23  Cl  UNL     1       1.871  -0.321   1.566  1.00  0.00    -0.082 Cl
ENDBRANCH  14  16
ENDBRANCH   9  14
ENDBRANCH   7   8
ENDBRANCH   5   7
ENDBRANCH   4   5
ENDBRANCH   3   4
ENDBRANCH   2   3
ENDBRANCH   1   2
BRANCH   1  24
ATOM     24  C   UNL     1       4.092   2.991  -4.347  1.00  0.00     0.202 C 
BRANCH  24  25
ATOM     25  C   UNL     1       4.803   4.246  -3.826  1.00  0.00     0.261 C 
BRANCH  25  26
ATOM     26  O   UNL     1       3.877   5.278  -3.444  1.00  0.00    -0.460 OA
BRANCH  26  27
ATOM     27  C   UNL     1       3.962   6.409  -4.183  1.00  0.00     0.338 C 
ATOM     28  O   UNL     1       4.803   6.667  -5.035  1.00  0.00    -0.246 OA
BRANCH  27  29
ATOM     29  C   UNL     1       2.776   7.259  -3.974  1.00  0.00     0.060 A 
ATOM     30  C   UNL     1       2.089   7.682  -5.119  1.00  0.00     0.016 A 
ATOM     31  C   UNL     1       2.393   7.710  -2.709  1.00  0.00     0.016 A 
ATOM     32  C   UNL     1       1.062   8.614  -5.012  1.00  0.00     0.010 A 
ATOM     33  C   UNL     1       1.364   8.655  -2.605  1.00  0.00     0.010 A 
ATOM     34  C   UNL     1       0.727   9.144  -3.760  1.00  0.00    -0.014 A 
BRANCH  34  35
ATOM     35  C   UNL     1      -0.170  10.325  -3.700  1.00  0.00     0.031 A 
ATOM     36  C   UNL     1       0.441  11.695  -3.571  1.00  0.00     0.074 A 
ATOM     37  C   UNL     1      -1.502  10.184  -3.825  1.00  0.00     0.049 A 
ATOM     38  N   UNL     1      -0.145  12.863  -3.522  1.00  0.00    -0.248 NA
ATOM     39  C   UNL     1       1.910  11.756  -3.491  1.00  0.00     0.031 C 
ATOM     40  C   UNL     1      -2.203   8.913  -3.997  1.00  0.00     0.029 A 
ATOM     41  N   UNL     1      -2.502  11.124  -3.831  1.00  0.00    -0.354 N 
ATOM     42  C   UNL     1       0.879  13.796  -3.403  1.00  0.00     0.074 A 
ATOM     43  C   UNL     1       2.122  13.057  -3.355  1.00  0.00     0.031 C 
ATOM     44  C   UNL     1      -3.523   9.152  -4.086  1.00  0.00     0.029 A 
ATOM     45  C   UNL     1      -3.761  10.588  -3.953  1.00  0.00     0.049 A 
ATOM     46  H   UNL     1      -2.333  12.091  -3.756  1.00  0.00     0.167 HD
ATOM     47  C   UNL     1       0.792  15.147  -3.350  1.00  0.00     0.037 A 
ATOM     48  C   UNL     1      -4.968  11.189  -3.943  1.00  0.00     0.037 A 
ATOM     49  C   UNL     1      -0.447  15.877  -3.401  1.00  0.00     0.049 A 
ATOM     50  C   UNL     1      -5.044  12.689  -3.825  1.00  0.00     0.074 A 
ATOM     51  C   UNL     1      -0.642  17.247  -3.367  1.00  0.00     0.029 A 
ATOM     52  N   UNL     1      -1.704  15.296  -3.492  1.00  0.00    -0.354 N 
ATOM     53  N   UNL     1      -4.066  13.559  -3.733  1.00  0.00    -0.248 NA
ATOM     54  C   UNL     1      -6.385  13.290  -3.815  1.00  0.00     0.031 C 
ATOM     55  C   UNL     1      -2.019  17.493  -3.392  1.00  0.00     0.029 A 
ATOM     56  C   UNL     1      -2.681  16.279  -3.492  1.00  0.00     0.049 A 
ATOM     57  H   UNL     1      -1.877  14.329  -3.548  1.00  0.00     0.167 HD
ATOM     58  C   UNL     1      -4.673  14.810  -3.680  1.00  0.00     0.074 A 
ATOM     59  C   UNL     1      -6.101  14.584  -3.760  1.00  0.00     0.031 C 
ATOM     60  C   UNL     1      -4.099  16.035  -3.578  1.00  0.00     0.037 A 
BRANCH  47  61
ATOM     61  C   UNL     1       2.073  15.921  -3.205  1.00  0.00     0.058 A 
ATOM     62  C   UNL     1       2.987  16.045  -4.264  1.00  0.00     0.135 A 
ATOM     63  C   UNL     1       2.378  16.573  -1.999  1.00  0.00     0.135 A 
ATOM     64  F   UNL     1       2.754  15.428  -5.433  1.00  0.00    -0.206 F 
ATOM     65  C   UNL     1       4.169  16.765  -4.124  1.00  0.00     0.059 A 
ATOM     66  C   UNL     1       3.542  17.319  -1.844  1.00  0.00     0.059 A 
ATOM     67  F   UNL     1       1.541  16.485  -0.953  1.00  0.00    -0.206 F 
ATOM     68  C   UNL     1       4.439  17.398  -2.909  1.00  0.00     0.060 A 
BRANCH  68  69
ATOM     69  S   UNL     1       5.976  18.330  -2.742  1.00  0.00     0.124 S 
ATOM     70  O   UNL     1       6.960  17.255  -2.650  1.00  0.00    -0.237 OA
ATOM     71  O   UNL     1       6.005  19.111  -3.974  1.00  0.00    -0.237 OA
ATOM     72  O   UNL     1       5.775  19.101  -1.519  1.00  0.00    -0.744 OA
ENDBRANCH  68  69
ENDBRANCH  47  61
BRANCH  48  73
ATOM     73  C   UNL     1      -6.205  10.367  -4.040  1.00  0.00     0.058 A 
ATOM     74  C   UNL     1      -7.012  10.397  -5.187  1.00  0.00     0.135 A 
ATOM     75  C   UNL     1      -6.598   9.529  -2.986  1.00  0.00     0.135 A 
ATOM     76  F   UNL     1      -6.684  11.192  -6.217  1.00  0.00    -0.206 F 
ATOM     77  C   UNL     1      -8.171   9.633  -5.282  1.00  0.00     0.059 A 
ATOM     78  C   UNL     1      -7.739   8.737  -3.067  1.00  0.00     0.059 A 
ATOM     79  F   UNL     1      -5.855   9.456  -1.870  1.00  0.00    -0.206 F 
ATOM     80  C   UNL     1      -8.524   8.803  -4.217  1.00  0.00     0.060 A 
BRANCH  80  81
ATOM     81  S   UNL     1      -9.999   7.771  -4.370  1.00  0.00     0.124 S 
ATOM     82  O   UNL     1     -11.063   8.754  -4.206  1.00  0.00    -0.237 OA
ATOM     83  O   UNL     1      -9.845   7.213  -5.710  1.00  0.00    -0.237 OA
ATOM     84  O   UNL     1      -9.850   6.811  -3.280  1.00  0.00    -0.744 OA
ENDBRANCH  80  81
ENDBRANCH  48  73
BRANCH  60  85
ATOM     85  C   UNL     1      -5.011  17.231  -3.579  1.00  0.00     0.058 A 
ATOM     86  C   UNL     1      -5.798  17.560  -2.465  1.00  0.00     0.135 A 
ATOM     87  C   UNL     1      -5.053  18.090  -4.689  1.00  0.00     0.135 A 
ATOM     88  F   UNL     1      -5.799  16.768  -1.381  1.00  0.00    -0.206 F 
ATOM     89  C   UNL     1      -6.612  18.688  -2.459  1.00  0.00     0.059 A 
ATOM     90  C   UNL     1      -5.840  19.238  -4.695  1.00  0.00     0.059 A 
ATOM     91  F   UNL     1      -4.311  17.828  -5.777  1.00  0.00    -0.206 F 
ATOM     92  C   UNL     1      -6.625  19.522  -3.579  1.00  0.00     0.060 A 
BRANCH  92  93
ATOM     93  S   UNL     1      -7.659  21.002  -3.545  1.00  0.00     0.124 S 
ATOM     94  O   UNL     1      -8.991  20.434  -3.727  1.00  0.00    -0.237 OA
ATOM     95  O   UNL     1      -7.379  21.551  -2.222  1.00  0.00    -0.237 OA
ATOM     96  O   UNL     1      -7.155  21.794  -4.664  1.00  0.00    -0.744 OA
ENDBRANCH  92  93
ENDBRANCH  60  85
ENDBRANCH  34  35
ENDBRANCH  27  29
ENDBRANCH  26  27
ENDBRANCH  25  26
ENDBRANCH  24  25
ENDBRANCH   1  24
TORSDOF 20
