REMARK SMILES CC(C)n1cc(C(=O)OCCOCCOC(=O)c2ccc(-c3c4nc(c(-c5c(F)cc(S(=O)(=O)[O-])cc5F)c5ccc([nH]5)c(-c5c(F)cc(S(=O)(=O)[O-])cc5F)c5nc(c(-c6c(F)cc(S(=O)(=O)[O-])cc6F)c6ccc3[nH]6)C=C5)C=C4)cc2)c2ccccc2c1=O
REMARK SMILES IDX 13 1 12 2 11 3 10 4 9 5 7 6 8 7 6 8 4 9 5 10 90 11 89 12
REMARK SMILES IDX 91 13 84 14 88 15 85 16 87 17 86 18 2 19 1 20 3 21 14 22
REMARK SMILES IDX 15 23 16 24 17 25 18 26 19 27 83 28 20 29 82 30 21 31 22 32
REMARK SMILES IDX 23 33 76 34 24 35 81 36 75 37 77 38 25 39 80 40 74 41 73 42
REMARK SMILES IDX 26 44 60 45 39 46 59 47 40 48 43 49 58 50 78 51 41 52 42 53
REMARK SMILES IDX 57 55 79 56 44 57 27 58 28 59 37 60 29 61 30 62 36 63 38 64
REMARK SMILES IDX 31 65 32 66 33 67 34 68 35 69 61 70 62 71 71 72 63 73 64 74
REMARK SMILES IDX 70 75 72 76 65 77 66 78 67 79 68 80 69 81 45 82 46 83 55 84
REMARK SMILES IDX 47 85 48 86 54 87 56 88 49 89 50 90 51 91 52 92 53 93
REMARK H PARENT 77 43 43 54
REMARK Flexibility Score: inf
ROOT
ATOM      1  C   UNL     1      -4.774   1.948  -3.056  1.00  0.00     0.202 C 
ENDROOT
BRANCH   1   2
ATOM      2  O   UNL     1      -5.387   3.023  -2.345  1.00  0.00    -0.374 OA
BRANCH   2   3
ATOM      3  C   UNL     1      -4.539   4.000  -1.742  1.00  0.00     0.202 C 
BRANCH   3   4
ATOM      4  C   UNL     1      -3.838   3.623  -0.432  1.00  0.00     0.261 C 
BRANCH   4   5
ATOM      5  O   UNL     1      -3.065   2.421  -0.564  1.00  0.00    -0.460 OA
BRANCH   5   6
ATOM      6  C   UNL     1      -3.583   1.343   0.080  1.00  0.00     0.340 C 
ATOM      7  O   UNL     1      -4.529   1.354   0.853  1.00  0.00    -0.246 OA
BRANCH   6   8
ATOM      8  C   UNL     1      -2.942   0.085  -0.394  1.00  0.00     0.084 A 
ATOM      9  N   UNL     1      -0.886  -1.135  -0.770  1.00  0.00    -0.312 N 
ATOM     10  C   UNL     1      -1.604   0.033  -0.493  1.00  0.00     0.105 A 
ATOM     11  C   UNL     1      -1.570  -2.349  -0.988  1.00  0.00     0.258 A 
ATOM     12  C   UNL     1      -3.059  -2.315  -0.958  1.00  0.00     0.048 A 
ATOM     13  O   UNL     1      -1.045  -3.433  -1.226  1.00  0.00    -0.269 OA
ATOM     14  C   UNL     1      -3.727  -1.115  -0.711  1.00  0.00     0.003 A 
ATOM     15  C   UNL     1      -3.782  -3.485  -1.244  1.00  0.00     0.014 A 
ATOM     16  C   UNL     1      -5.128  -1.091  -0.835  1.00  0.00     0.010 A 
ATOM     17  C   UNL     1      -5.173  -3.451  -1.335  1.00  0.00     0.001 A 
ATOM     18  C   UNL     1      -5.844  -2.248  -1.150  1.00  0.00     0.001 A 
BRANCH   9  19
ATOM     19  C   UNL     1       0.607  -1.037  -0.920  1.00  0.00     0.084 C 
ATOM     20  C   UNL     1       1.264  -0.077   0.092  1.00  0.00     0.031 C 
ATOM     21  C   UNL     1       1.382  -2.362  -0.839  1.00  0.00     0.031 C 
ENDBRANCH   9  19
ENDBRANCH   6   8
ENDBRANCH   5   6
ENDBRANCH   4   5
ENDBRANCH   3   4
ENDBRANCH   2   3
ENDBRANCH   1   2
BRANCH   1  22
ATOM     22  C   UNL     1      -4.126   2.243  -4.415  1.00  0.00     0.261 C 
BRANCH  22  23
ATOM     23  O   UNL     1      -2.980   3.102  -4.308  1.00  0.00    -0.460 OA
BRANCH  23  24
ATOM     24  C   UNL     1      -3.159   4.360  -4.782  1.00  0.00     0.338 C 
ATOM     25  O   UNL     1      -4.159   4.810  -5.318  1.00  0.00    -0.246 OA
BRANCH  24  26
ATOM     26  C   UNL     1      -2.022   5.198  -4.357  1.00  0.00     0.060 A 
ATOM     27  C   UNL     1      -0.706   4.831  -4.639  1.00  0.00     0.016 A 
ATOM     28  C   UNL     1      -2.299   6.388  -3.670  1.00  0.00     0.016 A 
ATOM     29  C   UNL     1       0.336   5.677  -4.251  1.00  0.00     0.010 A 
ATOM     30  C   UNL     1      -1.256   7.230  -3.282  1.00  0.00     0.010 A 
ATOM     31  C   UNL     1       0.068   6.889  -3.586  1.00  0.00    -0.014 A 
BRANCH  31  32
ATOM     32  C   UNL     1       1.167   7.850  -3.323  1.00  0.00     0.031 A 
ATOM     33  C   UNL     1       1.698   8.074  -1.938  1.00  0.00     0.074 A 
ATOM     34  C   UNL     1       1.680   8.534  -4.365  1.00  0.00     0.049 A 
ATOM     35  N   UNL     1       2.698   8.826  -1.556  1.00  0.00    -0.248 NA
ATOM     36  C   UNL     1       1.019   7.371  -0.840  1.00  0.00     0.031 C 
ATOM     37  C   UNL     1       1.212   8.425  -5.749  1.00  0.00     0.029 A 
ATOM     38  N   UNL     1       2.705   9.442  -4.431  1.00  0.00    -0.354 N 
ATOM     39  C   UNL     1       2.789   8.670  -0.179  1.00  0.00     0.074 A 
ATOM     40  C   UNL     1       1.705   7.794   0.215  1.00  0.00     0.031 C 
ATOM     41  C   UNL     1       1.973   9.205  -6.531  1.00  0.00     0.029 A 
ATOM     42  C   UNL     1       2.958   9.895  -5.704  1.00  0.00     0.049 A 
ATOM     43  H   UNL     1       3.212   9.741  -3.641  1.00  0.00     0.167 HD
ATOM     44  C   UNL     1       3.707   9.193   0.670  1.00  0.00     0.037 A 
ATOM     45  C   UNL     1       3.881  10.765  -6.156  1.00  0.00     0.037 A 
ATOM     46  C   UNL     1       4.771  10.079   0.267  1.00  0.00     0.049 A 
ATOM     47  C   UNL     1       4.854  11.372  -5.183  1.00  0.00     0.074 A 
ATOM     48  C   UNL     1       5.768  10.636   1.050  1.00  0.00     0.029 A 
ATOM     49  N   UNL     1       4.972  10.550  -1.023  1.00  0.00    -0.354 N 
ATOM     50  N   UNL     1       4.973  11.155  -3.894  1.00  0.00    -0.248 NA
ATOM     51  C   UNL     1       5.820  12.338  -5.722  1.00  0.00     0.031 C 
ATOM     52  C   UNL     1       6.535  11.485   0.247  1.00  0.00     0.029 A 
ATOM     53  C   UNL     1       6.056  11.413  -1.051  1.00  0.00     0.049 A 
ATOM     54  H   UNL     1       4.425  10.306  -1.805  1.00  0.00     0.167 HD
ATOM     55  C   UNL     1       6.039  11.943  -3.473  1.00  0.00     0.074 A 
ATOM     56  C   UNL     1       6.543  12.624  -4.648  1.00  0.00     0.031 C 
ATOM     57  C   UNL     1       6.550  12.089  -2.226  1.00  0.00     0.037 A 
BRANCH  44  58
ATOM     58  C   UNL     1       3.619   8.816   2.124  1.00  0.00     0.058 A 
ATOM     59  C   UNL     1       3.943   7.522   2.563  1.00  0.00     0.135 A 
ATOM     60  C   UNL     1       3.291   9.773   3.099  1.00  0.00     0.135 A 
ATOM     61  F   UNL     1       4.252   6.564   1.675  1.00  0.00    -0.206 F 
ATOM     62  C   UNL     1       3.930   7.186   3.913  1.00  0.00     0.059 A 
ATOM     63  C   UNL     1       3.298   9.466   4.458  1.00  0.00     0.059 A 
ATOM     64  F   UNL     1       2.974  11.026   2.736  1.00  0.00    -0.206 F 
ATOM     65  C   UNL     1       3.611   8.167   4.853  1.00  0.00     0.060 A 
BRANCH  65  66
ATOM     66  S   UNL     1       3.618   7.712   6.600  1.00  0.00     0.124 S 
ATOM     67  O   UNL     1       2.484   6.794   6.665  1.00  0.00    -0.237 OA
ATOM     68  O   UNL     1       4.935   7.103   6.755  1.00  0.00    -0.237 OA
ATOM     69  O   UNL     1       3.432   8.986   7.287  1.00  0.00    -0.744 OA
ENDBRANCH  65  66
ENDBRANCH  44  58
BRANCH  45  70
ATOM     70  C   UNL     1       3.945  11.088  -7.606  1.00  0.00     0.058 A 
ATOM     71  C   UNL     1       5.026  10.665  -8.393  1.00  0.00     0.135 A 
ATOM     72  C   UNL     1       2.917  11.805  -8.239  1.00  0.00     0.135 A 
ATOM     73  F   UNL     1       6.035   9.981  -7.833  1.00  0.00    -0.206 F 
ATOM     74  C   UNL     1       5.093  10.951  -9.752  1.00  0.00     0.059 A 
ATOM     75  C   UNL     1       2.948  12.078  -9.603  1.00  0.00     0.059 A 
ATOM     76  F   UNL     1       1.852  12.220  -7.534  1.00  0.00    -0.206 F 
ATOM     77  C   UNL     1       4.046  11.654 -10.349  1.00  0.00     0.060 A 
BRANCH  77  78
ATOM     78  S   UNL     1       4.126  11.977 -12.124  1.00  0.00     0.124 S 
ATOM     79  O   UNL     1       5.225  12.933 -12.199  1.00  0.00    -0.237 OA
ATOM     80  O   UNL     1       4.396  10.648 -12.662  1.00  0.00    -0.237 OA
ATOM     81  O   UNL     1       2.803  12.513 -12.429  1.00  0.00    -0.744 OA
ENDBRANCH  77  78
ENDBRANCH  45  70
BRANCH  57  82
ATOM     82  C   UNL     1       7.725  13.016  -2.057  1.00  0.00     0.058 A 
ATOM     83  C   UNL     1       7.581  14.409  -2.152  1.00  0.00     0.135 A 
ATOM     84  C   UNL     1       8.993  12.510  -1.726  1.00  0.00     0.135 A 
ATOM     85  F   UNL     1       6.393  14.946  -2.474  1.00  0.00    -0.206 F 
ATOM     86  C   UNL     1       8.656  15.267  -1.940  1.00  0.00     0.059 A 
ATOM     87  C   UNL     1      10.074  13.351  -1.480  1.00  0.00     0.059 A 
ATOM     88  F   UNL     1       9.185  11.186  -1.613  1.00  0.00    -0.206 F 
ATOM     89  C   UNL     1       9.897  14.729  -1.597  1.00  0.00     0.060 A 
BRANCH  89  90
ATOM     90  S   UNL     1      11.268  15.860  -1.279  1.00  0.00     0.124 S 
ATOM     91  O   UNL     1      11.527  16.392  -2.613  1.00  0.00    -0.237 OA
ATOM     92  O   UNL     1      10.680  16.797  -0.326  1.00  0.00    -0.237 OA
ATOM     93  O   UNL     1      12.309  14.992  -0.737  1.00  0.00    -0.744 OA
ENDBRANCH  89  90
ENDBRANCH  57  82
ENDBRANCH  31  32
ENDBRANCH  24  26
ENDBRANCH  23  24
ENDBRANCH  22  23
ENDBRANCH   1  22
TORSDOF 18
