REMARK SMILES COC(=O)c1sc(SCC(=O)OCCOCCOC(=O)c2ccc(-c3c4nc(c(-c5c(F)cc(S(=O)(=O)[O-])cc5F)c5ccc([nH]5)c(-c5c(F)cc(S(=O)(=O)[O-])cc5F)c5nc(c(-c6c(F)cc(S(=O)(=O)[O-])cc6F)c6ccc3[nH]6)C=C5)C=C4)cc2)c(NC(=O)c2ccccc2)c1O
REMARK SMILES IDX 14 1 13 2 12 3 10 4 11 5 9 6 8 7 7 8 5 9 6 10 97 11 87 12
REMARK SMILES IDX 3 13 4 14 2 15 1 16 98 17 88 19 89 20 90 22 91 23 92 24
REMARK SMILES IDX 96 25 93 26 95 27 94 28 15 29 16 30 17 31 18 32 19 33 20 34
REMARK SMILES IDX 21 35 22 36 86 37 23 38 85 39 24 40 25 41 26 42 79 43 27 44
REMARK SMILES IDX 84 45 78 46 80 47 28 48 83 49 77 50 76 51 29 53 63 54 42 55
REMARK SMILES IDX 62 56 43 57 46 58 61 59 81 60 44 61 45 62 60 64 82 65 47 66
REMARK SMILES IDX 30 67 31 68 40 69 32 70 33 71 39 72 41 73 34 74 35 75 36 76
REMARK SMILES IDX 37 77 38 78 64 79 65 80 74 81 66 82 67 83 73 84 75 85 68 86
REMARK SMILES IDX 69 87 70 88 71 89 72 90 48 91 49 92 58 93 50 94 51 95 57 96
REMARK SMILES IDX 59 97 52 98 53 99 54 100 55 101 56 102
REMARK H PARENT 98 18 88 21 80 52 46 63
REMARK Flexibility Score: inf
ROOT
ATOM      1  C   UNL     1      -2.335  -5.700   6.653  1.00  0.00     0.202 C 
ENDROOT
BRANCH   1   2
ATOM      2  C   UNL     1      -2.431  -7.227   6.585  1.00  0.00     0.261 C 
BRANCH   2   3
ATOM      3  O   UNL     1      -1.483  -7.733   5.621  1.00  0.00    -0.463 OA
BRANCH   3   4
ATOM      4  C   UNL     1      -1.966  -8.532   4.614  1.00  0.00     0.316 C 
ATOM      5  O   UNL     1      -3.135  -8.890   4.524  1.00  0.00    -0.251 OA
BRANCH   4   6
ATOM      6  C   UNL     1      -0.693  -9.133   3.661  1.00  0.00     0.198 C 
BRANCH   6   7
ATOM      7  S   UNL     1       0.242  -8.315   1.397  1.00  0.00    -0.101 SA
BRANCH   7   8
ATOM      8  C   UNL     1       0.026  -6.584   0.885  1.00  0.00     0.089 A 
ATOM      9  C   UNL     1       0.557  -4.280   0.091  1.00  0.00     0.157 A 
ATOM     10  S   UNL     1       1.438  -5.712   0.421  1.00  0.00    -0.116 S 
ATOM     11  C   UNL     1      -0.794  -4.492   0.264  1.00  0.00     0.166 A 
ATOM     12  C   UNL     1      -1.119  -5.811   0.709  1.00  0.00     0.109 A 
BRANCH   9  13
ATOM     13  C   UNL     1       1.286  -3.090  -0.293  1.00  0.00     0.352 C 
ATOM     14  O   UNL     1       2.435  -3.042  -0.707  1.00  0.00    -0.245 OA
BRANCH  13  15
ATOM     15  O   UNL     1       0.491  -1.992  -0.097  1.00  0.00    -0.465 OA
ATOM     16  C   UNL     1       1.166  -0.738  -0.267  1.00  0.00     0.282 C 
ENDBRANCH  13  15
ENDBRANCH   9  13
BRANCH  11  17
ATOM     17  O   UNL     1      -1.738  -3.540   0.076  1.00  0.00    -0.504 OA
ATOM     18  H   UNL     1      -1.489  -2.685  -0.216  1.00  0.00     0.293 HD
ENDBRANCH  11  17
BRANCH  12  19
ATOM     19  N   UNL     1      -2.447  -6.167   0.953  1.00  0.00    -0.317 N 
ATOM     20  C   UNL     1      -2.887  -7.290   1.597  1.00  0.00     0.255 C 
ATOM     21  H   UNL     1      -3.138  -5.545   0.628  1.00  0.00     0.170 HD
ATOM     22  O   UNL     1      -4.056  -7.647   1.617  1.00  0.00    -0.269 OA
BRANCH  20  23
ATOM     23  C   UNL     1      -1.853  -8.050   2.305  1.00  0.00     0.040 A 
ATOM     24  C   UNL     1      -1.556  -9.752   1.822  1.00  0.00     0.014 A 
ATOM     25  C   UNL     1      -0.578  -7.128   3.241  1.00  0.00     0.014 A 
ATOM     26  C   UNL     1       0.034 -10.518   2.198  1.00  0.00     0.001 A 
ATOM     27  C   UNL     1       1.007  -7.899   3.595  1.00  0.00     0.001 A 
ATOM     28  C   UNL     1       1.301  -9.598   3.072  1.00  0.00     0.000 A 
ENDBRANCH  20  23
ENDBRANCH  12  19
ENDBRANCH   7   8
ENDBRANCH   6   7
ENDBRANCH   4   6
ENDBRANCH   3   4
ENDBRANCH   2   3
ENDBRANCH   1   2
BRANCH   1  29
ATOM     29  O   UNL     1      -3.475  -5.060   6.074  1.00  0.00    -0.374 OA
BRANCH  29  30
ATOM     30  C   UNL     1      -3.441  -4.925   4.653  1.00  0.00     0.202 C 
BRANCH  30  31
ATOM     31  C   UNL     1      -2.826  -3.596   4.211  1.00  0.00     0.261 C 
BRANCH  31  32
ATOM     32  O   UNL     1      -1.399  -3.615   4.390  1.00  0.00    -0.460 OA
BRANCH  32  33
ATOM     33  C   UNL     1      -0.897  -2.816   5.367  1.00  0.00     0.338 C 
ATOM     34  O   UNL     1      -1.532  -2.096   6.117  1.00  0.00    -0.246 OA
BRANCH  33  35
ATOM     35  C   UNL     1       0.585  -2.910   5.370  1.00  0.00     0.060 A 
ATOM     36  C   UNL     1       1.319  -1.863   5.934  1.00  0.00     0.016 A 
ATOM     37  C   UNL     1       1.259  -3.989   4.784  1.00  0.00     0.016 A 
ATOM     38  C   UNL     1       2.710  -1.853   5.821  1.00  0.00     0.010 A 
ATOM     39  C   UNL     1       2.648  -3.991   4.687  1.00  0.00     0.010 A 
ATOM     40  C   UNL     1       3.373  -2.893   5.155  1.00  0.00    -0.014 A 
BRANCH  40  41
ATOM     41  C   UNL     1       4.780  -2.701   4.801  1.00  0.00     0.031 A 
ATOM     42  C   UNL     1       5.861  -2.801   5.815  1.00  0.00     0.074 A 
ATOM     43  C   UNL     1       5.179  -2.505   3.528  1.00  0.00     0.049 A 
ATOM     44  N   UNL     1       6.631  -1.853   6.248  1.00  0.00    -0.248 NA
ATOM     45  C   UNL     1       6.186  -4.132   6.344  1.00  0.00     0.031 C 
ATOM     46  C   UNL     1       4.408  -2.723   2.304  1.00  0.00     0.029 A 
ATOM     47  N   UNL     1       6.418  -2.152   3.072  1.00  0.00    -0.354 N 
ATOM     48  C   UNL     1       7.635  -2.475   6.984  1.00  0.00     0.074 A 
ATOM     49  C   UNL     1       7.286  -3.876   7.058  1.00  0.00     0.031 C 
ATOM     50  C   UNL     1       5.249  -2.697   1.248  1.00  0.00     0.029 A 
ATOM     51  C   UNL     1       6.573  -2.313   1.710  1.00  0.00     0.049 A 
ATOM     52  H   UNL     1       7.132  -1.815   3.659  1.00  0.00     0.167 HD
ATOM     53  C   UNL     1       8.777  -1.851   7.378  1.00  0.00     0.037 A 
ATOM     54  C   UNL     1       7.717  -2.195   1.000  1.00  0.00     0.037 A 
ATOM     55  C   UNL     1       8.795  -0.441   7.122  1.00  0.00     0.049 A 
ATOM     56  C   UNL     1       8.660  -1.324   1.742  1.00  0.00     0.074 A 
ATOM     57  C   UNL     1       8.073   0.652   7.549  1.00  0.00     0.029 A 
ATOM     58  N   UNL     1       9.554  -0.007   6.063  1.00  0.00    -0.354 N 
ATOM     59  N   UNL     1       8.473  -0.052   1.972  1.00  0.00    -0.248 NA
ATOM     60  C   UNL     1       9.770  -1.925   2.472  1.00  0.00     0.031 C 
ATOM     61  C   UNL     1       8.141   1.602   6.487  1.00  0.00     0.029 A 
ATOM     62  C   UNL     1       8.866   1.012   5.451  1.00  0.00     0.049 A 
ATOM     63  H   UNL     1      10.431  -0.361   5.792  1.00  0.00     0.167 HD
ATOM     64  C   UNL     1       9.183   0.213   3.130  1.00  0.00     0.074 A 
ATOM     65  C   UNL     1      10.084  -0.916   3.288  1.00  0.00     0.031 C 
ATOM     66  C   UNL     1       8.768   1.167   4.013  1.00  0.00     0.037 A 
BRANCH  53  67
ATOM     67  C   UNL     1      10.024  -2.576   7.776  1.00  0.00     0.058 A 
ATOM     68  C   UNL     1      10.828  -2.094   8.821  1.00  0.00     0.135 A 
ATOM     69  C   UNL     1      10.550  -3.624   6.997  1.00  0.00     0.135 A 
ATOM     70  F   UNL     1      10.409  -1.069   9.582  1.00  0.00    -0.206 F 
ATOM     71  C   UNL     1      12.087  -2.629   9.089  1.00  0.00     0.059 A 
ATOM     72  C   UNL     1      11.794  -4.191   7.260  1.00  0.00     0.059 A 
ATOM     73  F   UNL     1       9.884  -4.078   5.924  1.00  0.00    -0.206 F 
ATOM     74  C   UNL     1      12.564  -3.674   8.298  1.00  0.00     0.060 A 
BRANCH  74  75
ATOM     75  S   UNL     1      14.196  -4.373   8.630  1.00  0.00     0.124 S 
ATOM     76  O   UNL     1      15.046  -3.542   7.786  1.00  0.00    -0.237 OA
ATOM     77  O   UNL     1      14.343  -4.178  10.069  1.00  0.00    -0.237 OA
ATOM     78  O   UNL     1      14.042  -5.762   8.209  1.00  0.00    -0.744 OA
ENDBRANCH  74  75
ENDBRANCH  53  67
BRANCH  54  79
ATOM     79  C   UNL     1       8.088  -2.973  -0.203  1.00  0.00     0.058 A 
ATOM     80  C   UNL     1       9.095  -2.540  -1.078  1.00  0.00     0.135 A 
ATOM     81  C   UNL     1       7.606  -4.285  -0.400  1.00  0.00     0.135 A 
ATOM     82  F   UNL     1       9.645  -1.326  -0.928  1.00  0.00    -0.206 F 
ATOM     83  C   UNL     1       9.601  -3.362  -2.088  1.00  0.00     0.059 A 
ATOM     84  C   UNL     1       8.077  -5.114  -1.413  1.00  0.00     0.059 A 
ATOM     85  F   UNL     1       6.720  -4.833   0.445  1.00  0.00    -0.206 F 
ATOM     86  C   UNL     1       9.089  -4.652  -2.243  1.00  0.00     0.060 A 
BRANCH  86  87
ATOM     87  S   UNL     1       9.827  -5.754  -3.469  1.00  0.00     0.124 S 
ATOM     88  O   UNL     1       9.482  -5.088  -4.720  1.00  0.00    -0.237 OA
ATOM     89  O   UNL     1      11.237  -5.721  -3.096  1.00  0.00    -0.237 OA
ATOM     90  O   UNL     1       9.152  -7.027  -3.232  1.00  0.00    -0.744 OA
ENDBRANCH  86  87
ENDBRANCH  54  79
BRANCH  66  91
ATOM     91  C   UNL     1       7.852   2.245   3.506  1.00  0.00     0.058 A 
ATOM     92  C   UNL     1       6.516   2.010   3.144  1.00  0.00     0.135 A 
ATOM     93  C   UNL     1       8.289   3.578   3.537  1.00  0.00     0.135 A 
ATOM     94  F   UNL     1       6.001   0.773   3.188  1.00  0.00    -0.206 F 
ATOM     95  C   UNL     1       5.657   3.053   2.797  1.00  0.00     0.059 A 
ATOM     96  C   UNL     1       7.441   4.638   3.220  1.00  0.00     0.059 A 
ATOM     97  F   UNL     1       9.539   3.868   3.936  1.00  0.00    -0.206 F 
ATOM     98  C   UNL     1       6.127   4.365   2.840  1.00  0.00     0.060 A 
BRANCH  98  99
ATOM     99  S   UNL     1       4.982   5.726   2.516  1.00  0.00     0.124 S 
ATOM    100  O   UNL     1       5.066   5.856   1.065  1.00  0.00    -0.237 OA
ATOM    101  O   UNL     1       3.713   5.218   3.031  1.00  0.00    -0.237 OA
ATOM    102  O   UNL     1       5.553   6.832   3.280  1.00  0.00    -0.744 OA
ENDBRANCH  98  99
ENDBRANCH  66  91
ENDBRANCH  40  41
ENDBRANCH  33  35
ENDBRANCH  32  33
ENDBRANCH  31  32
ENDBRANCH  30  31
ENDBRANCH  29  30
ENDBRANCH   1  29
TORSDOF 24
