REMARK SMILES CC(=O)Nc1ccc(/C=C2/CCc3oc(C(=O)OCCOCCOC(=O)c4ccc(-c5c6nc(c(-c7c(F)cc(S(=O)(=O)[O-])cc7F)c7ccc([nH]7)c(-c7c(F)cc(S(=O)(=O)[O-])cc7F)c7nc(c(-c8c(F)cc(S(=O)(=O)[O-])cc8F)c8ccc5[nH]8)C=C7)C=C6)cc4)c(C)c3C2=O)cc1
REMARK SMILES IDX 22 1 21 2 20 3 19 4 18 5 16 6 17 7 15 8 9 9 10 10 11 11
REMARK SMILES IDX 96 12 12 13 95 14 97 15 13 16 93 17 14 18 94 19 8 20 5 21
REMARK SMILES IDX 6 22 99 23 7 24 98 25 4 26 1 27 2 28 3 29 23 31 24 32 25 33
REMARK SMILES IDX 26 34 27 35 28 36 92 37 29 38 91 39 30 40 31 41 32 42 85 43
REMARK SMILES IDX 33 44 90 45 84 46 86 47 34 48 89 49 83 50 82 51 35 53 69 54
REMARK SMILES IDX 48 55 68 56 49 57 52 58 67 59 87 60 50 61 51 62 66 64 88 65
REMARK SMILES IDX 53 66 36 67 37 68 46 69 38 70 39 71 45 72 47 73 40 74 41 75
REMARK SMILES IDX 42 76 43 77 44 78 70 79 71 80 80 81 72 82 73 83 79 84 81 85
REMARK SMILES IDX 74 86 75 87 76 88 77 89 78 90 54 91 55 92 64 93 56 94 57 95
REMARK SMILES IDX 63 96 65 97 58 98 59 99 60 100 61 101 62 102
REMARK H PARENT 4 30 86 52 52 63
REMARK Flexibility Score: inf
ROOT
ATOM      1  C   UNL     1      -1.069 -11.805   4.723  1.00  0.00     0.202 C 
ENDROOT
BRANCH   1   2
ATOM      2  O   UNL     1      -2.147 -12.475   4.079  1.00  0.00    -0.374 OA
BRANCH   2   3
ATOM      3  C   UNL     1      -1.900 -13.169   2.857  1.00  0.00     0.202 C 
BRANCH   3   4
ATOM      4  C   UNL     1      -1.734 -12.324   1.589  1.00  0.00     0.261 C 
BRANCH   4   5
ATOM      5  O   UNL     1      -0.582 -11.470   1.636  1.00  0.00    -0.457 OA
BRANCH   5   6
ATOM      6  C   UNL     1      -0.851 -10.153   1.885  1.00  0.00     0.374 C 
ATOM      7  O   UNL     1      -1.968  -9.671   1.979  1.00  0.00    -0.242 OA
BRANCH   6   8
ATOM      8  C   UNL     1       0.378  -9.442   2.174  1.00  0.00     0.215 A 
ATOM      9  C   UNL     1       3.940  -5.276   1.897  1.00  0.00     0.016 C 
ATOM     10  C   UNL     1       3.810  -6.518   2.408  1.00  0.00     0.001 C 
ATOM     11  C   UNL     1       4.646  -7.704   1.938  1.00  0.00     0.048 C 
ATOM     12  C   UNL     1       2.751  -6.921   3.392  1.00  0.00     0.192 C 
ATOM     13  C   UNL     1       3.783  -8.776   1.224  1.00  0.00     0.081 C 
ATOM     14  C   UNL     1       1.956  -8.004   2.854  1.00  0.00     0.067 A 
ATOM     15  O   UNL     1       2.576  -6.397   4.481  1.00  0.00    -0.289 OA
ATOM     16  C   UNL     1       2.450  -8.833   1.874  1.00  0.00     0.116 A 
ATOM     17  C   UNL     1       0.622  -8.424   3.095  1.00  0.00     0.014 A 
ATOM     18  O   UNL     1       1.518  -9.722   1.461  1.00  0.00    -0.453 OA
ATOM     19  C   UNL     1      -0.324  -7.850   4.087  1.00  0.00     0.049 C 
BRANCH   9  20
ATOM     20  C   UNL     1       3.131  -4.043   2.062  1.00  0.00    -0.025 A 
ATOM     21  C   UNL     1       1.619  -1.634   2.151  1.00  0.00     0.041 A 
ATOM     22  C   UNL     1       1.192  -2.768   2.832  1.00  0.00     0.027 A 
ATOM     23  C   UNL     1       2.825  -1.683   1.457  1.00  0.00     0.027 A 
ATOM     24  C   UNL     1       1.916  -3.964   2.748  1.00  0.00     0.010 A 
ATOM     25  C   UNL     1       3.576  -2.871   1.425  1.00  0.00     0.010 A 
BRANCH  21  26
ATOM     26  N   UNL     1       0.813  -0.492   2.250  1.00  0.00    -0.326 N 
ATOM     27  C   UNL     1       0.986   0.319  -0.088  1.00  0.00     0.114 C 
ATOM     28  C   UNL     1       0.569   0.501   1.346  1.00  0.00     0.221 C 
ATOM     29  O   UNL     1      -0.069   1.495   1.698  1.00  0.00    -0.275 OA
ATOM     30  H   UNL     1       0.346  -0.390   3.111  1.00  0.00     0.169 HD
ENDBRANCH  21  26
ENDBRANCH   9  20
ENDBRANCH   6   8
ENDBRANCH   5   6
ENDBRANCH   4   5
ENDBRANCH   3   4
ENDBRANCH   2   3
ENDBRANCH   1   2
BRANCH   1  31
ATOM     31  C   UNL     1       0.026 -12.631   5.378  1.00  0.00     0.261 C 
BRANCH  31  32
ATOM     32  O   UNL     1       0.685 -13.508   4.477  1.00  0.00    -0.460 OA
BRANCH  32  33
ATOM     33  C   UNL     1       0.308 -14.802   4.621  1.00  0.00     0.338 C 
ATOM     34  O   UNL     1      -0.753 -15.211   5.056  1.00  0.00    -0.246 OA
BRANCH  33  35
ATOM     35  C   UNL     1       1.460 -15.660   4.330  1.00  0.00     0.060 A 
ATOM     36  C   UNL     1       1.258 -17.041   4.387  1.00  0.00     0.016 A 
ATOM     37  C   UNL     1       2.746 -15.104   4.247  1.00  0.00     0.016 A 
ATOM     38  C   UNL     1       2.358 -17.863   4.514  1.00  0.00     0.010 A 
ATOM     39  C   UNL     1       3.840 -15.923   4.396  1.00  0.00     0.010 A 
ATOM     40  C   UNL     1       3.631 -17.286   4.590  1.00  0.00    -0.014 A 
BRANCH  40  41
ATOM     41  C   UNL     1       4.781 -18.164   4.685  1.00  0.00     0.031 A 
ATOM     42  C   UNL     1       5.032 -18.867   3.404  1.00  0.00     0.074 A 
ATOM     43  C   UNL     1       5.580 -18.210   5.769  1.00  0.00     0.049 A 
ATOM     44  N   UNL     1       4.844 -20.118   3.148  1.00  0.00    -0.248 NA
ATOM     45  C   UNL     1       5.294 -18.049   2.204  1.00  0.00     0.031 C 
ATOM     46  C   UNL     1       5.537 -17.344   6.951  1.00  0.00     0.029 A 
ATOM     47  N   UNL     1       6.675 -18.983   6.007  1.00  0.00    -0.354 N 
ATOM     48  C   UNL     1       5.251 -20.284   1.828  1.00  0.00     0.074 A 
ATOM     49  C   UNL     1       5.258 -18.973   1.243  1.00  0.00     0.031 C 
ATOM     50  C   UNL     1       6.686 -17.485   7.653  1.00  0.00     0.029 A 
ATOM     51  C   UNL     1       7.489 -18.534   7.047  1.00  0.00     0.049 A 
ATOM     52  H   UNL     1       6.876 -19.794   5.487  1.00  0.00     0.167 HD
ATOM     53  C   UNL     1       5.867 -21.434   1.440  1.00  0.00     0.037 A 
ATOM     54  C   UNL     1       8.751 -18.960   7.332  1.00  0.00     0.037 A 
ATOM     55  C   UNL     1       5.608 -22.492   2.388  1.00  0.00     0.049 A 
ATOM     56  C   UNL     1       8.927 -20.276   6.663  1.00  0.00     0.074 A 
ATOM     57  C   UNL     1       4.470 -23.093   2.889  1.00  0.00     0.029 A 
ATOM     58  N   UNL     1       6.622 -22.810   3.258  1.00  0.00    -0.354 N 
ATOM     59  N   UNL     1       8.288 -21.358   7.014  1.00  0.00    -0.248 NA
ATOM     60  C   UNL     1       9.451 -20.278   5.306  1.00  0.00     0.031 C 
ATOM     61  C   UNL     1       4.760 -23.353   4.261  1.00  0.00     0.029 A 
ATOM     62  C   UNL     1       6.082 -22.979   4.505  1.00  0.00     0.049 A 
ATOM     63  H   UNL     1       7.574 -22.901   3.025  1.00  0.00     0.167 HD
ATOM     64  C   UNL     1       7.936 -21.963   5.817  1.00  0.00     0.074 A 
ATOM     65  C   UNL     1       8.754 -21.300   4.803  1.00  0.00     0.031 C 
ATOM     66  C   UNL     1       6.809 -22.730   5.729  1.00  0.00     0.037 A 
BRANCH  53  67
ATOM     67  C   UNL     1       7.048 -21.475   0.490  1.00  0.00     0.058 A 
ATOM     68  C   UNL     1       7.576 -22.731   0.125  1.00  0.00     0.135 A 
ATOM     69  C   UNL     1       7.860 -20.363   0.164  1.00  0.00     0.135 A 
ATOM     70  F   UNL     1       6.897 -23.860   0.384  1.00  0.00    -0.206 F 
ATOM     71  C   UNL     1       8.846 -22.876  -0.433  1.00  0.00     0.059 A 
ATOM     72  C   UNL     1       9.104 -20.483  -0.441  1.00  0.00     0.059 A 
ATOM     73  F   UNL     1       7.542 -19.107   0.491  1.00  0.00    -0.206 F 
ATOM     74  C   UNL     1       9.608 -21.744  -0.699  1.00  0.00     0.060 A 
BRANCH  74  75
ATOM     75  S   UNL     1      11.274 -21.925  -1.351  1.00  0.00     0.124 S 
ATOM     76  O   UNL     1      11.968 -22.515  -0.212  1.00  0.00    -0.237 OA
ATOM     77  O   UNL     1      11.052 -22.804  -2.494  1.00  0.00    -0.237 OA
ATOM     78  O   UNL     1      11.654 -20.556  -1.684  1.00  0.00    -0.744 OA
ENDBRANCH  74  75
ENDBRANCH  53  67
BRANCH  54  79
ATOM     79  C   UNL     1       9.919 -18.177   7.831  1.00  0.00     0.058 A 
ATOM     80  C   UNL     1      11.108 -18.818   8.238  1.00  0.00     0.135 A 
ATOM     81  C   UNL     1      10.011 -16.785   7.633  1.00  0.00     0.135 A 
ATOM     82  F   UNL     1      11.125 -20.145   8.437  1.00  0.00    -0.206 F 
ATOM     83  C   UNL     1      12.323 -18.133   8.377  1.00  0.00     0.059 A 
ATOM     84  C   UNL     1      11.207 -16.080   7.775  1.00  0.00     0.059 A 
ATOM     85  F   UNL     1       8.958 -16.078   7.198  1.00  0.00    -0.206 F 
ATOM     86  C   UNL     1      12.367 -16.764   8.118  1.00  0.00     0.060 A 
BRANCH  86  87
ATOM     87  S   UNL     1      13.961 -15.905   8.102  1.00  0.00     0.124 S 
ATOM     88  O   UNL     1      14.316 -15.897   9.517  1.00  0.00    -0.237 OA
ATOM     89  O   UNL     1      14.770 -16.767   7.246  1.00  0.00    -0.237 OA
ATOM     90  O   UNL     1      13.635 -14.599   7.534  1.00  0.00    -0.744 OA
ENDBRANCH  86  87
ENDBRANCH  54  79
BRANCH  66  91
ATOM     91  C   UNL     1       6.178 -23.218   7.006  1.00  0.00     0.058 A 
ATOM     92  C   UNL     1       5.642 -22.401   8.018  1.00  0.00     0.135 A 
ATOM     93  C   UNL     1       6.011 -24.605   7.147  1.00  0.00     0.135 A 
ATOM     94  F   UNL     1       5.660 -21.064   7.910  1.00  0.00    -0.206 F 
ATOM     95  C   UNL     1       5.023 -22.946   9.147  1.00  0.00     0.059 A 
ATOM     96  C   UNL     1       5.367 -25.166   8.241  1.00  0.00     0.059 A 
ATOM     97  F   UNL     1       6.447 -25.436   6.185  1.00  0.00    -0.206 F 
ATOM     98  C   UNL     1       4.895 -24.332   9.251  1.00  0.00     0.060 A 
BRANCH  98  99
ATOM     99  S   UNL     1       4.077 -25.045  10.693  1.00  0.00     0.124 S 
ATOM    100  O   UNL     1       5.039 -24.775  11.756  1.00  0.00    -0.237 OA
ATOM    101  O   UNL     1       2.830 -24.287  10.757  1.00  0.00    -0.237 OA
ATOM    102  O   UNL     1       3.921 -26.453  10.337  1.00  0.00    -0.744 OA
ENDBRANCH  98  99
ENDBRANCH  66  91
ENDBRANCH  40  41
ENDBRANCH  33  35
ENDBRANCH  32  33
ENDBRANCH  31  32
ENDBRANCH   1  31
TORSDOF 19
