REMARK SMILES COCCOCC(=O)N1C[C@@H]2CC[N@@H+](C)C[C@]2(C(=O)OCCOCCOC(=O)c2ccc(-c3c4nc(c(-c5c(F)cc(S(=O)(=O)[O-])cc5F)c5ccc([nH]5)c(-c5c(F)cc(S(=O)(=O)[O-])cc5F)c5nc(c(-c6c(F)cc(S(=O)(=O)[O-])cc6F)c6ccc3[nH]6)C=C5)C=C4)cc2)C1
REMARK SMILES IDX 21 1 20 2 18 3 19 4 17 5 9 6 10 7 95 8 11 9 12 10 16 11
REMARK SMILES IDX 13 12 14 13 15 14 7 16 8 17 6 18 5 19 4 20 3 21 2 22 1 23
REMARK SMILES IDX 22 24 23 25 24 26 25 27 26 28 27 29 28 30 29 31 30 32 94 33
REMARK SMILES IDX 31 34 93 35 32 36 33 37 34 38 87 39 35 40 92 41 86 42 88 43
REMARK SMILES IDX 36 44 91 45 85 46 84 47 37 49 71 50 50 51 70 52 51 53 54 54
REMARK SMILES IDX 69 55 89 56 52 57 53 58 68 60 90 61 55 62 38 63 39 64 48 65
REMARK SMILES IDX 40 66 41 67 47 68 49 69 42 70 43 71 44 72 45 73 46 74 72 75
REMARK SMILES IDX 73 76 82 77 74 78 75 79 81 80 83 81 76 82 77 83 78 84 79 85
REMARK SMILES IDX 80 86 56 87 57 88 66 89 58 90 59 91 65 92 67 93 60 94 61 95
REMARK SMILES IDX 62 96 63 97 64 98
REMARK H PARENT 14 15 88 48 54 59
REMARK Flexibility Score: inf
ROOT
ATOM      1  C   UNL     1      -0.420  -4.229   6.912  1.00  0.00     0.261 C 
ENDROOT
BRANCH   1   2
ATOM      2  O   UNL     1      -0.981  -3.702   5.686  1.00  0.00    -0.463 OA
BRANCH   2   3
ATOM      3  C   UNL     1      -0.945  -4.387   4.492  1.00  0.00     0.320 C 
ATOM      4  O   UNL     1      -0.178  -5.293   4.218  1.00  0.00    -0.251 OA
BRANCH   3   5
ATOM      5  C   UNL     1      -2.096  -3.841   3.627  1.00  0.00     0.139 C 
ATOM      6  N   UNL     1      -1.785  -2.232   1.863  1.00  0.00    -0.339 N 
ATOM      7  C   UNL     1      -2.774  -3.138   1.399  1.00  0.00     0.124 C 
ATOM      8  C   UNL     1      -1.558  -2.417   3.288  1.00  0.00     0.144 C 
ATOM      9  C   UNL     1      -2.528  -4.404   2.236  1.00  0.00     0.039 C 
ATOM     10  C   UNL     1      -3.877  -5.158   2.159  1.00  0.00     0.068 C 
ATOM     11  C   UNL     1      -3.339  -4.021   4.512  1.00  0.00     0.283 C 
ATOM     12  C   UNL     1      -4.222  -6.013   3.356  1.00  0.00     0.262 C 
ATOM     13  N   UNL     1      -3.792  -5.443   4.636  1.00  0.00    -0.336 N 
ATOM     14  C   UNL     1      -2.870  -6.431   5.225  1.00  0.00     0.332 C 
ATOM     15  H   UNL     1      -4.552  -5.312   5.303  1.00  0.00     0.347 HD
BRANCH   6  16
ATOM     16  C   UNL     1      -1.167  -1.402   0.957  1.00  0.00     0.248 C 
ATOM     17  O   UNL     1      -1.729  -1.063  -0.088  1.00  0.00    -0.272 OA
BRANCH  16  18
ATOM     18  C   UNL     1       0.322  -1.127   1.173  1.00  0.00     0.260 C 
BRANCH  18  19
ATOM     19  O   UNL     1       0.748  -0.402   2.305  1.00  0.00    -0.369 OA
BRANCH  19  20
ATOM     20  C   UNL     1       0.440   0.994   2.254  1.00  0.00     0.189 C 
BRANCH  20  21
ATOM     21  C   UNL     1       1.434   1.804   1.411  1.00  0.00     0.188 C 
BRANCH  21  22
ATOM     22  O   UNL     1       1.174   1.622   0.016  1.00  0.00    -0.382 OA
ATOM     23  C   UNL     1       2.310   1.151  -0.699  1.00  0.00     0.195 C 
ENDBRANCH  21  22
ENDBRANCH  20  21
ENDBRANCH  19  20
ENDBRANCH  18  19
ENDBRANCH  16  18
ENDBRANCH   6  16
ENDBRANCH   3   5
ENDBRANCH   2   3
ENDBRANCH   1   2
BRANCH   1  24
ATOM     24  C   UNL     1      -1.136  -3.520   8.093  1.00  0.00     0.202 C 
BRANCH  24  25
ATOM     25  O   UNL     1      -2.193  -4.224   8.768  1.00  0.00    -0.374 OA
BRANCH  25  26
ATOM     26  C   UNL     1      -3.418  -4.451   8.076  1.00  0.00     0.202 C 
BRANCH  26  27
ATOM     27  C   UNL     1      -4.451  -3.321   7.928  1.00  0.00     0.261 C 
BRANCH  27  28
ATOM     28  O   UNL     1      -3.876  -2.036   8.105  1.00  0.00    -0.460 OA
BRANCH  28  29
ATOM     29  C   UNL     1      -3.858  -1.696   9.410  1.00  0.00     0.338 C 
ATOM     30  O   UNL     1      -4.463  -2.236  10.331  1.00  0.00    -0.246 OA
BRANCH  29  31
ATOM     31  C   UNL     1      -2.830  -0.684   9.627  1.00  0.00     0.060 A 
ATOM     32  C   UNL     1      -1.885  -0.974  10.614  1.00  0.00     0.016 A 
ATOM     33  C   UNL     1      -2.855   0.547   8.966  1.00  0.00     0.016 A 
ATOM     34  C   UNL     1      -1.032   0.024  11.045  1.00  0.00     0.010 A 
ATOM     35  C   UNL     1      -1.992   1.551   9.400  1.00  0.00     0.010 A 
ATOM     36  C   UNL     1      -1.142   1.307  10.492  1.00  0.00    -0.014 A 
BRANCH  36  37
ATOM     37  C   UNL     1      -0.566   2.425  11.263  1.00  0.00     0.031 A 
ATOM     38  C   UNL     1      -1.475   3.183  12.193  1.00  0.00     0.074 A 
ATOM     39  C   UNL     1       0.754   2.663  11.221  1.00  0.00     0.049 A 
ATOM     40  N   UNL     1      -1.190   4.144  13.030  1.00  0.00    -0.248 NA
ATOM     41  C   UNL     1      -2.899   2.800  12.182  1.00  0.00     0.031 C 
ATOM     42  C   UNL     1       1.716   1.940  10.389  1.00  0.00     0.029 A 
ATOM     43  N   UNL     1       1.513   3.566  11.914  1.00  0.00    -0.354 N 
ATOM     44  C   UNL     1      -2.394   4.481  13.640  1.00  0.00     0.074 A 
ATOM     45  C   UNL     1      -3.420   3.651  13.053  1.00  0.00     0.031 C 
ATOM     46  C   UNL     1       2.945   2.428  10.625  1.00  0.00     0.029 A 
ATOM     47  C   UNL     1       2.849   3.505  11.608  1.00  0.00     0.049 A 
ATOM     48  H   UNL     1       1.137   4.198  12.568  1.00  0.00     0.167 HD
ATOM     49  C   UNL     1      -2.617   5.392  14.615  1.00  0.00     0.037 A 
ATOM     50  C   UNL     1       3.873   4.243  12.075  1.00  0.00     0.037 A 
ATOM     51  C   UNL     1      -1.580   6.203  15.194  1.00  0.00     0.049 A 
ATOM     52  C   UNL     1       3.595   5.272  13.136  1.00  0.00     0.074 A 
ATOM     53  C   UNL     1      -1.685   7.170  16.177  1.00  0.00     0.029 A 
ATOM     54  N   UNL     1      -0.239   6.133  14.840  1.00  0.00    -0.354 N 
ATOM     55  N   UNL     1       2.452   5.589  13.700  1.00  0.00    -0.248 NA
ATOM     56  C   UNL     1       4.746   6.032  13.638  1.00  0.00     0.031 C 
ATOM     57  C   UNL     1      -0.412   7.709  16.392  1.00  0.00     0.029 A 
ATOM     58  C   UNL     1       0.493   7.045  15.578  1.00  0.00     0.049 A 
ATOM     59  H   UNL     1       0.135   5.524  14.163  1.00  0.00     0.167 HD
ATOM     60  C   UNL     1       2.751   6.564  14.645  1.00  0.00     0.074 A 
ATOM     61  C   UNL     1       4.184   6.774  14.582  1.00  0.00     0.031 C 
ATOM     62  C   UNL     1       1.921   7.224  15.493  1.00  0.00     0.037 A 
BRANCH  49  63
ATOM     63  C   UNL     1      -4.035   5.573  15.084  1.00  0.00     0.058 A 
ATOM     64  C   UNL     1      -4.690   4.601  15.858  1.00  0.00     0.135 A 
ATOM     65  C   UNL     1      -4.748   6.736  14.755  1.00  0.00     0.135 A 
ATOM     66  F   UNL     1      -4.064   3.458  16.179  1.00  0.00    -0.206 F 
ATOM     67  C   UNL     1      -6.011   4.765  16.266  1.00  0.00     0.059 A 
ATOM     68  C   UNL     1      -6.061   6.932  15.174  1.00  0.00     0.059 A 
ATOM     69  F   UNL     1      -4.173   7.693  14.009  1.00  0.00    -0.206 F 
ATOM     70  C   UNL     1      -6.689   5.934  15.917  1.00  0.00     0.060 A 
BRANCH  70  71
ATOM     71  S   UNL     1      -8.402   6.136  16.452  1.00  0.00     0.124 S 
ATOM     72  O   UNL     1      -9.098   5.223  15.550  1.00  0.00    -0.237 OA
ATOM     73  O   UNL     1      -8.344   5.723  17.851  1.00  0.00    -0.237 OA
ATOM     74  O   UNL     1      -8.661   7.555  16.232  1.00  0.00    -0.744 OA
ENDBRANCH  70  71
ENDBRANCH  49  63
BRANCH  50  75
ATOM     75  C   UNL     1       5.244   4.022  11.547  1.00  0.00     0.058 A 
ATOM     76  C   UNL     1       6.247   3.444  12.338  1.00  0.00     0.135 A 
ATOM     77  C   UNL     1       5.571   4.370  10.226  1.00  0.00     0.135 A 
ATOM     78  F   UNL     1       5.983   3.096  13.607  1.00  0.00    -0.206 F 
ATOM     79  C   UNL     1       7.531   3.234  11.846  1.00  0.00     0.059 A 
ATOM     80  C   UNL     1       6.840   4.147   9.704  1.00  0.00     0.059 A 
ATOM     81  F   UNL     1       4.640   4.909   9.423  1.00  0.00    -0.206 F 
ATOM     82  C   UNL     1       7.817   3.587  10.525  1.00  0.00     0.060 A 
BRANCH  82  83
ATOM     83  S   UNL     1       9.472   3.265   9.878  1.00  0.00     0.124 S 
ATOM     84  O   UNL     1      10.249   4.317  10.523  1.00  0.00    -0.237 OA
ATOM     85  O   UNL     1       9.725   1.905  10.343  1.00  0.00    -0.237 OA
ATOM     86  O   UNL     1       9.298   3.403   8.434  1.00  0.00    -0.744 OA
ENDBRANCH  82  83
ENDBRANCH  50  75
BRANCH  62  87
ATOM     87  C   UNL     1       2.557   8.196  16.446  1.00  0.00     0.058 A 
ATOM     88  C   UNL     1       3.064   9.431  16.013  1.00  0.00     0.135 A 
ATOM     89  C   UNL     1       2.640   7.891  17.814  1.00  0.00     0.135 A 
ATOM     90  F   UNL     1       3.009   9.767  14.715  1.00  0.00    -0.206 F 
ATOM     91  C   UNL     1       3.674  10.312  16.899  1.00  0.00     0.059 A 
ATOM     92  C   UNL     1       3.220   8.771  18.721  1.00  0.00     0.059 A 
ATOM     93  F   UNL     1       2.153   6.730  18.280  1.00  0.00    -0.206 F 
ATOM     94  C   UNL     1       3.753   9.969  18.250  1.00  0.00     0.060 A 
BRANCH  94  95
ATOM     95  S   UNL     1       4.553  11.116  19.391  1.00  0.00     0.124 S 
ATOM     96  O   UNL     1       5.963  10.877  19.103  1.00  0.00    -0.237 OA
ATOM     97  O   UNL     1       4.027  12.408  18.961  1.00  0.00    -0.237 OA
ATOM     98  O   UNL     1       4.093  10.665  20.702  1.00  0.00    -0.744 OA
ENDBRANCH  94  95
ENDBRANCH  62  87
ENDBRANCH  36  37
ENDBRANCH  29  31
ENDBRANCH  28  29
ENDBRANCH  27  28
ENDBRANCH  26  27
ENDBRANCH  25  26
ENDBRANCH  24  25
ENDBRANCH   1  24
TORSDOF 23
