REMARK SMILES O=C(OCCOCCOC(=O)[C@H]1[C@H](C(=O)NC2CC[NH+](Cc3ccccc3)CC2)[C@H]2C=C[C@@H]1C2)c1ccc(-c2c3nc(c(-c4c(F)cc(S(=O)(=O)[O-])cc4F)c4ccc([nH]4)c(-c4c(F)cc(S(=O)(=O)[O-])cc4F)c4nc(c(-c5c(F)cc(S(=O)(=O)[O-])cc5F)c5ccc2[nH]5)C=C4)C=C3)cc1
REMARK SMILES IDX 7 1 6 2 5 3 4 4 3 5 2 6 1 7 35 8 36 9 100 10 37 11 99 12
REMARK SMILES IDX 38 13 39 14 40 15 93 16 41 17 98 18 92 19 94 20 42 21 97 22
REMARK SMILES IDX 91 23 90 24 43 26 77 27 56 28 76 29 57 30 60 31 75 32 95 33
REMARK SMILES IDX 58 34 59 35 74 37 96 38 61 39 44 40 45 41 54 42 46 43 47 44
REMARK SMILES IDX 53 45 55 46 48 47 49 48 50 49 51 50 52 51 78 52 79 53 88 54
REMARK SMILES IDX 80 55 81 56 87 57 89 58 82 59 83 60 84 61 85 62 86 63 62 64
REMARK SMILES IDX 63 65 72 66 64 67 65 68 71 69 73 70 66 71 67 72 68 73 69 74
REMARK SMILES IDX 70 75 8 76 9 77 10 78 11 79 12 80 13 81 33 82 30 83 32 84
REMARK SMILES IDX 34 85 31 86 14 87 15 88 16 89 17 91 18 92 29 93 19 94 28 95
REMARK SMILES IDX 20 96 21 98 22 99 23 100 27 101 24 102 26 103 25 104
REMARK H PARENT 94 25 60 36 16 90 20 97
REMARK Flexibility Score: inf
ROOT
ATOM      1  C   UNL     1       2.562   3.928  -4.842  1.00  0.00     0.202 C 
ENDROOT
BRANCH   1   2
ATOM      2  O   UNL     1       2.065   2.672  -4.378  1.00  0.00    -0.374 OA
BRANCH   2   3
ATOM      3  C   UNL     1       2.869   1.517  -4.614  1.00  0.00     0.202 C 
BRANCH   3   4
ATOM      4  C   UNL     1       2.727   0.860  -5.986  1.00  0.00     0.261 C 
BRANCH   4   5
ATOM      5  O   UNL     1       3.200   1.762  -7.028  1.00  0.00    -0.460 OA
BRANCH   5   6
ATOM      6  C   UNL     1       2.449   2.369  -7.988  1.00  0.00     0.338 C 
ATOM      7  O   UNL     1       2.947   3.076  -8.852  1.00  0.00    -0.246 OA
BRANCH   6   8
ATOM      8  C   UNL     1       1.004   2.107  -7.956  1.00  0.00     0.060 A 
ATOM      9  C   UNL     1       0.324   2.356  -6.780  1.00  0.00     0.016 A 
ATOM     10  C   UNL     1       0.367   1.448  -9.002  1.00  0.00     0.016 A 
ATOM     11  C   UNL     1      -0.767   1.599  -6.473  1.00  0.00     0.010 A 
ATOM     12  C   UNL     1      -0.911   0.929  -8.781  1.00  0.00     0.010 A 
ATOM     13  C   UNL     1      -1.449   0.937  -7.483  1.00  0.00    -0.014 A 
BRANCH  13  14
ATOM     14  C   UNL     1      -2.684   0.233  -7.094  1.00  0.00     0.031 A 
ATOM     15  C   UNL     1      -2.813  -1.225  -7.406  1.00  0.00     0.074 A 
ATOM     16  C   UNL     1      -3.596   0.894  -6.348  1.00  0.00     0.049 A 
ATOM     17  N   UNL     1      -3.877  -1.974  -7.366  1.00  0.00    -0.248 NA
ATOM     18  C   UNL     1      -1.598  -1.933  -7.854  1.00  0.00     0.031 C 
ATOM     19  C   UNL     1      -3.481   2.295  -5.904  1.00  0.00     0.029 A 
ATOM     20  N   UNL     1      -4.763   0.480  -5.772  1.00  0.00    -0.354 N 
ATOM     21  C   UNL     1      -3.487  -3.207  -7.872  1.00  0.00     0.074 A 
ATOM     22  C   UNL     1      -2.083  -3.119  -8.193  1.00  0.00     0.031 C 
ATOM     23  C   UNL     1      -4.455   2.574  -5.033  1.00  0.00     0.029 A 
ATOM     24  C   UNL     1      -5.381   1.460  -5.029  1.00  0.00     0.049 A 
ATOM     25  H   UNL     1      -5.125  -0.429  -5.878  1.00  0.00     0.167 HD
ATOM     26  C   UNL     1      -4.270  -4.293  -8.064  1.00  0.00     0.037 A 
ATOM     27  C   UNL     1      -6.612   1.494  -4.493  1.00  0.00     0.037 A 
ATOM     28  C   UNL     1      -5.654  -4.311  -7.665  1.00  0.00     0.049 A 
ATOM     29  C   UNL     1      -7.473   0.298  -4.754  1.00  0.00     0.074 A 
ATOM     30  C   UNL     1      -6.605  -5.293  -7.854  1.00  0.00     0.029 A 
ATOM     31  N   UNL     1      -6.273  -3.280  -6.961  1.00  0.00    -0.354 N 
ATOM     32  N   UNL     1      -7.160  -0.810  -5.389  1.00  0.00    -0.248 NA
ATOM     33  C   UNL     1      -8.855   0.363  -4.282  1.00  0.00     0.031 C 
ATOM     34  C   UNL     1      -7.805  -4.844  -7.287  1.00  0.00     0.029 A 
ATOM     35  C   UNL     1      -7.591  -3.601  -6.703  1.00  0.00     0.049 A 
ATOM     36  H   UNL     1      -5.834  -2.442  -6.686  1.00  0.00     0.167 HD
ATOM     37  C   UNL     1      -8.310  -1.579  -5.400  1.00  0.00     0.074 A 
ATOM     38  C   UNL     1      -9.315  -0.817  -4.676  1.00  0.00     0.031 C 
ATOM     39  C   UNL     1      -8.531  -2.792  -5.965  1.00  0.00     0.037 A 
BRANCH  26  40
ATOM     40  C   UNL     1      -3.672  -5.471  -8.784  1.00  0.00     0.058 A 
ATOM     41  C   UNL     1      -2.691  -6.292  -8.204  1.00  0.00     0.135 A 
ATOM     42  C   UNL     1      -4.066  -5.766 -10.101  1.00  0.00     0.135 A 
ATOM     43  F   UNL     1      -2.248  -6.042  -6.962  1.00  0.00    -0.206 F 
ATOM     44  C   UNL     1      -2.105  -7.341  -8.911  1.00  0.00     0.059 A 
ATOM     45  C   UNL     1      -3.513  -6.824 -10.817  1.00  0.00     0.059 A 
ATOM     46  F   UNL     1      -4.988  -5.007 -10.715  1.00  0.00    -0.206 F 
ATOM     47  C   UNL     1      -2.519  -7.597 -10.219  1.00  0.00     0.060 A 
BRANCH  47  48
ATOM     48  S   UNL     1      -1.740  -8.950 -11.128  1.00  0.00     0.124 S 
ATOM     49  O   UNL     1      -0.418  -8.393 -11.403  1.00  0.00    -0.237 OA
ATOM     50  O   UNL     1      -1.777 -10.040 -10.159  1.00  0.00    -0.237 OA
ATOM     51  O   UNL     1      -2.603  -9.120 -12.293  1.00  0.00    -0.744 OA
ENDBRANCH  47  48
ENDBRANCH  26  40
BRANCH  27  52
ATOM     52  C   UNL     1      -7.105   2.720  -3.805  1.00  0.00     0.058 A 
ATOM     53  C   UNL     1      -7.430   2.713  -2.442  1.00  0.00     0.135 A 
ATOM     54  C   UNL     1      -7.214   3.947  -4.487  1.00  0.00     0.135 A 
ATOM     55  F   UNL     1      -7.348   1.572  -1.740  1.00  0.00    -0.206 F 
ATOM     56  C   UNL     1      -7.852   3.867  -1.784  1.00  0.00     0.059 A 
ATOM     57  C   UNL     1      -7.594   5.120  -3.845  1.00  0.00     0.059 A 
ATOM     58  F   UNL     1      -6.902   4.025  -5.791  1.00  0.00    -0.206 F 
ATOM     59  C   UNL     1      -7.928   5.067  -2.494  1.00  0.00     0.060 A 
BRANCH  59  60
ATOM     60  S   UNL     1      -8.448   6.566  -1.631  1.00  0.00     0.124 S 
ATOM     61  O   UNL     1      -9.882   6.340  -1.494  1.00  0.00    -0.237 OA
ATOM     62  O   UNL     1      -7.670   6.500  -0.398  1.00  0.00    -0.237 OA
ATOM     63  O   UNL     1      -8.062   7.633  -2.549  1.00  0.00    -0.744 OA
ENDBRANCH  59  60
ENDBRANCH  27  52
BRANCH  39  64
ATOM     64  C   UNL     1      -9.900  -3.359  -5.764  1.00  0.00     0.058 A 
ATOM     65  C   UNL     1     -11.004  -2.879  -6.482  1.00  0.00     0.135 A 
ATOM     66  C   UNL     1     -10.093  -4.411  -4.857  1.00  0.00     0.135 A 
ATOM     67  F   UNL     1     -10.860  -1.862  -7.347  1.00  0.00    -0.206 F 
ATOM     68  C   UNL     1     -12.269  -3.412  -6.288  1.00  0.00     0.059 A 
ATOM     69  C   UNL     1     -11.345  -4.977  -4.669  1.00  0.00     0.059 A 
ATOM     70  F   UNL     1      -9.058  -4.899  -4.155  1.00  0.00    -0.206 F 
ATOM     71  C   UNL     1     -12.428  -4.462  -5.381  1.00  0.00     0.060 A 
BRANCH  71  72
ATOM     72  S   UNL     1     -14.071  -5.169  -5.162  1.00  0.00     0.124 S 
ATOM     73  O   UNL     1     -14.724  -4.144  -4.354  1.00  0.00    -0.237 OA
ATOM     74  O   UNL     1     -14.544  -5.291  -6.537  1.00  0.00    -0.237 OA
ATOM     75  O   UNL     1     -13.806  -6.433  -4.482  1.00  0.00    -0.744 OA
ENDBRANCH  71  72
ENDBRANCH  39  64
ENDBRANCH  13  14
ENDBRANCH   6   8
ENDBRANCH   5   6
ENDBRANCH   4   5
ENDBRANCH   3   4
ENDBRANCH   2   3
ENDBRANCH   1   2
BRANCH   1  76
ATOM     76  C   UNL     1       1.893   5.045  -4.024  1.00  0.00     0.261 C 
BRANCH  76  77
ATOM     77  O   UNL     1       2.739   5.473  -2.946  1.00  0.00    -0.463 OA
BRANCH  77  78
ATOM     78  C   UNL     1       3.061   4.530  -2.020  1.00  0.00     0.310 C 
ATOM     79  O   UNL     1       2.297   3.711  -1.573  1.00  0.00    -0.252 OA
BRANCH  78  80
ATOM     80  C   UNL     1       4.549   4.584  -1.689  1.00  0.00     0.119 C 
ATOM     81  C   UNL     1       5.348   3.493  -2.481  1.00  0.00     0.100 C 
ATOM     82  C   UNL     1       5.279   5.912  -2.095  1.00  0.00     0.027 C 
ATOM     83  C   UNL     1       6.503   4.338  -3.087  1.00  0.00     0.025 C 
ATOM     84  C   UNL     1       5.227   6.183  -3.587  1.00  0.00    -0.027 C 
ATOM     85  C   UNL     1       6.727   5.438  -2.051  1.00  0.00     0.017 C 
ATOM     86  C   UNL     1       5.928   5.215  -4.188  1.00  0.00    -0.027 C 
BRANCH  81  87
ATOM     87  C   UNL     1       5.292   2.099  -1.798  1.00  0.00     0.224 C 
ATOM     88  O   UNL     1       4.271   1.423  -2.032  1.00  0.00    -0.275 OA
ATOM     89  N   UNL     1       6.064   1.428  -0.936  1.00  0.00    -0.353 N 
ATOM     90  H   UNL     1       5.537   0.673  -0.587  1.00  0.00     0.163 HD
BRANCH  89  91
ATOM     91  C   UNL     1       7.391   1.377  -0.307  1.00  0.00     0.093 C 
ATOM     92  C   UNL     1       8.338   2.483  -0.675  1.00  0.00     0.086 C 
ATOM     93  C   UNL     1       8.109   0.045  -0.619  1.00  0.00     0.086 C 
ATOM     94  C   UNL     1       8.677   2.349  -2.148  1.00  0.00     0.264 C 
ATOM     95  C   UNL     1       8.515  -0.066  -2.099  1.00  0.00     0.264 C 
ATOM     96  N   UNL     1       9.278   1.096  -2.580  1.00  0.00    -0.331 N 
ATOM     97  H   UNL     1      10.203   0.996  -2.160  1.00  0.00     0.348 HD
BRANCH  96  98
ATOM     98  C   UNL     1       9.456   1.120  -4.062  1.00  0.00     0.299 C 
BRANCH  98  99
ATOM     99  C   UNL     1       8.310   0.699  -4.977  1.00  0.00     0.006 A 
ATOM    100  C   UNL     1       8.214  -0.639  -5.393  1.00  0.00     0.009 A 
ATOM    101  C   UNL     1       7.385   1.615  -5.503  1.00  0.00     0.009 A 
ATOM    102  C   UNL     1       7.235  -1.046  -6.305  1.00  0.00     0.001 A 
ATOM    103  C   UNL     1       6.404   1.207  -6.415  1.00  0.00     0.001 A 
ATOM    104  C   UNL     1       6.330  -0.123  -6.818  1.00  0.00     0.000 A 
ENDBRANCH  98  99
ENDBRANCH  96  98
ENDBRANCH  89  91
ENDBRANCH  81  87
ENDBRANCH  78  80
ENDBRANCH  77  78
ENDBRANCH  76  77
ENDBRANCH   1  76
TORSDOF 21
