REMARK SMILES CN(C(=O)C[C@@H]1SC(=O)N(c2ccccc2)C1=O)c1ccccc1C(=O)OCCOCCOC(=O)c1ccc(-c2c3nc(c(-c4c(F)cc(S(=O)(=O)[O-])cc4F)c4ccc([nH]4)c(-c4c(F)cc(S(=O)(=O)[O-])cc4F)c4nc(c(-c5c(F)cc(S(=O)(=O)[O-])cc5F)c5ccc2[nH]5)C=C4)C=C3)cc1
REMARK SMILES IDX 29 1 28 2 27 3 25 4 26 5 24 6 19 7 20 8 21 9 23 10 22 11
REMARK SMILES IDX 2 12 1 13 3 14 4 15 5 16 6 17 7 18 17 19 8 20 10 21 18 22
REMARK SMILES IDX 9 23 11 24 12 25 16 26 13 27 15 28 14 29 30 30 31 31 32 32
REMARK SMILES IDX 33 33 34 34 35 35 36 36 37 37 101 38 38 39 100 40 39 41
REMARK SMILES IDX 40 42 41 43 94 44 42 45 99 46 93 47 95 48 43 49 98 50 92 51
REMARK SMILES IDX 91 52 44 54 78 55 57 56 77 57 58 58 61 59 76 60 96 61 59 62
REMARK SMILES IDX 60 63 75 65 97 66 62 67 45 68 46 69 55 70 47 71 48 72 54 73
REMARK SMILES IDX 56 74 49 75 50 76 51 77 52 78 53 79 79 80 80 81 89 82 81 83
REMARK SMILES IDX 82 84 88 85 90 86 83 87 84 88 85 89 86 90 87 91 63 92 64 93
REMARK SMILES IDX 73 94 65 95 66 96 72 97 74 98 67 99 68 100 69 101 70 102
REMARK SMILES IDX 71 103
REMARK H PARENT 95 53 61 64
REMARK Flexibility Score: inf
ROOT
ATOM      1  C   UNL     1       5.289   0.016  -0.542  1.00  0.00     0.202 C 
ENDROOT
BRANCH   1   2
ATOM      2  C   UNL     1       4.070  -0.353  -1.374  1.00  0.00     0.261 C 
BRANCH   2   3
ATOM      3  O   UNL     1       3.024  -0.864  -0.526  1.00  0.00    -0.460 OA
BRANCH   3   4
ATOM      4  C   UNL     1       2.467  -2.007  -0.979  1.00  0.00     0.340 C 
ATOM      5  O   UNL     1       2.686  -2.530  -2.063  1.00  0.00    -0.246 OA
BRANCH   4   6
ATOM      6  C   UNL     1       1.674  -2.707   0.055  1.00  0.00     0.083 A 
ATOM      7  C   UNL     1       0.604  -2.214   0.837  1.00  0.00     0.058 A 
ATOM      8  C   UNL     1      -0.104  -3.188   1.583  1.00  0.00     0.027 A 
ATOM      9  C   UNL     1       0.285  -4.531   1.663  1.00  0.00     0.002 A 
ATOM     10  C   UNL     1       2.090  -4.060   0.182  1.00  0.00     0.018 A 
ATOM     11  C   UNL     1       1.413  -4.962   0.993  1.00  0.00     0.001 A 
BRANCH   7  12
ATOM     12  N   UNL     1       0.130  -0.835   0.938  1.00  0.00    -0.315 N 
ATOM     13  C   UNL     1       0.216   0.024  -0.237  1.00  0.00     0.153 C 
BRANCH  12  14
ATOM     14  C   UNL     1      -0.362  -0.360   2.180  1.00  0.00     0.228 C 
ATOM     15  O   UNL     1      -0.287  -1.024   3.221  1.00  0.00    -0.274 OA
BRANCH  14  16
ATOM     16  C   UNL     1      -0.996   1.031   2.305  1.00  0.00     0.125 C 
BRANCH  16  17
ATOM     17  C   UNL     1      -0.193   1.928   3.252  1.00  0.00     0.156 C 
ATOM     18  S   UNL     1      -0.214   1.668   5.055  1.00  0.00    -0.050 SA
ATOM     19  C   UNL     1      -0.526   3.419   3.160  1.00  0.00     0.248 C 
ATOM     20  C   UNL     1       0.386   3.314   5.324  1.00  0.00     0.293 C 
ATOM     21  N   UNL     1       0.030   4.104   4.260  1.00  0.00    -0.240 N 
ATOM     22  O   UNL     1      -1.051   3.898   2.163  1.00  0.00    -0.273 OA
ATOM     23  O   UNL     1       1.110   3.587   6.266  1.00  0.00    -0.261 OA
BRANCH  21  24
ATOM     24  C   UNL     1       0.558   5.431   4.036  1.00  0.00     0.053 A 
ATOM     25  C   UNL     1      -0.566   6.528   3.222  1.00  0.00     0.027 A 
ATOM     26  C   UNL     1       2.354   5.881   4.170  1.00  0.00     0.027 A 
ATOM     27  C   UNL     1       0.016   8.042   2.501  1.00  0.00     0.002 A 
ATOM     28  C   UNL     1       2.978   7.409   3.397  1.00  0.00     0.002 A 
ATOM     29  C   UNL     1       1.814   8.490   2.545  1.00  0.00     0.000 A 
ENDBRANCH  21  24
ENDBRANCH  16  17
ENDBRANCH  14  16
ENDBRANCH  12  14
ENDBRANCH   7  12
ENDBRANCH   4   6
ENDBRANCH   3   4
ENDBRANCH   2   3
ENDBRANCH   1   2
BRANCH   1  30
ATOM     30  O   UNL     1       5.925  -1.063   0.144  1.00  0.00    -0.374 OA
BRANCH  30  31
ATOM     31  C   UNL     1       5.317  -1.523   1.351  1.00  0.00     0.202 C 
BRANCH  31  32
ATOM     32  C   UNL     1       5.499  -0.623   2.577  1.00  0.00     0.261 C 
BRANCH  32  33
ATOM     33  O   UNL     1       4.846   0.643   2.419  1.00  0.00    -0.460 OA
BRANCH  33  34
ATOM     34  C   UNL     1       5.570   1.752   2.074  1.00  0.00     0.338 C 
ATOM     35  O   UNL     1       6.762   1.814   1.852  1.00  0.00    -0.246 OA
BRANCH  34  36
ATOM     36  C   UNL     1       4.582   2.860   1.930  1.00  0.00     0.060 A 
ATOM     37  C   UNL     1       4.585   3.924   1.014  1.00  0.00     0.016 A 
ATOM     38  C   UNL     1       3.558   2.814   2.827  1.00  0.00     0.016 A 
ATOM     39  C   UNL     1       3.584   4.972   1.065  1.00  0.00     0.010 A 
ATOM     40  C   UNL     1       2.580   3.792   2.795  1.00  0.00     0.010 A 
ATOM     41  C   UNL     1       2.525   4.968   2.009  1.00  0.00    -0.014 A 
BRANCH  41  42
ATOM     42  C   UNL     1       1.433   6.382   2.308  1.00  0.00     0.031 A 
ATOM     43  C   UNL     1       1.084   7.455   4.165  1.00  0.00     0.074 A 
ATOM     44  C   UNL     1       1.094   6.639   0.905  1.00  0.00     0.049 A 
ATOM     45  N   UNL     1       0.570   8.733   4.423  1.00  0.00    -0.248 NA
ATOM     46  C   UNL     1       1.380   7.109   5.802  1.00  0.00     0.031 C 
ATOM     47  C   UNL     1       0.765   5.628  -0.138  1.00  0.00     0.029 A 
ATOM     48  N   UNL     1       0.676   7.803   0.218  1.00  0.00    -0.354 N 
ATOM     49  C   UNL     1       0.945   9.301   5.597  1.00  0.00     0.074 A 
ATOM     50  C   UNL     1       1.379   8.262   6.458  1.00  0.00     0.031 C 
ATOM     51  C   UNL     1       0.001   6.200  -1.107  1.00  0.00     0.029 A 
ATOM     52  C   UNL     1      -0.230   7.603  -0.777  1.00  0.00     0.049 A 
ATOM     53  H   UNL     1       1.018   8.698   0.445  1.00  0.00     0.167 HD
ATOM     54  C   UNL     1       0.982  10.636   5.803  1.00  0.00     0.037 A 
ATOM     55  C   UNL     1      -1.169   8.476  -1.220  1.00  0.00     0.037 A 
ATOM     56  C   UNL     1       0.364  11.597   4.913  1.00  0.00     0.049 A 
ATOM     57  C   UNL     1      -1.459   9.829  -0.505  1.00  0.00     0.074 A 
ATOM     58  C   UNL     1       0.120  12.936   5.133  1.00  0.00     0.029 A 
ATOM     59  N   UNL     1      -0.182  11.298   3.657  1.00  0.00    -0.354 N 
ATOM     60  N   UNL     1      -0.968  10.351   0.606  1.00  0.00    -0.248 NA
ATOM     61  C   UNL     1      -2.498  10.678  -1.114  1.00  0.00     0.031 C 
ATOM     62  C   UNL     1      -0.638  13.417   4.054  1.00  0.00     0.029 A 
ATOM     63  C   UNL     1      -0.812  12.405   3.110  1.00  0.00     0.049 A 
ATOM     64  H   UNL     1      -0.126  10.417   3.221  1.00  0.00     0.167 HD
ATOM     65  C   UNL     1      -1.644  11.560   0.843  1.00  0.00     0.074 A 
ATOM     66  C   UNL     1      -2.543  11.718  -0.290  1.00  0.00     0.031 C 
ATOM     67  C   UNL     1      -1.586  12.466   1.869  1.00  0.00     0.037 A 
BRANCH  54  68
ATOM     68  C   UNL     1       1.706  11.064   7.034  1.00  0.00     0.058 A 
ATOM     69  C   UNL     1       3.112  11.110   7.056  1.00  0.00     0.135 A 
ATOM     70  C   UNL     1       1.015  11.298   8.227  1.00  0.00     0.135 A 
ATOM     71  F   UNL     1       3.817  10.879   5.937  1.00  0.00    -0.206 F 
ATOM     72  C   UNL     1       3.808  11.323   8.240  1.00  0.00     0.059 A 
ATOM     73  C   UNL     1       1.692  11.517   9.421  1.00  0.00     0.059 A 
ATOM     74  F   UNL     1      -0.325  11.250   8.249  1.00  0.00    -0.206 F 
ATOM     75  C   UNL     1       3.087  11.499   9.422  1.00  0.00     0.060 A 
BRANCH  75  76
ATOM     76  S   UNL     1       4.000  11.625  10.975  1.00  0.00     0.124 S 
ATOM     77  O   UNL     1       4.574  10.287  11.085  1.00  0.00    -0.237 OA
ATOM     78  O   UNL     1       4.946  12.699  10.693  1.00  0.00    -0.237 OA
ATOM     79  O   UNL     1       2.965  11.943  11.954  1.00  0.00    -0.744 OA
ENDBRANCH  75  76
ENDBRANCH  54  68
BRANCH  55  80
ATOM     80  C   UNL     1      -1.989   8.092  -2.402  1.00  0.00     0.058 A 
ATOM     81  C   UNL     1      -1.770   8.737  -3.629  1.00  0.00     0.135 A 
ATOM     82  C   UNL     1      -2.969   7.090  -2.357  1.00  0.00     0.135 A 
ATOM     83  F   UNL     1      -0.870   9.729  -3.712  1.00  0.00    -0.206 F 
ATOM     84  C   UNL     1      -2.477   8.391  -4.774  1.00  0.00     0.059 A 
ATOM     85  C   UNL     1      -3.674   6.708  -3.497  1.00  0.00     0.059 A 
ATOM     86  F   UNL     1      -3.229   6.454  -1.205  1.00  0.00    -0.206 F 
ATOM     87  C   UNL     1      -3.413   7.360  -4.703  1.00  0.00     0.060 A 
BRANCH  87  88
ATOM     88  S   UNL     1      -4.218   6.828  -6.231  1.00  0.00     0.124 S 
ATOM     89  O   UNL     1      -5.109   7.949  -6.503  1.00  0.00    -0.237 OA
ATOM     90  O   UNL     1      -3.080   6.683  -7.134  1.00  0.00    -0.237 OA
ATOM     91  O   UNL     1      -4.868   5.578  -5.850  1.00  0.00    -0.744 OA
ENDBRANCH  87  88
ENDBRANCH  55  80
BRANCH  67  92
ATOM     92  C   UNL     1      -2.383  13.754   1.690  1.00  0.00     0.058 A 
ATOM     93  C   UNL     1      -3.767  13.834   1.914  1.00  0.00     0.135 A 
ATOM     94  C   UNL     1      -1.704  14.953   1.401  1.00  0.00     0.135 A 
ATOM     95  F   UNL     1      -4.473  12.725   2.183  1.00  0.00    -0.206 F 
ATOM     96  C   UNL     1      -4.447  15.053   1.852  1.00  0.00     0.059 A 
ATOM     97  C   UNL     1      -2.357  16.183   1.369  1.00  0.00     0.059 A 
ATOM     98  F   UNL     1      -0.376  14.943   1.202  1.00  0.00    -0.206 F 
ATOM     99  C   UNL     1      -3.732  16.223   1.588  1.00  0.00     0.060 A 
BRANCH  99 100
ATOM    100  S   UNL     1      -4.605  17.807   1.577  1.00  0.00     0.124 S 
ATOM    101  O   UNL     1      -5.293  17.755   0.291  1.00  0.00    -0.237 OA
ATOM    102  O   UNL     1      -5.458  17.707   2.757  1.00  0.00    -0.237 OA
ATOM    103  O   UNL     1      -3.528  18.789   1.672  1.00  0.00    -0.744 OA
ENDBRANCH  99 100
ENDBRANCH  67  92
ENDBRANCH  41  42
ENDBRANCH  34  36
ENDBRANCH  33  34
ENDBRANCH  32  33
ENDBRANCH  31  32
ENDBRANCH  30  31
ENDBRANCH   1  30
TORSDOF 22
