REMARK SMILES C[C@H]1CCCCC[C@H]1NC(=O)c1csc(/C=C/C(=O)OCCOCCOC(=O)c2ccc(-c3c4nc(c(-c5c(F)cc(S(=O)(=O)[O-])cc5F)c5ccc([nH]5)c(-c5c(F)cc(S(=O)(=O)[O-])cc5F)c5nc(c(-c6c(F)cc(S(=O)(=O)[O-])cc6F)c6ccc3[nH]6)C=C5)C=C4)cc2)c1
REMARK SMILES IDX 21 1 20 2 18 3 19 4 17 5 16 6 15 7 12 8 13 9 95 10 14 11
REMARK SMILES IDX 10 12 9 13 11 15 8 16 2 17 1 18 3 19 7 21 6 22 5 23 4 24
REMARK SMILES IDX 22 26 23 27 24 28 25 29 26 30 27 31 28 32 29 33 30 34 94 35
REMARK SMILES IDX 31 36 93 37 32 38 33 39 34 40 87 41 35 42 92 43 86 44 88 45
REMARK SMILES IDX 36 46 91 47 85 48 84 49 37 51 71 52 50 53 70 54 51 55 54 56
REMARK SMILES IDX 69 57 89 58 52 59 53 60 68 62 90 63 55 64 38 65 39 66 48 67
REMARK SMILES IDX 40 68 41 69 47 70 49 71 42 72 43 73 44 74 45 75 46 76 72 77
REMARK SMILES IDX 73 78 82 79 74 80 75 81 81 82 83 83 76 84 77 85 78 86 79 87
REMARK SMILES IDX 80 88 56 89 57 90 66 91 58 92 59 93 65 94 67 95 60 96 61 97
REMARK SMILES IDX 62 98 63 99 64 100
REMARK H PARENT 9 14 88 50 54 61
REMARK Flexibility Score: 80.00
ROOT
ATOM      1  C   UNL     1       2.944   3.500  -9.631  1.00  0.00     0.261 C 
ENDROOT
BRANCH   1   2
ATOM      2  O   UNL     1       2.968   3.478  -8.193  1.00  0.00    -0.460 OA
BRANCH   2   3
ATOM      3  C   UNL     1       2.705   4.662  -7.597  1.00  0.00     0.330 C 
ATOM      4  O   UNL     1       2.542   5.739  -8.152  1.00  0.00    -0.247 OA
BRANCH   3   5
ATOM      5  C   UNL     1       2.542   4.539  -6.136  1.00  0.00     0.095 C 
ATOM      6  C   UNL     1       2.757   3.445  -5.386  1.00  0.00     0.026 C 
BRANCH   6   7
ATOM      7  C   UNL     1       2.570   3.454  -3.965  1.00  0.00     0.028 A 
ATOM      8  C   UNL     1       2.810   2.944  -1.654  1.00  0.00     0.051 A 
ATOM      9  C   UNL     1       1.975   4.042  -1.629  1.00  0.00     0.079 A 
ATOM     10  C   UNL     1       3.155   2.625  -3.019  1.00  0.00     0.033 A 
ATOM     11  S   UNL     1       1.503   4.559  -3.178  1.00  0.00    -0.144 S 
BRANCH   8  12
ATOM     12  C   UNL     1       3.373   2.285  -0.477  1.00  0.00     0.252 C 
ATOM     13  N   UNL     1       2.626   2.123   0.665  1.00  0.00    -0.349 N 
ATOM     14  H   UNL     1       3.145   1.880   1.465  1.00  0.00     0.164 HD
ATOM     15  O   UNL     1       4.528   1.864  -0.474  1.00  0.00    -0.269 OA
BRANCH  13  16
ATOM     16  C   UNL     1       1.184   2.252   0.886  1.00  0.00     0.085 C 
BRANCH  16  17
ATOM     17  C   UNL     1       0.549   0.886   1.225  1.00  0.00     0.008 C 
ATOM     18  C   UNL     1       1.151   0.201   2.460  1.00  0.00     0.010 C 
BRANCH  17  19
ATOM     19  C   UNL     1      -0.990   0.965   1.296  1.00  0.00     0.005 CG0
ATOM     20  G   UNL     1      -1.571   1.698   2.503  1.00  0.00     0.000 G0
ENDBRANCH  17  19
ENDBRANCH  16  17
BRANCH  16  21
ATOM     21  C   UNL     1       0.908   3.364   1.909  1.00  0.00     0.025 C 
BRANCH  21  22
ATOM     22  C   UNL     1      -0.484   3.965   1.741  1.00  0.00     0.002 C 
BRANCH  22  23
ATOM     23  C   UNL     1      -1.628   3.221   2.421  1.00  0.00     0.000 C 
BRANCH  23  24
ATOM     24  C   UNL     1      -1.571   1.698   2.503  1.00  0.00     0.000 CG0
ATOM     25  G   UNL     1      -0.990   0.965   1.296  1.00  0.00     0.000 G0
ENDBRANCH  23  24
ENDBRANCH  22  23
ENDBRANCH  21  22
ENDBRANCH  16  21
ENDBRANCH  13  16
ENDBRANCH   8  12
ENDBRANCH   6   7
ENDBRANCH   3   5
ENDBRANCH   2   3
ENDBRANCH   1   2
BRANCH   1  26
ATOM     26  C   UNL     1       1.765   2.690 -10.175  1.00  0.00     0.202 C 
BRANCH  26  27
ATOM     27  O   UNL     1       0.473   3.192  -9.832  1.00  0.00    -0.374 OA
BRANCH  27  28
ATOM     28  C   UNL     1      -0.048   2.789  -8.563  1.00  0.00     0.202 C 
BRANCH  28  29
ATOM     29  C   UNL     1      -0.684   1.393  -8.525  1.00  0.00     0.261 C 
BRANCH  29  30
ATOM     30  O   UNL     1       0.307   0.355  -8.642  1.00  0.00    -0.460 OA
BRANCH  30  31
ATOM     31  C   UNL     1       0.278  -0.339  -9.804  1.00  0.00     0.338 C 
ATOM     32  O   UNL     1      -0.548  -0.238 -10.702  1.00  0.00    -0.246 OA
BRANCH  31  33
ATOM     33  C   UNL     1       1.511  -1.139  -9.944  1.00  0.00     0.060 A 
ATOM     34  C   UNL     1       2.219  -1.031 -11.148  1.00  0.00     0.016 A 
ATOM     35  C   UNL     1       1.945  -2.013  -8.944  1.00  0.00     0.016 A 
ATOM     36  C   UNL     1       3.339  -1.828 -11.374  1.00  0.00     0.010 A 
ATOM     37  C   UNL     1       3.065  -2.819  -9.177  1.00  0.00     0.010 A 
ATOM     38  C   UNL     1       3.750  -2.752 -10.404  1.00  0.00    -0.014 A 
BRANCH  38  39
ATOM     39  C   UNL     1       4.818  -3.730 -10.727  1.00  0.00     0.031 A 
ATOM     40  C   UNL     1       4.435  -5.127 -11.135  1.00  0.00     0.074 A 
ATOM     41  C   UNL     1       6.114  -3.371 -10.678  1.00  0.00     0.049 A 
ATOM     42  N   UNL     1       5.203  -6.143 -11.433  1.00  0.00    -0.248 NA
ATOM     43  C   UNL     1       2.994  -5.416 -11.217  1.00  0.00     0.031 C 
ATOM     44  C   UNL     1       6.608  -2.041 -10.324  1.00  0.00     0.029 A 
ATOM     45  N   UNL     1       7.251  -4.100 -10.919  1.00  0.00    -0.354 N 
ATOM     46  C   UNL     1       4.343  -7.193 -11.731  1.00  0.00     0.074 A 
ATOM     47  C   UNL     1       2.994  -6.698 -11.553  1.00  0.00     0.031 C 
ATOM     48  C   UNL     1       7.952  -2.053 -10.358  1.00  0.00     0.029 A 
ATOM     49  C   UNL     1       8.412  -3.395 -10.709  1.00  0.00     0.049 A 
ATOM     50  H   UNL     1       7.237  -5.039 -11.215  1.00  0.00     0.167 HD
ATOM     51  C   UNL     1       4.649  -8.452 -12.126  1.00  0.00     0.037 A 
ATOM     52  C   UNL     1       9.698  -3.794 -10.773  1.00  0.00     0.037 A 
ATOM     53  C   UNL     1       5.992  -8.939 -12.306  1.00  0.00     0.049 A 
ATOM     54  C   UNL     1      10.015  -5.215 -11.161  1.00  0.00     0.074 A 
ATOM     55  C   UNL     1       6.403 -10.191 -12.731  1.00  0.00     0.029 A 
ATOM     56  N   UNL     1       7.141  -8.202 -12.062  1.00  0.00    -0.354 N 
ATOM     57  N   UNL     1       9.191  -6.188 -11.472  1.00  0.00    -0.248 NA
ATOM     58  C   UNL     1      11.435  -5.591 -11.211  1.00  0.00     0.031 C 
ATOM     59  C   UNL     1       7.802 -10.224 -12.701  1.00  0.00     0.029 A 
ATOM     60  C   UNL     1       8.262  -8.979 -12.303  1.00  0.00     0.049 A 
ATOM     61  H   UNL     1       7.158  -7.265 -11.763  1.00  0.00     0.167 HD
ATOM     62  C   UNL     1       9.993  -7.283 -11.775  1.00  0.00     0.074 A 
ATOM     63  C   UNL     1      11.367  -6.851 -11.621  1.00  0.00     0.031 C 
ATOM     64  C   UNL     1       9.625  -8.534 -12.149  1.00  0.00     0.037 A 
BRANCH  51  65
ATOM     65  C   UNL     1       3.509  -9.401 -12.370  1.00  0.00     0.058 A 
ATOM     66  C   UNL     1       2.680  -9.286 -13.497  1.00  0.00     0.135 A 
ATOM     67  C   UNL     1       3.264 -10.460 -11.481  1.00  0.00     0.135 A 
ATOM     68  F   UNL     1       2.861  -8.281 -14.368  1.00  0.00    -0.206 F 
ATOM     69  C   UNL     1       1.633 -10.173 -13.722  1.00  0.00     0.059 A 
ATOM     70  C   UNL     1       2.237 -11.374 -11.700  1.00  0.00     0.059 A 
ATOM     71  F   UNL     1       4.025 -10.614 -10.386  1.00  0.00    -0.206 F 
ATOM     72  C   UNL     1       1.419 -11.214 -12.817  1.00  0.00     0.060 A 
BRANCH  72  73
ATOM     73  S   UNL     1       0.058 -12.361 -13.124  1.00  0.00     0.124 S 
ATOM     74  O   UNL     1      -1.098 -11.540 -12.776  1.00  0.00    -0.237 OA
ATOM     75  O   UNL     1       0.217 -12.662 -14.543  1.00  0.00    -0.237 OA
ATOM     76  O   UNL     1       0.336 -13.469 -12.216  1.00  0.00    -0.744 OA
ENDBRANCH  72  73
ENDBRANCH  51  65
BRANCH  52  77
ATOM     77  C   UNL     1      10.788  -2.835 -10.447  1.00  0.00     0.058 A 
ATOM     78  C   UNL     1      11.643  -2.342 -11.443  1.00  0.00     0.135 A 
ATOM     79  C   UNL     1      10.991  -2.392  -9.131  1.00  0.00     0.135 A 
ATOM     80  F   UNL     1      11.495  -2.746 -12.714  1.00  0.00    -0.206 F 
ATOM     81  C   UNL     1      12.669  -1.452 -11.145  1.00  0.00     0.059 A 
ATOM     82  C   UNL     1      11.996  -1.484  -8.812  1.00  0.00     0.059 A 
ATOM     83  F   UNL     1      10.193  -2.828  -8.143  1.00  0.00    -0.206 F 
ATOM     84  C   UNL     1      12.836  -1.026  -9.826  1.00  0.00     0.060 A 
BRANCH  84  85
ATOM     85  S   UNL     1      14.137   0.172  -9.458  1.00  0.00     0.124 S 
ATOM     86  O   UNL     1      15.332  -0.661  -9.532  1.00  0.00    -0.237 OA
ATOM     87  O   UNL     1      13.970   1.146 -10.532  1.00  0.00    -0.237 OA
ATOM     88  O   UNL     1      13.781   0.652  -8.126  1.00  0.00    -0.744 OA
ENDBRANCH  84  85
ENDBRANCH  52  77
BRANCH  64  89
ATOM     89  C   UNL     1      10.721  -9.521 -12.445  1.00  0.00     0.058 A 
ATOM     90  C   UNL     1      11.483 -10.105 -11.422  1.00  0.00     0.135 A 
ATOM     91  C   UNL     1      10.975  -9.926 -13.766  1.00  0.00     0.135 A 
ATOM     92  F   UNL     1      11.284  -9.748 -10.143  1.00  0.00    -0.206 F 
ATOM     93  C   UNL     1      12.474 -11.042 -11.699  1.00  0.00     0.059 A 
ATOM     94  C   UNL     1      11.943 -10.880 -14.063  1.00  0.00     0.059 A 
ATOM     95  F   UNL     1      10.267  -9.407 -14.781  1.00  0.00    -0.206 F 
ATOM     96  C   UNL     1      12.696 -11.424 -13.023  1.00  0.00     0.060 A 
BRANCH  96  97
ATOM     97  S   UNL     1      13.961 -12.665 -13.368  1.00  0.00     0.124 S 
ATOM     98  O   UNL     1      15.186 -11.889 -13.207  1.00  0.00    -0.237 OA
ATOM     99  O   UNL     1      13.706 -13.668 -12.338  1.00  0.00    -0.237 OA
ATOM    100  O   UNL     1      13.660 -13.088 -14.732  1.00  0.00    -0.744 OA
ENDBRANCH  96  97
ENDBRANCH  64  89
ENDBRANCH  38  39
ENDBRANCH  31  33
ENDBRANCH  30  31
ENDBRANCH  29  30
ENDBRANCH  28  29
ENDBRANCH  27  28
ENDBRANCH  26  27
ENDBRANCH   1  26
TORSDOF 20
