REMARK SMILES Cc1cn2c(=O)cc(CSc3ccccc3C(=O)OCCOCCOC(=O)c3ccc(-c4c5nc(c(-c6c(F)cc(S(=O)(=O)[O-])cc6F)c6ccc([nH]6)c(-c6c(F)cc(S(=O)(=O)[O-])cc6F)c6nc(c(-c7c(F)cc(S(=O)(=O)[O-])cc7F)c7ccc4[nH]7)C=C6)C=C5)cc3)nc2s1
REMARK SMILES IDX 22 1 21 2 20 3 19 4 17 5 18 6 16 7 11 8 12 9 13 10 15 11
REMARK SMILES IDX 14 12 10 13 9 14 8 15 1 16 2 17 3 18 96 19 4 20 95 21 5 22
REMARK SMILES IDX 94 23 6 24 7 25 23 26 24 27 25 28 26 29 27 30 28 31 29 32
REMARK SMILES IDX 93 33 30 34 92 35 31 36 32 37 33 38 86 39 34 40 91 41 85 42
REMARK SMILES IDX 87 43 35 44 90 45 84 46 83 47 36 49 70 50 49 51 69 52 50 53
REMARK SMILES IDX 53 54 68 55 88 56 51 57 52 58 67 60 89 61 54 62 37 63 38 64
REMARK SMILES IDX 47 65 39 66 40 67 46 68 48 69 41 70 42 71 43 72 44 73 45 74
REMARK SMILES IDX 71 75 72 76 81 77 73 78 74 79 80 80 82 81 75 82 76 83 77 84
REMARK SMILES IDX 78 85 79 86 55 87 56 88 65 89 57 90 58 91 64 92 66 93 59 94
REMARK SMILES IDX 60 95 61 96 62 97 63 98
REMARK H PARENT 87 48 53 59
REMARK Flexibility Score: inf
ROOT
ATOM      1  O   UNL     1       2.313   1.834   1.624  1.00  0.00    -0.374 OA
ENDROOT
BRANCH   1   2
ATOM      2  C   UNL     1       1.695   2.891   0.909  1.00  0.00     0.202 C 
BRANCH   2   3
ATOM      3  C   UNL     1       1.424   4.289   1.473  1.00  0.00     0.261 C 
BRANCH   3   4
ATOM      4  O   UNL     1       2.022   4.651   2.704  1.00  0.00    -0.460 OA
BRANCH   4   5
ATOM      5  C   UNL     1       1.467   4.072   3.782  1.00  0.00     0.339 C 
ATOM      6  O   UNL     1       0.897   2.993   3.854  1.00  0.00    -0.246 OA
BRANCH   5   7
ATOM      7  C   UNL     1       1.744   4.900   4.940  1.00  0.00     0.073 A 
ATOM      8  C   UNL     1       1.289   6.223   5.002  1.00  0.00     0.022 A 
ATOM      9  C   UNL     1       1.863   7.030   5.994  1.00  0.00     0.016 A 
ATOM     10  C   UNL     1       2.765   6.495   6.934  1.00  0.00     0.001 A 
ATOM     11  C   UNL     1       2.579   4.335   5.915  1.00  0.00     0.017 A 
ATOM     12  C   UNL     1       3.092   5.140   6.919  1.00  0.00     0.001 A 
BRANCH   8  13
ATOM     13  S   UNL     1       0.208   6.966   3.766  1.00  0.00    -0.119 SA
BRANCH  13  14
ATOM     14  C   UNL     1      -1.481   6.278   4.061  1.00  0.00     0.131 C 
BRANCH  14  15
ATOM     15  C   UNL     1      -1.682   4.791   3.800  1.00  0.00     0.059 A 
ATOM     16  C   UNL     1      -0.454  -0.113   0.545  1.00  0.00     0.058 C 
ATOM     17  C   UNL     1      -1.199   0.886   1.371  1.00  0.00     0.022 A 
ATOM     18  C   UNL     1      -1.241   0.924   2.712  1.00  0.00     0.111 A 
ATOM     19  S   UNL     1      -1.915   2.346   0.694  1.00  0.00    -0.102 S 
ATOM     20  N   UNL     1      -1.655   2.140   3.224  1.00  0.00    -0.258 N 
ATOM     21  C   UNL     1      -1.861   3.114   2.279  1.00  0.00     0.197 A 
ATOM     22  C   UNL     1      -1.694   2.462   4.557  1.00  0.00     0.258 A 
ATOM     23  N   UNL     1      -1.918   4.391   2.492  1.00  0.00    -0.224 NA
ATOM     24  O   UNL     1      -1.700   1.670   5.495  1.00  0.00    -0.269 OA
ATOM     25  C   UNL     1      -1.687   3.923   4.828  1.00  0.00     0.097 A 
ENDBRANCH  14  15
ENDBRANCH  13  14
ENDBRANCH   8  13
ENDBRANCH   5   7
ENDBRANCH   4   5
ENDBRANCH   3   4
ENDBRANCH   2   3
ENDBRANCH   1   2
BRANCH   1  26
ATOM     26  C   UNL     1       3.456   1.993   2.451  1.00  0.00     0.202 C 
BRANCH  26  27
ATOM     27  C   UNL     1       4.737   2.610   1.912  1.00  0.00     0.261 C 
BRANCH  27  28
ATOM     28  O   UNL     1       4.463   3.779   1.174  1.00  0.00    -0.460 OA
BRANCH  28  29
ATOM     29  C   UNL     1       4.291   3.517  -0.139  1.00  0.00     0.338 C 
ATOM     30  O   UNL     1       4.424   2.440  -0.697  1.00  0.00    -0.246 OA
BRANCH  29  31
ATOM     31  C   UNL     1       3.847   4.757  -0.816  1.00  0.00     0.060 A 
ATOM     32  C   UNL     1       3.769   4.575  -2.191  1.00  0.00     0.016 A 
ATOM     33  C   UNL     1       4.306   5.942  -0.229  1.00  0.00     0.016 A 
ATOM     34  C   UNL     1       4.701   5.263  -2.908  1.00  0.00     0.010 A 
ATOM     35  C   UNL     1       5.247   6.628  -0.938  1.00  0.00     0.010 A 
ATOM     36  C   UNL     1       5.518   6.172  -2.220  1.00  0.00    -0.014 A 
BRANCH  36  37
ATOM     37  C   UNL     1       6.635   6.696  -2.948  1.00  0.00     0.031 A 
ATOM     38  C   UNL     1       6.185   7.709  -3.906  1.00  0.00     0.074 A 
ATOM     39  C   UNL     1       7.893   6.265  -2.774  1.00  0.00     0.049 A 
ATOM     40  N   UNL     1       5.940   7.525  -5.157  1.00  0.00    -0.248 NA
ATOM     41  C   UNL     1       5.668   8.967  -3.353  1.00  0.00     0.031 C 
ATOM     42  C   UNL     1       8.465   5.459  -1.694  1.00  0.00     0.029 A 
ATOM     43  N   UNL     1       8.963   6.548  -3.551  1.00  0.00    -0.354 N 
ATOM     44  C   UNL     1       5.471   8.748  -5.604  1.00  0.00     0.074 A 
ATOM     45  C   UNL     1       5.091   9.492  -4.433  1.00  0.00     0.031 C 
ATOM     46  C   UNL     1       9.817   5.514  -1.776  1.00  0.00     0.029 A 
ATOM     47  C   UNL     1      10.187   6.227  -2.989  1.00  0.00     0.049 A 
ATOM     48  H   UNL     1       8.878   6.950  -4.446  1.00  0.00     0.167 HD
ATOM     49  C   UNL     1       5.733   9.159  -6.870  1.00  0.00     0.037 A 
ATOM     50  C   UNL     1      11.388   6.618  -3.484  1.00  0.00     0.037 A 
ATOM     51  C   UNL     1       6.137   8.055  -7.707  1.00  0.00     0.049 A 
ATOM     52  C   UNL     1      11.173   6.947  -4.922  1.00  0.00     0.074 A 
ATOM     53  C   UNL     1       5.536   6.892  -8.147  1.00  0.00     0.029 A 
ATOM     54  N   UNL     1       7.488   7.884  -7.894  1.00  0.00    -0.354 N 
ATOM     55  N   UNL     1      10.873   6.064  -5.835  1.00  0.00    -0.248 NA
ATOM     56  C   UNL     1      10.869   8.327  -5.278  1.00  0.00     0.031 C 
ATOM     57  C   UNL     1       6.580   5.923  -8.211  1.00  0.00     0.029 A 
ATOM     58  C   UNL     1       7.775   6.544  -7.841  1.00  0.00     0.049 A 
ATOM     59  H   UNL     1       8.143   8.605  -8.040  1.00  0.00     0.167 HD
ATOM     60  C   UNL     1       9.983   6.708  -6.684  1.00  0.00     0.074 A 
ATOM     61  C   UNL     1      10.110   8.124  -6.358  1.00  0.00     0.031 C 
ATOM     62  C   UNL     1       9.034   6.003  -7.369  1.00  0.00     0.037 A 
BRANCH  49  63
ATOM     63  C   UNL     1       6.045  10.593  -7.206  1.00  0.00     0.058 A 
ATOM     64  C   UNL     1       6.138  10.968  -8.558  1.00  0.00     0.135 A 
ATOM     65  C   UNL     1       6.531  11.539  -6.272  1.00  0.00     0.135 A 
ATOM     66  F   UNL     1       5.718  10.138  -9.526  1.00  0.00    -0.206 F 
ATOM     67  C   UNL     1       6.738  12.161  -8.955  1.00  0.00     0.059 A 
ATOM     68  C   UNL     1       7.072  12.759  -6.643  1.00  0.00     0.059 A 
ATOM     69  F   UNL     1       6.607  11.293  -4.959  1.00  0.00    -0.206 F 
ATOM     70  C   UNL     1       7.215  13.042  -7.988  1.00  0.00     0.060 A 
BRANCH  70  71
ATOM     71  S   UNL     1       8.096  14.525  -8.493  1.00  0.00     0.124 S 
ATOM     72  O   UNL     1       9.316  13.958  -9.054  1.00  0.00    -0.237 OA
ATOM     73  O   UNL     1       7.163  15.117  -9.446  1.00  0.00    -0.237 OA
ATOM     74  O   UNL     1       8.257  15.262  -7.242  1.00  0.00    -0.744 OA
ENDBRANCH  70  71
ENDBRANCH  49  63
BRANCH  50  75
ATOM     75  C   UNL     1      12.572   7.116  -2.737  1.00  0.00     0.058 A 
ATOM     76  C   UNL     1      13.781   7.354  -3.416  1.00  0.00     0.135 A 
ATOM     77  C   UNL     1      12.457   7.677  -1.450  1.00  0.00     0.135 A 
ATOM     78  F   UNL     1      13.972   6.858  -4.648  1.00  0.00    -0.206 F 
ATOM     79  C   UNL     1      14.779   8.177  -2.891  1.00  0.00     0.059 A 
ATOM     80  C   UNL     1      13.445   8.493  -0.901  1.00  0.00     0.059 A 
ATOM     81  F   UNL     1      11.336   7.535  -0.728  1.00  0.00    -0.206 F 
ATOM     82  C   UNL     1      14.587   8.770  -1.645  1.00  0.00     0.060 A 
BRANCH  82  83
ATOM     83  S   UNL     1      15.773  10.006  -1.067  1.00  0.00     0.124 S 
ATOM     84  O   UNL     1      16.969   9.200  -0.853  1.00  0.00    -0.237 OA
ATOM     85  O   UNL     1      15.820  10.932  -2.194  1.00  0.00    -0.237 OA
ATOM     86  O   UNL     1      15.150  10.534   0.144  1.00  0.00    -0.744 OA
ENDBRANCH  82  83
ENDBRANCH  50  75
BRANCH  62  87
ATOM     87  C   UNL     1       9.224   4.512  -7.478  1.00  0.00     0.058 A 
ATOM     88  C   UNL     1       9.169   3.614  -6.396  1.00  0.00     0.135 A 
ATOM     89  C   UNL     1       9.364   3.963  -8.761  1.00  0.00     0.135 A 
ATOM     90  F   UNL     1       8.943   4.052  -5.149  1.00  0.00    -0.206 F 
ATOM     91  C   UNL     1       9.294   2.235  -6.582  1.00  0.00     0.059 A 
ATOM     92  C   UNL     1       9.460   2.592  -8.972  1.00  0.00     0.059 A 
ATOM     93  F   UNL     1       9.366   4.766  -9.838  1.00  0.00    -0.206 F 
ATOM     94  C   UNL     1       9.440   1.732  -7.876  1.00  0.00     0.060 A 
BRANCH  94  95
ATOM     95  S   UNL     1       9.548  -0.053  -8.126  1.00  0.00     0.124 S 
ATOM     96  O   UNL     1      10.853  -0.367  -7.554  1.00  0.00    -0.237 OA
ATOM     97  O   UNL     1       8.394  -0.548  -7.382  1.00  0.00    -0.237 OA
ATOM     98  O   UNL     1       9.453  -0.203  -9.576  1.00  0.00    -0.744 OA
ENDBRANCH  94  95
ENDBRANCH  62  87
ENDBRANCH  36  37
ENDBRANCH  29  31
ENDBRANCH  28  29
ENDBRANCH  27  28
ENDBRANCH  26  27
ENDBRANCH   1  26
TORSDOF 20
