REMARK SMILES C[C@H]1[C@H](C(=O)OCCOCCOC(=O)c2ccc(-c3c4nc(c(-c5c(F)cc(S(=O)(=O)[O-])cc5F)c5ccc([nH]5)c(-c5c(F)cc(S(=O)(=O)[O-])cc5F)c5nc(c(-c6c(F)cc(S(=O)(=O)[O-])cc6F)c6ccc3[nH]6)C=C5)C=C4)cc2)CCN1C(=O)[C@H]1CC=CCC1
REMARK SMILES IDX 10 1 9 2 8 3 7 4 6 5 4 6 5 7 3 8 1 9 2 10 83 11 81 12 82 13
REMARK SMILES IDX 84 14 85 15 86 16 87 17 91 18 88 19 90 20 89 21 11 22 12 23
REMARK SMILES IDX 13 24 14 25 15 26 16 27 80 28 17 29 79 30 18 31 19 32 20 33
REMARK SMILES IDX 73 34 21 35 78 36 72 37 74 38 22 39 77 40 71 41 70 42 23 44
REMARK SMILES IDX 57 45 36 46 56 47 37 48 40 49 55 50 75 51 38 52 39 53 54 55
REMARK SMILES IDX 76 56 41 57 24 58 25 59 34 60 26 61 27 62 33 63 35 64 28 65
REMARK SMILES IDX 29 66 30 67 31 68 32 69 58 70 59 71 68 72 60 73 61 74 67 75
REMARK SMILES IDX 69 76 62 77 63 78 64 79 65 80 66 81 42 82 43 83 52 84 44 85
REMARK SMILES IDX 45 86 51 87 53 88 46 89 47 90 48 91 49 92 50 93
REMARK H PARENT 74 43 40 54
REMARK Flexibility Score: inf
ROOT
ATOM      1  C   UNL     1       1.984   3.455   1.862  1.00  0.00     0.202 C 
ENDROOT
BRANCH   1   2
ATOM      2  O   UNL     1       1.102   4.362   2.524  1.00  0.00    -0.374 OA
BRANCH   2   3
ATOM      3  C   UNL     1       0.129   3.786   3.393  1.00  0.00     0.202 C 
BRANCH   3   4
ATOM      4  C   UNL     1      -1.131   3.259   2.704  1.00  0.00     0.261 C 
BRANCH   4   5
ATOM      5  O   UNL     1      -0.872   2.124   1.854  1.00  0.00    -0.463 OA
BRANCH   5   6
ATOM      6  C   UNL     1      -0.963   2.360   0.519  1.00  0.00     0.311 C 
ATOM      7  O   UNL     1      -1.147   3.458   0.008  1.00  0.00    -0.252 OA
BRANCH   6   8
ATOM      8  C   UNL     1      -0.895   1.101  -0.308  1.00  0.00     0.123 C 
ATOM      9  C   UNL     1       1.343   0.338  -1.065  1.00  0.00     0.032 C 
ATOM     10  C   UNL     1       0.260   0.113  -0.005  1.00  0.00     0.096 C 
ATOM     11  N   UNL     1      -0.359  -1.223  -0.109  1.00  0.00    -0.339 N 
ATOM     12  C   UNL     1      -2.166   0.278  -0.166  1.00  0.00     0.039 C 
ATOM     13  C   UNL     1      -1.719  -1.095  -0.617  1.00  0.00     0.121 C 
BRANCH  11  14
ATOM     14  C   UNL     1       0.082  -2.492   0.192  1.00  0.00     0.226 C 
ATOM     15  O   UNL     1      -0.607  -3.462  -0.167  1.00  0.00    -0.275 OA
BRANCH  14  16
ATOM     16  C   UNL     1       1.368  -2.820   0.963  1.00  0.00     0.083 C 
ATOM     17  C   UNL     1       2.668  -2.700   0.166  1.00  0.00     0.040 C 
ATOM     18  C   UNL     1       1.423  -2.350   2.416  1.00  0.00     0.018 C 
ATOM     19  C   UNL     1       3.617  -1.641   0.635  1.00  0.00    -0.030 C 
ATOM     20  C   UNL     1       2.315  -1.149   2.708  1.00  0.00     0.028 C 
ATOM     21  C   UNL     1       3.447  -0.937   1.759  1.00  0.00    -0.031 C 
ENDBRANCH  14  16
ENDBRANCH  11  14
ENDBRANCH   6   8
ENDBRANCH   5   6
ENDBRANCH   4   5
ENDBRANCH   3   4
ENDBRANCH   2   3
ENDBRANCH   1   2
BRANCH   1  22
ATOM     22  C   UNL     1       3.143   2.937   2.719  1.00  0.00     0.261 C 
BRANCH  22  23
ATOM     23  O   UNL     1       2.671   2.083   3.778  1.00  0.00    -0.460 OA
BRANCH  23  24
ATOM     24  C   UNL     1       3.006   2.491   5.028  1.00  0.00     0.338 C 
ATOM     25  O   UNL     1       3.757   3.403   5.324  1.00  0.00    -0.246 OA
BRANCH  24  26
ATOM     26  C   UNL     1       2.203   1.769   6.035  1.00  0.00     0.060 A 
ATOM     27  C   UNL     1       1.482   2.534   6.957  1.00  0.00     0.016 A 
ATOM     28  C   UNL     1       2.241   0.379   6.154  1.00  0.00     0.016 A 
ATOM     29  C   UNL     1       0.864   1.914   8.042  1.00  0.00     0.010 A 
ATOM     30  C   UNL     1       1.591  -0.247   7.224  1.00  0.00     0.010 A 
ATOM     31  C   UNL     1       0.954   0.524   8.210  1.00  0.00    -0.014 A 
BRANCH  31  32
ATOM     32  C   UNL     1       0.556  -0.073   9.513  1.00  0.00     0.031 A 
ATOM     33  C   UNL     1       1.632  -0.485  10.489  1.00  0.00     0.074 A 
ATOM     34  C   UNL     1      -0.740  -0.181   9.860  1.00  0.00     0.049 A 
ATOM     35  N   UNL     1       1.514  -0.940  11.711  1.00  0.00    -0.248 NA
ATOM     36  C   UNL     1       3.025  -0.376  10.025  1.00  0.00     0.031 C 
ATOM     37  C   UNL     1      -1.876   0.173   9.010  1.00  0.00     0.029 A 
ATOM     38  N   UNL     1      -1.316  -0.608  11.030  1.00  0.00    -0.354 N 
ATOM     39  C   UNL     1       2.811  -1.172  12.156  1.00  0.00     0.074 A 
ATOM     40  C   UNL     1       3.698  -0.856  11.059  1.00  0.00     0.031 C 
ATOM     41  C   UNL     1      -3.014  -0.036   9.694  1.00  0.00     0.029 A 
ATOM     42  C   UNL     1      -2.689  -0.546  11.025  1.00  0.00     0.049 A 
ATOM     43  H   UNL     1      -0.795  -0.929  11.801  1.00  0.00     0.167 HD
ATOM     44  C   UNL     1       3.233  -1.584  13.376  1.00  0.00     0.037 A 
ATOM     45  C   UNL     1      -3.581  -0.853  11.988  1.00  0.00     0.037 A 
ATOM     46  C   UNL     1       2.358  -1.875  14.480  1.00  0.00     0.049 A 
ATOM     47  C   UNL     1      -3.091  -1.307  13.338  1.00  0.00     0.074 A 
ATOM     48  C   UNL     1       2.691  -2.268  15.764  1.00  0.00     0.029 A 
ATOM     49  N   UNL     1       0.974  -1.800  14.431  1.00  0.00    -0.354 N 
ATOM     50  N   UNL     1      -1.858  -1.476  13.755  1.00  0.00    -0.248 NA
ATOM     51  C   UNL     1      -4.114  -1.595  14.354  1.00  0.00     0.031 C 
ATOM     52  C   UNL     1       1.506  -2.459  16.484  1.00  0.00     0.029 A 
ATOM     53  C   UNL     1       0.438  -2.150  15.658  1.00  0.00     0.049 A 
ATOM     54  H   UNL     1       0.450  -1.538  13.639  1.00  0.00     0.167 HD
ATOM     55  C   UNL     1      -1.958  -1.865  15.087  1.00  0.00     0.074 A 
ATOM     56  C   UNL     1      -3.369  -1.895  15.409  1.00  0.00     0.031 C 
ATOM     57  C   UNL     1      -0.970  -2.168  15.966  1.00  0.00     0.037 A 
BRANCH  44  58
ATOM     58  C   UNL     1       4.714  -1.742  13.576  1.00  0.00     0.058 A 
ATOM     59  C   UNL     1       5.564  -0.629  13.680  1.00  0.00     0.135 A 
ATOM     60  C   UNL     1       5.290  -3.018  13.676  1.00  0.00     0.135 A 
ATOM     61  F   UNL     1       5.067   0.613  13.571  1.00  0.00    -0.206 F 
ATOM     62  C   UNL     1       6.938  -0.776  13.845  1.00  0.00     0.059 A 
ATOM     63  C   UNL     1       6.658  -3.189  13.866  1.00  0.00     0.059 A 
ATOM     64  F   UNL     1       4.522  -4.115  13.581  1.00  0.00    -0.206 F 
ATOM     65  C   UNL     1       7.476  -2.061  13.932  1.00  0.00     0.060 A 
BRANCH  65  66
ATOM     66  S   UNL     1       9.260  -2.240  14.138  1.00  0.00     0.124 S 
ATOM     67  O   UNL     1       9.738  -1.957  12.788  1.00  0.00    -0.237 OA
ATOM     68  O   UNL     1       9.565  -1.226  15.142  1.00  0.00    -0.237 OA
ATOM     69  O   UNL     1       9.413  -3.622  14.582  1.00  0.00    -0.744 OA
ENDBRANCH  65  66
ENDBRANCH  44  58
BRANCH  45  70
ATOM     70  C   UNL     1      -5.037  -0.712  11.721  1.00  0.00     0.058 A 
ATOM     71  C   UNL     1      -5.784   0.320  12.307  1.00  0.00     0.135 A 
ATOM     72  C   UNL     1      -5.707  -1.607  10.874  1.00  0.00     0.135 A 
ATOM     73  F   UNL     1      -5.188   1.195  13.132  1.00  0.00    -0.206 F 
ATOM     74  C   UNL     1      -7.149   0.452  12.075  1.00  0.00     0.059 A 
ATOM     75  C   UNL     1      -7.067  -1.483  10.610  1.00  0.00     0.059 A 
ATOM     76  F   UNL     1      -5.032  -2.604  10.280  1.00  0.00    -0.206 F 
ATOM     77  C   UNL     1      -7.782  -0.455  11.223  1.00  0.00     0.060 A 
BRANCH  77  78
ATOM     78  S   UNL     1      -9.543  -0.244  10.882  1.00  0.00     0.124 S 
ATOM     79  O   UNL     1     -10.143  -0.762  12.106  1.00  0.00    -0.237 OA
ATOM     80  O   UNL     1      -9.648   1.198  10.680  1.00  0.00    -0.237 OA
ATOM     81  O   UNL     1      -9.749  -1.053   9.684  1.00  0.00    -0.744 OA
ENDBRANCH  77  78
ENDBRANCH  45  70
BRANCH  57  82
ATOM     82  C   UNL     1      -1.378  -2.527  17.367  1.00  0.00     0.058 A 
ATOM     83  C   UNL     1      -1.958  -3.768  17.669  1.00  0.00     0.135 A 
ATOM     84  C   UNL     1      -1.155  -1.631  18.424  1.00  0.00     0.135 A 
ATOM     85  F   UNL     1      -2.195  -4.660  16.694  1.00  0.00    -0.206 F 
ATOM     86  C   UNL     1      -2.333  -4.097  18.968  1.00  0.00     0.059 A 
ATOM     87  C   UNL     1      -1.500  -1.948  19.734  1.00  0.00     0.059 A 
ATOM     88  F   UNL     1      -0.590  -0.436  18.190  1.00  0.00    -0.206 F 
ATOM     89  C   UNL     1      -2.104  -3.177  19.994  1.00  0.00     0.060 A 
BRANCH  89  90
ATOM     90  S   UNL     1      -2.583  -3.615  21.679  1.00  0.00     0.124 S 
ATOM     91  O   UNL     1      -4.023  -3.384  21.644  1.00  0.00    -0.237 OA
ATOM     92  O   UNL     1      -2.167  -5.011  21.774  1.00  0.00    -0.237 OA
ATOM     93  O   UNL     1      -1.816  -2.683  22.501  1.00  0.00    -0.744 OA
ENDBRANCH  89  90
ENDBRANCH  57  82
ENDBRANCH  31  32
ENDBRANCH  24  26
ENDBRANCH  23  24
ENDBRANCH  22  23
ENDBRANCH   1  22
TORSDOF 19
