REMARK SMILES C[NH+]1CCC(C(=O)N2C[C@@H](C(=O)OCCOCCOC(=O)c3ccc(-c4c5nc(c(-c6c(F)cc(S(=O)(=O)[O-])cc6F)c6ccc([nH]6)c(-c6c(F)cc(S(=O)(=O)[O-])cc6F)c6nc(c(-c7c(F)cc(S(=O)(=O)[O-])cc7F)c7ccc4[nH]7)C=C6)C=C5)cc3)[C@H](c3ccc4c(c3)OCO4)C2)CC1
REMARK SMILES IDX 17 1 16 2 15 3 14 4 13 5 11 6 12 7 10 8 8 9 9 10 98 11 88 12
REMARK SMILES IDX 6 13 7 14 5 15 1 16 2 17 3 18 100 19 4 21 99 22 89 23 90 24
REMARK SMILES IDX 94 25 91 26 93 27 92 28 95 29 97 30 96 31 18 32 19 33 20 34
REMARK SMILES IDX 21 35 22 36 23 37 87 38 24 39 86 40 25 41 26 42 27 43 80 44
REMARK SMILES IDX 28 45 85 46 79 47 81 48 29 49 84 50 78 51 77 52 30 54 64 55
REMARK SMILES IDX 43 56 63 57 44 58 47 59 62 60 82 61 45 62 46 63 61 65 83 66
REMARK SMILES IDX 48 67 31 68 32 69 41 70 33 71 34 72 40 73 42 74 35 75 36 76
REMARK SMILES IDX 37 77 38 78 39 79 65 80 66 81 75 82 67 83 68 84 74 85 76 86
REMARK SMILES IDX 69 87 70 88 71 89 72 90 73 91 49 92 50 93 59 94 51 95 52 96
REMARK SMILES IDX 58 97 60 98 53 99 54 100 55 101 56 102 57 103
REMARK H PARENT 2 20 81 53 47 64
REMARK Flexibility Score: inf
ROOT
ATOM      1  C   UNL     1       1.136  -2.986   4.981  1.00  0.00     0.202 C 
ENDROOT
BRANCH   1   2
ATOM      2  O   UNL     1       1.813  -3.678   6.031  1.00  0.00    -0.374 OA
BRANCH   2   3
ATOM      3  C   UNL     1       2.171  -2.930   7.193  1.00  0.00     0.202 C 
BRANCH   3   4
ATOM      4  C   UNL     1       3.391  -2.015   7.058  1.00  0.00     0.261 C 
BRANCH   4   5
ATOM      5  O   UNL     1       3.195  -1.033   6.034  1.00  0.00    -0.463 OA
BRANCH   5   6
ATOM      6  C   UNL     1       4.029  -1.095   4.959  1.00  0.00     0.311 C 
ATOM      7  O   UNL     1       4.970  -1.863   4.823  1.00  0.00    -0.252 OA
BRANCH   6   8
ATOM      8  C   UNL     1       3.609  -0.080   3.931  1.00  0.00     0.128 C 
ATOM      9  N   UNL     1       3.615   0.305   1.639  1.00  0.00    -0.341 N 
ATOM     10  C   UNL     1       3.373  -0.746   2.596  1.00  0.00     0.135 C 
ATOM     11  C   UNL     1       4.667   1.181   2.146  1.00  0.00     0.128 C 
ATOM     12  C   UNL     1       4.699   0.986   3.680  1.00  0.00     0.055 C 
BRANCH   9  13
ATOM     13  C   UNL     1       3.325   0.255   0.294  1.00  0.00     0.226 C 
ATOM     14  O   UNL     1       4.167   0.593  -0.544  1.00  0.00    -0.275 OA
BRANCH  13  15
ATOM     15  C   UNL     1       1.873   0.045  -0.157  1.00  0.00     0.090 C 
ATOM     16  C   UNL     1      -2.421  -0.081  -0.220  1.00  0.00     0.332 C 
ATOM     17  N   UNL     1      -1.017  -0.071   0.187  1.00  0.00    -0.337 N 
ATOM     18  C   UNL     1      -0.380   1.189  -0.212  1.00  0.00     0.262 C 
ATOM     19  C   UNL     1      -0.295  -1.226  -0.366  1.00  0.00     0.262 C 
ATOM     20  H   UNL     1      -0.978  -0.144   1.204  1.00  0.00     0.347 HD
ATOM     21  C   UNL     1       1.050   1.252   0.312  1.00  0.00     0.075 C 
ATOM     22  C   UNL     1       1.145  -1.258   0.167  1.00  0.00     0.075 C 
ENDBRANCH  13  15
ENDBRANCH   9  13
BRANCH  12  23
ATOM     23  C   UNL     1       4.397   2.153   4.615  1.00  0.00    -0.038 A 
ATOM     24  C   UNL     1       3.799   3.361   4.196  1.00  0.00     0.008 A 
ATOM     25  C   UNL     1       4.556   1.923   6.000  1.00  0.00     0.054 A 
ATOM     26  C   UNL     1       3.296   4.278   5.131  1.00  0.00     0.051 A 
ATOM     27  C   UNL     1       3.987   2.805   6.890  1.00  0.00     0.166 A 
ATOM     28  C   UNL     1       3.365   3.949   6.467  1.00  0.00     0.165 A 
ATOM     29  O   UNL     1       3.900   2.627   8.235  1.00  0.00    -0.454 OA
ATOM     30  O   UNL     1       2.812   4.645   7.495  1.00  0.00    -0.454 OA
ATOM     31  C   UNL     1       3.029   3.725   8.588  1.00  0.00     0.468 C 
ENDBRANCH  12  23
ENDBRANCH   6   8
ENDBRANCH   5   6
ENDBRANCH   4   5
ENDBRANCH   3   4
ENDBRANCH   2   3
ENDBRANCH   1   2
BRANCH   1  32
ATOM     32  C   UNL     1      -0.329  -2.604   5.220  1.00  0.00     0.261 C 
BRANCH  32  33
ATOM     33  O   UNL     1      -0.483  -1.610   6.249  1.00  0.00    -0.460 OA
BRANCH  33  34
ATOM     34  C   UNL     1      -1.190  -2.026   7.330  1.00  0.00     0.338 C 
ATOM     35  O   UNL     1      -1.712  -3.114   7.494  1.00  0.00    -0.246 OA
BRANCH  34  36
ATOM     36  C   UNL     1      -1.135  -1.014   8.401  1.00  0.00     0.060 A 
ATOM     37  C   UNL     1      -0.601  -1.404   9.636  1.00  0.00     0.016 A 
ATOM     38  C   UNL     1      -1.714   0.246   8.243  1.00  0.00     0.016 A 
ATOM     39  C   UNL     1      -0.684  -0.548  10.733  1.00  0.00     0.010 A 
ATOM     40  C   UNL     1      -1.806   1.099   9.348  1.00  0.00     0.010 A 
ATOM     41  C   UNL     1      -1.322   0.693  10.605  1.00  0.00    -0.014 A 
BRANCH  41  42
ATOM     42  C   UNL     1      -1.582   1.514  11.813  1.00  0.00     0.031 A 
ATOM     43  C   UNL     1      -2.939   1.462  12.463  1.00  0.00     0.074 A 
ATOM     44  C   UNL     1      -0.615   2.295  12.326  1.00  0.00     0.049 A 
ATOM     45  N   UNL     1      -3.389   2.131  13.492  1.00  0.00    -0.248 NA
ATOM     46  C   UNL     1      -3.917   0.532  11.875  1.00  0.00     0.031 C 
ATOM     47  C   UNL     1       0.746   2.408  11.802  1.00  0.00     0.029 A 
ATOM     48  N   UNL     1      -0.636   3.154  13.396  1.00  0.00    -0.354 N 
ATOM     49  C   UNL     1      -4.703   1.715  13.671  1.00  0.00     0.074 A 
ATOM     50  C   UNL     1      -4.984   0.745  12.634  1.00  0.00     0.031 C 
ATOM     51  C   UNL     1       1.421   3.312  12.534  1.00  0.00     0.029 A 
ATOM     52  C   UNL     1       0.535   3.854  13.562  1.00  0.00     0.049 A 
ATOM     53  H   UNL     1      -1.415   3.258  13.989  1.00  0.00     0.167 HD
ATOM     54  C   UNL     1      -5.591   2.103  14.616  1.00  0.00     0.037 A 
ATOM     55  C   UNL     1       0.846   4.838  14.428  1.00  0.00     0.037 A 
ATOM     56  C   UNL     1      -5.304   3.057  15.655  1.00  0.00     0.049 A 
ATOM     57  C   UNL     1      -0.172   5.280  15.447  1.00  0.00     0.074 A 
ATOM     58  C   UNL     1      -6.125   3.476  16.689  1.00  0.00     0.029 A 
ATOM     59  N   UNL     1      -4.110   3.747  15.789  1.00  0.00    -0.354 N 
ATOM     60  N   UNL     1      -1.395   4.842  15.633  1.00  0.00    -0.248 NA
ATOM     61  C   UNL     1       0.232   6.345  16.376  1.00  0.00     0.031 C 
ATOM     62  C   UNL     1      -5.441   4.451  17.423  1.00  0.00     0.029 A 
ATOM     63  C   UNL     1      -4.180   4.609  16.871  1.00  0.00     0.049 A 
ATOM     64  H   UNL     1      -3.327   3.640  15.202  1.00  0.00     0.167 HD
ATOM     65  C   UNL     1      -1.897   5.562  16.712  1.00  0.00     0.074 A 
ATOM     66  C   UNL     1      -0.843   6.455  17.145  1.00  0.00     0.031 C 
ATOM     67  C   UNL     1      -3.120   5.489  17.293  1.00  0.00     0.037 A 
BRANCH  54  68
ATOM     68  C   UNL     1      -6.971   1.512  14.567  1.00  0.00     0.058 A 
ATOM     69  C   UNL     1      -7.226   0.198  14.988  1.00  0.00     0.135 A 
ATOM     70  C   UNL     1      -8.062   2.292  14.152  1.00  0.00     0.135 A 
ATOM     71  F   UNL     1      -6.216  -0.595  15.379  1.00  0.00    -0.206 F 
ATOM     72  C   UNL     1      -8.515  -0.327  14.988  1.00  0.00     0.059 A 
ATOM     73  C   UNL     1      -9.362   1.795  14.162  1.00  0.00     0.059 A 
ATOM     74  F   UNL     1      -7.871   3.554  13.736  1.00  0.00    -0.206 F 
ATOM     75  C   UNL     1      -9.577   0.480  14.575  1.00  0.00     0.060 A 
BRANCH  75  76
ATOM     76  S   UNL     1     -11.248  -0.204  14.605  1.00  0.00     0.124 S 
ATOM     77  O   UNL     1     -11.220  -1.090  13.445  1.00  0.00    -0.237 OA
ATOM     78  O   UNL     1     -11.292  -0.866  15.905  1.00  0.00    -0.237 OA
ATOM     79  O   UNL     1     -12.100   0.974  14.475  1.00  0.00    -0.744 OA
ENDBRANCH  75  76
ENDBRANCH  54  68
BRANCH  55  80
ATOM     80  C   UNL     1       2.175   5.499  14.352  1.00  0.00     0.058 A 
ATOM     81  C   UNL     1       3.143   5.307  15.347  1.00  0.00     0.135 A 
ATOM     82  C   UNL     1       2.495   6.348  13.280  1.00  0.00     0.135 A 
ATOM     83  F   UNL     1       2.880   4.510  16.394  1.00  0.00    -0.206 F 
ATOM     84  C   UNL     1       4.377   5.948  15.295  1.00  0.00     0.059 A 
ATOM     85  C   UNL     1       3.729   6.983  13.195  1.00  0.00     0.059 A 
ATOM     86  F   UNL     1       1.608   6.549  12.294  1.00  0.00    -0.206 F 
ATOM     87  C   UNL     1       4.659   6.787  14.215  1.00  0.00     0.060 A 
BRANCH  87  88
ATOM     88  S   UNL     1       6.275   7.589  14.134  1.00  0.00     0.124 S 
ATOM     89  O   UNL     1       6.117   8.664  15.107  1.00  0.00    -0.237 OA
ATOM     90  O   UNL     1       7.176   6.506  14.518  1.00  0.00    -0.237 OA
ATOM     91  O   UNL     1       6.369   8.006  12.738  1.00  0.00    -0.744 OA
ENDBRANCH  87  88
ENDBRANCH  55  80
BRANCH  67  92
ATOM     92  C   UNL     1      -3.379   6.378  18.476  1.00  0.00     0.058 A 
ATOM     93  C   UNL     1      -3.610   7.754  18.324  1.00  0.00     0.135 A 
ATOM     94  C   UNL     1      -3.450   5.839  19.771  1.00  0.00     0.135 A 
ATOM     95  F   UNL     1      -3.547   8.319  17.108  1.00  0.00    -0.206 F 
ATOM     96  C   UNL     1      -3.884   8.569  19.418  1.00  0.00     0.059 A 
ATOM     97  C   UNL     1      -3.744   6.632  20.876  1.00  0.00     0.059 A 
ATOM     98  F   UNL     1      -3.248   4.527  19.968  1.00  0.00    -0.206 F 
ATOM     99  C   UNL     1      -3.948   7.998  20.690  1.00  0.00     0.060 A 
BRANCH  99 100
ATOM    100  S   UNL     1      -4.337   9.058  22.100  1.00  0.00     0.124 S 
ATOM    101  O   UNL     1      -3.061   9.730  22.322  1.00  0.00    -0.237 OA
ATOM    102  O   UNL     1      -5.412   9.896  21.578  1.00  0.00    -0.237 OA
ATOM    103  O   UNL     1      -4.737   8.111  23.135  1.00  0.00    -0.744 OA
ENDBRANCH  99 100
ENDBRANCH  67  92
ENDBRANCH  41  42
ENDBRANCH  34  36
ENDBRANCH  33  34
ENDBRANCH  32  33
ENDBRANCH   1  32
TORSDOF 20
