REMARK SMILES COc1ccc(/C=C2/C(=O)N(c3ccccc3)C(=O)N=C2OCCOCCOC(=O)c2ccc(-c3c4nc(c(-c5c(F)cc(S(=O)(=O)[O-])cc5F)c5ccc([nH]5)c(-c5c(F)cc(S(=O)(=O)[O-])cc5F)c5nc(c(-c6c(F)cc(S(=O)(=O)[O-])cc6F)c6ccc3[nH]6)C=C5)C=C4)cc2)cc1C(=O)[O-]
REMARK SMILES IDX 26 1 25 2 24 3 23 4 22 5 21 6 7 7 8 8 9 9 10 10 11 11 20 12
REMARK SMILES IDX 18 13 19 14 6 15 3 16 4 17 98 18 5 19 97 20 2 21 1 22 99 23
REMARK SMILES IDX 100 24 101 25 12 26 13 27 17 28 14 29 16 30 15 31 27 32
REMARK SMILES IDX 28 33 29 34 30 35 31 36 32 37 96 38 33 39 95 40 34 41 35 42
REMARK SMILES IDX 36 43 89 44 37 45 94 46 88 47 90 48 38 49 93 50 87 51 86 52
REMARK SMILES IDX 39 54 73 55 52 56 72 57 53 58 56 59 71 60 91 61 54 62 55 63
REMARK SMILES IDX 70 65 92 66 57 67 40 68 41 69 50 70 42 71 43 72 49 73 51 74
REMARK SMILES IDX 44 75 45 76 46 77 47 78 48 79 74 80 75 81 84 82 76 83 77 84
REMARK SMILES IDX 83 85 85 86 78 87 79 88 80 89 81 90 82 91 58 92 59 93 68 94
REMARK SMILES IDX 60 95 61 96 67 97 69 98 62 99 63 100 64 101 65 102 66 103
REMARK H PARENT 90 53 56 64
REMARK Flexibility Score: inf
ROOT
ATOM      1  C   UNL     1      -1.721   5.558   5.329  1.00  0.00     0.202 C 
ENDROOT
BRANCH   1   2
ATOM      2  O   UNL     1      -2.761   5.984   4.450  1.00  0.00    -0.374 OA
BRANCH   2   3
ATOM      3  C   UNL     1      -2.678   5.554   3.088  1.00  0.00     0.202 C 
BRANCH   3   4
ATOM      4  C   UNL     1      -1.942   6.511   2.149  1.00  0.00     0.260 C 
BRANCH   4   5
ATOM      5  O   UNL     1      -0.516   6.344   2.319  1.00  0.00    -0.475 OA
BRANCH   5   6
ATOM      6  C   UNL     1       0.123   7.120   3.198  1.00  0.00     0.231 C 
ATOM      7  C   UNL     1       2.118   5.480   3.282  1.00  0.00     0.027 C 
ATOM      8  C   UNL     1       1.437   6.608   3.638  1.00  0.00     0.103 C 
ATOM      9  C   UNL     1       2.038   7.450   4.753  1.00  0.00     0.272 C 
ATOM     10  O   UNL     1       3.154   7.188   5.205  1.00  0.00    -0.268 OA
ATOM     11  N   UNL     1       1.216   8.468   5.250  1.00  0.00    -0.226 N 
ATOM     12  N   UNL     1      -0.479   8.153   3.627  1.00  0.00    -0.156 NA
ATOM     13  C   UNL     1       0.024   8.891   4.644  1.00  0.00     0.358 C 
ATOM     14  O   UNL     1      -0.578   9.899   4.980  1.00  0.00    -0.245 OA
BRANCH   7  15
ATOM     15  C   UNL     1       1.910   4.301   2.368  1.00  0.00    -0.024 A 
ATOM     16  C   UNL     1       1.606   1.937   0.715  1.00  0.00     0.127 A 
ATOM     17  C   UNL     1       0.775   3.052   0.594  1.00  0.00     0.048 A 
ATOM     18  C   UNL     1       2.666   2.035   1.617  1.00  0.00     0.040 A 
ATOM     19  C   UNL     1       0.973   4.219   1.347  1.00  0.00     0.012 A 
ATOM     20  C   UNL     1       2.776   3.188   2.460  1.00  0.00     0.022 A 
BRANCH  16  21
ATOM     21  O   UNL     1       1.328   1.013  -0.247  1.00  0.00    -0.496 OA
ATOM     22  C   UNL     1       1.453  -0.373   0.029  1.00  0.00     0.278 C 
ENDBRANCH  16  21
BRANCH  18  23
ATOM     23  C   UNL     1       3.862   1.162   1.612  1.00  0.00     0.075 C 
ATOM     24  O   UNL     1       5.009   1.572   1.676  1.00  0.00    -0.545 OA
ATOM     25  O   UNL     1       3.608  -0.151   1.620  1.00  0.00    -0.545 OA
ENDBRANCH  18  23
ENDBRANCH   7  15
BRANCH  11  26
ATOM     26  C   UNL     1       1.635   9.270   6.360  1.00  0.00     0.054 A 
ATOM     27  C   UNL     1       0.748   9.497   7.429  1.00  0.00     0.027 A 
ATOM     28  C   UNL     1       2.819  10.010   6.290  1.00  0.00     0.027 A 
ATOM     29  C   UNL     1       1.008  10.488   8.375  1.00  0.00     0.002 A 
ATOM     30  C   UNL     1       3.063  11.020   7.226  1.00  0.00     0.002 A 
ATOM     31  C   UNL     1       2.156  11.265   8.258  1.00  0.00     0.000 A 
ENDBRANCH  11  26
ENDBRANCH   5   6
ENDBRANCH   4   5
ENDBRANCH   3   4
ENDBRANCH   2   3
ENDBRANCH   1   2
BRANCH   1  32
ATOM     32  C   UNL     1      -1.861   4.160   5.936  1.00  0.00     0.261 C 
BRANCH  32  33
ATOM     33  O   UNL     1      -1.737   3.134   4.941  1.00  0.00    -0.460 OA
BRANCH  33  34
ATOM     34  C   UNL     1      -2.922   2.666   4.481  1.00  0.00     0.338 C 
ATOM     35  O   UNL     1      -4.035   2.984   4.864  1.00  0.00    -0.246 OA
BRANCH  34  36
ATOM     36  C   UNL     1      -2.701   1.817   3.296  1.00  0.00     0.060 A 
ATOM     37  C   UNL     1      -3.514   2.042   2.177  1.00  0.00     0.016 A 
ATOM     38  C   UNL     1      -1.778   0.771   3.309  1.00  0.00     0.016 A 
ATOM     39  C   UNL     1      -3.461   1.173   1.091  1.00  0.00     0.010 A 
ATOM     40  C   UNL     1      -1.729  -0.100   2.219  1.00  0.00     0.010 A 
ATOM     41  C   UNL     1      -2.602   0.070   1.127  1.00  0.00    -0.014 A 
BRANCH  41  42
ATOM     42  C   UNL     1      -2.707  -0.995   0.100  1.00  0.00     0.031 A 
ATOM     43  C   UNL     1      -3.327  -2.311   0.478  1.00  0.00     0.074 A 
ATOM     44  C   UNL     1      -2.220  -0.807  -1.139  1.00  0.00     0.049 A 
ATOM     45  N   UNL     1      -3.407  -3.418  -0.212  1.00  0.00    -0.248 NA
ATOM     46  C   UNL     1      -3.936  -2.389   1.816  1.00  0.00     0.031 C 
ATOM     47  C   UNL     1      -1.626   0.433  -1.634  1.00  0.00     0.029 A 
ATOM     48  N   UNL     1      -2.088  -1.685  -2.184  1.00  0.00    -0.354 N 
ATOM     49  C   UNL     1      -4.078  -4.323   0.602  1.00  0.00     0.074 A 
ATOM     50  C   UNL     1      -4.332  -3.652   1.859  1.00  0.00     0.031 C 
ATOM     51  C   UNL     1      -1.107   0.211  -2.853  1.00  0.00     0.029 A 
ATOM     52  C   UNL     1      -1.329  -1.186  -3.216  1.00  0.00     0.049 A 
ATOM     53  H   UNL     1      -2.494  -2.582  -2.195  1.00  0.00     0.167 HD
ATOM     54  C   UNL     1      -4.465  -5.589   0.317  1.00  0.00     0.037 A 
ATOM     55  C   UNL     1      -0.827  -1.799  -4.305  1.00  0.00     0.037 A 
ATOM     56  C   UNL     1      -4.202  -6.244  -0.938  1.00  0.00     0.049 A 
ATOM     57  C   UNL     1      -1.181  -3.235  -4.571  1.00  0.00     0.074 A 
ATOM     58  C   UNL     1      -4.610  -7.498  -1.357  1.00  0.00     0.029 A 
ATOM     59  N   UNL     1      -3.444  -5.706  -1.968  1.00  0.00    -0.354 N 
ATOM     60  N   UNL     1      -1.876  -4.062  -3.827  1.00  0.00    -0.248 NA
ATOM     61  C   UNL     1      -0.712  -3.812  -5.837  1.00  0.00     0.031 C 
ATOM     62  C   UNL     1      -4.045  -7.743  -2.614  1.00  0.00     0.029 A 
ATOM     63  C   UNL     1      -3.339  -6.617  -3.007  1.00  0.00     0.049 A 
ATOM     64  H   UNL     1      -3.040  -4.808  -1.962  1.00  0.00     0.167 HD
ATOM     65  C   UNL     1      -1.972  -5.242  -4.556  1.00  0.00     0.074 A 
ATOM     66  C   UNL     1      -1.250  -5.024  -5.794  1.00  0.00     0.031 C 
ATOM     67  C   UNL     1      -2.618  -6.391  -4.237  1.00  0.00     0.037 A 
BRANCH  54  68
ATOM     68  C   UNL     1      -5.195  -6.351   1.391  1.00  0.00     0.058 A 
ATOM     69  C   UNL     1      -6.492  -5.999   1.802  1.00  0.00     0.135 A 
ATOM     70  C   UNL     1      -4.594  -7.459   2.010  1.00  0.00     0.135 A 
ATOM     71  F   UNL     1      -7.112  -4.942   1.253  1.00  0.00    -0.206 F 
ATOM     72  C   UNL     1      -7.147  -6.688   2.817  1.00  0.00     0.059 A 
ATOM     73  C   UNL     1      -5.244  -8.183   3.006  1.00  0.00     0.059 A 
ATOM     74  F   UNL     1      -3.357  -7.843   1.656  1.00  0.00    -0.206 F 
ATOM     75  C   UNL     1      -6.512  -7.777   3.417  1.00  0.00     0.060 A 
BRANCH  75  76
ATOM     76  S   UNL     1      -7.365  -8.646   4.749  1.00  0.00     0.124 S 
ATOM     77  O   UNL     1      -7.270  -7.677   5.836  1.00  0.00    -0.237 OA
ATOM     78  O   UNL     1      -8.698  -8.843   4.190  1.00  0.00    -0.237 OA
ATOM     79  O   UNL     1      -6.575  -9.862   4.922  1.00  0.00    -0.744 OA
ENDBRANCH  75  76
ENDBRANCH  54  68
BRANCH  55  80
ATOM     80  C   UNL     1       0.066  -1.039  -5.215  1.00  0.00     0.058 A 
ATOM     81  C   UNL     1      -0.384  -0.584  -6.461  1.00  0.00     0.135 A 
ATOM     82  C   UNL     1       1.374  -0.704  -4.825  1.00  0.00     0.135 A 
ATOM     83  F   UNL     1      -1.623  -0.886  -6.877  1.00  0.00    -0.206 F 
ATOM     84  C   UNL     1       0.429   0.178  -7.292  1.00  0.00     0.059 A 
ATOM     85  C   UNL     1       2.199   0.075  -5.630  1.00  0.00     0.059 A 
ATOM     86  F   UNL     1       1.844  -1.108  -3.634  1.00  0.00    -0.206 F 
ATOM     87  C   UNL     1       1.716   0.511  -6.863  1.00  0.00     0.060 A 
BRANCH  87  88
ATOM     88  S   UNL     1       2.727   1.570  -7.920  1.00  0.00     0.124 S 
ATOM     89  O   UNL     1       3.007   0.685  -9.045  1.00  0.00    -0.237 OA
ATOM     90  O   UNL     1       1.819   2.681  -8.192  1.00  0.00    -0.237 OA
ATOM     91  O   UNL     1       3.872   1.897  -7.075  1.00  0.00    -0.744 OA
ENDBRANCH  87  88
ENDBRANCH  55  80
BRANCH  67  92
ATOM     92  C   UNL     1      -2.626  -7.494  -5.262  1.00  0.00     0.058 A 
ATOM     93  C   UNL     1      -1.480  -8.251  -5.550  1.00  0.00     0.135 A 
ATOM     94  C   UNL     1      -3.818  -7.832  -5.924  1.00  0.00     0.135 A 
ATOM     95  F   UNL     1      -0.313  -7.965  -4.953  1.00  0.00    -0.206 F 
ATOM     96  C   UNL     1      -1.512  -9.291  -6.475  1.00  0.00     0.059 A 
ATOM     97  C   UNL     1      -3.880  -8.887  -6.828  1.00  0.00     0.059 A 
ATOM     98  F   UNL     1      -4.946  -7.146  -5.679  1.00  0.00    -0.206 F 
ATOM     99  C   UNL     1      -2.717  -9.604  -7.105  1.00  0.00     0.060 A 
BRANCH  99 100
ATOM    100  S   UNL     1      -2.752 -10.980  -8.274  1.00  0.00     0.124 S 
ATOM    101  O   UNL     1      -2.040 -10.415  -9.415  1.00  0.00    -0.237 OA
ATOM    102  O   UNL     1      -2.048 -12.028  -7.542  1.00  0.00    -0.237 OA
ATOM    103  O   UNL     1      -4.178 -11.217  -8.479  1.00  0.00    -0.744 OA
ENDBRANCH  99 100
ENDBRANCH  67  92
ENDBRANCH  41  42
ENDBRANCH  34  36
ENDBRANCH  33  34
ENDBRANCH  32  33
ENDBRANCH   1  32
TORSDOF 20
