REMARK SMILES C[C@]1(C(=O)NCc2ccc(C(=O)OCCOCCOC(=O)c3ccc(-c4c5nc(c(-c6c(F)cc(S(=O)(=O)[O-])cc6F)c6ccc([nH]6)c(-c6c(F)cc(S(=O)(=O)[O-])cc6F)c6nc(c(-c7c(F)cc(S(=O)(=O)[O-])cc7F)c7ccc4[nH]7)C=C6)C=C5)cc3)o2)CCC[NH2+]C1
REMARK SMILES IDX 16 1 15 2 14 3 13 4 11 5 12 6 10 7 7 8 8 9 88 10 9 11 6 12
REMARK SMILES IDX 5 13 3 14 4 15 2 17 1 18 89 19 93 20 90 21 92 22 91 23 17 26
REMARK SMILES IDX 18 27 19 28 20 29 21 30 22 31 23 32 87 33 24 34 86 35 25 36
REMARK SMILES IDX 26 37 27 38 80 39 28 40 85 41 79 42 81 43 29 44 84 45 78 46
REMARK SMILES IDX 77 47 30 49 64 50 43 51 63 52 44 53 47 54 62 55 82 56 45 57
REMARK SMILES IDX 46 58 61 60 83 61 48 62 31 63 32 64 41 65 33 66 34 67 40 68
REMARK SMILES IDX 42 69 35 70 36 71 37 72 38 73 39 74 65 75 66 76 75 77 67 78
REMARK SMILES IDX 68 79 74 80 76 81 69 82 70 83 71 84 72 85 73 86 49 87 50 88
REMARK SMILES IDX 59 89 51 90 52 91 58 92 60 93 53 94 54 95 55 96 56 97 57 98
REMARK H PARENT 5 16 92 24 92 25 81 48 47 59
REMARK Flexibility Score: inf
ROOT
ATOM      1  O   UNL     1       2.045   2.652  -8.862  1.00  0.00    -0.374 OA
ENDROOT
BRANCH   1   2
ATOM      2  C   UNL     1       2.850   3.824  -8.686  1.00  0.00     0.202 C 
BRANCH   2   3
ATOM      3  C   UNL     1       2.316   4.806  -7.636  1.00  0.00     0.261 C 
BRANCH   3   4
ATOM      4  O   UNL     1       2.612   4.302  -6.322  1.00  0.00    -0.457 OA
BRANCH   4   5
ATOM      5  C   UNL     1       1.542   3.982  -5.542  1.00  0.00     0.374 C 
ATOM      6  O   UNL     1       0.390   4.348  -5.743  1.00  0.00    -0.242 OA
BRANCH   5   7
ATOM      7  C   UNL     1       1.960   3.018  -4.549  1.00  0.00     0.211 A 
ATOM      8  C   UNL     1       1.620   1.313  -3.184  1.00  0.00     0.124 A 
ATOM      9  C   UNL     1       2.983   1.528  -3.207  1.00  0.00     0.048 A 
ATOM     10  O   UNL     1       0.997   2.219  -3.991  1.00  0.00    -0.452 OA
ATOM     11  C   UNL     1       3.201   2.623  -4.080  1.00  0.00     0.058 A 
BRANCH   8  12
ATOM     12  C   UNL     1       0.723   0.360  -2.492  1.00  0.00     0.191 C 
BRANCH  12  13
ATOM     13  N   UNL     1       1.316  -0.106  -1.264  1.00  0.00    -0.348 N 
ATOM     14  C   UNL     1       1.179   0.198   0.042  1.00  0.00     0.232 C 
ATOM     15  O   UNL     1       1.865  -0.533   0.775  1.00  0.00    -0.274 OA
ATOM     16  H   UNL     1       1.979  -0.817  -1.416  1.00  0.00     0.163 HD
BRANCH  14  17
ATOM     17  C   UNL     1       0.341   1.357   0.659  1.00  0.00     0.095 C 
ATOM     18  C   UNL     1       0.274   1.004   2.185  1.00  0.00     0.028 C 
ATOM     19  C   UNL     1       1.085   2.704   0.581  1.00  0.00     0.028 C 
ATOM     20  C   UNL     1      -1.131   1.459   0.191  1.00  0.00     0.277 C 
ATOM     21  C   UNL     1       0.733   3.535  -0.638  1.00  0.00     0.063 C 
ATOM     22  N   UNL     1      -1.500   2.427  -0.840  1.00  0.00    -0.345 N 
ATOM     23  C   UNL     1      -0.768   3.683  -0.824  1.00  0.00     0.260 C 
ATOM     24  H   UNL     1      -1.347   1.988  -1.749  1.00  0.00     0.346 HD
ATOM     25  H   UNL     1      -2.472   2.671  -0.654  1.00  0.00     0.346 HD
ENDBRANCH  14  17
ENDBRANCH  12  13
ENDBRANCH   8  12
ENDBRANCH   5   7
ENDBRANCH   4   5
ENDBRANCH   3   4
ENDBRANCH   2   3
ENDBRANCH   1   2
BRANCH   1  26
ATOM     26  C   UNL     1       2.245   1.590  -7.930  1.00  0.00     0.202 C 
BRANCH  26  27
ATOM     27  C   UNL     1       3.378   0.617  -8.268  1.00  0.00     0.261 C 
BRANCH  27  28
ATOM     28  O   UNL     1       4.663   1.254  -8.174  1.00  0.00    -0.460 OA
BRANCH  28  29
ATOM     29  C   UNL     1       5.244   1.525  -9.368  1.00  0.00     0.338 C 
ATOM     30  O   UNL     1       4.830   1.211 -10.472  1.00  0.00    -0.246 OA
BRANCH  29  31
ATOM     31  C   UNL     1       6.404   2.418  -9.178  1.00  0.00     0.060 A 
ATOM     32  C   UNL     1       6.532   3.496 -10.062  1.00  0.00     0.016 A 
ATOM     33  C   UNL     1       7.380   2.181  -8.204  1.00  0.00     0.016 A 
ATOM     34  C   UNL     1       7.663   4.307 -10.015  1.00  0.00     0.010 A 
ATOM     35  C   UNL     1       8.518   2.994  -8.163  1.00  0.00     0.010 A 
ATOM     36  C   UNL     1       8.681   4.036  -9.093  1.00  0.00    -0.014 A 
BRANCH  36  37
ATOM     37  C   UNL     1       9.975   4.751  -9.210  1.00  0.00     0.031 A 
ATOM     38  C   UNL     1      11.116   4.080  -9.927  1.00  0.00     0.074 A 
ATOM     39  C   UNL     1      10.122   5.995  -8.722  1.00  0.00     0.049 A 
ATOM     40  N   UNL     1      12.327   4.519 -10.150  1.00  0.00    -0.248 NA
ATOM     41  C   UNL     1      10.854   2.734 -10.461  1.00  0.00     0.031 C 
ATOM     42  C   UNL     1       9.083   6.760  -8.034  1.00  0.00     0.029 A 
ATOM     43  N   UNL     1      11.208   6.833  -8.730  1.00  0.00    -0.354 N 
ATOM     44  C   UNL     1      12.973   3.505 -10.847  1.00  0.00     0.074 A 
ATOM     45  C   UNL     1      12.029   2.416 -10.983  1.00  0.00     0.031 C 
ATOM     46  C   UNL     1       9.586   7.955  -7.677  1.00  0.00     0.029 A 
ATOM     47  C   UNL     1      10.986   8.029  -8.092  1.00  0.00     0.049 A 
ATOM     48  H   UNL     1      12.066   6.598  -9.152  1.00  0.00     0.167 HD
ATOM     49  C   UNL     1      14.236   3.485 -11.338  1.00  0.00     0.037 A 
ATOM     50  C   UNL     1      11.822   9.060  -7.859  1.00  0.00     0.037 A 
ATOM     51  C   UNL     1      15.173   4.569 -11.203  1.00  0.00     0.049 A 
ATOM     52  C   UNL     1      13.236   9.000  -8.374  1.00  0.00     0.074 A 
ATOM     53  C   UNL     1      16.469   4.652 -11.681  1.00  0.00     0.029 A 
ATOM     54  N   UNL     1      14.917   5.756 -10.534  1.00  0.00    -0.354 N 
ATOM     55  N   UNL     1      13.825   8.046  -9.055  1.00  0.00    -0.248 NA
ATOM     56  C   UNL     1      14.096  10.159  -8.096  1.00  0.00     0.031 C 
ATOM     57  C   UNL     1      17.010   5.875 -11.268  1.00  0.00     0.029 A 
ATOM     58  C   UNL     1      16.036   6.571 -10.569  1.00  0.00     0.049 A 
ATOM     59  H   UNL     1      14.065   5.987 -10.098  1.00  0.00     0.167 HD
ATOM     60  C   UNL     1      15.116   8.499  -9.307  1.00  0.00     0.074 A 
ATOM     61  C   UNL     1      15.219   9.815  -8.712  1.00  0.00     0.031 C 
ATOM     62  C   UNL     1      16.122   7.882  -9.976  1.00  0.00     0.037 A 
BRANCH  49  63
ATOM     63  C   UNL     1      14.678   2.236 -12.047  1.00  0.00     0.058 A 
ATOM     64  C   UNL     1      14.205   1.908 -13.327  1.00  0.00     0.135 A 
ATOM     65  C   UNL     1      15.591   1.359 -11.440  1.00  0.00     0.135 A 
ATOM     66  F   UNL     1      13.317   2.704 -13.944  1.00  0.00    -0.206 F 
ATOM     67  C   UNL     1      14.596   0.737 -13.968  1.00  0.00     0.059 A 
ATOM     68  C   UNL     1      16.014   0.194 -12.072  1.00  0.00     0.059 A 
ATOM     69  F   UNL     1      16.072   1.626 -10.215  1.00  0.00    -0.206 F 
ATOM     70  C   UNL     1      15.496  -0.118 -13.328  1.00  0.00     0.060 A 
BRANCH  70  71
ATOM     71  S   UNL     1      15.981  -1.645 -14.160  1.00  0.00     0.124 S 
ATOM     72  O   UNL     1      14.794  -2.472 -13.961  1.00  0.00    -0.237 OA
ATOM     73  O   UNL     1      16.218  -1.197 -15.528  1.00  0.00    -0.237 OA
ATOM     74  O   UNL     1      17.170  -2.067 -13.427  1.00  0.00    -0.744 OA
ENDBRANCH  70  71
ENDBRANCH  49  63
BRANCH  50  75
ATOM     75  C   UNL     1      11.338  10.241  -7.098  1.00  0.00     0.058 A 
ATOM     76  C   UNL     1      11.102  11.467  -7.735  1.00  0.00     0.135 A 
ATOM     77  C   UNL     1      11.085  10.158  -5.720  1.00  0.00     0.135 A 
ATOM     78  F   UNL     1      11.341  11.598  -9.049  1.00  0.00    -0.206 F 
ATOM     79  C   UNL     1      10.634  12.574  -7.033  1.00  0.00     0.059 A 
ATOM     80  C   UNL     1      10.597  11.244  -5.000  1.00  0.00     0.059 A 
ATOM     81  F   UNL     1      11.286   9.002  -5.068  1.00  0.00    -0.206 F 
ATOM     82  C   UNL     1      10.380  12.450  -5.665  1.00  0.00     0.060 A 
BRANCH  82  83
ATOM     83  S   UNL     1       9.705  13.869  -4.775  1.00  0.00     0.124 S 
ATOM     84  O   UNL     1      10.883  14.719  -4.643  1.00  0.00    -0.237 OA
ATOM     85  O   UNL     1       8.673  14.344  -5.691  1.00  0.00    -0.237 OA
ATOM     86  O   UNL     1       9.208  13.280  -3.535  1.00  0.00    -0.744 OA
ENDBRANCH  82  83
ENDBRANCH  50  75
BRANCH  62  87
ATOM     87  C   UNL     1      17.415   8.634 -10.128  1.00  0.00     0.058 A 
ATOM     88  C   UNL     1      18.310   8.786  -9.059  1.00  0.00     0.135 A 
ATOM     89  C   UNL     1      17.787   9.161 -11.376  1.00  0.00     0.135 A 
ATOM     90  F   UNL     1      17.999   8.304  -7.845  1.00  0.00    -0.206 F 
ATOM     91  C   UNL     1      19.521   9.453  -9.214  1.00  0.00     0.059 A 
ATOM     92  C   UNL     1      19.002   9.812 -11.560  1.00  0.00     0.059 A 
ATOM     93  F   UNL     1      16.971   9.033 -12.434  1.00  0.00    -0.206 F 
ATOM     94  C   UNL     1      19.858   9.963 -10.470  1.00  0.00     0.060 A 
BRANCH  94  95
ATOM     95  S   UNL     1      21.447  10.798 -10.671  1.00  0.00     0.124 S 
ATOM     96  O   UNL     1      21.175  12.096 -10.062  1.00  0.00    -0.237 OA
ATOM     97  O   UNL     1      22.356   9.928  -9.931  1.00  0.00    -0.237 OA
ATOM     98  O   UNL     1      21.642  10.811 -12.117  1.00  0.00    -0.744 OA
ENDBRANCH  94  95
ENDBRANCH  62  87
ENDBRANCH  36  37
ENDBRANCH  29  31
ENDBRANCH  28  29
ENDBRANCH  27  28
ENDBRANCH  26  27
ENDBRANCH   1  26
TORSDOF 20
