REMARK SMILES Cc1cc(OC(F)(F)F)cc2c1O[C@H](C(F)(F)F)C(C(=O)OCCOCCOC(=O)c1ccc(-c3c4nc(c(-c5c(F)cc(S(=O)(=O)[O-])cc5F)c5ccc([nH]5)c(-c5c(F)cc(S(=O)(=O)[O-])cc5F)c5nc(c(-c6c(F)cc(S(=O)(=O)[O-])cc6F)c6ccc3[nH]6)C=C5)C=C4)cc1)=C2
REMARK SMILES IDX 26 1 25 2 24 3 23 4 22 5 20 6 21 7 19 8 1 9 2 10 3 11 12 12
REMARK SMILES IDX 4 13 11 14 13 15 10 16 97 17 14 18 5 19 6 20 7 21 8 22 9 23
REMARK SMILES IDX 15 24 16 25 17 26 18 27 27 28 28 29 29 30 30 31 31 32 32 33
REMARK SMILES IDX 96 34 33 35 95 36 34 37 35 38 36 39 89 40 37 41 94 42 88 43
REMARK SMILES IDX 90 44 38 45 93 46 87 47 86 48 39 50 73 51 52 52 72 53 53 54
REMARK SMILES IDX 56 55 71 56 91 57 54 58 55 59 70 61 92 62 57 63 40 64 41 65
REMARK SMILES IDX 50 66 42 67 43 68 49 69 51 70 44 71 45 72 46 73 47 74 48 75
REMARK SMILES IDX 74 76 75 77 84 78 76 79 77 80 83 81 85 82 78 83 79 84 80 85
REMARK SMILES IDX 81 86 82 87 58 88 59 89 68 90 60 91 61 92 67 93 69 94 62 95
REMARK SMILES IDX 63 96 64 97 65 98 66 99
REMARK H PARENT 90 49 56 60
REMARK Flexibility Score: inf
ROOT
ATOM      1  C   UNL     1       2.520  -7.161   3.064  1.00  0.00     0.202 C 
ENDROOT
BRANCH   1   2
ATOM      2  O   UNL     1       3.442  -8.179   2.667  1.00  0.00    -0.374 OA
BRANCH   2   3
ATOM      3  C   UNL     1       4.832  -7.866   2.718  1.00  0.00     0.202 C 
BRANCH   3   4
ATOM      4  C   UNL     1       5.393  -7.063   1.540  1.00  0.00     0.261 C 
BRANCH   4   5
ATOM      5  O   UNL     1       4.675  -5.835   1.343  1.00  0.00    -0.460 OA
BRANCH   5   6
ATOM      6  C   UNL     1       3.920  -5.799   0.221  1.00  0.00     0.338 C 
ATOM      7  O   UNL     1       3.883  -6.639  -0.665  1.00  0.00    -0.246 OA
BRANCH   6   8
ATOM      8  C   UNL     1       3.019  -4.632   0.258  1.00  0.00     0.087 C 
ATOM      9  C   UNL     1       0.938   0.057   0.236  1.00  0.00     0.048 C 
ATOM     10  C   UNL     1       0.499  -1.330  -0.147  1.00  0.00    -0.005 A 
ATOM     11  C   UNL     1      -0.769  -1.511  -0.733  1.00  0.00     0.054 A 
ATOM     12  C   UNL     1       1.316  -2.447   0.088  1.00  0.00     0.131 A 
ATOM     13  C   UNL     1      -1.211  -2.783  -1.100  1.00  0.00     0.130 A 
ATOM     14  C   UNL     1       0.888  -3.714  -0.309  1.00  0.00     0.021 A 
ATOM     15  O   UNL     1       2.509  -2.235   0.722  1.00  0.00    -0.475 OA
ATOM     16  C   UNL     1      -0.377  -3.880  -0.880  1.00  0.00     0.058 A 
ATOM     17  C   UNL     1       1.778  -4.852  -0.193  1.00  0.00     0.027 C 
ATOM     18  C   UNL     1       3.508  -3.295   0.742  1.00  0.00     0.316 C 
BRANCH  13  19
ATOM     19  O   UNL     1      -2.407  -3.098  -1.677  1.00  0.00    -0.406 OA
BRANCH  19  20
ATOM     20  C   UNL     1      -3.228  -2.034  -2.121  1.00  0.00     0.573 C 
ATOM     21  F   UNL     1      -3.659  -1.285  -1.084  1.00  0.00    -0.132 F 
ATOM     22  F   UNL     1      -2.580  -1.250  -3.008  1.00  0.00    -0.132 F 
ATOM     23  F   UNL     1      -4.313  -2.556  -2.738  1.00  0.00    -0.132 F 
ENDBRANCH  19  20
ENDBRANCH  13  19
BRANCH  18  24
ATOM     24  C   UNL     1       4.746  -2.804  -0.023  1.00  0.00     0.430 C 
ATOM     25  F   UNL     1       5.130  -1.578   0.407  1.00  0.00    -0.167 F 
ATOM     26  F   UNL     1       5.803  -3.629   0.148  1.00  0.00    -0.167 F 
ATOM     27  F   UNL     1       4.511  -2.714  -1.352  1.00  0.00    -0.167 F 
ENDBRANCH  18  24
ENDBRANCH   6   8
ENDBRANCH   5   6
ENDBRANCH   4   5
ENDBRANCH   3   4
ENDBRANCH   2   3
ENDBRANCH   1   2
BRANCH   1  28
ATOM     28  C   UNL     1       2.471  -6.808   4.556  1.00  0.00     0.261 C 
BRANCH  28  29
ATOM     29  O   UNL     1       3.632  -6.062   4.969  1.00  0.00    -0.460 OA
BRANCH  29  30
ATOM     30  C   UNL     1       4.386  -6.662   5.921  1.00  0.00     0.338 C 
ATOM     31  O   UNL     1       4.160  -7.722   6.484  1.00  0.00    -0.246 OA
BRANCH  30  32
ATOM     32  C   UNL     1       5.656  -5.936   6.084  1.00  0.00     0.060 A 
ATOM     33  C   UNL     1       6.842  -6.597   5.739  1.00  0.00     0.016 A 
ATOM     34  C   UNL     1       5.690  -4.677   6.685  1.00  0.00     0.016 A 
ATOM     35  C   UNL     1       8.073  -6.015   6.030  1.00  0.00     0.010 A 
ATOM     36  C   UNL     1       6.927  -4.103   6.995  1.00  0.00     0.010 A 
ATOM     37  C   UNL     1       8.121  -4.787   6.702  1.00  0.00    -0.014 A 
BRANCH  37  38
ATOM     38  C   UNL     1       9.410  -4.314   7.259  1.00  0.00     0.031 A 
ATOM     39  C   UNL     1       9.756  -4.675   8.679  1.00  0.00     0.074 A 
ATOM     40  C   UNL     1      10.276  -3.617   6.501  1.00  0.00     0.049 A 
ATOM     41  N   UNL     1      10.811  -4.354   9.380  1.00  0.00    -0.248 NA
ATOM     42  C   UNL     1       8.787  -5.517   9.402  1.00  0.00     0.031 C 
ATOM     43  C   UNL     1      10.075  -3.261   5.097  1.00  0.00     0.029 A 
ATOM     44  N   UNL     1      11.502  -3.085   6.810  1.00  0.00    -0.354 N 
ATOM     45  C   UNL     1      10.644  -4.967  10.616  1.00  0.00     0.074 A 
ATOM     46  C   UNL     1       9.370  -5.650  10.585  1.00  0.00     0.031 C 
ATOM     47  C   UNL     1      11.141  -2.562   4.667  1.00  0.00     0.029 A 
ATOM     48  C   UNL     1      12.085  -2.398   5.771  1.00  0.00     0.049 A 
ATOM     49  H   UNL     1      11.925  -3.185   7.693  1.00  0.00     0.167 HD
ATOM     50  C   UNL     1      11.486  -4.973  11.675  1.00  0.00     0.037 A 
ATOM     51  C   UNL     1      13.239  -1.704   5.728  1.00  0.00     0.037 A 
ATOM     52  C   UNL     1      12.748  -4.284  11.707  1.00  0.00     0.049 A 
ATOM     53  C   UNL     1      14.102  -1.630   6.963  1.00  0.00     0.074 A 
ATOM     54  C   UNL     1      13.664  -4.216  12.742  1.00  0.00     0.029 A 
ATOM     55  N   UNL     1      13.273  -3.546  10.658  1.00  0.00    -0.354 N 
ATOM     56  N   UNL     1      13.930  -2.212   8.126  1.00  0.00    -0.248 NA
ATOM     57  C   UNL     1      15.314  -0.800   6.881  1.00  0.00     0.031 C 
ATOM     58  C   UNL     1      14.725  -3.404  12.332  1.00  0.00     0.029 A 
ATOM     59  C   UNL     1      14.490  -3.002  11.027  1.00  0.00     0.049 A 
ATOM     60  H   UNL     1      12.843  -3.426   9.780  1.00  0.00     0.167 HD
ATOM     61  C   UNL     1      15.024  -1.842   8.902  1.00  0.00     0.074 A 
ATOM     62  C   UNL     1      15.857  -0.994   8.076  1.00  0.00     0.031 C 
ATOM     63  C   UNL     1      15.314  -2.173  10.184  1.00  0.00     0.037 A 
BRANCH  50  64
ATOM     64  C   UNL     1      11.081  -5.752  12.893  1.00  0.00     0.058 A 
ATOM     65  C   UNL     1      11.167  -7.152  12.921  1.00  0.00     0.135 A 
ATOM     66  C   UNL     1      10.690  -5.093  14.069  1.00  0.00     0.135 A 
ATOM     67  F   UNL     1      11.514  -7.831  11.816  1.00  0.00    -0.206 F 
ATOM     68  C   UNL     1      10.887  -7.873  14.077  1.00  0.00     0.059 A 
ATOM     69  C   UNL     1      10.424  -5.792  15.243  1.00  0.00     0.059 A 
ATOM     70  F   UNL     1      10.584  -3.755  14.090  1.00  0.00    -0.206 F 
ATOM     71  C   UNL     1      10.527  -7.183  15.236  1.00  0.00     0.060 A 
BRANCH  71  72
ATOM     72  S   UNL     1      10.223  -8.133  16.741  1.00  0.00     0.124 S 
ATOM     73  O   UNL     1       8.979  -8.820  16.407  1.00  0.00    -0.237 OA
ATOM     74  O   UNL     1      11.411  -8.976  16.819  1.00  0.00    -0.237 OA
ATOM     75  O   UNL     1      10.114  -7.109  17.775  1.00  0.00    -0.744 OA
ENDBRANCH  71  72
ENDBRANCH  50  64
BRANCH  51  76
ATOM     76  C   UNL     1      13.653  -1.003   4.483  1.00  0.00     0.058 A 
ATOM     77  C   UNL     1      14.776  -1.426   3.756  1.00  0.00     0.135 A 
ATOM     78  C   UNL     1      12.963   0.128   4.020  1.00  0.00     0.135 A 
ATOM     79  F   UNL     1      15.475  -2.495   4.166  1.00  0.00    -0.206 F 
ATOM     80  C   UNL     1      15.217  -0.738   2.631  1.00  0.00     0.059 A 
ATOM     81  C   UNL     1      13.370   0.819   2.883  1.00  0.00     0.059 A 
ATOM     82  F   UNL     1      11.877   0.569   4.674  1.00  0.00    -0.206 F 
ATOM     83  C   UNL     1      14.509   0.387   2.204  1.00  0.00     0.060 A 
BRANCH  83  84
ATOM     84  S   UNL     1      15.088   1.271   0.740  1.00  0.00     0.124 S 
ATOM     85  O   UNL     1      16.286   1.928   1.249  1.00  0.00    -0.237 OA
ATOM     86  O   UNL     1      15.310   0.182  -0.207  1.00  0.00    -0.237 OA
ATOM     87  O   UNL     1      13.971   2.154   0.418  1.00  0.00    -0.744 OA
ENDBRANCH  83  84
ENDBRANCH  51  76
BRANCH  63  88
ATOM     88  C   UNL     1      16.593  -1.647  10.772  1.00  0.00     0.058 A 
ATOM     89  C   UNL     1      16.721  -0.307  11.165  1.00  0.00     0.135 A 
ATOM     90  C   UNL     1      17.669  -2.513  11.024  1.00  0.00     0.135 A 
ATOM     91  F   UNL     1      15.723   0.562  10.942  1.00  0.00    -0.206 F 
ATOM     92  C   UNL     1      17.878   0.160  11.780  1.00  0.00     0.059 A 
ATOM     93  C   UNL     1      18.826  -2.074  11.660  1.00  0.00     0.059 A 
ATOM     94  F   UNL     1      17.591  -3.808  10.677  1.00  0.00    -0.206 F 
ATOM     95  C   UNL     1      18.923  -0.733  12.029  1.00  0.00     0.060 A 
BRANCH  95  96
ATOM     96  S   UNL     1      20.394  -0.123  12.880  1.00  0.00     0.124 S 
ATOM     97  O   UNL     1      21.021   0.686  11.840  1.00  0.00    -0.237 OA
ATOM     98  O   UNL     1      19.822   0.617  14.000  1.00  0.00    -0.237 OA
ATOM     99  O   UNL     1      21.109  -1.343  13.242  1.00  0.00    -0.744 OA
ENDBRANCH  95  96
ENDBRANCH  63  88
ENDBRANCH  37  38
ENDBRANCH  30  32
ENDBRANCH  29  30
ENDBRANCH  28  29
ENDBRANCH   1  28
TORSDOF 20
