REMARK SMILES COc1ccc(NCc2ccc(C(=O)OCCOCCOC(=O)c3ccc(-c4c5nc(c(-c6c(F)cc(S(=O)(=O)[O-])cc6F)c6ccc([nH]6)c(-c6c(F)cc(S(=O)(=O)[O-])cc6F)c6nc(c(-c7c(F)cc(S(=O)(=O)[O-])cc7F)c7ccc4[nH]7)C=C6)C=C5)cc3)cn2)cc1Br
REMARK SMILES IDX 17 1 16 2 15 3 13 4 14 5 12 6 9 7 10 8 91 9 11 10 90 11 8 12
REMARK SMILES IDX 7 13 6 15 3 16 4 17 93 18 5 19 92 20 94 21 2 22 1 23 18 24
REMARK SMILES IDX 19 25 20 26 21 27 22 28 23 29 24 30 25 31 89 32 26 33 88 34
REMARK SMILES IDX 27 35 28 36 29 37 82 38 30 39 87 40 81 41 83 42 31 43 86 44
REMARK SMILES IDX 80 45 79 46 32 48 66 49 45 50 65 51 46 52 49 53 64 54 84 55
REMARK SMILES IDX 47 56 48 57 63 59 85 60 50 61 33 62 34 63 43 64 35 65 36 66
REMARK SMILES IDX 42 67 44 68 37 69 38 70 39 71 40 72 41 73 67 74 68 75 77 76
REMARK SMILES IDX 69 77 70 78 76 79 78 80 71 81 72 82 73 83 74 84 75 85 51 86
REMARK SMILES IDX 52 87 61 88 53 89 54 90 60 91 62 92 55 93 56 94 57 95 58 96
REMARK SMILES IDX 59 97
REMARK H PARENT 7 14 83 47 49 58
REMARK Flexibility Score: inf
ROOT
ATOM      1  C   UNL     1       0.098  10.270  -9.282  1.00  0.00     0.202 C 
ENDROOT
BRANCH   1   2
ATOM      2  C   UNL     1       1.320   9.545  -9.852  1.00  0.00     0.261 C 
BRANCH   2   3
ATOM      3  O   UNL     1       1.195   8.119  -9.727  1.00  0.00    -0.460 OA
BRANCH   3   4
ATOM      4  C   UNL     1       2.011   7.565  -8.803  1.00  0.00     0.339 C 
ATOM      5  O   UNL     1       2.897   8.127  -8.173  1.00  0.00    -0.246 OA
BRANCH   4   6
ATOM      6  C   UNL     1       1.604   6.183  -8.507  1.00  0.00     0.078 A 
ATOM      7  C   UNL     1       1.000   3.622  -7.695  1.00  0.00     0.059 A 
ATOM      8  C   UNL     1       0.666   4.016  -8.991  1.00  0.00     0.026 A 
ATOM      9  N   UNL     1       1.579   4.476  -6.806  1.00  0.00    -0.259 NA
ATOM     10  C   UNL     1       0.973   5.319  -9.403  1.00  0.00     0.019 A 
ATOM     11  C   UNL     1       1.865   5.725  -7.227  1.00  0.00     0.127 A 
BRANCH   7  12
ATOM     12  C   UNL     1       0.747   2.202  -7.201  1.00  0.00     0.169 C 
BRANCH  12  13
ATOM     13  N   UNL     1       1.664   1.913  -6.102  1.00  0.00    -0.379 N 
ATOM     14  H   UNL     1       2.608   2.147  -6.254  1.00  0.00     0.160 HD
BRANCH  13  15
ATOM     15  C   UNL     1       1.370   1.354  -4.878  1.00  0.00     0.036 A 
ATOM     16  C   UNL     1       0.979   0.098  -2.367  1.00  0.00     0.133 A 
ATOM     17  C   UNL     1      -0.064   0.195  -3.290  1.00  0.00     0.050 A 
ATOM     18  C   UNL     1       2.233   0.604  -2.707  1.00  0.00     0.062 A 
ATOM     19  C   UNL     1       0.134   0.807  -4.535  1.00  0.00     0.029 A 
ATOM     20  C   UNL     1       2.414   1.232  -3.946  1.00  0.00     0.045 A 
ATOM     21  Br  UNL     1       3.765   0.409  -1.603  1.00  0.00    -0.047 Br
BRANCH  16  22
ATOM     22  O   UNL     1       0.710  -0.614  -1.229  1.00  0.00    -0.496 OA
ATOM     23  C   UNL     1       0.756   0.182  -0.047  1.00  0.00     0.278 C 
ENDBRANCH  16  22
ENDBRANCH  13  15
ENDBRANCH  12  13
ENDBRANCH   7  12
ENDBRANCH   4   6
ENDBRANCH   3   4
ENDBRANCH   2   3
ENDBRANCH   1   2
BRANCH   1  24
ATOM     24  O   UNL     1      -0.184  10.058  -7.899  1.00  0.00    -0.374 OA
BRANCH  24  25
ATOM     25  C   UNL     1      -0.890   8.867  -7.549  1.00  0.00     0.202 C 
BRANCH  25  26
ATOM     26  C   UNL     1      -2.398   8.841  -7.831  1.00  0.00     0.261 C 
BRANCH  26  27
ATOM     27  O   UNL     1      -2.690   8.829  -9.240  1.00  0.00    -0.460 OA
BRANCH  27  28
ATOM     28  C   UNL     1      -3.237   9.971  -9.719  1.00  0.00     0.338 C 
ATOM     29  O   UNL     1      -3.565  10.959  -9.074  1.00  0.00    -0.246 OA
BRANCH  28  30
ATOM     30  C   UNL     1      -3.216   9.957 -11.193  1.00  0.00     0.060 A 
ATOM     31  C   UNL     1      -2.614  11.040 -11.846  1.00  0.00     0.016 A 
ATOM     32  C   UNL     1      -3.824   8.935 -11.926  1.00  0.00     0.016 A 
ATOM     33  C   UNL     1      -2.654  11.128 -13.236  1.00  0.00     0.010 A 
ATOM     34  C   UNL     1      -3.870   9.030 -13.321  1.00  0.00     0.010 A 
ATOM     35  C   UNL     1      -3.313  10.142 -13.980  1.00  0.00    -0.014 A 
BRANCH  35  36
ATOM     36  C   UNL     1      -3.536  10.338 -15.433  1.00  0.00     0.031 A 
ATOM     37  C   UNL     1      -4.885  10.806 -15.908  1.00  0.00     0.074 A 
ATOM     38  C   UNL     1      -2.545  10.117 -16.316  1.00  0.00     0.049 A 
ATOM     39  N   UNL     1      -5.317  10.986 -17.129  1.00  0.00    -0.248 NA
ATOM     40  C   UNL     1      -5.880  11.107 -14.866  1.00  0.00     0.031 C 
ATOM     41  C   UNL     1      -1.187   9.700 -15.972  1.00  0.00     0.029 A 
ATOM     42  N   UNL     1      -2.535  10.202 -17.685  1.00  0.00    -0.354 N 
ATOM     43  C   UNL     1      -6.634  11.413 -17.005  1.00  0.00     0.074 A 
ATOM     44  C   UNL     1      -6.939  11.436 -15.591  1.00  0.00     0.031 C 
ATOM     45  C   UNL     1      -0.477   9.552 -17.104  1.00  0.00     0.029 A 
ATOM     46  C   UNL     1      -1.339   9.830 -18.251  1.00  0.00     0.049 A 
ATOM     47  H   UNL     1      -3.311  10.502 -18.212  1.00  0.00     0.167 HD
ATOM     48  C   UNL     1      -7.506  11.760 -17.981  1.00  0.00     0.037 A 
ATOM     49  C   UNL     1      -0.990   9.703 -19.547  1.00  0.00     0.037 A 
ATOM     50  C   UNL     1      -7.193  11.736 -19.387  1.00  0.00     0.049 A 
ATOM     51  C   UNL     1      -1.998  10.031 -20.618  1.00  0.00     0.074 A 
ATOM     52  C   UNL     1      -8.001  12.089 -20.454  1.00  0.00     0.029 A 
ATOM     53  N   UNL     1      -5.980  11.330 -19.922  1.00  0.00    -0.354 N 
ATOM     54  N   UNL     1      -3.233  10.452 -20.487  1.00  0.00    -0.248 NA
ATOM     55  C   UNL     1      -1.564   9.867 -22.013  1.00  0.00     0.031 C 
ATOM     56  C   UNL     1      -7.294  11.848 -21.636  1.00  0.00     0.029 A 
ATOM     57  C   UNL     1      -6.025  11.398 -21.305  1.00  0.00     0.049 A 
ATOM     58  H   UNL     1      -5.200  11.037 -19.397  1.00  0.00     0.167 HD
ATOM     59  C   UNL     1      -3.714  10.631 -21.781  1.00  0.00     0.074 A 
ATOM     60  C   UNL     1      -2.634  10.280 -22.679  1.00  0.00     0.031 C 
ATOM     61  C   UNL     1      -4.938  11.051 -22.188  1.00  0.00     0.037 A 
BRANCH  48  62
ATOM     62  C   UNL     1      -8.891  12.172 -17.565  1.00  0.00     0.058 A 
ATOM     63  C   UNL     1      -9.138  13.396 -16.922  1.00  0.00     0.135 A 
ATOM     64  C   UNL     1      -9.992  11.345 -17.842  1.00  0.00     0.135 A 
ATOM     65  F   UNL     1      -8.120  14.217 -16.617  1.00  0.00    -0.206 F 
ATOM     66  C   UNL     1     -10.423  13.773 -16.545  1.00  0.00     0.059 A 
ATOM     67  C   UNL     1     -11.289  11.715 -17.499  1.00  0.00     0.059 A 
ATOM     68  F   UNL     1      -9.812  10.164 -18.453  1.00  0.00    -0.206 F 
ATOM     69  C   UNL     1     -11.492  12.925 -16.837  1.00  0.00     0.060 A 
BRANCH  69  70
ATOM     70  S   UNL     1     -13.154  13.428 -16.343  1.00  0.00     0.124 S 
ATOM     71  O   UNL     1     -13.094  13.247 -14.896  1.00  0.00    -0.237 OA
ATOM     72  O   UNL     1     -13.212  14.811 -16.806  1.00  0.00    -0.237 OA
ATOM     73  O   UNL     1     -14.020  12.494 -17.056  1.00  0.00    -0.744 OA
ENDBRANCH  69  70
ENDBRANCH  48  62
BRANCH  49  74
ATOM     74  C   UNL     1       0.375   9.231 -19.904  1.00  0.00     0.058 A 
ATOM     75  C   UNL     1       1.307  10.091 -20.503  1.00  0.00     0.135 A 
ATOM     76  C   UNL     1       0.774   7.909 -19.650  1.00  0.00     0.135 A 
ATOM     77  F   UNL     1       0.969  11.360 -20.777  1.00  0.00    -0.206 F 
ATOM     78  C   UNL     1       2.583   9.656 -20.848  1.00  0.00     0.059 A 
ATOM     79  C   UNL     1       2.052   7.458 -19.962  1.00  0.00     0.059 A 
ATOM     80  F   UNL     1      -0.077   7.049 -19.069  1.00  0.00    -0.206 F 
ATOM     81  C   UNL     1       2.947   8.337 -20.569  1.00  0.00     0.060 A 
BRANCH  81  82
ATOM     82  S   UNL     1       4.623   7.798 -20.970  1.00  0.00     0.124 S 
ATOM     83  O   UNL     1       4.562   7.705 -22.424  1.00  0.00    -0.237 OA
ATOM     84  O   UNL     1       5.432   8.888 -20.432  1.00  0.00    -0.237 OA
ATOM     85  O   UNL     1       4.745   6.528 -20.260  1.00  0.00    -0.744 OA
ENDBRANCH  81  82
ENDBRANCH  49  74
BRANCH  61  86
ATOM     86  C   UNL     1      -5.171  11.192 -23.668  1.00  0.00     0.058 A 
ATOM     87  C   UNL     1      -5.319  10.073 -24.503  1.00  0.00     0.135 A 
ATOM     88  C   UNL     1      -5.308  12.464 -24.247  1.00  0.00     0.135 A 
ATOM     89  F   UNL     1      -5.191   8.835 -24.002  1.00  0.00    -0.206 F 
ATOM     90  C   UNL     1      -5.576  10.212 -25.863  1.00  0.00     0.059 A 
ATOM     91  C   UNL     1      -5.593  12.626 -25.599  1.00  0.00     0.059 A 
ATOM     92  F   UNL     1      -5.187  13.567 -23.491  1.00  0.00    -0.206 F 
ATOM     93  C   UNL     1      -5.715  11.493 -26.402  1.00  0.00     0.060 A 
BRANCH  93  94
ATOM     94  S   UNL     1      -6.088  11.657 -28.161  1.00  0.00     0.124 S 
ATOM     95  O   UNL     1      -4.806  11.312 -28.767  1.00  0.00    -0.237 OA
ATOM     96  O   UNL     1      -7.159  10.683 -28.345  1.00  0.00    -0.237 OA
ATOM     97  O   UNL     1      -6.490  13.054 -28.294  1.00  0.00    -0.744 OA
ENDBRANCH  93  94
ENDBRANCH  61  86
ENDBRANCH  35  36
ENDBRANCH  28  30
ENDBRANCH  27  28
ENDBRANCH  26  27
ENDBRANCH  25  26
ENDBRANCH  24  25
ENDBRANCH   1  24
TORSDOF 21
