REMARK SMILES O=C(OCCOCCOC(=O)[C@@H]1CN(c2nccc(N3CCC(O)CC3)n2)CC[NH2+]1)c1ccc(-c2c3nc(c(-c4c(F)cc(S(=O)(=O)[O-])cc4F)c4ccc([nH]4)c(-c4c(F)cc(S(=O)(=O)[O-])cc4F)c4nc(c(-c5c(F)cc(S(=O)(=O)[O-])cc5F)c5ccc2[nH]5)C=C4)C=C3)cc1
REMARK SMILES IDX 6 1 5 2 4 3 3 4 2 5 1 6 31 7 32 8 96 9 33 10 95 11 34 12
REMARK SMILES IDX 35 13 36 14 89 15 37 16 94 17 88 18 90 19 38 20 93 21 87 22
REMARK SMILES IDX 86 23 39 25 73 26 52 27 72 28 53 29 56 30 71 31 91 32 54 33
REMARK SMILES IDX 55 34 70 36 92 37 57 38 40 39 41 40 50 41 42 42 43 43 49 44
REMARK SMILES IDX 51 45 44 46 45 47 46 48 47 49 48 50 74 51 75 52 84 53 76 54
REMARK SMILES IDX 77 55 83 56 85 57 78 58 79 59 80 60 81 61 82 62 58 63 59 64
REMARK SMILES IDX 68 65 60 66 61 67 67 68 69 69 62 70 63 71 64 72 65 73 66 74
REMARK SMILES IDX 7 75 8 76 9 77 10 78 11 79 12 80 13 81 30 82 14 83 29 84
REMARK SMILES IDX 28 87 15 88 16 89 27 90 17 91 19 92 18 93 20 94 21 95 26 96
REMARK SMILES IDX 22 97 25 98 23 99 24 100
REMARK H PARENT 90 24 56 35 30 85 30 86 24 101
REMARK Flexibility Score: inf
ROOT
ATOM      1  O   UNL     1       4.124   1.333   0.918  1.00  0.00    -0.374 OA
ENDROOT
BRANCH   1   2
ATOM      2  C   UNL     1       4.609   1.177  -0.421  1.00  0.00     0.202 C 
BRANCH   2   3
ATOM      3  C   UNL     1       4.127  -0.018  -1.265  1.00  0.00     0.261 C 
BRANCH   3   4
ATOM      4  O   UNL     1       2.723  -0.295  -1.109  1.00  0.00    -0.460 OA
BRANCH   4   5
ATOM      5  C   UNL     1       2.166  -1.274  -0.350  1.00  0.00     0.338 C 
ATOM      6  O   UNL     1       0.958  -1.484  -0.432  1.00  0.00    -0.246 OA
BRANCH   5   7
ATOM      7  C   UNL     1       2.970  -2.086   0.609  1.00  0.00     0.060 A 
ATOM      8  C   UNL     1       4.167  -1.641   1.157  1.00  0.00     0.016 A 
ATOM      9  C   UNL     1       2.478  -3.325   1.042  1.00  0.00     0.016 A 
ATOM     10  C   UNL     1       4.923  -2.405   2.005  1.00  0.00     0.010 A 
ATOM     11  C   UNL     1       3.196  -4.083   1.978  1.00  0.00     0.010 A 
ATOM     12  C   UNL     1       4.428  -3.617   2.449  1.00  0.00    -0.014 A 
BRANCH  12  13
ATOM     13  C   UNL     1       5.344  -4.356   3.324  1.00  0.00     0.031 A 
ATOM     14  C   UNL     1       6.107  -5.492   2.728  1.00  0.00     0.074 A 
ATOM     15  C   UNL     1       5.668  -3.807   4.511  1.00  0.00     0.049 A 
ATOM     16  N   UNL     1       7.013  -6.248   3.278  1.00  0.00    -0.248 NA
ATOM     17  C   UNL     1       5.838  -5.801   1.310  1.00  0.00     0.031 C 
ATOM     18  C   UNL     1       5.084  -2.572   5.058  1.00  0.00     0.029 A 
ATOM     19  N   UNL     1       6.610  -4.160   5.436  1.00  0.00    -0.354 N 
ATOM     20  C   UNL     1       7.403  -7.138   2.287  1.00  0.00     0.074 A 
ATOM     21  C   UNL     1       6.635  -6.837   1.102  1.00  0.00     0.031 C 
ATOM     22  C   UNL     1       5.704  -2.260   6.206  1.00  0.00     0.029 A 
ATOM     23  C   UNL     1       6.657  -3.314   6.520  1.00  0.00     0.049 A 
ATOM     24  H   UNL     1       7.197  -4.943   5.337  1.00  0.00     0.167 HD
ATOM     25  C   UNL     1       8.326  -8.119   2.380  1.00  0.00     0.037 A 
ATOM     26  C   UNL     1       7.361  -3.420   7.662  1.00  0.00     0.037 A 
ATOM     27  C   UNL     1       9.065  -8.375   3.586  1.00  0.00     0.049 A 
ATOM     28  C   UNL     1       8.282  -4.603   7.785  1.00  0.00     0.074 A 
ATOM     29  C   UNL     1       9.945  -9.403   3.860  1.00  0.00     0.029 A 
ATOM     30  N   UNL     1       9.007  -7.577   4.723  1.00  0.00    -0.354 N 
ATOM     31  N   UNL     1       8.561  -5.524   6.889  1.00  0.00    -0.248 NA
ATOM     32  C   UNL     1       8.970  -4.777   9.066  1.00  0.00     0.031 C 
ATOM     33  C   UNL     1      10.385  -9.250   5.179  1.00  0.00     0.029 A 
ATOM     34  C   UNL     1       9.825  -8.095   5.708  1.00  0.00     0.049 A 
ATOM     35  H   UNL     1       8.463  -6.761   4.812  1.00  0.00     0.167 HD
ATOM     36  C   UNL     1       9.465  -6.384   7.495  1.00  0.00     0.074 A 
ATOM     37  C   UNL     1       9.711  -5.849   8.822  1.00  0.00     0.031 C 
ATOM     38  C   UNL     1      10.035  -7.518   7.014  1.00  0.00     0.037 A 
BRANCH  25  39
ATOM     39  C   UNL     1       8.508  -9.006   1.185  1.00  0.00     0.058 A 
ATOM     40  C   UNL     1       9.145  -8.562   0.015  1.00  0.00     0.135 A 
ATOM     41  C   UNL     1       8.010 -10.318   1.202  1.00  0.00     0.135 A 
ATOM     42  F   UNL     1       9.598  -7.302  -0.072  1.00  0.00    -0.206 F 
ATOM     43  C   UNL     1       9.273  -9.386  -1.099  1.00  0.00     0.059 A 
ATOM     44  C   UNL     1       8.148 -11.168   0.109  1.00  0.00     0.059 A 
ATOM     45  F   UNL     1       7.367 -10.783   2.285  1.00  0.00    -0.206 F 
ATOM     46  C   UNL     1       8.774 -10.689  -1.041  1.00  0.00     0.060 A 
BRANCH  46  47
ATOM     47  S   UNL     1       8.965 -11.752  -2.487  1.00  0.00     0.124 S 
ATOM     48  O   UNL     1       8.033 -11.136  -3.428  1.00  0.00    -0.237 OA
ATOM     49  O   UNL     1      10.381 -11.593  -2.803  1.00  0.00    -0.237 OA
ATOM     50  O   UNL     1       8.579 -13.070  -1.995  1.00  0.00    -0.744 OA
ENDBRANCH  46  47
ENDBRANCH  25  39
BRANCH  26  51
ATOM     51  C   UNL     1       7.143  -2.466   8.786  1.00  0.00     0.058 A 
ATOM     52  C   UNL     1       8.175  -1.664   9.292  1.00  0.00     0.135 A 
ATOM     53  C   UNL     1       5.885  -2.368   9.408  1.00  0.00     0.135 A 
ATOM     54  F   UNL     1       9.398  -1.717   8.741  1.00  0.00    -0.206 F 
ATOM     55  C   UNL     1       7.982  -0.831  10.392  1.00  0.00     0.059 A 
ATOM     56  C   UNL     1       5.657  -1.516  10.483  1.00  0.00     0.059 A 
ATOM     57  F   UNL     1       4.852  -3.102   8.964  1.00  0.00    -0.206 F 
ATOM     58  C   UNL     1       6.719  -0.769  10.985  1.00  0.00     0.060 A 
BRANCH  58  59
ATOM     59  S   UNL     1       6.476   0.301  12.420  1.00  0.00     0.124 S 
ATOM     60  O   UNL     1       7.193  -0.433  13.456  1.00  0.00    -0.237 OA
ATOM     61  O   UNL     1       7.091   1.550  11.980  1.00  0.00    -0.237 OA
ATOM     62  O   UNL     1       5.024   0.343  12.567  1.00  0.00    -0.744 OA
ENDBRANCH  58  59
ENDBRANCH  26  51
BRANCH  38  63
ATOM     63  C   UNL     1      10.995  -8.221   7.927  1.00  0.00     0.058 A 
ATOM     64  C   UNL     1      10.556  -8.912   9.066  1.00  0.00     0.135 A 
ATOM     65  C   UNL     1      12.368  -8.226   7.636  1.00  0.00     0.135 A 
ATOM     66  F   UNL     1       9.252  -8.928   9.386  1.00  0.00    -0.206 F 
ATOM     67  C   UNL     1      11.452  -9.553   9.910  1.00  0.00     0.059 A 
ATOM     68  C   UNL     1      13.278  -8.893   8.446  1.00  0.00     0.059 A 
ATOM     69  F   UNL     1      12.834  -7.591   6.548  1.00  0.00    -0.206 F 
ATOM     70  C   UNL     1      12.811  -9.537   9.591  1.00  0.00     0.060 A 
BRANCH  70  71
ATOM     71  S   UNL     1      13.963 -10.387  10.687  1.00  0.00     0.124 S 
ATOM     72  O   UNL     1      14.005  -9.478  11.828  1.00  0.00    -0.237 OA
ATOM     73  O   UNL     1      13.291 -11.663  10.916  1.00  0.00    -0.237 OA
ATOM     74  O   UNL     1      15.188 -10.464   9.898  1.00  0.00    -0.744 OA
ENDBRANCH  70  71
ENDBRANCH  38  63
ENDBRANCH  12  13
ENDBRANCH   5   7
ENDBRANCH   4   5
ENDBRANCH   3   4
ENDBRANCH   2   3
ENDBRANCH   1   2
BRANCH   1  75
ATOM     75  C   UNL     1       2.722   1.555   1.099  1.00  0.00     0.202 C 
BRANCH  75  76
ATOM     76  C   UNL     1       2.486   2.704   2.081  1.00  0.00     0.261 C 
BRANCH  76  77
ATOM     77  O   UNL     1       2.878   3.913   1.426  1.00  0.00    -0.459 OA
BRANCH  77  78
ATOM     78  C   UNL     1       4.230   4.092   1.428  1.00  0.00     0.366 C 
ATOM     79  O   UNL     1       4.968   3.853   2.382  1.00  0.00    -0.245 OA
BRANCH  78  80
ATOM     80  C   UNL     1       4.697   4.680   0.111  1.00  0.00     0.313 C 
ATOM     81  C   UNL     1       4.694   6.189   0.315  1.00  0.00     0.197 C 
ATOM     82  N   UNL     1       3.822   4.265  -1.047  1.00  0.00    -0.332 N 
ATOM     83  N   UNL     1       5.009   6.844  -0.939  1.00  0.00    -0.328 N 
ATOM     84  C   UNL     1       4.286   4.945  -2.272  1.00  0.00     0.283 C 
ATOM     85  H   UNL     1       2.855   4.529  -0.856  1.00  0.00     0.347 HD
ATOM     86  H   UNL     1       3.877   3.255  -1.174  1.00  0.00     0.347 HD
ATOM     87  C   UNL     1       4.295   6.486  -2.141  1.00  0.00     0.181 C 
BRANCH  83  88
ATOM     88  C   UNL     1       5.965   7.804  -0.879  1.00  0.00     0.227 A 
ATOM     89  N   UNL     1       5.564   9.077  -0.889  1.00  0.00    -0.221 NA
ATOM     90  N   UNL     1       7.199   7.400  -0.538  1.00  0.00    -0.196 NA
ATOM     91  C   UNL     1       6.447   9.966  -0.418  1.00  0.00     0.119 A 
ATOM     92  C   UNL     1       8.068   8.306  -0.075  1.00  0.00     0.134 A 
ATOM     93  C   UNL     1       7.702   9.630   0.032  1.00  0.00     0.067 A 
BRANCH  92  94
ATOM     94  N   UNL     1       9.315   7.864   0.309  1.00  0.00    -0.356 N 
ATOM     95  C   UNL     1       9.903   8.259   1.578  1.00  0.00     0.121 C 
ATOM     96  C   UNL     1      10.036   6.956  -0.574  1.00  0.00     0.121 C 
ATOM     97  C   UNL     1      10.384   7.027   2.343  1.00  0.00     0.053 C 
ATOM     98  C   UNL     1      10.548   5.736   0.183  1.00  0.00     0.053 C 
ATOM     99  C   UNL     1      11.255   6.116   1.481  1.00  0.00     0.118 C 
BRANCH  99 100
ATOM    100  O   UNL     1      12.516   6.733   1.214  1.00  0.00    -0.393 OA
ATOM    101  H   UNL     1      12.375   7.554   0.717  1.00  0.00     0.210 HD
ENDBRANCH  99 100
ENDBRANCH  92  94
ENDBRANCH  83  88
ENDBRANCH  78  80
ENDBRANCH  77  78
ENDBRANCH  76  77
ENDBRANCH  75  76
ENDBRANCH   1  75
TORSDOF 20
