REMARK SMILES O=C(Cc1ccccc1-c1ccn(C(F)F)c(=O)c1)OCCOCCOC(=O)c1ccc(-c2c3nc(c(-c4c(F)cc(S(=O)(=O)[O-])cc4F)c4ccc([nH]4)c(-c4c(F)cc(S(=O)(=O)[O-])cc4F)c4nc(c(-c5c(F)cc(S(=O)(=O)[O-])cc5F)c5ccc2[nH]5)C=C4)C=C3)cc1
REMARK SMILES IDX 23 1 22 2 21 3 20 4 2 5 1 6 3 7 4 8 5 9 9 10 6 11 8 12 7 13
REMARK SMILES IDX 10 14 11 15 19 16 12 17 17 18 13 19 18 20 14 21 15 22 16 23
REMARK SMILES IDX 24 24 25 25 26 26 27 27 28 28 29 29 30 30 94 31 31 32 93 33
REMARK SMILES IDX 32 34 33 35 34 36 87 37 35 38 92 39 86 40 88 41 36 42 91 43
REMARK SMILES IDX 85 44 84 45 37 47 71 48 50 49 70 50 51 51 54 52 69 53 89 54
REMARK SMILES IDX 52 55 53 56 68 58 90 59 55 60 38 61 39 62 48 63 40 64 41 65
REMARK SMILES IDX 47 66 49 67 42 68 43 69 44 70 45 71 46 72 72 73 73 74 82 75
REMARK SMILES IDX 74 76 75 77 81 78 83 79 76 80 77 81 78 82 79 83 80 84 56 85
REMARK SMILES IDX 57 86 66 87 58 88 59 89 65 90 67 91 60 92 61 93 62 94 63 95
REMARK SMILES IDX 64 96
REMARK H PARENT 88 46 54 57
REMARK Flexibility Score: inf
ROOT
ATOM      1  O   UNL     1       4.178  -1.257  -1.477  1.00  0.00    -0.374 OA
ENDROOT
BRANCH   1   2
ATOM      2  C   UNL     1       4.614  -1.378  -0.127  1.00  0.00     0.202 C 
BRANCH   2   3
ATOM      3  C   UNL     1       3.873  -0.653   1.002  1.00  0.00     0.261 C 
BRANCH   3   4
ATOM      4  O   UNL     1       2.530  -0.247   0.742  1.00  0.00    -0.463 OA
BRANCH   4   5
ATOM      5  C   UNL     1       2.215   0.899   0.095  1.00  0.00     0.310 C 
ATOM      6  O   UNL     1       1.081   1.361   0.221  1.00  0.00    -0.252 OA
BRANCH   5   7
ATOM      7  C   UNL     1       3.226   1.521  -0.849  1.00  0.00     0.158 C 
BRANCH   7   8
ATOM      8  C   UNL     1       3.892   2.756  -0.307  1.00  0.00    -0.029 A 
ATOM      9  C   UNL     1       5.054   2.605   0.469  1.00  0.00     0.005 A 
ATOM     10  C   UNL     1       3.408   4.051  -0.570  1.00  0.00    -0.014 A 
ATOM     11  C   UNL     1       5.644   3.690   1.099  1.00  0.00     0.000 A 
ATOM     12  C   UNL     1       4.001   5.141   0.082  1.00  0.00     0.009 A 
ATOM     13  C   UNL     1       5.095   4.955   0.934  1.00  0.00     0.001 A 
BRANCH  10  14
ATOM     14  C   UNL     1       2.447   4.264  -1.675  1.00  0.00    -0.011 A 
ATOM     15  C   UNL     1       1.045   3.902  -1.630  1.00  0.00     0.027 A 
ATOM     16  C   UNL     1       2.998   4.595  -2.857  1.00  0.00     0.080 A 
ATOM     17  C   UNL     1       0.343   3.781  -2.764  1.00  0.00     0.095 A 
ATOM     18  C   UNL     1       2.205   4.553  -4.114  1.00  0.00     0.255 A 
ATOM     19  N   UNL     1       0.911   4.076  -3.991  1.00  0.00    -0.258 N 
ATOM     20  O   UNL     1       2.747   4.892  -5.161  1.00  0.00    -0.269 OA
BRANCH  19  21
ATOM     21  C   UNL     1       0.161   3.913  -5.208  1.00  0.00     0.451 C 
ATOM     22  F   UNL     1      -0.032   5.104  -5.824  1.00  0.00    -0.185 F 
ATOM     23  F   UNL     1       0.804   3.094  -6.077  1.00  0.00    -0.185 F 
ENDBRANCH  19  21
ENDBRANCH  10  14
ENDBRANCH   7   8
ENDBRANCH   5   7
ENDBRANCH   4   5
ENDBRANCH   3   4
ENDBRANCH   2   3
ENDBRANCH   1   2
BRANCH   1  24
ATOM     24  C   UNL     1       2.892  -1.761  -1.829  1.00  0.00     0.202 C 
BRANCH  24  25
ATOM     25  C   UNL     1       2.822  -3.245  -2.182  1.00  0.00     0.261 C 
BRANCH  25  26
ATOM     26  O   UNL     1       3.275  -4.058  -1.096  1.00  0.00    -0.460 OA
BRANCH  26  27
ATOM     27  C   UNL     1       4.568  -4.450  -1.202  1.00  0.00     0.338 C 
ATOM     28  O   UNL     1       5.312  -4.285  -2.157  1.00  0.00    -0.246 OA
BRANCH  27  29
ATOM     29  C   UNL     1       5.037  -4.906   0.120  1.00  0.00     0.060 A 
ATOM     30  C   UNL     1       6.308  -4.481   0.531  1.00  0.00     0.016 A 
ATOM     31  C   UNL     1       4.242  -5.698   0.953  1.00  0.00     0.016 A 
ATOM     32  C   UNL     1       6.821  -4.912   1.745  1.00  0.00     0.010 A 
ATOM     33  C   UNL     1       4.763  -6.141   2.167  1.00  0.00     0.010 A 
ATOM     34  C   UNL     1       6.073  -5.792   2.536  1.00  0.00    -0.014 A 
BRANCH  34  35
ATOM     35  C   UNL     1       6.766  -6.512   3.623  1.00  0.00     0.031 A 
ATOM     36  C   UNL     1       7.259  -7.905   3.344  1.00  0.00     0.074 A 
ATOM     37  C   UNL     1       7.024  -5.901   4.791  1.00  0.00     0.049 A 
ATOM     38  N   UNL     1       7.930  -8.716   4.115  1.00  0.00    -0.248 NA
ATOM     39  C   UNL     1       6.954  -8.456   2.011  1.00  0.00     0.031 C 
ATOM     40  C   UNL     1       6.611  -4.542   5.142  1.00  0.00     0.029 A 
ATOM     41  N   UNL     1       7.701  -6.345   5.895  1.00  0.00    -0.354 N 
ATOM     42  C   UNL     1       8.136  -9.866   3.361  1.00  0.00     0.074 A 
ATOM     43  C   UNL     1       7.475  -9.670   2.092  1.00  0.00     0.031 C 
ATOM     44  C   UNL     1       7.040  -4.265   6.386  1.00  0.00     0.029 A 
ATOM     45  C   UNL     1       7.734  -5.434   6.922  1.00  0.00     0.049 A 
ATOM     46  H   UNL     1       8.123  -7.233   5.948  1.00  0.00     0.167 HD
ATOM     47  C   UNL     1       8.836 -10.975   3.693  1.00  0.00     0.037 A 
ATOM     48  C   UNL     1       8.255  -5.545   8.159  1.00  0.00     0.037 A 
ATOM     49  C   UNL     1       9.480 -11.156   4.967  1.00  0.00     0.049 A 
ATOM     50  C   UNL     1       8.980  -6.814   8.526  1.00  0.00     0.074 A 
ATOM     51  C   UNL     1      10.207 -12.242   5.419  1.00  0.00     0.029 A 
ATOM     52  N   UNL     1       9.472 -10.223   5.995  1.00  0.00    -0.354 N 
ATOM     53  N   UNL     1       9.182  -7.890   7.800  1.00  0.00    -0.248 NA
ATOM     54  C   UNL     1       9.561  -6.879   9.872  1.00  0.00     0.031 C 
ATOM     55  C   UNL     1      10.596 -11.987   6.738  1.00  0.00     0.029 A 
ATOM     56  C   UNL     1      10.165 -10.716   7.088  1.00  0.00     0.049 A 
ATOM     57  H   UNL     1       9.037  -9.341   5.953  1.00  0.00     0.167 HD
ATOM     58  C   UNL     1       9.931  -8.752   8.595  1.00  0.00     0.074 A 
ATOM     59  C   UNL     1      10.169  -8.057   9.844  1.00  0.00     0.031 C 
ATOM     60  C   UNL     1      10.379 -10.005   8.324  1.00  0.00     0.037 A 
BRANCH  47  61
ATOM     61  C   UNL     1       8.924 -12.076   2.671  1.00  0.00     0.058 A 
ATOM     62  C   UNL     1       9.675 -11.930   1.492  1.00  0.00     0.135 A 
ATOM     63  C   UNL     1       8.276 -13.302   2.884  1.00  0.00     0.135 A 
ATOM     64  F   UNL     1      10.293 -10.769   1.223  1.00  0.00    -0.206 F 
ATOM     65  C   UNL     1       9.766 -12.955   0.555  1.00  0.00     0.059 A 
ATOM     66  C   UNL     1       8.377 -14.351   1.975  1.00  0.00     0.059 A 
ATOM     67  F   UNL     1       7.535 -13.492   3.987  1.00  0.00    -0.206 F 
ATOM     68  C   UNL     1       9.117 -14.165   0.809  1.00  0.00     0.060 A 
BRANCH  68  69
ATOM     69  S   UNL     1       9.269 -15.492  -0.405  1.00  0.00     0.124 S 
ATOM     70  O   UNL     1       8.472 -14.970  -1.511  1.00  0.00    -0.237 OA
ATOM     71  O   UNL     1      10.710 -15.543  -0.631  1.00  0.00    -0.237 OA
ATOM     72  O   UNL     1       8.704 -16.649   0.283  1.00  0.00    -0.744 OA
ENDBRANCH  68  69
ENDBRANCH  47  61
BRANCH  48  73
ATOM     73  C   UNL     1       8.095  -4.436   9.137  1.00  0.00     0.058 A 
ATOM     74  C   UNL     1       9.192  -3.691   9.591  1.00  0.00     0.135 A 
ATOM     75  C   UNL     1       6.827  -4.102   9.640  1.00  0.00     0.135 A 
ATOM     76  F   UNL     1      10.426  -3.973   9.145  1.00  0.00    -0.206 F 
ATOM     77  C   UNL     1       9.044  -2.671  10.526  1.00  0.00     0.059 A 
ATOM     78  C   UNL     1       6.649  -3.066  10.550  1.00  0.00     0.059 A 
ATOM     79  F   UNL     1       5.740  -4.773   9.227  1.00  0.00    -0.206 F 
ATOM     80  C   UNL     1       7.766  -2.365  10.998  1.00  0.00     0.060 A 
BRANCH  80  81
ATOM     81  S   UNL     1       7.579  -1.012  12.180  1.00  0.00     0.124 S 
ATOM     82  O   UNL     1       8.149  -1.597  13.388  1.00  0.00    -0.237 OA
ATOM     83  O   UNL     1       8.359   0.050  11.553  1.00  0.00    -0.237 OA
ATOM     84  O   UNL     1       6.136  -0.788  12.206  1.00  0.00    -0.744 OA
ENDBRANCH  80  81
ENDBRANCH  48  73
BRANCH  60  85
ATOM     85  C   UNL     1      11.191 -10.684   9.394  1.00  0.00     0.058 A 
ATOM     86  C   UNL     1      10.614 -11.109  10.602  1.00  0.00     0.135 A 
ATOM     87  C   UNL     1      12.562 -10.921   9.204  1.00  0.00     0.135 A 
ATOM     88  F   UNL     1       9.307 -10.907  10.835  1.00  0.00    -0.206 F 
ATOM     89  C   UNL     1      11.379 -11.695  11.605  1.00  0.00     0.059 A 
ATOM     90  C   UNL     1      13.338 -11.540  10.178  1.00  0.00     0.059 A 
ATOM     91  F   UNL     1      13.161 -10.553   8.060  1.00  0.00    -0.206 F 
ATOM     92  C   UNL     1      12.742 -11.900  11.385  1.00  0.00     0.060 A 
BRANCH  92  93
ATOM     93  S   UNL     1      13.726 -12.646  12.701  1.00  0.00     0.124 S 
ATOM     94  O   UNL     1      13.816 -11.547  13.657  1.00  0.00    -0.237 OA
ATOM     95  O   UNL     1      12.897 -13.776  13.109  1.00  0.00    -0.237 OA
ATOM     96  O   UNL     1      14.974 -13.000  12.033  1.00  0.00    -0.744 OA
ENDBRANCH  92  93
ENDBRANCH  60  85
ENDBRANCH  34  35
ENDBRANCH  27  29
ENDBRANCH  26  27
ENDBRANCH  25  26
ENDBRANCH  24  25
ENDBRANCH   1  24
TORSDOF 20
