REMARK SMILES CCc1ccc(S(=O)(=O)c2nnn(-c3ccc(C(=O)OCCOCCOC(=O)c4ccc(-c5c6nc(c(-c7c(F)cc(S(=O)(=O)[O-])cc7F)c7ccc([nH]7)c(-c7c(F)cc(S(=O)(=O)[O-])cc7F)c7nc(c(-c8c(F)cc(S(=O)(=O)[O-])cc8F)c8ccc5[nH]8)C=C7)C=C6)cc4)cc3)c2C)cc1
REMARK SMILES IDX 22 1 21 2 20 3 18 4 19 5 17 6 14 7 15 8 96 9 16 10 95 11
REMARK SMILES IDX 13 12 10 13 11 14 97 15 12 16 98 17 7 18 8 19 9 20 6 21 3 22
REMARK SMILES IDX 4 23 100 24 5 25 99 26 2 27 1 28 23 29 24 30 25 31 26 32
REMARK SMILES IDX 27 33 28 34 29 35 30 36 94 37 31 38 93 39 32 40 33 41 34 42
REMARK SMILES IDX 87 43 35 44 92 45 86 46 88 47 36 48 91 49 85 50 84 51 37 53
REMARK SMILES IDX 71 54 50 55 70 56 51 57 54 58 69 59 89 60 52 61 53 62 68 64
REMARK SMILES IDX 90 65 55 66 38 67 39 68 48 69 40 70 41 71 47 72 49 73 42 74
REMARK SMILES IDX 43 75 44 76 45 77 46 78 72 79 73 80 82 81 74 82 75 83 81 84
REMARK SMILES IDX 83 85 76 86 77 87 78 88 79 89 80 90 56 91 57 92 66 93 58 94
REMARK SMILES IDX 59 95 65 96 67 97 60 98 61 99 62 100 63 101 64 102
REMARK H PARENT 88 52 54 63
REMARK Flexibility Score: inf
ROOT
ATOM      1  C   UNL     1       2.244  -3.422  13.197  1.00  0.00     0.202 C 
ENDROOT
BRANCH   1   2
ATOM      2  C   UNL     1       1.251  -3.092  12.082  1.00  0.00     0.261 C 
BRANCH   2   3
ATOM      3  O   UNL     1       1.504  -3.832  10.880  1.00  0.00    -0.460 OA
BRANCH   3   4
ATOM      4  C   UNL     1       2.029  -3.099   9.870  1.00  0.00     0.338 C 
ATOM      5  O   UNL     1       2.247  -1.899   9.864  1.00  0.00    -0.246 OA
BRANCH   4   6
ATOM      6  C   UNL     1       2.451  -3.983   8.766  1.00  0.00     0.060 A 
ATOM      7  C   UNL     1       3.106  -5.317   6.428  1.00  0.00     0.067 A 
ATOM      8  C   UNL     1       3.978  -4.340   6.915  1.00  0.00     0.029 A 
ATOM      9  C   UNL     1       2.000  -5.733   7.184  1.00  0.00     0.029 A 
ATOM     10  C   UNL     1       3.627  -3.651   8.074  1.00  0.00     0.018 A 
ATOM     11  C   UNL     1       1.674  -5.070   8.364  1.00  0.00     0.018 A 
BRANCH   7  12
ATOM     12  N   UNL     1       3.252  -5.766   5.098  1.00  0.00    -0.216 N 
ATOM     13  C   UNL     1       2.929  -6.278   3.006  1.00  0.00     0.205 A 
ATOM     14  N   UNL     1       4.274  -6.306   3.260  1.00  0.00    -0.117 NA
ATOM     15  C   UNL     1       2.254  -5.846   4.136  1.00  0.00     0.081 A 
ATOM     16  N   UNL     1       4.462  -5.907   4.512  1.00  0.00    -0.061 NA
ATOM     17  C   UNL     1       0.867  -5.347   4.319  1.00  0.00     0.070 C 
BRANCH  13  18
ATOM     18  S   UNL     1       2.282  -6.505   1.420  1.00  0.00     0.227 S 
ATOM     19  O   UNL     1       1.043  -7.220   1.637  1.00  0.00    -0.217 OA
ATOM     20  O   UNL     1       3.362  -7.034   0.608  1.00  0.00    -0.217 OA
BRANCH  18  21
ATOM     21  C   UNL     1       1.866  -4.902   0.781  1.00  0.00     0.073 A 
ATOM     22  C   UNL     1       1.044  -2.410  -0.223  1.00  0.00    -0.048 A 
ATOM     23  C   UNL     1       0.653  -3.604  -0.853  1.00  0.00     0.005 A 
ATOM     24  C   UNL     1       1.864  -2.490   0.911  1.00  0.00     0.005 A 
ATOM     25  C   UNL     1       1.051  -4.845  -0.351  1.00  0.00     0.021 A 
ATOM     26  C   UNL     1       2.285  -3.727   1.406  1.00  0.00     0.021 A 
BRANCH  22  27
ATOM     27  C   UNL     1       0.570  -1.100  -0.812  1.00  0.00     0.032 C 
ATOM     28  C   UNL     1       0.958   0.168  -0.060  1.00  0.00     0.009 C 
ENDBRANCH  22  27
ENDBRANCH  18  21
ENDBRANCH  13  18
ENDBRANCH   7  12
ENDBRANCH   4   6
ENDBRANCH   3   4
ENDBRANCH   2   3
ENDBRANCH   1   2
BRANCH   1  29
ATOM     29  O   UNL     1       3.625  -3.130  12.987  1.00  0.00    -0.374 OA
BRANCH  29  30
ATOM     30  C   UNL     1       4.381  -3.872  12.037  1.00  0.00     0.202 C 
BRANCH  30  31
ATOM     31  C   UNL     1       4.669  -5.341  12.303  1.00  0.00     0.261 C 
BRANCH  31  32
ATOM     32  O   UNL     1       3.484  -6.100  12.467  1.00  0.00    -0.460 OA
BRANCH  32  33
ATOM     33  C   UNL     1       3.211  -6.398  13.759  1.00  0.00     0.338 C 
ATOM     34  O   UNL     1       3.650  -5.843  14.752  1.00  0.00    -0.246 OA
BRANCH  33  35
ATOM     35  C   UNL     1       2.418  -7.627  13.791  1.00  0.00     0.060 A 
ATOM     36  C   UNL     1       2.183  -8.163  15.057  1.00  0.00     0.016 A 
ATOM     37  C   UNL     1       2.258  -8.373  12.613  1.00  0.00     0.016 A 
ATOM     38  C   UNL     1       2.046  -9.525  15.160  1.00  0.00     0.010 A 
ATOM     39  C   UNL     1       2.137  -9.733  12.719  1.00  0.00     0.010 A 
ATOM     40  C   UNL     1       2.135 -10.291  13.994  1.00  0.00    -0.014 A 
BRANCH  40  41
ATOM     41  C   UNL     1       2.105 -11.726  14.125  1.00  0.00     0.031 A 
ATOM     42  C   UNL     1       0.753 -12.209  14.472  1.00  0.00     0.074 A 
ATOM     43  C   UNL     1       3.175 -12.493  13.850  1.00  0.00     0.049 A 
ATOM     44  N   UNL     1       0.365 -12.682  15.608  1.00  0.00    -0.248 NA
ATOM     45  C   UNL     1      -0.347 -11.893  13.545  1.00  0.00     0.031 C 
ATOM     46  C   UNL     1       4.464 -12.094  13.282  1.00  0.00     0.029 A 
ATOM     47  N   UNL     1       3.282 -13.845  13.930  1.00  0.00    -0.354 N 
ATOM     48  C   UNL     1      -0.978 -12.981  15.431  1.00  0.00     0.074 A 
ATOM     49  C   UNL     1      -1.407 -12.250  14.270  1.00  0.00     0.031 C 
ATOM     50  C   UNL     1       5.120 -13.197  12.852  1.00  0.00     0.029 A 
ATOM     51  C   UNL     1       4.355 -14.375  13.216  1.00  0.00     0.049 A 
ATOM     52  H   UNL     1       2.656 -14.402  14.448  1.00  0.00     0.167 HD
ATOM     53  C   UNL     1      -1.538 -14.047  16.062  1.00  0.00     0.037 A 
ATOM     54  C   UNL     1       4.488 -15.685  12.872  1.00  0.00     0.037 A 
ATOM     55  C   UNL     1      -0.735 -14.467  17.184  1.00  0.00     0.049 A 
ATOM     56  C   UNL     1       3.638 -16.457  13.831  1.00  0.00     0.074 A 
ATOM     57  C   UNL     1      -0.263 -13.826  18.316  1.00  0.00     0.029 A 
ATOM     58  N   UNL     1       0.057 -15.582  17.028  1.00  0.00    -0.354 N 
ATOM     59  N   UNL     1       3.889 -16.525  15.114  1.00  0.00    -0.248 NA
ATOM     60  C   UNL     1       2.248 -16.692  13.460  1.00  0.00     0.031 C 
ATOM     61  C   UNL     1       1.072 -14.299  18.477  1.00  0.00     0.029 A 
ATOM     62  C   UNL     1       1.308 -15.267  17.500  1.00  0.00     0.049 A 
ATOM     63  H   UNL     1      -0.222 -16.447  16.648  1.00  0.00     0.167 HD
ATOM     64  C   UNL     1       2.652 -16.378  15.730  1.00  0.00     0.074 A 
ATOM     65  C   UNL     1       1.671 -16.537  14.656  1.00  0.00     0.031 C 
ATOM     66  C   UNL     1       2.532 -15.841  16.982  1.00  0.00     0.037 A 
BRANCH  53  67
ATOM     67  C   UNL     1      -2.578 -14.927  15.418  1.00  0.00     0.058 A 
ATOM     68  C   UNL     1      -3.234 -15.896  16.200  1.00  0.00     0.135 A 
ATOM     69  C   UNL     1      -2.765 -15.042  14.020  1.00  0.00     0.135 A 
ATOM     70  F   UNL     1      -3.109 -15.893  17.537  1.00  0.00    -0.206 F 
ATOM     71  C   UNL     1      -3.970 -16.935  15.632  1.00  0.00     0.059 A 
ATOM     72  C   UNL     1      -3.542 -16.031  13.438  1.00  0.00     0.059 A 
ATOM     73  F   UNL     1      -2.126 -14.265  13.138  1.00  0.00    -0.206 F 
ATOM     74  C   UNL     1      -4.110 -16.997  14.248  1.00  0.00     0.060 A 
BRANCH  74  75
ATOM     75  S   UNL     1      -4.989 -18.378  13.504  1.00  0.00     0.124 S 
ATOM     76  O   UNL     1      -4.083 -19.485  13.789  1.00  0.00    -0.237 OA
ATOM     77  O   UNL     1      -6.244 -18.368  14.248  1.00  0.00    -0.237 OA
ATOM     78  O   UNL     1      -5.096 -17.992  12.101  1.00  0.00    -0.744 OA
ENDBRANCH  74  75
ENDBRANCH  53  67
BRANCH  54  79
ATOM     79  C   UNL     1       4.925 -16.221  11.547  1.00  0.00     0.058 A 
ATOM     80  C   UNL     1       5.115 -17.600  11.338  1.00  0.00     0.135 A 
ATOM     81  C   UNL     1       4.908 -15.425  10.382  1.00  0.00     0.135 A 
ATOM     82  F   UNL     1       5.130 -18.444  12.381  1.00  0.00    -0.206 F 
ATOM     83  C   UNL     1       5.225 -18.158  10.055  1.00  0.00     0.059 A 
ATOM     84  C   UNL     1       5.029 -15.954   9.099  1.00  0.00     0.059 A 
ATOM     85  F   UNL     1       4.680 -14.105  10.439  1.00  0.00    -0.206 F 
ATOM     86  C   UNL     1       5.157 -17.326   8.938  1.00  0.00     0.060 A 
BRANCH  86  87
ATOM     87  S   UNL     1       5.099 -18.041   7.277  1.00  0.00     0.124 S 
ATOM     88  O   UNL     1       6.458 -18.545   7.116  1.00  0.00    -0.237 OA
ATOM     89  O   UNL     1       4.055 -19.052   7.412  1.00  0.00    -0.237 OA
ATOM     90  O   UNL     1       4.751 -16.902   6.430  1.00  0.00    -0.744 OA
ENDBRANCH  86  87
ENDBRANCH  54  79
BRANCH  66  91
ATOM     91  C   UNL     1       3.776 -15.621  17.808  1.00  0.00     0.058 A 
ATOM     92  C   UNL     1       4.829 -14.755  17.456  1.00  0.00     0.135 A 
ATOM     93  C   UNL     1       3.813 -16.172  19.098  1.00  0.00     0.135 A 
ATOM     94  F   UNL     1       4.817 -14.097  16.288  1.00  0.00    -0.206 F 
ATOM     95  C   UNL     1       5.887 -14.485  18.329  1.00  0.00     0.059 A 
ATOM     96  C   UNL     1       4.838 -15.891  19.996  1.00  0.00     0.059 A 
ATOM     97  F   UNL     1       2.807 -16.954  19.523  1.00  0.00    -0.206 F 
ATOM     98  C   UNL     1       5.881 -15.058  19.600  1.00  0.00     0.060 A 
BRANCH  98  99
ATOM     99  S   UNL     1       7.211 -14.661  20.756  1.00  0.00     0.124 S 
ATOM    100  O   UNL     1       8.350 -15.351  20.161  1.00  0.00    -0.237 OA
ATOM    101  O   UNL     1       7.254 -13.203  20.703  1.00  0.00    -0.237 OA
ATOM    102  O   UNL     1       6.740 -15.216  22.023  1.00  0.00    -0.744 OA
ENDBRANCH  98  99
ENDBRANCH  66  91
ENDBRANCH  40  41
ENDBRANCH  33  35
ENDBRANCH  32  33
ENDBRANCH  31  32
ENDBRANCH  30  31
ENDBRANCH  29  30
ENDBRANCH   1  29
TORSDOF 21
