REMARK SMILES CC(C)C[C@H](NC(=O)[C@@H](NC(=O)N1CC(OCCOCCOC(=O)c2ccc(-c3c4nc(c(-c5c(F)cc(S(=O)(=O)[O-])cc5F)c5ccc([nH]5)c(-c5c(F)cc(S(=O)(=O)[O-])cc5F)c5nc(c(-c6c(F)cc(S(=O)(=O)[O-])cc6F)c6ccc3[nH]6)C=C5)C=C4)cc2)=Nc2ccccc21)C(C)C)C(=O)[O-]
REMARK SMILES IDX 18 1 17 2 16 3 15 4 13 5 14 6 97 7 92 8 96 9 91 10 93 11
REMARK SMILES IDX 95 12 94 13 11 14 10 15 12 17 9 18 7 19 6 20 8 22 5 23 4 24
REMARK SMILES IDX 2 25 1 26 3 27 101 28 102 29 103 30 98 31 99 32 100 33 19 34
REMARK SMILES IDX 20 35 21 36 22 37 23 38 24 39 25 40 26 41 90 42 27 43 89 44
REMARK SMILES IDX 28 45 29 46 30 47 83 48 31 49 88 50 82 51 84 52 32 53 87 54
REMARK SMILES IDX 81 55 80 56 33 58 67 59 46 60 66 61 47 62 50 63 65 64 85 65
REMARK SMILES IDX 48 66 49 67 64 69 86 70 51 71 34 72 35 73 44 74 36 75 37 76
REMARK SMILES IDX 43 77 45 78 38 79 39 80 40 81 41 82 42 83 68 84 69 85 78 86
REMARK SMILES IDX 70 87 71 88 77 89 79 90 72 91 73 92 74 93 75 94 76 95 52 96
REMARK SMILES IDX 53 97 62 98 54 99 55 100 61 101 63 102 56 103 57 104 58 105
REMARK SMILES IDX 59 106 60 107
REMARK H PARENT 10 16 6 21 84 57 50 68
REMARK Flexibility Score: inf
ROOT
ATOM      1  C   UNL     1      -6.373   1.268   0.883  1.00  0.00     0.202 C 
ENDROOT
BRANCH   1   2
ATOM      2  C   UNL     1      -7.100   0.032   0.336  1.00  0.00     0.259 C 
BRANCH   2   3
ATOM      3  O   UNL     1      -6.235  -1.127   0.323  1.00  0.00    -0.477 OA
BRANCH   3   4
ATOM      4  C   UNL     1      -5.549  -1.393  -0.813  1.00  0.00     0.209 C 
ATOM      5  N   UNL     1      -3.345  -2.144  -1.470  1.00  0.00    -0.283 N 
ATOM      6  C   UNL     1      -4.510  -2.482  -0.639  1.00  0.00     0.224 C 
ATOM      7  C   UNL     1      -3.721  -1.834  -2.809  1.00  0.00     0.072 A 
ATOM      8  C   UNL     1      -4.926  -1.120  -3.000  1.00  0.00     0.091 A 
ATOM      9  C   UNL     1      -2.980  -2.241  -3.917  1.00  0.00     0.029 A 
ATOM     10  N   UNL     1      -5.774  -0.778  -1.932  1.00  0.00    -0.214 NA
ATOM     11  C   UNL     1      -5.271  -0.680  -4.277  1.00  0.00     0.030 A 
ATOM     12  C   UNL     1      -3.361  -1.829  -5.198  1.00  0.00     0.002 A 
ATOM     13  C   UNL     1      -4.481  -1.018  -5.373  1.00  0.00     0.002 A 
BRANCH   5  14
ATOM     14  C   UNL     1      -2.114  -2.540  -1.054  1.00  0.00     0.323 C 
ATOM     15  N   UNL     1      -0.992  -1.803  -1.238  1.00  0.00    -0.326 N 
ATOM     16  H   UNL     1      -0.200  -2.386  -1.274  1.00  0.00     0.166 HD
ATOM     17  O   UNL     1      -1.961  -3.580  -0.402  1.00  0.00    -0.248 OA
BRANCH  15  18
ATOM     18  C   UNL     1      -0.593  -0.372  -1.400  1.00  0.00     0.175 C 
BRANCH  18  19
ATOM     19  C   UNL     1      -0.246   0.493  -0.138  1.00  0.00     0.243 C 
ATOM     20  N   UNL     1      -0.510   0.198   1.154  1.00  0.00    -0.346 N 
ATOM     21  H   UNL     1      -0.269   0.927   1.770  1.00  0.00     0.164 HD
ATOM     22  O   UNL     1       0.355   1.568  -0.286  1.00  0.00    -0.273 OA
BRANCH  20  23
ATOM     23  C   UNL     1      -1.073  -0.962   1.838  1.00  0.00     0.128 C 
BRANCH  23  24
ATOM     24  C   UNL     1      -0.303  -1.225   3.143  1.00  0.00     0.034 C 
BRANCH  24  25
ATOM     25  C   UNL     1      -0.378  -2.713   3.538  1.00  0.00    -0.015 C 
ATOM     26  C   UNL     1       0.590  -3.544   2.690  1.00  0.00     0.007 C 
ATOM     27  C   UNL     1      -0.069  -2.895   5.021  1.00  0.00     0.007 C 
ENDBRANCH  24  25
ENDBRANCH  23  24
BRANCH  23  28
ATOM     28  C   UNL     1      -2.570  -0.754   2.062  1.00  0.00     0.064 C 
ATOM     29  O   UNL     1      -3.369  -0.481   1.183  1.00  0.00    -0.548 OA
ATOM     30  O   UNL     1      -3.002  -0.873   3.328  1.00  0.00    -0.548 OA
ENDBRANCH  23  28
ENDBRANCH  20  23
ENDBRANCH  18  19
BRANCH  18  31
ATOM     31  C   UNL     1      -1.296   0.419  -2.547  1.00  0.00     0.015 C 
ATOM     32  C   UNL     1      -1.179   1.951  -2.562  1.00  0.00     0.010 C 
ATOM     33  C   UNL     1      -0.736  -0.037  -3.905  1.00  0.00     0.010 C 
ENDBRANCH  18  31
ENDBRANCH  15  18
ENDBRANCH   5  14
ENDBRANCH   3   4
ENDBRANCH   2   3
ENDBRANCH   1   2
BRANCH   1  34
ATOM     34  O   UNL     1      -5.820   2.119  -0.130  1.00  0.00    -0.374 OA
BRANCH  34  35
ATOM     35  C   UNL     1      -4.476   1.816  -0.502  1.00  0.00     0.202 C 
BRANCH  35  36
ATOM     36  C   UNL     1      -3.418   2.541   0.334  1.00  0.00     0.261 C 
BRANCH  36  37
ATOM     37  O   UNL     1      -3.610   2.336   1.735  1.00  0.00    -0.460 OA
BRANCH  37  38
ATOM     38  C   UNL     1      -4.008   3.440   2.405  1.00  0.00     0.338 C 
ATOM     39  O   UNL     1      -4.033   4.585   2.016  1.00  0.00    -0.246 OA
BRANCH  38  40
ATOM     40  C   UNL     1      -4.604   2.992   3.673  1.00  0.00     0.060 A 
ATOM     41  C   UNL     1      -5.880   3.477   3.963  1.00  0.00     0.016 A 
ATOM     42  C   UNL     1      -3.932   2.145   4.559  1.00  0.00     0.016 A 
ATOM     43  C   UNL     1      -6.463   3.175   5.185  1.00  0.00     0.010 A 
ATOM     44  C   UNL     1      -4.528   1.827   5.781  1.00  0.00     0.010 A 
ATOM     45  C   UNL     1      -5.773   2.385   6.117  1.00  0.00    -0.014 A 
BRANCH  45  46
ATOM     46  C   UNL     1      -6.304   2.311   7.497  1.00  0.00     0.031 A 
ATOM     47  C   UNL     1      -5.675   3.170   8.560  1.00  0.00     0.074 A 
ATOM     48  C   UNL     1      -7.395   1.572   7.766  1.00  0.00     0.049 A 
ATOM     49  N   UNL     1      -6.042   3.347   9.802  1.00  0.00    -0.248 NA
ATOM     50  C   UNL     1      -4.477   3.933   8.173  1.00  0.00     0.031 C 
ATOM     51  C   UNL     1      -8.098   0.724   6.803  1.00  0.00     0.029 A 
ATOM     52  N   UNL     1      -8.114   1.435   8.924  1.00  0.00    -0.354 N 
ATOM     53  C   UNL     1      -5.126   4.242  10.341  1.00  0.00     0.074 A 
ATOM     54  C   UNL     1      -4.158   4.536   9.308  1.00  0.00     0.031 C 
ATOM     55  C   UNL     1      -9.159   0.165   7.409  1.00  0.00     0.029 A 
ATOM     56  C   UNL     1      -9.198   0.600   8.804  1.00  0.00     0.049 A 
ATOM     57  H   UNL     1      -7.876   1.891   9.763  1.00  0.00     0.167 HD
ATOM     58  C   UNL     1      -5.107   4.789  11.579  1.00  0.00     0.037 A 
ATOM     59  C   UNL     1     -10.116   0.230   9.718  1.00  0.00     0.037 A 
ATOM     60  C   UNL     1      -6.081   4.501  12.598  1.00  0.00     0.049 A 
ATOM     61  C   UNL     1     -10.046   0.815  11.104  1.00  0.00     0.074 A 
ATOM     62  C   UNL     1      -6.164   5.016  13.879  1.00  0.00     0.029 A 
ATOM     63  N   UNL     1      -7.140   3.617  12.451  1.00  0.00    -0.354 N 
ATOM     64  N   UNL     1      -9.196   1.689  11.588  1.00  0.00    -0.248 NA
ATOM     65  C   UNL     1     -11.065   0.371  12.066  1.00  0.00     0.031 C 
ATOM     66  C   UNL     1      -7.246   4.409  14.523  1.00  0.00     0.029 A 
ATOM     67  C   UNL     1      -7.867   3.552  13.627  1.00  0.00     0.049 A 
ATOM     68  H   UNL     1      -7.344   3.110  11.632  1.00  0.00     0.167 HD
ATOM     69  C   UNL     1      -9.591   1.918  12.902  1.00  0.00     0.074 A 
ATOM     70  C   UNL     1     -10.763   1.099  13.133  1.00  0.00     0.031 C 
ATOM     71  C   UNL     1      -9.036   2.734  13.833  1.00  0.00     0.037 A 
BRANCH  58  72
ATOM     72  C   UNL     1      -3.988   5.738  11.902  1.00  0.00     0.058 A 
ATOM     73  C   UNL     1      -3.929   7.027  11.348  1.00  0.00     0.135 A 
ATOM     74  C   UNL     1      -2.971   5.361  12.793  1.00  0.00     0.135 A 
ATOM     75  F   UNL     1      -4.864   7.431  10.473  1.00  0.00    -0.206 F 
ATOM     76  C   UNL     1      -2.887   7.899  11.646  1.00  0.00     0.059 A 
ATOM     77  C   UNL     1      -1.933   6.226  13.126  1.00  0.00     0.059 A 
ATOM     78  F   UNL     1      -2.977   4.138  13.346  1.00  0.00    -0.206 F 
ATOM     79  C   UNL     1      -1.892   7.488  12.536  1.00  0.00     0.060 A 
BRANCH  79  80
ATOM     80  S   UNL     1      -0.546   8.630  12.914  1.00  0.00     0.124 S 
ATOM     81  O   UNL     1       0.231   8.582  11.679  1.00  0.00    -0.237 OA
ATOM     82  O   UNL     1      -1.258   9.879  13.166  1.00  0.00    -0.237 OA
ATOM     83  O   UNL     1       0.092   8.029  14.081  1.00  0.00    -0.744 OA
ENDBRANCH  79  80
ENDBRANCH  58  72
BRANCH  59  84
ATOM     84  C   UNL     1     -11.181  -0.740   9.348  1.00  0.00     0.058 A 
ATOM     85  C   UNL     1     -12.522  -0.346   9.241  1.00  0.00     0.135 A 
ATOM     86  C   UNL     1     -10.871  -2.084   9.090  1.00  0.00     0.135 A 
ATOM     87  F   UNL     1     -12.869   0.927   9.485  1.00  0.00    -0.206 F 
ATOM     88  C   UNL     1     -13.523  -1.253   8.904  1.00  0.00     0.059 A 
ATOM     89  C   UNL     1     -11.849  -3.004   8.728  1.00  0.00     0.059 A 
ATOM     90  F   UNL     1      -9.600  -2.509   9.166  1.00  0.00    -0.206 F 
ATOM     91  C   UNL     1     -13.175  -2.580   8.648  1.00  0.00     0.060 A 
BRANCH  91  92
ATOM     92  S   UNL     1     -14.472  -3.741   8.165  1.00  0.00     0.124 S 
ATOM     93  O   UNL     1     -15.160  -3.955   9.432  1.00  0.00    -0.237 OA
ATOM     94  O   UNL     1     -15.206  -2.979   7.159  1.00  0.00    -0.237 OA
ATOM     95  O   UNL     1     -13.723  -4.884   7.650  1.00  0.00    -0.744 OA
ENDBRANCH  91  92
ENDBRANCH  59  84
BRANCH  71  96
ATOM     96  C   UNL     1      -9.701   2.805  15.180  1.00  0.00     0.058 A 
ATOM     97  C   UNL     1      -9.600   1.757  16.107  1.00  0.00     0.135 A 
ATOM     98  C   UNL     1     -10.389   3.965  15.572  1.00  0.00     0.135 A 
ATOM     99  F   UNL     1      -8.957   0.625  15.779  1.00  0.00    -0.206 F 
ATOM    100  C   UNL     1     -10.173   1.849  17.371  1.00  0.00     0.059 A 
ATOM    101  C   UNL     1     -10.947   4.089  16.840  1.00  0.00     0.059 A 
ATOM    102  F   UNL     1     -10.505   5.001  14.726  1.00  0.00    -0.206 F 
ATOM    103  C   UNL     1     -10.842   3.021  17.729  1.00  0.00     0.060 A 
BRANCH 103 104
ATOM    104  S   UNL     1     -11.543   3.145  19.389  1.00  0.00     0.124 S 
ATOM    105  O   UNL     1     -12.715   2.284  19.277  1.00  0.00    -0.237 OA
ATOM    106  O   UNL     1     -10.460   2.636  20.225  1.00  0.00    -0.237 OA
ATOM    107  O   UNL     1     -11.821   4.571  19.534  1.00  0.00    -0.744 OA
ENDBRANCH 103 104
ENDBRANCH  71  96
ENDBRANCH  45  46
ENDBRANCH  38  40
ENDBRANCH  37  38
ENDBRANCH  36  37
ENDBRANCH  35  36
ENDBRANCH  34  35
ENDBRANCH   1  34
TORSDOF 24
