REMARK SMILES Cc1cccc(CN(C)c2ccc(C(=O)OCCOCCOC(=O)c3ccc(-c4c5nc(c(-c6c(F)cc(S(=O)(=O)[O-])cc6F)c6ccc([nH]6)c(-c6c(F)cc(S(=O)(=O)[O-])cc6F)c6nc(c(-c7c(F)cc(S(=O)(=O)[O-])cc7F)c7ccc4[nH]7)C=C6)C=C5)cc3)cc2C)n1
REMARK SMILES IDX 19 1 18 2 17 3 16 4 14 5 15 6 13 7 10 8 11 9 92 10 12 11
REMARK SMILES IDX 91 12 93 13 8 14 9 15 7 16 6 17 1 18 2 19 3 20 94 21 4 22
REMARK SMILES IDX 5 23 20 24 21 25 22 26 23 27 24 28 25 29 26 30 90 31 27 32
REMARK SMILES IDX 89 33 28 34 29 35 30 36 83 37 31 38 88 39 82 40 84 41 32 42
REMARK SMILES IDX 87 43 81 44 80 45 33 47 67 48 46 49 66 50 47 51 50 52 65 53
REMARK SMILES IDX 85 54 48 55 49 56 64 58 86 59 51 60 34 61 35 62 44 63 36 64
REMARK SMILES IDX 37 65 43 66 45 67 38 68 39 69 40 70 41 71 42 72 68 73 69 74
REMARK SMILES IDX 78 75 70 76 71 77 77 78 79 79 72 80 73 81 74 82 75 83 76 84
REMARK SMILES IDX 52 85 53 86 62 87 54 88 55 89 61 90 63 91 56 92 57 93 58 94
REMARK SMILES IDX 59 95 60 96
REMARK H PARENT 84 46 50 57
REMARK Flexibility Score: inf
ROOT
ATOM      1  O   UNL     1      -0.260   1.613   7.581  1.00  0.00    -0.374 OA
ENDROOT
BRANCH   1   2
ATOM      2  C   UNL     1       0.327   0.409   7.109  1.00  0.00     0.202 C 
BRANCH   2   3
ATOM      3  C   UNL     1      -0.824  -0.475   6.768  1.00  0.00     0.261 C 
BRANCH   3   4
ATOM      4  O   UNL     1      -1.590   0.037   5.667  1.00  0.00    -0.460 OA
BRANCH   4   5
ATOM      5  C   UNL     1      -2.300   1.196   5.743  1.00  0.00     0.338 C 
ATOM      6  O   UNL     1      -2.870   1.701   6.678  1.00  0.00    -0.246 OA
BRANCH   5   7
ATOM      7  C   UNL     1      -2.117   1.843   4.432  1.00  0.00     0.060 A 
ATOM      8  C   UNL     1      -1.449   3.127   2.022  1.00  0.00     0.040 A 
ATOM      9  C   UNL     1      -1.030   1.832   2.327  1.00  0.00     0.027 A 
ATOM     10  C   UNL     1      -2.114   3.843   3.039  1.00  0.00    -0.027 A 
ATOM     11  C   UNL     1      -1.432   1.156   3.447  1.00  0.00     0.018 A 
ATOM     12  C   UNL     1      -2.439   3.188   4.249  1.00  0.00     0.021 A 
ATOM     13  C   UNL     1      -2.403   5.315   2.957  1.00  0.00     0.046 C 
BRANCH   8  14
ATOM     14  N   UNL     1      -1.181   3.618   0.748  1.00  0.00    -0.368 N 
ATOM     15  C   UNL     1      -0.090   4.567   0.633  1.00  0.00     0.144 C 
BRANCH  14  16
ATOM     16  C   UNL     1      -1.565   2.806  -0.442  1.00  0.00     0.172 C 
BRANCH  16  17
ATOM     17  C   UNL     1      -0.953   1.401  -0.566  1.00  0.00     0.060 A 
ATOM     18  C   UNL     1       2.430  -0.031  -0.212  1.00  0.00     0.067 C 
ATOM     19  C   UNL     1       0.943   0.042  -0.404  1.00  0.00     0.038 A 
ATOM     20  C   UNL     1       0.167  -1.100  -0.229  1.00  0.00     0.023 A 
ATOM     21  N   UNL     1       0.407   1.278  -0.610  1.00  0.00    -0.256 NA
ATOM     22  C   UNL     1      -1.216  -0.979  -0.267  1.00  0.00     0.004 A 
ATOM     23  C   UNL     1      -1.786   0.281  -0.431  1.00  0.00     0.026 A 
ENDBRANCH  16  17
ENDBRANCH  14  16
ENDBRANCH   8  14
ENDBRANCH   5   7
ENDBRANCH   4   5
ENDBRANCH   3   4
ENDBRANCH   2   3
ENDBRANCH   1   2
BRANCH   1  24
ATOM     24  C   UNL     1       0.637   2.640   7.921  1.00  0.00     0.202 C 
BRANCH  24  25
ATOM     25  C   UNL     1       1.643   2.205   8.989  1.00  0.00     0.261 C 
BRANCH  25  26
ATOM     26  O   UNL     1       0.986   1.999  10.262  1.00  0.00    -0.460 OA
BRANCH  26  27
ATOM     27  C   UNL     1       0.792   0.703  10.660  1.00  0.00     0.338 C 
ATOM     28  O   UNL     1       1.665   0.012  11.155  1.00  0.00    -0.246 OA
BRANCH  27  29
ATOM     29  C   UNL     1      -0.635   0.296  10.474  1.00  0.00     0.060 A 
ATOM     30  C   UNL     1      -1.033  -1.056  10.434  1.00  0.00     0.016 A 
ATOM     31  C   UNL     1      -1.555   1.283  10.149  1.00  0.00     0.016 A 
ATOM     32  C   UNL     1      -2.296  -1.421   9.915  1.00  0.00     0.010 A 
ATOM     33  C   UNL     1      -2.743   0.919   9.555  1.00  0.00     0.010 A 
ATOM     34  C   UNL     1      -3.123  -0.428   9.398  1.00  0.00    -0.014 A 
BRANCH  34  35
ATOM     35  C   UNL     1      -4.356  -0.596   8.607  1.00  0.00     0.031 A 
ATOM     36  C   UNL     1      -5.581   0.049   9.132  1.00  0.00     0.074 A 
ATOM     37  C   UNL     1      -4.328  -0.961   7.299  1.00  0.00     0.049 A 
ATOM     38  N   UNL     1      -6.736  -0.028   8.575  1.00  0.00    -0.248 NA
ATOM     39  C   UNL     1      -5.612   0.818  10.373  1.00  0.00     0.031 C 
ATOM     40  C   UNL     1      -5.225  -0.526   6.221  1.00  0.00     0.029 A 
ATOM     41  N   UNL     1      -3.422  -1.773   6.616  1.00  0.00    -0.354 N 
ATOM     42  C   UNL     1      -7.543   0.932   9.140  1.00  0.00     0.074 A 
ATOM     43  C   UNL     1      -6.845   1.324  10.337  1.00  0.00     0.031 C 
ATOM     44  C   UNL     1      -4.984  -1.245   5.110  1.00  0.00     0.029 A 
ATOM     45  C   UNL     1      -4.036  -2.285   5.462  1.00  0.00     0.049 A 
ATOM     46  H   UNL     1      -2.497  -1.957   6.898  1.00  0.00     0.167 HD
ATOM     47  C   UNL     1      -8.636   1.344   8.433  1.00  0.00     0.037 A 
ATOM     48  C   UNL     1      -4.148  -3.633   5.317  1.00  0.00     0.037 A 
ATOM     49  C   UNL     1      -8.788   0.522   7.210  1.00  0.00     0.049 A 
ATOM     50  C   UNL     1      -5.596  -4.021   5.491  1.00  0.00     0.074 A 
ATOM     51  C   UNL     1      -8.584   0.722   5.854  1.00  0.00     0.029 A 
ATOM     52  N   UNL     1      -8.911  -0.853   7.356  1.00  0.00    -0.354 N 
ATOM     53  N   UNL     1      -6.554  -3.140   5.593  1.00  0.00    -0.248 NA
ATOM     54  C   UNL     1      -6.098  -5.382   5.615  1.00  0.00     0.031 C 
ATOM     55  C   UNL     1      -8.553  -0.562   5.212  1.00  0.00     0.029 A 
ATOM     56  C   UNL     1      -8.773  -1.543   6.166  1.00  0.00     0.049 A 
ATOM     57  H   UNL     1      -9.080  -1.293   8.220  1.00  0.00     0.167 HD
ATOM     58  C   UNL     1      -7.728  -3.735   5.916  1.00  0.00     0.074 A 
ATOM     59  C   UNL     1      -7.395  -5.156   5.906  1.00  0.00     0.031 C 
ATOM     60  C   UNL     1      -8.855  -3.008   6.188  1.00  0.00     0.037 A 
BRANCH  47  61
ATOM     61  C   UNL     1      -9.492   2.572   8.732  1.00  0.00     0.058 A 
ATOM     62  C   UNL     1     -10.494   2.971   7.817  1.00  0.00     0.135 A 
ATOM     63  C   UNL     1      -9.383   3.426   9.854  1.00  0.00     0.135 A 
ATOM     64  F   UNL     1     -10.750   2.261   6.709  1.00  0.00    -0.206 F 
ATOM     65  C   UNL     1     -11.284   4.115   7.986  1.00  0.00     0.059 A 
ATOM     66  C   UNL     1     -10.158   4.574  10.045  1.00  0.00     0.059 A 
ATOM     67  F   UNL     1      -8.531   3.209  10.853  1.00  0.00    -0.206 F 
ATOM     68  C   UNL     1     -11.107   4.917   9.103  1.00  0.00     0.060 A 
BRANCH  68  69
ATOM     69  S   UNL     1     -12.131   6.380   9.322  1.00  0.00     0.124 S 
ATOM     70  O   UNL     1     -11.788   7.171   8.145  1.00  0.00    -0.237 OA
ATOM     71  O   UNL     1     -13.475   5.812   9.338  1.00  0.00    -0.237 OA
ATOM     72  O   UNL     1     -11.675   6.933  10.595  1.00  0.00    -0.744 OA
ENDBRANCH  68  69
ENDBRANCH  47  61
BRANCH  48  73
ATOM     73  C   UNL     1      -2.894  -4.317   5.795  1.00  0.00     0.058 A 
ATOM     74  C   UNL     1      -1.736  -4.154   4.996  1.00  0.00     0.135 A 
ATOM     75  C   UNL     1      -2.681  -4.572   7.161  1.00  0.00     0.135 A 
ATOM     76  F   UNL     1      -1.861  -3.890   3.684  1.00  0.00    -0.206 F 
ATOM     77  C   UNL     1      -0.451  -4.083   5.543  1.00  0.00     0.059 A 
ATOM     78  C   UNL     1      -1.402  -4.481   7.733  1.00  0.00     0.059 A 
ATOM     79  F   UNL     1      -3.728  -4.725   7.985  1.00  0.00    -0.206 F 
ATOM     80  C   UNL     1      -0.300  -4.185   6.924  1.00  0.00     0.060 A 
BRANCH  80  81
ATOM     81  S   UNL     1       1.273  -3.645   7.669  1.00  0.00     0.124 S 
ATOM     82  O   UNL     1       2.100  -4.836   7.532  1.00  0.00    -0.237 OA
ATOM     83  O   UNL     1       1.657  -2.511   6.828  1.00  0.00    -0.237 OA
ATOM     84  O   UNL     1       0.884  -3.286   9.027  1.00  0.00    -0.744 OA
ENDBRANCH  80  81
ENDBRANCH  48  73
BRANCH  60  85
ATOM     85  C   UNL     1     -10.153  -3.676   6.535  1.00  0.00     0.058 A 
ATOM     86  C   UNL     1     -10.598  -4.817   5.851  1.00  0.00     0.135 A 
ATOM     87  C   UNL     1     -11.030  -3.159   7.513  1.00  0.00     0.135 A 
ATOM     88  F   UNL     1      -9.913  -5.309   4.806  1.00  0.00    -0.206 F 
ATOM     89  C   UNL     1     -11.762  -5.485   6.211  1.00  0.00     0.059 A 
ATOM     90  C   UNL     1     -12.238  -3.761   7.832  1.00  0.00     0.059 A 
ATOM     91  F   UNL     1     -10.740  -2.069   8.235  1.00  0.00    -0.206 F 
ATOM     92  C   UNL     1     -12.570  -4.953   7.212  1.00  0.00     0.060 A 
BRANCH  92  93
ATOM     93  S   UNL     1     -14.063  -5.825   7.692  1.00  0.00     0.124 S 
ATOM     94  O   UNL     1     -14.603  -6.250   6.404  1.00  0.00    -0.237 OA
ATOM     95  O   UNL     1     -13.517  -6.887   8.531  1.00  0.00    -0.237 OA
ATOM     96  O   UNL     1     -14.843  -4.808   8.388  1.00  0.00    -0.744 OA
ENDBRANCH  92  93
ENDBRANCH  60  85
ENDBRANCH  34  35
ENDBRANCH  27  29
ENDBRANCH  26  27
ENDBRANCH  25  26
ENDBRANCH  24  25
ENDBRANCH   1  24
TORSDOF 20
