REMARK SMILES C/C(=N\Nc1nc(-c2ccc(Cl)cc2)cs1)c1nnn(-c2ccc(C(=O)OCCOCCOC(=O)c3ccc(-c4c5nc(c(-c6c(F)cc(S(=O)(=O)[O-])cc6F)c6ccc([nH]6)c(-c6c(F)cc(S(=O)(=O)[O-])cc6F)c6nc(c(-c7c(F)cc(S(=O)(=O)[O-])cc7F)c7ccc4[nH]7)C=C6)C=C5)cc3)cc2)c1C
REMARK SMILES IDX 29 1 28 2 27 3 25 4 26 5 24 6 21 7 22 8 103 9 23 10 102 11
REMARK SMILES IDX 20 12 17 13 18 14 104 15 19 16 105 17 2 18 1 19 3 20 4 21
REMARK SMILES IDX 5 23 6 24 16 25 7 26 15 27 8 28 9 29 14 30 10 31 13 32 11 33
REMARK SMILES IDX 12 34 30 35 31 36 32 37 33 38 34 39 35 40 36 41 37 42 101 43
REMARK SMILES IDX 38 44 100 45 39 46 40 47 41 48 94 49 42 50 99 51 93 52 95 53
REMARK SMILES IDX 43 54 98 55 92 56 91 57 44 59 78 60 57 61 77 62 58 63 61 64
REMARK SMILES IDX 76 65 96 66 59 67 60 68 75 70 97 71 62 72 45 73 46 74 55 75
REMARK SMILES IDX 47 76 48 77 54 78 56 79 49 80 50 81 51 82 52 83 53 84 79 85
REMARK SMILES IDX 80 86 89 87 81 88 82 89 88 90 90 91 83 92 84 93 85 94 86 95
REMARK SMILES IDX 87 96 63 97 64 98 73 99 65 100 66 101 72 102 74 103 67 104
REMARK SMILES IDX 68 105 69 106 70 107 71 108
REMARK H PARENT 4 22 95 58 61 69
REMARK Flexibility Score: inf
ROOT
ATOM      1  C   UNL     1       9.827  -7.191  -3.850  1.00  0.00     0.202 C 
ENDROOT
BRANCH   1   2
ATOM      2  C   UNL     1       9.577  -5.738  -3.450  1.00  0.00     0.261 C 
BRANCH   2   3
ATOM      3  O   UNL     1       8.351  -5.578  -2.726  1.00  0.00    -0.460 OA
BRANCH   3   4
ATOM      4  C   UNL     1       7.365  -4.967  -3.424  1.00  0.00     0.338 C 
ATOM      5  O   UNL     1       7.441  -4.489  -4.545  1.00  0.00    -0.246 OA
BRANCH   4   6
ATOM      6  C   UNL     1       6.089  -5.058  -2.687  1.00  0.00     0.060 A 
ATOM      7  C   UNL     1       3.644  -4.721  -1.450  1.00  0.00     0.067 A 
ATOM      8  C   UNL     1       3.665  -5.022  -2.813  1.00  0.00     0.029 A 
ATOM      9  C   UNL     1       4.814  -4.773  -0.677  1.00  0.00     0.029 A 
ATOM     10  C   UNL     1       4.904  -5.168  -3.435  1.00  0.00     0.018 A 
ATOM     11  C   UNL     1       6.046  -4.941  -1.297  1.00  0.00     0.018 A 
BRANCH   7  12
ATOM     12  N   UNL     1       2.517  -4.054  -0.924  1.00  0.00    -0.217 N 
ATOM     13  C   UNL     1       1.191  -2.470  -0.225  1.00  0.00     0.132 A 
ATOM     14  N   UNL     1       0.431  -3.531  -0.637  1.00  0.00    -0.128 NA
ATOM     15  C   UNL     1       2.531  -2.762  -0.422  1.00  0.00     0.071 A 
ATOM     16  N   UNL     1       1.246  -4.441  -1.164  1.00  0.00    -0.061 NA
ATOM     17  C   UNL     1       3.740  -1.896  -0.342  1.00  0.00     0.069 C 
BRANCH  13  18
ATOM     18  C   UNL     1       0.659  -1.181   0.198  1.00  0.00     0.087 C 
ATOM     19  C   UNL     1       1.161   0.007  -0.583  1.00  0.00     0.071 C 
ATOM     20  N   UNL     1      -0.113  -1.201   1.246  1.00  0.00    -0.176 NA
BRANCH  20  21
ATOM     21  N   UNL     1      -0.554  -0.087   1.925  1.00  0.00    -0.252 N 
ATOM     22  H   UNL     1      -1.059  -0.284   2.747  1.00  0.00     0.193 HD
BRANCH  21  23
ATOM     23  C   UNL     1      -0.413   1.236   1.657  1.00  0.00     0.203 A 
ATOM     24  N   UNL     1      -0.589   1.817   0.493  1.00  0.00    -0.219 NA
ATOM     25  S   UNL     1       0.108   2.324   2.898  1.00  0.00    -0.103 S 
ATOM     26  C   UNL     1      -0.004   3.066   0.477  1.00  0.00     0.084 A 
ATOM     27  C   UNL     1       0.435   3.516   1.703  1.00  0.00     0.097 A 
BRANCH  26  28
ATOM     28  C   UNL     1       0.175   3.762  -0.784  1.00  0.00     0.001 A 
ATOM     29  C   UNL     1      -0.896   3.842  -1.684  1.00  0.00     0.012 A 
ATOM     30  C   UNL     1       1.429   4.260  -1.164  1.00  0.00     0.012 A 
ATOM     31  C   UNL     1      -0.728   4.444  -2.933  1.00  0.00     0.021 A 
ATOM     32  C   UNL     1       1.601   4.852  -2.420  1.00  0.00     0.021 A 
ATOM     33  C   UNL     1       0.519   4.949  -3.295  1.00  0.00     0.041 A 
ATOM     34  Cl  UNL     1       0.730   5.684  -4.836  1.00  0.00    -0.084 Cl
ENDBRANCH  26  28
ENDBRANCH  21  23
ENDBRANCH  20  21
ENDBRANCH  13  18
ENDBRANCH   7  12
ENDBRANCH   4   6
ENDBRANCH   3   4
ENDBRANCH   2   3
ENDBRANCH   1   2
BRANCH   1  35
ATOM     35  O   UNL     1       8.910  -7.833  -4.736  1.00  0.00    -0.374 OA
BRANCH  35  36
ATOM     36  C   UNL     1       7.570  -8.106  -4.336  1.00  0.00     0.202 C 
BRANCH  36  37
ATOM     37  C   UNL     1       7.304  -9.145  -3.255  1.00  0.00     0.261 C 
BRANCH  37  38
ATOM     38  O   UNL     1       8.034  -8.876  -2.074  1.00  0.00    -0.460 OA
BRANCH  38  39
ATOM     39  C   UNL     1       9.181  -9.594  -1.976  1.00  0.00     0.338 C 
ATOM     40  O   UNL     1       9.716 -10.249  -2.845  1.00  0.00    -0.246 OA
BRANCH  39  41
ATOM     41  C   UNL     1       9.625  -9.554  -0.578  1.00  0.00     0.060 A 
ATOM     42  C   UNL     1      10.693 -10.400  -0.272  1.00  0.00     0.016 A 
ATOM     43  C   UNL     1       8.733  -9.076   0.390  1.00  0.00     0.016 A 
ATOM     44  C   UNL     1      10.664 -11.043   0.940  1.00  0.00     0.010 A 
ATOM     45  C   UNL     1       8.684  -9.744   1.580  1.00  0.00     0.010 A 
ATOM     46  C   UNL     1       9.581 -10.792   1.782  1.00  0.00    -0.014 A 
BRANCH  46  47
ATOM     47  C   UNL     1       9.408 -11.617   2.952  1.00  0.00     0.031 A 
ATOM     48  C   UNL     1      10.266 -11.160   4.064  1.00  0.00     0.074 A 
ATOM     49  C   UNL     1       8.449 -12.561   2.999  1.00  0.00     0.049 A 
ATOM     50  N   UNL     1      11.327 -11.727   4.533  1.00  0.00    -0.248 NA
ATOM     51  C   UNL     1      10.075  -9.772   4.527  1.00  0.00     0.031 C 
ATOM     52  C   UNL     1       7.410 -12.858   2.006  1.00  0.00     0.029 A 
ATOM     53  N   UNL     1       8.136 -13.397   4.023  1.00  0.00    -0.354 N 
ATOM     54  C   UNL     1      11.762 -10.873   5.540  1.00  0.00     0.074 A 
ATOM     55  C   UNL     1      11.164  -9.597   5.272  1.00  0.00     0.031 C 
ATOM     56  C   UNL     1       6.459 -13.637   2.572  1.00  0.00     0.029 A 
ATOM     57  C   UNL     1       6.878 -13.990   3.915  1.00  0.00     0.049 A 
ATOM     58  H   UNL     1       8.745 -13.569   4.777  1.00  0.00     0.167 HD
ATOM     59  C   UNL     1      12.278 -11.361   6.699  1.00  0.00     0.037 A 
ATOM     60  C   UNL     1       6.229 -14.623   4.928  1.00  0.00     0.037 A 
ATOM     61  C   UNL     1      12.706 -12.729   6.536  1.00  0.00     0.049 A 
ATOM     62  C   UNL     1       7.272 -14.978   5.937  1.00  0.00     0.074 A 
ATOM     63  C   UNL     1      13.624 -13.362   5.721  1.00  0.00     0.029 A 
ATOM     64  N   UNL     1      11.865 -13.716   6.995  1.00  0.00    -0.354 N 
ATOM     65  N   UNL     1       8.242 -15.824   5.701  1.00  0.00    -0.248 NA
ATOM     66  C   UNL     1       7.537 -14.011   6.994  1.00  0.00     0.031 C 
ATOM     67  C   UNL     1      13.014 -14.600   5.364  1.00  0.00     0.029 A 
ATOM     68  C   UNL     1      11.792 -14.693   6.033  1.00  0.00     0.049 A 
ATOM     69  H   UNL     1      11.397 -13.721   7.861  1.00  0.00     0.167 HD
ATOM     70  C   UNL     1       9.371 -15.251   6.276  1.00  0.00     0.074 A 
ATOM     71  C   UNL     1       8.861 -14.158   7.102  1.00  0.00     0.031 C 
ATOM     72  C   UNL     1      10.625 -15.520   5.802  1.00  0.00     0.037 A 
BRANCH  59  73
ATOM     73  C   UNL     1      12.013 -10.736   8.051  1.00  0.00     0.058 A 
ATOM     74  C   UNL     1      12.710 -11.225   9.172  1.00  0.00     0.135 A 
ATOM     75  C   UNL     1      10.931  -9.869   8.344  1.00  0.00     0.135 A 
ATOM     76  F   UNL     1      13.752 -12.057   9.018  1.00  0.00    -0.206 F 
ATOM     77  C   UNL     1      12.316 -10.936  10.480  1.00  0.00     0.059 A 
ATOM     78  C   UNL     1      10.561  -9.521   9.635  1.00  0.00     0.059 A 
ATOM     79  F   UNL     1      10.108  -9.383   7.410  1.00  0.00    -0.206 F 
ATOM     80  C   UNL     1      11.230 -10.094  10.698  1.00  0.00     0.060 A 
BRANCH  80  81
ATOM     81  S   UNL     1      10.648  -9.802  12.374  1.00  0.00     0.124 S 
ATOM     82  O   UNL     1      10.131 -11.117  12.734  1.00  0.00    -0.237 OA
ATOM     83  O   UNL     1      11.873  -9.385  13.047  1.00  0.00    -0.237 OA
ATOM     84  O   UNL     1       9.646  -8.753  12.204  1.00  0.00    -0.744 OA
ENDBRANCH  80  81
ENDBRANCH  59  73
BRANCH  60  85
ATOM     85  C   UNL     1       4.776 -14.544   5.256  1.00  0.00     0.058 A 
ATOM     86  C   UNL     1       4.179 -15.411   6.190  1.00  0.00     0.135 A 
ATOM     87  C   UNL     1       3.995 -13.438   4.860  1.00  0.00     0.135 A 
ATOM     88  F   UNL     1       4.857 -16.474   6.651  1.00  0.00    -0.206 F 
ATOM     89  C   UNL     1       2.901 -15.178   6.722  1.00  0.00     0.059 A 
ATOM     90  C   UNL     1       2.720 -13.190   5.367  1.00  0.00     0.059 A 
ATOM     91  F   UNL     1       4.486 -12.507   4.029  1.00  0.00    -0.206 F 
ATOM     92  C   UNL     1       2.186 -14.052   6.314  1.00  0.00     0.060 A 
BRANCH  92  93
ATOM     93  S   UNL     1       0.607 -13.652   7.106  1.00  0.00     0.124 S 
ATOM     94  O   UNL     1      -0.256 -14.722   6.616  1.00  0.00    -0.237 OA
ATOM     95  O   UNL     1       0.949 -13.707   8.523  1.00  0.00    -0.237 OA
ATOM     96  O   UNL     1       0.299 -12.319   6.594  1.00  0.00    -0.744 OA
ENDBRANCH  92  93
ENDBRANCH  60  85
BRANCH  72  97
ATOM     97  C   UNL     1      10.780 -16.630   4.787  1.00  0.00     0.058 A 
ATOM     98  C   UNL     1      10.272 -16.579   3.475  1.00  0.00     0.135 A 
ATOM     99  C   UNL     1      11.632 -17.699   5.096  1.00  0.00     0.135 A 
ATOM    100  F   UNL     1       9.533 -15.540   3.066  1.00  0.00    -0.206 F 
ATOM    101  C   UNL     1      10.572 -17.560   2.526  1.00  0.00     0.059 A 
ATOM    102  C   UNL     1      11.969 -18.673   4.159  1.00  0.00     0.059 A 
ATOM    103  F   UNL     1      12.202 -17.772   6.310  1.00  0.00    -0.206 F 
ATOM    104  C   UNL     1      11.428 -18.603   2.877  1.00  0.00     0.060 A 
BRANCH 104 105
ATOM    105  S   UNL     1      11.893 -19.823   1.626  1.00  0.00     0.124 S 
ATOM    106  O   UNL     1      10.651 -20.567   1.448  1.00  0.00    -0.237 OA
ATOM    107  O   UNL     1      12.297 -18.985   0.501  1.00  0.00    -0.237 OA
ATOM    108  O   UNL     1      12.980 -20.564   2.261  1.00  0.00    -0.744 OA
ENDBRANCH 104 105
ENDBRANCH  72  97
ENDBRANCH  46  47
ENDBRANCH  39  41
ENDBRANCH  38  39
ENDBRANCH  37  38
ENDBRANCH  36  37
ENDBRANCH  35  36
ENDBRANCH   1  35
TORSDOF 22
