REMARK SMILES CC(=O)N1CCCN(S(=O)(=O)c2ccc(C)c(C(=O)OCCOCCOC(=O)c3ccc(-c4c5nc(c(-c6c(F)cc(S(=O)(=O)[O-])cc6F)c6ccc([nH]6)c(-c6c(F)cc(S(=O)(=O)[O-])cc6F)c6nc(c(-c7c(F)cc(S(=O)(=O)[O-])cc7F)c7ccc4[nH]7)C=C6)C=C5)cc3)c2)CC1
REMARK SMILES IDX 21 1 20 2 18 3 19 4 17 5 12 6 13 7 95 8 14 9 15 10 16 11
REMARK SMILES IDX 9 12 10 13 11 14 8 15 96 16 97 17 4 18 2 19 1 20 3 21 5 22
REMARK SMILES IDX 6 23 7 25 22 27 23 28 24 29 25 30 26 31 27 32 28 33 29 34
REMARK SMILES IDX 30 35 94 36 31 37 93 38 32 39 33 40 34 41 87 42 35 43 92 44
REMARK SMILES IDX 86 45 88 46 36 47 91 48 85 49 84 50 37 52 71 53 50 54 70 55
REMARK SMILES IDX 51 56 54 57 69 58 89 59 52 60 53 61 68 63 90 64 55 65 38 66
REMARK SMILES IDX 39 67 48 68 40 69 41 70 47 71 49 72 42 73 43 74 44 75 45 76
REMARK SMILES IDX 46 77 72 78 73 79 82 80 74 81 75 82 81 83 83 84 76 85 77 86
REMARK SMILES IDX 78 87 79 88 80 89 56 90 57 91 66 92 58 93 59 94 65 95 67 96
REMARK SMILES IDX 60 97 61 98 62 99 63 100 64 101
REMARK H PARENT 88 51 54 62
REMARK Flexibility Score: 80.00
ROOT
ATOM      1  C   UNL     1      -0.561   8.290   7.652  1.00  0.00     0.261 C 
ENDROOT
BRANCH   1   2
ATOM      2  O   UNL     1      -0.862   8.135   6.264  1.00  0.00    -0.460 OA
BRANCH   2   3
ATOM      3  C   UNL     1       0.051   8.264   5.283  1.00  0.00     0.338 C 
ATOM      4  O   UNL     1       1.107   8.842   5.292  1.00  0.00    -0.246 OA
BRANCH   3   5
ATOM      5  C   UNL     1      -0.405   7.370   4.195  1.00  0.00     0.064 A 
ATOM      6  C   UNL     1       0.489   5.872   2.563  1.00  0.00     0.083 A 
ATOM      7  C   UNL     1      -0.700   5.138   2.627  1.00  0.00     0.022 A 
ATOM      8  C   UNL     1       0.624   7.025   3.310  1.00  0.00     0.037 A 
ATOM      9  C   UNL     1      -1.784   5.574   3.371  1.00  0.00     0.006 A 
ATOM     10  C   UNL     1      -1.651   6.686   4.192  1.00  0.00    -0.037 A 
ATOM     11  C   UNL     1      -2.795   6.954   5.138  1.00  0.00     0.045 C 
BRANCH   6  12
ATOM     12  S   UNL     1       1.939   5.155   1.844  1.00  0.00     0.243 S 
ATOM     13  O   UNL     1       2.007   3.810   2.372  1.00  0.00    -0.207 OA
ATOM     14  O   UNL     1       3.058   6.053   2.032  1.00  0.00    -0.207 OA
BRANCH  12  15
ATOM     15  N   UNL     1       1.637   5.090   0.178  1.00  0.00    -0.196 NA
BRANCH  15  16
ATOM     16  C   UNL     1       0.373   4.559  -0.364  1.00  0.00     0.124 C 
BRANCH  16  17
ATOM     17  C   UNL     1       0.121   3.098  -0.031  1.00  0.00     0.136 C 
BRANCH  17  18
ATOM     18  N   UNL     1       1.067   2.116  -0.552  1.00  0.00    -0.342 N 
BRANCH  18  19
ATOM     19  C   UNL     1       0.448   0.935  -0.963  1.00  0.00     0.219 C 
ATOM     20  C   UNL     1       1.022  -0.360  -0.445  1.00  0.00     0.114 C 
ATOM     21  O   UNL     1      -0.618   0.930  -1.581  1.00  0.00    -0.275 OA
ENDBRANCH  18  19
BRANCH  18  22
ATOM     22  C   UNL     1       2.447   2.169  -0.066  1.00  0.00     0.121 C 
BRANCH  22  23
ATOM     23  C   UNL     1       3.336   3.343  -0.498  1.00  0.00     0.038 CG0
ATOM     24  G   UNL     1       2.780   4.748  -0.683  1.00  0.00     0.000 G0
ENDBRANCH  22  23
ENDBRANCH  18  22
ENDBRANCH  17  18
ENDBRANCH  16  17
ENDBRANCH  15  16
BRANCH  15  25
ATOM     25  C   UNL     1       2.780   4.748  -0.683  1.00  0.00     0.104 CG0
ATOM     26  G   UNL     1       3.336   3.343  -0.498  1.00  0.00     0.000 G0
ENDBRANCH  15  25
ENDBRANCH  12  15
ENDBRANCH   6  12
ENDBRANCH   3   5
ENDBRANCH   2   3
ENDBRANCH   1   2
BRANCH   1  27
ATOM     27  C   UNL     1       0.249   7.155   8.169  1.00  0.00     0.202 C 
BRANCH  27  28
ATOM     28  O   UNL     1       1.508   7.275   7.523  1.00  0.00    -0.374 OA
BRANCH  28  29
ATOM     29  C   UNL     1       2.430   6.249   7.791  1.00  0.00     0.202 C 
BRANCH  29  30
ATOM     30  C   UNL     1       2.682   6.058   9.290  1.00  0.00     0.261 C 
BRANCH  30  31
ATOM     31  O   UNL     1       3.421   7.167   9.859  1.00  0.00    -0.460 OA
BRANCH  31  32
ATOM     32  C   UNL     1       2.714   8.099  10.571  1.00  0.00     0.338 C 
ATOM     33  O   UNL     1       2.445   7.984  11.754  1.00  0.00    -0.246 OA
BRANCH  32  34
ATOM     34  C   UNL     1       2.433   9.311   9.745  1.00  0.00     0.060 A 
ATOM     35  C   UNL     1       1.404  10.222  10.064  1.00  0.00     0.016 A 
ATOM     36  C   UNL     1       3.098   9.426   8.533  1.00  0.00     0.016 A 
ATOM     37  C   UNL     1       0.956  11.159   9.109  1.00  0.00     0.010 A 
ATOM     38  C   UNL     1       2.565  10.241   7.561  1.00  0.00     0.010 A 
ATOM     39  C   UNL     1       1.494  11.114   7.825  1.00  0.00    -0.014 A 
BRANCH  39  40
ATOM     40  C   UNL     1       1.048  11.855   6.636  1.00  0.00     0.031 A 
ATOM     41  C   UNL     1       2.046  12.747   6.003  1.00  0.00     0.074 A 
ATOM     42  C   UNL     1      -0.065  11.497   5.946  1.00  0.00     0.049 A 
ATOM     43  N   UNL     1       1.782  13.568   5.053  1.00  0.00    -0.248 NA
ATOM     44  C   UNL     1       3.447  12.812   6.417  1.00  0.00     0.031 C 
ATOM     45  C   UNL     1      -0.323  11.618   4.507  1.00  0.00     0.029 A 
ATOM     46  N   UNL     1      -1.221  10.871   6.406  1.00  0.00    -0.354 N 
ATOM     47  C   UNL     1       2.978  13.978   4.507  1.00  0.00     0.074 A 
ATOM     48  C   UNL     1       3.978  13.567   5.455  1.00  0.00     0.031 C 
ATOM     49  C   UNL     1      -1.608  11.312   4.244  1.00  0.00     0.029 A 
ATOM     50  C   UNL     1      -2.275  11.091   5.517  1.00  0.00     0.049 A 
ATOM     51  H   UNL     1      -1.285  10.349   7.237  1.00  0.00     0.167 HD
ATOM     52  C   UNL     1       2.970  14.483   3.240  1.00  0.00     0.037 A 
ATOM     53  C   UNL     1      -3.418  11.659   5.984  1.00  0.00     0.037 A 
ATOM     54  C   UNL     1       1.588  14.496   2.722  1.00  0.00     0.049 A 
ATOM     55  C   UNL     1      -3.467  13.045   5.407  1.00  0.00     0.074 A 
ATOM     56  C   UNL     1       0.906  13.682   1.831  1.00  0.00     0.029 A 
ATOM     57  N   UNL     1       0.605  15.207   3.416  1.00  0.00    -0.354 N 
ATOM     58  N   UNL     1      -2.396  13.666   4.983  1.00  0.00    -0.248 NA
ATOM     59  C   UNL     1      -4.693  13.764   5.089  1.00  0.00     0.031 C 
ATOM     60  C   UNL     1      -0.493  13.885   2.026  1.00  0.00     0.029 A 
ATOM     61  C   UNL     1      -0.669  14.826   3.032  1.00  0.00     0.049 A 
ATOM     62  H   UNL     1       0.795  15.894   4.095  1.00  0.00     0.167 HD
ATOM     63  C   UNL     1      -2.756  14.753   4.251  1.00  0.00     0.074 A 
ATOM     64  C   UNL     1      -4.204  14.800   4.383  1.00  0.00     0.031 C 
ATOM     65  C   UNL     1      -1.850  15.509   3.564  1.00  0.00     0.037 A 
BRANCH  52  66
ATOM     66  C   UNL     1       4.212  14.714   2.388  1.00  0.00     0.058 A 
ATOM     67  C   UNL     1       4.115  14.797   0.981  1.00  0.00     0.135 A 
ATOM     68  C   UNL     1       5.530  14.863   2.877  1.00  0.00     0.135 A 
ATOM     69  F   UNL     1       2.931  14.742   0.357  1.00  0.00    -0.206 F 
ATOM     70  C   UNL     1       5.223  14.955   0.140  1.00  0.00     0.059 A 
ATOM     71  C   UNL     1       6.660  14.964   2.057  1.00  0.00     0.059 A 
ATOM     72  F   UNL     1       5.792  15.005   4.180  1.00  0.00    -0.206 F 
ATOM     73  C   UNL     1       6.497  15.023   0.685  1.00  0.00     0.060 A 
BRANCH  73  74
ATOM     74  S   UNL     1       7.912  15.268  -0.404  1.00  0.00     0.124 S 
ATOM     75  O   UNL     1       7.800  14.134  -1.317  1.00  0.00    -0.237 OA
ATOM     76  O   UNL     1       7.628  16.578  -0.981  1.00  0.00    -0.237 OA
ATOM     77  O   UNL     1       9.056  15.222   0.503  1.00  0.00    -0.744 OA
ENDBRANCH  73  74
ENDBRANCH  52  66
BRANCH  53  78
ATOM     78  C   UNL     1      -3.793  11.129   7.344  1.00  0.00     0.058 A 
ATOM     79  C   UNL     1      -4.360   9.831   7.383  1.00  0.00     0.135 A 
ATOM     80  C   UNL     1      -3.143  11.553   8.517  1.00  0.00     0.135 A 
ATOM     81  F   UNL     1      -4.978   9.343   6.293  1.00  0.00    -0.206 F 
ATOM     82  C   UNL     1      -4.169   8.951   8.456  1.00  0.00     0.059 A 
ATOM     83  C   UNL     1      -2.916  10.676   9.595  1.00  0.00     0.059 A 
ATOM     84  F   UNL     1      -2.559  12.759   8.562  1.00  0.00    -0.206 F 
ATOM     85  C   UNL     1      -3.393   9.362   9.538  1.00  0.00     0.060 A 
BRANCH  85  86
ATOM     86  S   UNL     1      -2.709   8.086  10.659  1.00  0.00     0.124 S 
ATOM     87  O   UNL     1      -3.764   7.947  11.652  1.00  0.00    -0.237 OA
ATOM     88  O   UNL     1      -2.525   6.937   9.772  1.00  0.00    -0.237 OA
ATOM     89  O   UNL     1      -1.464   8.693  11.114  1.00  0.00    -0.744 OA
ENDBRANCH  85  86
ENDBRANCH  53  78
BRANCH  65  90
ATOM     90  C   UNL     1      -2.050  16.974   3.272  1.00  0.00     0.058 A 
ATOM     91  C   UNL     1      -2.999  17.771   3.934  1.00  0.00     0.135 A 
ATOM     92  C   UNL     1      -1.146  17.675   2.434  1.00  0.00     0.135 A 
ATOM     93  F   UNL     1      -3.825  17.274   4.865  1.00  0.00    -0.206 F 
ATOM     94  C   UNL     1      -3.112  19.136   3.709  1.00  0.00     0.059 A 
ATOM     95  C   UNL     1      -1.184  19.052   2.268  1.00  0.00     0.059 A 
ATOM     96  F   UNL     1      -0.168  17.055   1.759  1.00  0.00    -0.206 F 
ATOM     97  C   UNL     1      -2.199  19.768   2.877  1.00  0.00     0.060 A 
BRANCH  97  98
ATOM     98  S   UNL     1      -2.343  21.537   2.625  1.00  0.00     0.124 S 
ATOM     99  O   UNL     1      -3.443  21.597   1.666  1.00  0.00    -0.237 OA
ATOM    100  O   UNL     1      -2.648  22.022   3.968  1.00  0.00    -0.237 OA
ATOM    101  O   UNL     1      -1.032  21.916   2.109  1.00  0.00    -0.744 OA
ENDBRANCH  97  98
ENDBRANCH  65  90
ENDBRANCH  39  40
ENDBRANCH  32  34
ENDBRANCH  31  32
ENDBRANCH  30  31
ENDBRANCH  29  30
ENDBRANCH  28  29
ENDBRANCH  27  28
ENDBRANCH   1  27
TORSDOF 20
