REMARK SMILES COC(=O)c1ccc([C@H]([NH3+])CC(=O)OCCOCCOC(=O)c2ccc(-c3c4nc(c(-c5c(F)cc(S(=O)(=O)[O-])cc5F)c5ccc([nH]5)c(-c5c(F)cc(S(=O)(=O)[O-])cc5F)c5nc(c(-c6c(F)cc(S(=O)(=O)[O-])cc6F)c6ccc3[nH]6)C=C5)C=C4)cc2)cc1
REMARK SMILES IDX 16 1 15 2 14 3 12 4 13 5 11 6 9 7 8 8 5 9 6 10 90 11 7 12
REMARK SMILES IDX 89 13 3 14 4 15 2 16 1 17 10 18 17 22 18 23 19 24 20 25
REMARK SMILES IDX 21 26 22 27 23 28 24 29 88 30 25 31 87 32 26 33 27 34 28 35
REMARK SMILES IDX 81 36 29 37 86 38 80 39 82 40 30 41 85 42 79 43 78 44 31 46
REMARK SMILES IDX 65 47 44 48 64 49 45 50 48 51 63 52 83 53 46 54 47 55 62 57
REMARK SMILES IDX 84 58 49 59 32 60 33 61 42 62 34 63 35 64 41 65 43 66 36 67
REMARK SMILES IDX 37 68 38 69 39 70 40 71 66 72 67 73 76 74 68 75 69 76 75 77
REMARK SMILES IDX 77 78 70 79 71 80 72 81 73 82 74 83 50 84 51 85 60 86 52 87
REMARK SMILES IDX 53 88 59 89 61 90 54 91 55 92 56 93 57 94 58 95
REMARK H PARENT 10 19 10 20 10 21 82 45 48 56
REMARK Flexibility Score: inf
ROOT
ATOM      1  C   UNL     1      -1.154  -5.993  -3.723  1.00  0.00     0.202 C 
ENDROOT
BRANCH   1   2
ATOM      2  C   UNL     1       0.236  -5.665  -4.272  1.00  0.00     0.261 C 
BRANCH   2   3
ATOM      3  O   UNL     1       0.216  -4.609  -5.249  1.00  0.00    -0.463 OA
BRANCH   3   4
ATOM      4  C   UNL     1       0.412  -5.018  -6.528  1.00  0.00     0.312 C 
ATOM      5  O   UNL     1       0.613  -6.176  -6.877  1.00  0.00    -0.252 OA
BRANCH   4   6
ATOM      6  C   UNL     1       0.435  -3.882  -7.513  1.00  0.00     0.192 C 
BRANCH   6   7
ATOM      7  C   UNL     1      -0.637  -2.782  -7.398  1.00  0.00     0.223 C 
BRANCH   7   8
ATOM      8  C   UNL     1      -0.755  -1.945  -8.678  1.00  0.00     0.010 A 
ATOM      9  C   UNL     1      -1.062  -0.460 -11.061  1.00  0.00     0.060 A 
ATOM     10  C   UNL     1      -1.984  -0.312 -10.022  1.00  0.00     0.016 A 
ATOM     11  C   UNL     1       0.032  -1.312 -10.896  1.00  0.00     0.016 A 
ATOM     12  C   UNL     1      -1.836  -1.057  -8.843  1.00  0.00     0.011 A 
ATOM     13  C   UNL     1       0.187  -2.033  -9.715  1.00  0.00     0.011 A 
BRANCH   9  14
ATOM     14  C   UNL     1      -1.239   0.291 -12.326  1.00  0.00     0.337 C 
ATOM     15  O   UNL     1      -1.835   1.353 -12.425  1.00  0.00    -0.246 OA
BRANCH  14  16
ATOM     16  O   UNL     1      -0.668  -0.411 -13.336  1.00  0.00    -0.465 OA
ATOM     17  C   UNL     1      -0.746   0.197 -14.623  1.00  0.00     0.282 C 
ENDBRANCH  14  16
ENDBRANCH   9  14
ENDBRANCH   7   8
BRANCH   7  18
ATOM     18  N   UNL     1      -0.413  -1.886  -6.262  1.00  0.00    -0.351 N 
ATOM     19  H   UNL     1       0.460  -1.376  -6.399  1.00  0.00     0.345 HD
ATOM     20  H   UNL     1      -0.356  -2.434  -5.404  1.00  0.00     0.345 HD
ATOM     21  H   UNL     1      -1.186  -1.225  -6.193  1.00  0.00     0.345 HD
ENDBRANCH   7  18
ENDBRANCH   6   7
ENDBRANCH   4   6
ENDBRANCH   3   4
ENDBRANCH   2   3
ENDBRANCH   1   2
BRANCH   1  22
ATOM     22  O   UNL     1      -2.147  -6.447  -4.638  1.00  0.00    -0.374 OA
BRANCH  22  23
ATOM     23  C   UNL     1      -2.731  -5.502  -5.530  1.00  0.00     0.202 C 
BRANCH  23  24
ATOM     24  C   UNL     1      -3.676  -4.439  -4.955  1.00  0.00     0.261 C 
BRANCH  24  25
ATOM     25  O   UNL     1      -3.037  -3.564  -4.009  1.00  0.00    -0.460 OA
BRANCH  25  26
ATOM     26  C   UNL     1      -3.443  -3.752  -2.728  1.00  0.00     0.338 C 
ATOM     27  O   UNL     1      -4.295  -4.534  -2.338  1.00  0.00    -0.246 OA
BRANCH  26  28
ATOM     28  C   UNL     1      -2.571  -3.021  -1.790  1.00  0.00     0.060 A 
ATOM     29  C   UNL     1      -2.014  -3.762  -0.740  1.00  0.00     0.016 A 
ATOM     30  C   UNL     1      -2.404  -1.637  -1.851  1.00  0.00     0.016 A 
ATOM     31  C   UNL     1      -1.370  -3.111   0.306  1.00  0.00     0.010 A 
ATOM     32  C   UNL     1      -1.755  -0.983  -0.796  1.00  0.00     0.010 A 
ATOM     33  C   UNL     1      -1.292  -1.712   0.316  1.00  0.00    -0.014 A 
BRANCH  33  34
ATOM     34  C   UNL     1      -0.900  -1.037   1.579  1.00  0.00     0.031 A 
ATOM     35  C   UNL     1      -1.973  -0.419   2.440  1.00  0.00     0.074 A 
ATOM     36  C   UNL     1       0.377  -1.061   2.003  1.00  0.00     0.049 A 
ATOM     37  N   UNL     1      -1.868   0.163   3.607  1.00  0.00    -0.248 NA
ATOM     38  C   UNL     1      -3.348  -0.466   1.917  1.00  0.00     0.031 C 
ATOM     39  C   UNL     1       1.495  -1.662   1.277  1.00  0.00     0.029 A 
ATOM     40  N   UNL     1       0.944  -0.577   3.155  1.00  0.00    -0.354 N 
ATOM     41  C   UNL     1      -3.157   0.555   3.954  1.00  0.00     0.074 A 
ATOM     42  C   UNL     1      -4.021   0.183   2.855  1.00  0.00     0.031 C 
ATOM     43  C   UNL     1       2.615  -1.517   2.005  1.00  0.00     0.029 A 
ATOM     44  C   UNL     1       2.300  -0.789   3.233  1.00  0.00     0.049 A 
ATOM     45  H   UNL     1       0.429  -0.121   3.859  1.00  0.00     0.167 HD
ATOM     46  C   UNL     1      -3.585   1.156   5.091  1.00  0.00     0.037 A 
ATOM     47  C   UNL     1       3.186  -0.428   4.182  1.00  0.00     0.037 A 
ATOM     48  C   UNL     1      -2.721   1.518   6.185  1.00  0.00     0.049 A 
ATOM     49  C   UNL     1       2.693   0.285   5.415  1.00  0.00     0.074 A 
ATOM     50  C   UNL     1      -3.058   2.116   7.387  1.00  0.00     0.029 A 
ATOM     51  N   UNL     1      -1.347   1.321   6.210  1.00  0.00    -0.354 N 
ATOM     52  N   UNL     1       1.468   0.630   5.738  1.00  0.00    -0.248 NA
ATOM     53  C   UNL     1       3.703   0.645   6.419  1.00  0.00     0.031 C 
ATOM     54  C   UNL     1      -1.882   2.333   8.113  1.00  0.00     0.029 A 
ATOM     55  C   UNL     1      -0.819   1.808   7.395  1.00  0.00     0.049 A 
ATOM     56  H   UNL     1      -0.825   0.897   5.491  1.00  0.00     0.167 HD
ATOM     57  C   UNL     1       1.557   1.218   6.997  1.00  0.00     0.074 A 
ATOM     58  C   UNL     1       2.953   1.165   7.381  1.00  0.00     0.031 C 
ATOM     59  C   UNL     1       0.574   1.750   7.766  1.00  0.00     0.037 A 
BRANCH  46  60
ATOM     60  C   UNL     1      -5.051   1.484   5.199  1.00  0.00     0.058 A 
ATOM     61  C   UNL     1      -6.030   0.487   5.337  1.00  0.00     0.135 A 
ATOM     62  C   UNL     1      -5.481   2.822   5.196  1.00  0.00     0.135 A 
ATOM     63  F   UNL     1      -5.681  -0.810   5.328  1.00  0.00    -0.206 F 
ATOM     64  C   UNL     1      -7.383   0.801   5.440  1.00  0.00     0.059 A 
ATOM     65  C   UNL     1      -6.824   3.161   5.330  1.00  0.00     0.059 A 
ATOM     66  F   UNL     1      -4.590   3.818   5.064  1.00  0.00    -0.206 F 
ATOM     67  C   UNL     1      -7.769   2.143   5.438  1.00  0.00     0.060 A 
BRANCH  67  68
ATOM     68  S   UNL     1      -9.526   2.534   5.581  1.00  0.00     0.124 S 
ATOM     69  O   UNL     1     -10.028   2.105   4.279  1.00  0.00    -0.237 OA
ATOM     70  O   UNL     1      -9.935   1.717   6.719  1.00  0.00    -0.237 OA
ATOM     71  O   UNL     1      -9.536   3.976   5.812  1.00  0.00    -0.744 OA
ENDBRANCH  67  68
ENDBRANCH  46  60
BRANCH  47  72
ATOM     72  C   UNL     1       4.631  -0.736   4.005  1.00  0.00     0.058 A 
ATOM     73  C   UNL     1       5.288  -1.661   4.830  1.00  0.00     0.135 A 
ATOM     74  C   UNL     1       5.386  -0.102   3.005  1.00  0.00     0.135 A 
ATOM     75  F   UNL     1       4.613  -2.286   5.807  1.00  0.00    -0.206 F 
ATOM     76  C   UNL     1       6.644  -1.935   4.683  1.00  0.00     0.059 A 
ATOM     77  C   UNL     1       6.736  -0.383   2.818  1.00  0.00     0.059 A 
ATOM     78  F   UNL     1       4.804   0.783   2.181  1.00  0.00    -0.206 F 
ATOM     79  C   UNL     1       7.359  -1.293   3.670  1.00  0.00     0.060 A 
BRANCH  79  80
ATOM     80  S   UNL     1       9.106  -1.693   3.455  1.00  0.00     0.124 S 
ATOM     81  O   UNL     1       9.700  -1.056   4.625  1.00  0.00    -0.237 OA
ATOM     82  O   UNL     1       9.087  -3.153   3.462  1.00  0.00    -0.237 OA
ATOM     83  O   UNL     1       9.434  -1.085   2.169  1.00  0.00    -0.744 OA
ENDBRANCH  79  80
ENDBRANCH  47  72
BRANCH  59  84
ATOM     84  C   UNL     1       0.967   2.278   9.122  1.00  0.00     0.058 A 
ATOM     85  C   UNL     1       1.755   3.430   9.275  1.00  0.00     0.135 A 
ATOM     86  C   UNL     1       0.535   1.625  10.289  1.00  0.00     0.135 A 
ATOM     87  F   UNL     1       2.197   4.094   8.195  1.00  0.00    -0.206 F 
ATOM     88  C   UNL     1       2.144   3.885  10.531  1.00  0.00     0.059 A 
ATOM     89  C   UNL     1       0.880   2.084  11.556  1.00  0.00     0.059 A 
ATOM     90  F   UNL     1      -0.236   0.529  10.206  1.00  0.00    -0.206 F 
ATOM     91  C   UNL     1       1.705   3.201  11.666  1.00  0.00     0.060 A 
BRANCH  91  92
ATOM     92  S   UNL     1       2.225   3.795  13.290  1.00  0.00     0.124 S 
ATOM     93  O   UNL     1       3.628   3.393  13.313  1.00  0.00    -0.237 OA
ATOM     94  O   UNL     1       1.978   5.230  13.192  1.00  0.00    -0.237 OA
ATOM     95  O   UNL     1       1.351   3.075  14.212  1.00  0.00    -0.744 OA
ENDBRANCH  91  92
ENDBRANCH  59  84
ENDBRANCH  33  34
ENDBRANCH  26  28
ENDBRANCH  25  26
ENDBRANCH  24  25
ENDBRANCH  23  24
ENDBRANCH  22  23
ENDBRANCH   1  22
TORSDOF 22
