REMARK SMILES O=C(OCCOCCOC(=O)[C@H](O)Cc1ccc(O)cc1)c1ccc(-c2c3nc(c(-c4c(F)cc(S(=O)(=O)[O-])cc4F)c4ccc([nH]4)c(-c4c(F)cc(S(=O)(=O)[O-])cc4F)c4nc(c(-c5c(F)cc(S(=O)(=O)[O-])cc5F)c5ccc2[nH]5)C=C4)C=C3)cc1
REMARK SMILES IDX 6 1 5 2 4 3 3 4 2 5 1 6 22 7 23 8 87 9 24 10 86 11 25 12
REMARK SMILES IDX 26 13 27 14 80 15 28 16 85 17 79 18 81 19 29 20 84 21 78 22
REMARK SMILES IDX 77 23 30 25 64 26 43 27 63 28 44 29 47 30 62 31 82 32 45 33
REMARK SMILES IDX 46 34 61 36 83 37 48 38 31 39 32 40 41 41 33 42 34 43 40 44
REMARK SMILES IDX 42 45 35 46 36 47 37 48 38 49 39 50 65 51 66 52 75 53 67 54
REMARK SMILES IDX 68 55 74 56 76 57 69 58 70 59 71 60 72 61 73 62 49 63 50 64
REMARK SMILES IDX 59 65 51 66 52 67 58 68 60 69 53 70 54 71 55 72 56 73 57 74
REMARK SMILES IDX 7 75 8 76 9 77 10 78 11 79 12 80 14 81 15 82 16 83 21 84
REMARK SMILES IDX 17 85 20 86 18 87 19 88 13 90
REMARK H PARENT 81 24 47 35 19 89 13 91
REMARK Flexibility Score: inf
ROOT
ATOM      1  O   UNL     1       2.929   0.044  -3.801  1.00  0.00    -0.374 OA
ENDROOT
BRANCH   1   2
ATOM      2  C   UNL     1       2.674   1.358  -3.311  1.00  0.00     0.202 C 
BRANCH   2   3
ATOM      3  C   UNL     1       1.322   1.603  -2.634  1.00  0.00     0.261 C 
BRANCH   3   4
ATOM      4  O   UNL     1       1.071   0.644  -1.585  1.00  0.00    -0.460 OA
BRANCH   4   5
ATOM      5  C   UNL     1       0.036  -0.241  -1.563  1.00  0.00     0.338 C 
ATOM      6  O   UNL     1      -0.267  -0.837  -0.537  1.00  0.00    -0.246 OA
BRANCH   5   7
ATOM      7  C   UNL     1      -0.737  -0.463  -2.805  1.00  0.00     0.060 A 
ATOM      8  C   UNL     1      -0.079  -0.610  -4.020  1.00  0.00     0.016 A 
ATOM      9  C   UNL     1      -2.130  -0.517  -2.775  1.00  0.00     0.016 A 
ATOM     10  C   UNL     1      -0.768  -0.555  -5.209  1.00  0.00     0.010 A 
ATOM     11  C   UNL     1      -2.839  -0.644  -3.976  1.00  0.00     0.010 A 
ATOM     12  C   UNL     1      -2.157  -0.622  -5.204  1.00  0.00    -0.014 A 
BRANCH  12  13
ATOM     13  C   UNL     1      -2.845  -0.639  -6.513  1.00  0.00     0.031 A 
ATOM     14  C   UNL     1      -3.792   0.471  -6.854  1.00  0.00     0.074 A 
ATOM     15  C   UNL     1      -2.515  -1.586  -7.416  1.00  0.00     0.049 A 
ATOM     16  N   UNL     1      -4.595   0.581  -7.875  1.00  0.00    -0.248 NA
ATOM     17  C   UNL     1      -3.849   1.607  -5.917  1.00  0.00     0.031 C 
ATOM     18  C   UNL     1      -1.513  -2.641  -7.210  1.00  0.00     0.029 A 
ATOM     19  N   UNL     1      -2.941  -1.794  -8.699  1.00  0.00    -0.354 N 
ATOM     20  C   UNL     1      -5.303   1.759  -7.670  1.00  0.00     0.074 A 
ATOM     21  C   UNL     1      -4.826   2.337  -6.435  1.00  0.00     0.031 C 
ATOM     22  C   UNL     1      -1.346  -3.327  -8.349  1.00  0.00     0.029 A 
ATOM     23  C   UNL     1      -2.323  -2.857  -9.318  1.00  0.00     0.049 A 
ATOM     24  H   UNL     1      -3.624  -1.237  -9.138  1.00  0.00     0.167 HD
ATOM     25  C   UNL     1      -6.277   2.287  -8.448  1.00  0.00     0.037 A 
ATOM     26  C   UNL     1      -2.564  -3.426 -10.513  1.00  0.00     0.037 A 
ATOM     27  C   UNL     1      -6.694   1.688  -9.688  1.00  0.00     0.049 A 
ATOM     28  C   UNL     1      -3.689  -2.858 -11.328  1.00  0.00     0.074 A 
ATOM     29  C   UNL     1      -7.710   2.075 -10.541  1.00  0.00     0.029 A 
ATOM     30  N   UNL     1      -6.093   0.570 -10.257  1.00  0.00    -0.354 N 
ATOM     31  N   UNL     1      -4.443  -1.814 -11.070  1.00  0.00    -0.248 NA
ATOM     32  C   UNL     1      -4.027  -3.559 -12.570  1.00  0.00     0.031 C 
ATOM     33  C   UNL     1      -7.744   1.170 -11.609  1.00  0.00     0.029 A 
ATOM     34  C   UNL     1      -6.719   0.248 -11.446  1.00  0.00     0.049 A 
ATOM     35  H   UNL     1      -5.333   0.080  -9.869  1.00  0.00     0.167 HD
ATOM     36  C   UNL     1      -5.342  -1.725 -12.122  1.00  0.00     0.074 A 
ATOM     37  C   UNL     1      -5.020  -2.811 -13.031  1.00  0.00     0.031 C 
ATOM     38  C   UNL     1      -6.349  -0.839 -12.320  1.00  0.00     0.037 A 
BRANCH  25  39
ATOM     39  C   UNL     1      -6.989   3.504  -7.926  1.00  0.00     0.058 A 
ATOM     40  C   UNL     1      -6.378   4.766  -7.866  1.00  0.00     0.135 A 
ATOM     41  C   UNL     1      -8.298   3.390  -7.427  1.00  0.00     0.135 A 
ATOM     42  F   UNL     1      -5.118   4.928  -8.300  1.00  0.00    -0.206 F 
ATOM     43  C   UNL     1      -7.022   5.861  -7.293  1.00  0.00     0.059 A 
ATOM     44  C   UNL     1      -8.970   4.476  -6.872  1.00  0.00     0.059 A 
ATOM     45  F   UNL     1      -8.928   2.205  -7.449  1.00  0.00    -0.206 F 
ATOM     46  C   UNL     1      -8.315   5.702  -6.790  1.00  0.00     0.060 A 
BRANCH  46  47
ATOM     47  S   UNL     1      -9.121   7.116  -6.007  1.00  0.00     0.124 S 
ATOM     48  O   UNL     1      -8.404   7.193  -4.737  1.00  0.00    -0.237 OA
ATOM     49  O   UNL     1      -8.850   8.194  -6.952  1.00  0.00    -0.237 OA
ATOM     50  O   UNL     1     -10.518   6.703  -5.915  1.00  0.00    -0.744 OA
ENDBRANCH  46  47
ENDBRANCH  25  39
BRANCH  26  51
ATOM     51  C   UNL     1      -1.790  -4.620 -10.955  1.00  0.00     0.058 A 
ATOM     52  C   UNL     1      -0.950  -4.568 -12.077  1.00  0.00     0.135 A 
ATOM     53  C   UNL     1      -1.859  -5.836 -10.254  1.00  0.00     0.135 A 
ATOM     54  F   UNL     1      -0.849  -3.434 -12.787  1.00  0.00    -0.206 F 
ATOM     55  C   UNL     1      -0.219  -5.678 -12.495  1.00  0.00     0.059 A 
ATOM     56  C   UNL     1      -1.114  -6.949 -10.632  1.00  0.00     0.059 A 
ATOM     57  F   UNL     1      -2.636  -5.943  -9.164  1.00  0.00    -0.206 F 
ATOM     58  C   UNL     1      -0.307  -6.864 -11.764  1.00  0.00     0.060 A 
BRANCH  58  59
ATOM     59  S   UNL     1       0.667  -8.290 -12.293  1.00  0.00     0.124 S 
ATOM     60  O   UNL     1      -0.070  -8.727 -13.473  1.00  0.00    -0.237 OA
ATOM     61  O   UNL     1       1.976  -7.695 -12.542  1.00  0.00    -0.237 OA
ATOM     62  O   UNL     1       0.604  -9.186 -11.142  1.00  0.00    -0.744 OA
ENDBRANCH  58  59
ENDBRANCH  26  51
BRANCH  38  63
ATOM     63  C   UNL     1      -7.135  -0.994 -13.587  1.00  0.00     0.058 A 
ATOM     64  C   UNL     1      -8.079  -2.019 -13.745  1.00  0.00     0.135 A 
ATOM     65  C   UNL     1      -6.968  -0.075 -14.634  1.00  0.00     0.135 A 
ATOM     66  F   UNL     1      -8.262  -2.927 -12.774  1.00  0.00    -0.206 F 
ATOM     67  C   UNL     1      -8.820  -2.140 -14.913  1.00  0.00     0.059 A 
ATOM     68  C   UNL     1      -7.718  -0.162 -15.799  1.00  0.00     0.059 A 
ATOM     69  F   UNL     1      -6.080   0.925 -14.521  1.00  0.00    -0.206 F 
ATOM     70  C   UNL     1      -8.634  -1.204 -15.933  1.00  0.00     0.060 A 
BRANCH  70  71
ATOM     71  S   UNL     1      -9.632  -1.346 -17.429  1.00  0.00     0.124 S 
ATOM     72  O   UNL     1      -8.979  -2.458 -18.112  1.00  0.00    -0.237 OA
ATOM     73  O   UNL     1     -10.961  -1.621 -16.894  1.00  0.00    -0.237 OA
ATOM     74  O   UNL     1      -9.477  -0.040 -18.063  1.00  0.00    -0.744 OA
ENDBRANCH  70  71
ENDBRANCH  38  63
ENDBRANCH  12  13
ENDBRANCH   5   7
ENDBRANCH   4   5
ENDBRANCH   3   4
ENDBRANCH   2   3
ENDBRANCH   1   2
BRANCH   1  75
ATOM     75  C   UNL     1       3.297  -0.931  -2.814  1.00  0.00     0.202 C 
BRANCH  75  76
ATOM     76  C   UNL     1       4.646  -1.544  -3.182  1.00  0.00     0.261 C 
BRANCH  76  77
ATOM     77  O   UNL     1       5.636  -0.513  -3.037  1.00  0.00    -0.461 OA
BRANCH  77  78
ATOM     78  C   UNL     1       5.906   0.203  -4.164  1.00  0.00     0.335 C 
ATOM     79  O   UNL     1       5.710  -0.180  -5.311  1.00  0.00    -0.249 OA
BRANCH  78  80
ATOM     80  C   UNL     1       6.441   1.599  -3.801  1.00  0.00     0.228 C 
BRANCH  80  81
ATOM     81  C   UNL     1       5.778   2.626  -4.749  1.00  0.00     0.079 C 
BRANCH  81  82
ATOM     82  C   UNL     1       5.794   4.080  -4.329  1.00  0.00    -0.045 A 
ATOM     83  C   UNL     1       6.841   4.624  -3.574  1.00  0.00     0.007 A 
ATOM     84  C   UNL     1       4.750   4.927  -4.739  1.00  0.00     0.007 A 
ATOM     85  C   UNL     1       6.833   5.971  -3.208  1.00  0.00     0.046 A 
ATOM     86  C   UNL     1       4.745   6.276  -4.381  1.00  0.00     0.046 A 
ATOM     87  C   UNL     1       5.787   6.788  -3.619  1.00  0.00     0.115 A 
BRANCH  87  88
ATOM     88  O   UNL     1       5.754   8.111  -3.296  1.00  0.00    -0.508 OA
ATOM     89  H   UNL     1       6.443   8.486  -2.783  1.00  0.00     0.293 HD
ENDBRANCH  87  88
ENDBRANCH  81  82
ENDBRANCH  80  81
BRANCH  80  90
ATOM     90  O   UNL     1       6.245   1.942  -2.425  1.00  0.00    -0.381 OA
ATOM     91  H   UNL     1       5.295   1.959  -2.228  1.00  0.00     0.211 HD
ENDBRANCH  80  90
ENDBRANCH  78  80
ENDBRANCH  77  78
ENDBRANCH  76  77
ENDBRANCH  75  76
ENDBRANCH   1  75
TORSDOF 21
