REMARK SMILES O=C(C[NH+]1CC2(CCCC2)C1)OCCOCCOC(=O)c1ccc(-c2c3nc(c(-c4c(F)cc(S(=O)(=O)[O-])cc4F)c4ccc([nH]4)c(-c4c(F)cc(S(=O)(=O)[O-])cc4F)c4nc(c(-c5c(F)cc(S(=O)(=O)[O-])cc5F)c5ccc2[nH]5)C=C4)C=C3)cc1
REMARK SMILES IDX 16 1 15 2 14 3 13 4 12 5 2 6 1 7 3 8 4 9 5 10 11 11 6 13
REMARK SMILES IDX 7 14 10 15 8 16 9 17 17 18 18 19 19 20 20 21 21 22 22 23
REMARK SMILES IDX 86 24 23 25 85 26 24 27 25 28 26 29 79 30 27 31 84 32 78 33
REMARK SMILES IDX 80 34 28 35 83 36 77 37 76 38 29 40 63 41 42 42 62 43 43 44
REMARK SMILES IDX 46 45 61 46 81 47 44 48 45 49 60 51 82 52 47 53 30 54 31 55
REMARK SMILES IDX 40 56 32 57 33 58 39 59 41 60 34 61 35 62 36 63 37 64 38 65
REMARK SMILES IDX 64 66 65 67 74 68 66 69 67 70 73 71 75 72 68 73 69 74 70 75
REMARK SMILES IDX 71 76 72 77 48 78 49 79 58 80 50 81 51 82 57 83 59 84 52 85
REMARK SMILES IDX 53 86 54 87 55 88 56 89
REMARK H PARENT 4 12 80 39 46 50
REMARK Flexibility Score: inf
ROOT
ATOM      1  C   UNL     1       3.200  -2.209  -1.061  1.00  0.00     0.202 C 
ENDROOT
BRANCH   1   2
ATOM      2  O   UNL     1       4.513  -1.642  -0.965  1.00  0.00    -0.374 OA
BRANCH   2   3
ATOM      3  C   UNL     1       4.996  -1.338   0.349  1.00  0.00     0.202 C 
BRANCH   3   4
ATOM      4  C   UNL     1       4.803   0.096   0.848  1.00  0.00     0.261 C 
BRANCH   4   5
ATOM      5  O   UNL     1       3.416   0.356   1.108  1.00  0.00    -0.459 OA
BRANCH   5   6
ATOM      6  C   UNL     1       2.576   0.671   0.100  1.00  0.00     0.361 C 
ATOM      7  O   UNL     1       1.357   0.609   0.266  1.00  0.00    -0.245 OA
BRANCH   6   8
ATOM      8  C   UNL     1       3.172   1.106  -1.228  1.00  0.00     0.386 C 
BRANCH   8   9
ATOM      9  N   UNL     1       3.592   2.518  -1.254  1.00  0.00    -0.324 N 
ATOM     10  C   UNL     1       2.636   3.449  -0.611  1.00  0.00     0.275 C 
ATOM     11  C   UNL     1       3.223   3.092  -2.572  1.00  0.00     0.275 C 
ATOM     12  H   UNL     1       4.548   2.472  -0.901  1.00  0.00     0.348 HD
ATOM     13  C   UNL     1       1.879   3.591  -1.956  1.00  0.00     0.068 C 
ATOM     14  C   UNL     1       0.621   2.718  -2.100  1.00  0.00     0.019 C 
ATOM     15  C   UNL     1       1.482   5.011  -2.366  1.00  0.00     0.019 C 
ATOM     16  C   UNL     1      -0.300   3.535  -2.985  1.00  0.00     0.001 C 
ATOM     17  C   UNL     1      -0.035   4.954  -2.521  1.00  0.00     0.001 C 
ENDBRANCH   8   9
ENDBRANCH   6   8
ENDBRANCH   5   6
ENDBRANCH   4   5
ENDBRANCH   3   4
ENDBRANCH   2   3
ENDBRANCH   1   2
BRANCH   1  18
ATOM     18  C   UNL     1       3.079  -3.721  -0.846  1.00  0.00     0.261 C 
BRANCH  18  19
ATOM     19  O   UNL     1       3.428  -4.080   0.495  1.00  0.00    -0.460 OA
BRANCH  19  20
ATOM     20  C   UNL     1       4.718  -4.458   0.651  1.00  0.00     0.338 C 
ATOM     21  O   UNL     1       5.535  -4.670  -0.233  1.00  0.00    -0.246 OA
BRANCH  20  22
ATOM     22  C   UNL     1       5.080  -4.325   2.075  1.00  0.00     0.060 A 
ATOM     23  C   UNL     1       6.308  -3.716   2.371  1.00  0.00     0.016 A 
ATOM     24  C   UNL     1       4.231  -4.756   3.096  1.00  0.00     0.016 A 
ATOM     25  C   UNL     1       6.723  -3.595   3.688  1.00  0.00     0.010 A 
ATOM     26  C   UNL     1       4.658  -4.657   4.420  1.00  0.00     0.010 A 
ATOM     27  C   UNL     1       5.926  -4.125   4.709  1.00  0.00    -0.014 A 
BRANCH  27  28
ATOM     28  C   UNL     1       6.538  -4.349   6.033  1.00  0.00     0.031 A 
ATOM     29  C   UNL     1       7.065  -5.726   6.333  1.00  0.00     0.074 A 
ATOM     30  C   UNL     1       6.675  -3.341   6.910  1.00  0.00     0.049 A 
ATOM     31  N   UNL     1       7.621  -6.183   7.422  1.00  0.00    -0.248 NA
ATOM     32  C   UNL     1       6.945  -6.724   5.254  1.00  0.00     0.031 C 
ATOM     33  C   UNL     1       6.237  -1.963   6.689  1.00  0.00     0.029 A 
ATOM     34  N   UNL     1       7.220  -3.327   8.166  1.00  0.00    -0.354 N 
ATOM     35  C   UNL     1       7.917  -7.516   7.160  1.00  0.00     0.074 A 
ATOM     36  C   UNL     1       7.437  -7.810   5.830  1.00  0.00     0.031 C 
ATOM     37  C   UNL     1       6.519  -1.238   7.785  1.00  0.00     0.029 A 
ATOM     38  C   UNL     1       7.126  -2.107   8.790  1.00  0.00     0.049 A 
ATOM     39  H   UNL     1       7.640  -4.114   8.581  1.00  0.00     0.167 HD
ATOM     40  C   UNL     1       8.550  -8.408   7.956  1.00  0.00     0.037 A 
ATOM     41  C   UNL     1       7.470  -1.751  10.043  1.00  0.00     0.037 A 
ATOM     42  C   UNL     1       9.014  -8.097   9.281  1.00  0.00     0.049 A 
ATOM     43  C   UNL     1       8.104  -2.784  10.939  1.00  0.00     0.074 A 
ATOM     44  C   UNL     1       9.657  -8.922  10.185  1.00  0.00     0.029 A 
ATOM     45  N   UNL     1       8.881  -6.857   9.892  1.00  0.00    -0.354 N 
ATOM     46  N   UNL     1       8.388  -4.041  10.681  1.00  0.00    -0.248 NA
ATOM     47  C   UNL     1       8.476  -2.351  12.292  1.00  0.00     0.031 C 
ATOM     48  C   UNL     1       9.868  -8.195  11.362  1.00  0.00     0.029 A 
ATOM     49  C   UNL     1       9.414  -6.899  11.169  1.00  0.00     0.049 A 
ATOM     50  H   UNL     1       8.468  -6.065   9.479  1.00  0.00     0.167 HD
ATOM     51  C   UNL     1       8.998  -4.538  11.829  1.00  0.00     0.074 A 
ATOM     52  C   UNL     1       9.059  -3.440  12.772  1.00  0.00     0.031 C 
ATOM     53  C   UNL     1       9.468  -5.786  12.084  1.00  0.00     0.037 A 
BRANCH  40  54
ATOM     54  C   UNL     1       8.759  -9.797   7.418  1.00  0.00     0.058 A 
ATOM     55  C   UNL     1       9.659 -10.056   6.371  1.00  0.00     0.135 A 
ATOM     56  C   UNL     1       8.072 -10.888   7.972  1.00  0.00     0.135 A 
ATOM     57  F   UNL     1      10.324  -9.047   5.784  1.00  0.00    -0.206 F 
ATOM     58  C   UNL     1       9.855 -11.343   5.880  1.00  0.00     0.059 A 
ATOM     59  C   UNL     1       8.275 -12.188   7.518  1.00  0.00     0.059 A 
ATOM     60  F   UNL     1       7.191 -10.698   8.967  1.00  0.00    -0.206 F 
ATOM     61  C   UNL     1       9.162 -12.404   6.464  1.00  0.00     0.060 A 
BRANCH  61  62
ATOM     62  S   UNL     1       9.446 -14.070   5.830  1.00  0.00     0.124 S 
ATOM     63  O   UNL     1       8.802 -13.999   4.522  1.00  0.00    -0.237 OA
ATOM     64  O   UNL     1      10.903 -14.152   5.815  1.00  0.00    -0.237 OA
ATOM     65  O   UNL     1       8.782 -14.925   6.809  1.00  0.00    -0.744 OA
ENDBRANCH  61  62
ENDBRANCH  40  54
BRANCH  41  66
ATOM     66  C   UNL     1       7.207  -0.369  10.527  1.00  0.00     0.058 A 
ATOM     67  C   UNL     1       8.256   0.507  10.839  1.00  0.00     0.135 A 
ATOM     68  C   UNL     1       5.894   0.097  10.705  1.00  0.00     0.135 A 
ATOM     69  F   UNL     1       9.529   0.110  10.692  1.00  0.00    -0.206 F 
ATOM     70  C   UNL     1       8.017   1.784  11.338  1.00  0.00     0.059 A 
ATOM     71  C   UNL     1       5.628   1.380  11.171  1.00  0.00     0.059 A 
ATOM     72  F   UNL     1       4.852  -0.695  10.408  1.00  0.00    -0.206 F 
ATOM     73  C   UNL     1       6.697   2.211  11.501  1.00  0.00     0.060 A 
BRANCH  73  74
ATOM     74  S   UNL     1       6.397   3.877  12.130  1.00  0.00     0.124 S 
ATOM     75  O   UNL     1       6.790   3.738  13.527  1.00  0.00    -0.237 OA
ATOM     76  O   UNL     1       7.282   4.683  11.294  1.00  0.00    -0.237 OA
ATOM     77  O   UNL     1       4.971   4.074  11.891  1.00  0.00    -0.744 OA
ENDBRANCH  73  74
ENDBRANCH  41  66
BRANCH  53  78
ATOM     78  C   UNL     1      10.128  -6.014  13.417  1.00  0.00     0.058 A 
ATOM     79  C   UNL     1       9.395  -6.034  14.613  1.00  0.00     0.135 A 
ATOM     80  C   UNL     1      11.510  -6.251  13.490  1.00  0.00     0.135 A 
ATOM     81  F   UNL     1       8.071  -5.810  14.600  1.00  0.00    -0.206 F 
ATOM     82  C   UNL     1      10.015  -6.243  15.840  1.00  0.00     0.059 A 
ATOM     83  C   UNL     1      12.146  -6.498  14.702  1.00  0.00     0.059 A 
ATOM     84  F   UNL     1      12.256  -6.259  12.374  1.00  0.00    -0.206 F 
ATOM     85  C   UNL     1      11.392  -6.474  15.874  1.00  0.00     0.060 A 
BRANCH  85  86
ATOM     86  S   UNL     1      12.181  -6.758  17.471  1.00  0.00     0.124 S 
ATOM     87  O   UNL     1      12.153  -5.420  18.055  1.00  0.00    -0.237 OA
ATOM     88  O   UNL     1      11.293  -7.738  18.088  1.00  0.00    -0.237 OA
ATOM     89  O   UNL     1      13.505  -7.258  17.113  1.00  0.00    -0.744 OA
ENDBRANCH  85  86
ENDBRANCH  53  78
ENDBRANCH  27  28
ENDBRANCH  20  22
ENDBRANCH  19  20
ENDBRANCH  18  19
ENDBRANCH   1  18
TORSDOF 18
