REMARK SMILES O=C(OCCOCCOC(=O)[C@H]1CC[C@@H](CNc2nncs2)CC1)c1ccc(-c2c3nc(c(-c4c(F)cc(S(=O)(=O)[O-])cc4F)c4ccc([nH]4)c(-c4c(F)cc(S(=O)(=O)[O-])cc4F)c4nc(c(-c5c(F)cc(S(=O)(=O)[O-])cc5F)c5ccc2[nH]5)C=C4)C=C3)cc1
REMARK SMILES IDX 6 1 5 2 4 3 3 4 2 5 1 6 25 7 26 8 90 9 27 10 89 11 28 12
REMARK SMILES IDX 29 13 30 14 83 15 31 16 88 17 82 18 84 19 32 20 87 21 81 22
REMARK SMILES IDX 80 23 33 25 67 26 46 27 66 28 47 29 50 30 65 31 85 32 48 33
REMARK SMILES IDX 49 34 64 36 86 37 51 38 34 39 35 40 44 41 36 42 37 43 43 44
REMARK SMILES IDX 45 45 38 46 39 47 40 48 41 49 42 50 68 51 69 52 78 53 70 54
REMARK SMILES IDX 71 55 77 56 79 57 72 58 73 59 74 60 75 61 76 62 52 63 53 64
REMARK SMILES IDX 62 65 54 66 55 67 61 68 63 69 56 70 57 71 58 72 59 73 60 74
REMARK SMILES IDX 7 75 8 76 9 77 10 78 11 79 12 80 24 81 13 82 23 83 14 84
REMARK SMILES IDX 15 85 16 86 17 87 18 89 19 90 22 91 20 92 21 93
REMARK H PARENT 84 24 50 35 17 88
REMARK Flexibility Score: inf
ROOT
ATOM      1  O   UNL     1       3.872  -0.025  -1.682  1.00  0.00    -0.374 OA
ENDROOT
BRANCH   1   2
ATOM      2  C   UNL     1       4.209  -1.065  -0.771  1.00  0.00     0.202 C 
BRANCH   2   3
ATOM      3  C   UNL     1       3.816  -0.863   0.692  1.00  0.00     0.261 C 
BRANCH   3   4
ATOM      4  O   UNL     1       2.414  -0.589   0.801  1.00  0.00    -0.460 OA
BRANCH   4   5
ATOM      5  C   UNL     1       1.848   0.629   0.979  1.00  0.00     0.338 C 
ATOM      6  O   UNL     1       0.626   0.713   1.077  1.00  0.00    -0.246 OA
BRANCH   5   7
ATOM      7  C   UNL     1       2.659   1.873   1.092  1.00  0.00     0.060 A 
ATOM      8  C   UNL     1       3.834   2.100   0.378  1.00  0.00     0.016 A 
ATOM      9  C   UNL     1       2.172   2.904   1.906  1.00  0.00     0.016 A 
ATOM     10  C   UNL     1       4.559   3.261   0.506  1.00  0.00     0.010 A 
ATOM     11  C   UNL     1       2.864   4.115   1.998  1.00  0.00     0.010 A 
ATOM     12  C   UNL     1       4.064   4.284   1.296  1.00  0.00    -0.014 A 
BRANCH  12  13
ATOM     13  C   UNL     1       4.913   5.472   1.417  1.00  0.00     0.031 A 
ATOM     14  C   UNL     1       5.683   5.654   2.680  1.00  0.00     0.074 A 
ATOM     15  C   UNL     1       5.109   6.238   0.328  1.00  0.00     0.049 A 
ATOM     16  N   UNL     1       6.457   6.637   3.038  1.00  0.00    -0.248 NA
ATOM     17  C   UNL     1       5.579   4.569   3.674  1.00  0.00     0.031 C 
ATOM     18  C   UNL     1       4.517   5.994  -0.994  1.00  0.00     0.029 A 
ATOM     19  N   UNL     1       5.893   7.340   0.140  1.00  0.00    -0.354 N 
ATOM     20  C   UNL     1       6.892   6.319   4.316  1.00  0.00     0.074 A 
ATOM     21  C   UNL     1       6.307   5.046   4.670  1.00  0.00     0.031 C 
ATOM     22  C   UNL     1       4.984   6.904  -1.861  1.00  0.00     0.029 A 
ATOM     23  C   UNL     1       5.827   7.845  -1.137  1.00  0.00     0.049 A 
ATOM     24  H   UNL     1       6.450   7.735   0.849  1.00  0.00     0.167 HD
ATOM     25  C   UNL     1       7.696   7.052   5.118  1.00  0.00     0.037 A 
ATOM     26  C   UNL     1       6.357   8.975  -1.638  1.00  0.00     0.037 A 
ATOM     27  C   UNL     1       8.249   8.314   4.706  1.00  0.00     0.049 A 
ATOM     28  C   UNL     1       7.156   9.830  -0.695  1.00  0.00     0.074 A 
ATOM     29  C   UNL     1       9.012   9.206   5.431  1.00  0.00     0.029 A 
ATOM     30  N   UNL     1       8.087   8.859   3.435  1.00  0.00    -0.354 N 
ATOM     31  N   UNL     1       7.479   9.589   0.557  1.00  0.00    -0.248 NA
ATOM     32  C   UNL     1       7.641  11.113  -1.210  1.00  0.00     0.031 C 
ATOM     33  C   UNL     1       9.268  10.314   4.614  1.00  0.00     0.029 A 
ATOM     34  C   UNL     1       8.717  10.086   3.359  1.00  0.00     0.049 A 
ATOM     35  H   UNL     1       7.594   8.433   2.697  1.00  0.00     0.167 HD
ATOM     36  C   UNL     1       8.220  10.684   0.978  1.00  0.00     0.074 A 
ATOM     37  C   UNL     1       8.307  11.580  -0.162  1.00  0.00     0.031 C 
ATOM     38  C   UNL     1       8.777  10.934   2.190  1.00  0.00     0.037 A 
BRANCH  25  39
ATOM     39  C   UNL     1       7.905   6.546   6.517  1.00  0.00     0.058 A 
ATOM     40  C   UNL     1       8.655   5.393   6.798  1.00  0.00     0.135 A 
ATOM     41  C   UNL     1       7.267   7.186   7.592  1.00  0.00     0.135 A 
ATOM     42  F   UNL     1       9.256   4.718   5.804  1.00  0.00    -0.206 F 
ATOM     43  C   UNL     1       8.726   4.866   8.085  1.00  0.00     0.059 A 
ATOM     44  C   UNL     1       7.347   6.694   8.891  1.00  0.00     0.059 A 
ATOM     45  F   UNL     1       6.523   8.283   7.380  1.00  0.00    -0.206 F 
ATOM     46  C   UNL     1       8.059   5.519   9.123  1.00  0.00     0.060 A 
BRANCH  46  47
ATOM     47  S   UNL     1       8.114   4.797  10.777  1.00  0.00     0.124 S 
ATOM     48  O   UNL     1       7.232   3.644  10.620  1.00  0.00    -0.237 OA
ATOM     49  O   UNL     1       9.531   4.492  10.938  1.00  0.00    -0.237 OA
ATOM     50  O   UNL     1       7.604   5.864  11.632  1.00  0.00    -0.744 OA
ENDBRANCH  46  47
ENDBRANCH  25  39
BRANCH  26  51
ATOM     51  C   UNL     1       6.094   9.369  -3.049  1.00  0.00     0.058 A 
ATOM     52  C   UNL     1       7.125   9.424  -3.996  1.00  0.00     0.135 A 
ATOM     53  C   UNL     1       4.792   9.665  -3.490  1.00  0.00     0.135 A 
ATOM     54  F   UNL     1       8.388   9.156  -3.629  1.00  0.00    -0.206 F 
ATOM     55  C   UNL     1       6.880   9.762  -5.325  1.00  0.00     0.059 A 
ATOM     56  C   UNL     1       4.517   9.977  -4.818  1.00  0.00     0.059 A 
ATOM     57  F   UNL     1       3.763   9.619  -2.630  1.00  0.00    -0.206 F 
ATOM     58  C   UNL     1       5.570  10.031  -5.728  1.00  0.00     0.060 A 
BRANCH  58  59
ATOM     59  S   UNL     1       5.256  10.420  -7.463  1.00  0.00     0.124 S 
ATOM     60  O   UNL     1       5.845  11.749  -7.578  1.00  0.00    -0.237 OA
ATOM     61  O   UNL     1       5.965   9.346  -8.151  1.00  0.00    -0.237 OA
ATOM     62  O   UNL     1       3.800  10.365  -7.563  1.00  0.00    -0.744 OA
ENDBRANCH  58  59
ENDBRANCH  26  51
BRANCH  38  63
ATOM     63  C   UNL     1       9.559  12.206   2.320  1.00  0.00     0.058 A 
ATOM     64  C   UNL     1       8.928  13.455   2.397  1.00  0.00     0.135 A 
ATOM     65  C   UNL     1      10.958  12.159   2.434  1.00  0.00     0.135 A 
ATOM     66  F   UNL     1       7.594  13.548   2.283  1.00  0.00    -0.206 F 
ATOM     67  C   UNL     1       9.661  14.623   2.567  1.00  0.00     0.059 A 
ATOM     68  C   UNL     1      11.707  13.310   2.635  1.00  0.00     0.059 A 
ATOM     69  F   UNL     1      11.603  10.982   2.376  1.00  0.00    -0.206 F 
ATOM     70  C   UNL     1      11.050  14.538   2.690  1.00  0.00     0.060 A 
BRANCH  70  71
ATOM     71  S   UNL     1      11.986  16.055   2.961  1.00  0.00     0.124 S 
ATOM     72  O   UNL     1      11.938  16.669   1.638  1.00  0.00    -0.237 OA
ATOM     73  O   UNL     1      11.205  16.722   3.999  1.00  0.00    -0.237 OA
ATOM     74  O   UNL     1      13.297  15.574   3.384  1.00  0.00    -0.744 OA
ENDBRANCH  70  71
ENDBRANCH  38  63
ENDBRANCH  12  13
ENDBRANCH   5   7
ENDBRANCH   4   5
ENDBRANCH   3   4
ENDBRANCH   2   3
ENDBRANCH   1   2
BRANCH   1  75
ATOM     75  C   UNL     1       2.561  -0.051  -2.245  1.00  0.00     0.202 C 
BRANCH  75  76
ATOM     76  C   UNL     1       2.682  -0.186  -3.763  1.00  0.00     0.261 C 
BRANCH  76  77
ATOM     77  O   UNL     1       3.231  -1.484  -4.052  1.00  0.00    -0.463 OA
BRANCH  77  78
ATOM     78  C   UNL     1       4.590  -1.569  -4.087  1.00  0.00     0.309 C 
ATOM     79  O   UNL     1       5.355  -0.623  -4.231  1.00  0.00    -0.252 OA
BRANCH  78  80
ATOM     80  C   UNL     1       5.063  -3.009  -3.893  1.00  0.00     0.099 C 
ATOM     81  C   UNL     1       6.203  -3.058  -2.863  1.00  0.00     0.015 C 
ATOM     82  C   UNL     1       3.926  -3.958  -3.486  1.00  0.00     0.015 C 
ATOM     83  C   UNL     1       6.667  -4.470  -2.515  1.00  0.00     0.006 C 
ATOM     84  C   UNL     1       4.439  -5.368  -3.234  1.00  0.00     0.006 C 
ATOM     85  C   UNL     1       5.521  -5.426  -2.142  1.00  0.00     0.008 C 
BRANCH  85  86
ATOM     86  C   UNL     1       4.980  -5.173  -0.712  1.00  0.00     0.119 C 
BRANCH  86  87
ATOM     87  N   UNL     1       4.031  -6.208  -0.352  1.00  0.00    -0.360 N 
ATOM     88  H   UNL     1       3.202  -6.261  -0.881  1.00  0.00     0.162 HD
BRANCH  87  89
ATOM     89  C   UNL     1       4.184  -7.109   0.645  1.00  0.00     0.205 A 
ATOM     90  N   UNL     1       3.598  -8.290   0.611  1.00  0.00    -0.121 NA
ATOM     91  S   UNL     1       5.077  -6.849   2.098  1.00  0.00    -0.083 S 
ATOM     92  N   UNL     1       3.858  -9.063   1.723  1.00  0.00    -0.145 NA
ATOM     93  C   UNL     1       4.601  -8.416   2.591  1.00  0.00     0.204 A 
ENDBRANCH  87  89
ENDBRANCH  86  87
ENDBRANCH  85  86
ENDBRANCH  78  80
ENDBRANCH  77  78
ENDBRANCH  76  77
ENDBRANCH  75  76
ENDBRANCH   1  75
TORSDOF 20
