REMARK SMILES CCCCCCNC(=O)Oc1cccc(-c2ccc([C@@H](C)C(=O)OCCOCCOC(=O)c3ccc(-c4c5nc(c(-c6c(F)cc(S(=O)(=O)[O-])cc6F)c6ccc([nH]6)c(-c6c(F)cc(S(=O)(=O)[O-])cc6F)c6nc(c(-c7c(F)cc(S(=O)(=O)[O-])cc7F)c7ccc4[nH]7)C=C6)C=C5)cc3)cc2Cl)c1
REMARK SMILES IDX 24 1 22 2 23 3 20 4 21 5 19 6 16 7 17 8 100 9 18 10 99 11
REMARK SMILES IDX 101 12 15 13 11 14 12 15 102 16 13 17 14 18 10 19 8 20 7 21
REMARK SMILES IDX 9 23 6 24 5 25 4 26 3 27 2 28 1 29 25 30 26 31 27 32 28 33
REMARK SMILES IDX 29 34 30 35 31 36 32 37 33 38 34 39 98 40 35 41 97 42 36 43
REMARK SMILES IDX 37 44 38 45 91 46 39 47 96 48 90 49 92 50 40 51 95 52 89 53
REMARK SMILES IDX 88 54 41 56 75 57 54 58 74 59 55 60 58 61 73 62 93 63 56 64
REMARK SMILES IDX 57 65 72 67 94 68 59 69 42 70 43 71 52 72 44 73 45 74 51 75
REMARK SMILES IDX 53 76 46 77 47 78 48 79 49 80 50 81 76 82 77 83 86 84 78 85
REMARK SMILES IDX 79 86 85 87 87 88 80 89 81 90 82 91 83 92 84 93 60 94 61 95
REMARK SMILES IDX 70 96 62 97 63 98 69 99 71 100 64 101 65 102 66 103 67 104
REMARK SMILES IDX 68 105
REMARK H PARENT 7 22 92 55 58 66
REMARK Flexibility Score: inf
ROOT
ATOM      1  O   UNL     1      -3.317  14.666   1.645  1.00  0.00    -0.463 OA
ENDROOT
BRANCH   1   2
ATOM      2  C   UNL     1      -3.898  14.741   0.421  1.00  0.00     0.313 C 
ATOM      3  O   UNL     1      -3.567  15.528  -0.461  1.00  0.00    -0.252 OA
BRANCH   2   4
ATOM      4  C   UNL     1      -5.049  13.767   0.225  1.00  0.00     0.126 C 
ATOM      5  C   UNL     1      -6.369  14.479   0.501  1.00  0.00     0.025 C 
BRANCH   4   6
ATOM      6  C   UNL     1      -4.973  12.410   0.921  1.00  0.00    -0.033 A 
ATOM      7  C   UNL     1      -5.030   9.807   2.117  1.00  0.00     0.000 A 
ATOM      8  C   UNL     1      -5.048  10.981   2.895  1.00  0.00     0.010 A 
ATOM      9  C   UNL     1      -4.961   9.968   0.721  1.00  0.00     0.049 A 
ATOM     10  C   UNL     1      -5.026  12.258   2.311  1.00  0.00     0.005 A 
ATOM     11  C   UNL     1      -4.925  11.244   0.139  1.00  0.00     0.025 A 
ATOM     12  Cl  UNL     1      -4.988   8.622  -0.374  1.00  0.00    -0.084 Cl
BRANCH   7  13
ATOM     13  C   UNL     1      -5.130   8.487   2.775  1.00  0.00    -0.013 A 
ATOM     14  C   UNL     1      -4.284   6.247   3.196  1.00  0.00     0.133 A 
ATOM     15  C   UNL     1      -5.414   5.929   3.946  1.00  0.00     0.047 A 
ATOM     16  C   UNL     1      -4.135   7.509   2.615  1.00  0.00     0.056 A 
ATOM     17  C   UNL     1      -6.397   6.896   4.137  1.00  0.00     0.004 A 
ATOM     18  C   UNL     1      -6.256   8.161   3.555  1.00  0.00     0.009 A 
BRANCH  14  19
ATOM     19  O   UNL     1      -3.378   5.200   2.945  1.00  0.00    -0.410 OA
BRANCH  19  20
ATOM     20  C   UNL     1      -2.026   5.430   3.141  1.00  0.00     0.412 C 
ATOM     21  N   UNL     1      -1.239   4.363   2.806  1.00  0.00    -0.321 N 
ATOM     22  H   UNL     1      -0.271   4.473   2.945  1.00  0.00     0.167 HD
ATOM     23  O   UNL     1      -1.526   6.467   3.572  1.00  0.00    -0.224 OA
BRANCH  21  24
ATOM     24  C   UNL     1      -1.673   3.088   2.270  1.00  0.00     0.119 C 
BRANCH  24  25
ATOM     25  C   UNL     1      -1.079   2.815   0.887  1.00  0.00     0.021 C 
BRANCH  25  26
ATOM     26  C   UNL     1       0.450   2.692   0.853  1.00  0.00     0.002 C 
BRANCH  26  27
ATOM     27  C   UNL     1       1.044   1.571   1.713  1.00  0.00    -0.000 C 
BRANCH  27  28
ATOM     28  C   UNL     1       0.574   0.156   1.367  1.00  0.00    -0.003 C 
ATOM     29  C   UNL     1       0.967  -0.284  -0.036  1.00  0.00     0.004 C 
ENDBRANCH  27  28
ENDBRANCH  26  27
ENDBRANCH  25  26
ENDBRANCH  24  25
ENDBRANCH  21  24
ENDBRANCH  19  20
ENDBRANCH  14  19
ENDBRANCH   7  13
ENDBRANCH   4   6
ENDBRANCH   2   4
ENDBRANCH   1   2
BRANCH   1  30
ATOM     30  C   UNL     1      -2.148  15.484   1.838  1.00  0.00     0.261 C 
BRANCH  30  31
ATOM     31  C   UNL     1      -0.894  14.632   2.043  1.00  0.00     0.202 C 
BRANCH  31  32
ATOM     32  O   UNL     1      -0.474  13.836   0.935  1.00  0.00    -0.374 OA
BRANCH  32  33
ATOM     33  C   UNL     1      -1.207  12.641   0.665  1.00  0.00     0.202 C 
BRANCH  33  34
ATOM     34  C   UNL     1      -0.971  11.443   1.592  1.00  0.00     0.261 C 
BRANCH  34  35
ATOM     35  O   UNL     1      -1.393  11.691   2.944  1.00  0.00    -0.460 OA
BRANCH  35  36
ATOM     36  C   UNL     1      -0.377  11.804   3.835  1.00  0.00     0.338 C 
ATOM     37  O   UNL     1       0.815  11.676   3.610  1.00  0.00    -0.246 OA
BRANCH  36  38
ATOM     38  C   UNL     1      -0.881  12.315   5.125  1.00  0.00     0.060 A 
ATOM     39  C   UNL     1      -0.216  13.418   5.675  1.00  0.00     0.016 A 
ATOM     40  C   UNL     1      -1.914  11.688   5.826  1.00  0.00     0.016 A 
ATOM     41  C   UNL     1      -0.533  13.858   6.957  1.00  0.00     0.010 A 
ATOM     42  C   UNL     1      -2.230  12.132   7.118  1.00  0.00     0.010 A 
ATOM     43  C   UNL     1      -1.511  13.190   7.705  1.00  0.00    -0.014 A 
BRANCH  43  44
ATOM     44  C   UNL     1      -1.651  13.506   9.150  1.00  0.00     0.031 A 
ATOM     45  C   UNL     1      -1.016  12.590  10.163  1.00  0.00     0.074 A 
ATOM     46  C   UNL     1      -2.271  14.631   9.552  1.00  0.00     0.049 A 
ATOM     47  N   UNL     1      -0.989  12.687  11.467  1.00  0.00    -0.248 NA
ATOM     48  C   UNL     1      -0.315  11.409   9.634  1.00  0.00     0.031 C 
ATOM     49  C   UNL     1      -2.885  15.619   8.666  1.00  0.00     0.029 A 
ATOM     50  N   UNL     1      -2.478  15.134  10.812  1.00  0.00    -0.354 N 
ATOM     51  C   UNL     1      -0.272  11.583  11.915  1.00  0.00     0.074 A 
ATOM     52  C   UNL     1       0.086  10.810  10.746  1.00  0.00     0.031 C 
ATOM     53  C   UNL     1      -3.402  16.611   9.412  1.00  0.00     0.029 A 
ATOM     54  C   UNL     1      -3.179  16.316  10.826  1.00  0.00     0.049 A 
ATOM     55  H   UNL     1      -2.156  14.690  11.629  1.00  0.00     0.167 HD
ATOM     56  C   UNL     1       0.068  11.249  13.184  1.00  0.00     0.037 A 
ATOM     57  C   UNL     1      -3.602  17.068  11.862  1.00  0.00     0.037 A 
ATOM     58  C   UNL     1      -0.289  12.022  14.346  1.00  0.00     0.049 A 
ATOM     59  C   UNL     1      -3.268  16.643  13.269  1.00  0.00     0.074 A 
ATOM     60  C   UNL     1       0.014  11.771  15.673  1.00  0.00     0.029 A 
ATOM     61  N   UNL     1      -1.034  13.192  14.321  1.00  0.00    -0.354 N 
ATOM     62  N   UNL     1      -2.577  15.604  13.675  1.00  0.00    -0.248 NA
ATOM     63  C   UNL     1      -3.765  17.496  14.357  1.00  0.00     0.031 C 
ATOM     64  C   UNL     1      -0.586  12.765  16.454  1.00  0.00     0.029 A 
ATOM     65  C   UNL     1      -1.218  13.664  15.611  1.00  0.00     0.049 A 
ATOM     66  H   UNL     1      -1.380  13.624  13.507  1.00  0.00     0.167 HD
ATOM     67  C   UNL     1      -2.530  15.697  15.063  1.00  0.00     0.074 A 
ATOM     68  C   UNL     1      -3.256  16.897  15.425  1.00  0.00     0.031 C 
ATOM     69  C   UNL     1      -1.937  14.866  15.957  1.00  0.00     0.037 A 
BRANCH  56  70
ATOM     70  C   UNL     1       0.848   9.978  13.382  1.00  0.00     0.058 A 
ATOM     71  C   UNL     1       2.195   9.868  13.000  1.00  0.00     0.135 A 
ATOM     72  C   UNL     1       0.247   8.861  13.987  1.00  0.00     0.135 A 
ATOM     73  F   UNL     1       2.814  10.899  12.403  1.00  0.00    -0.206 F 
ATOM     74  C   UNL     1       2.909   8.688  13.183  1.00  0.00     0.059 A 
ATOM     75  C   UNL     1       0.951   7.680  14.205  1.00  0.00     0.059 A 
ATOM     76  F   UNL     1      -1.038   8.911  14.371  1.00  0.00    -0.206 F 
ATOM     77  C   UNL     1       2.278   7.598  13.785  1.00  0.00     0.060 A 
BRANCH  77  78
ATOM     78  S   UNL     1       3.217   6.074  14.017  1.00  0.00     0.124 S 
ATOM     79  O   UNL     1       3.292   5.567  12.650  1.00  0.00    -0.237 OA
ATOM     80  O   UNL     1       4.472   6.562  14.580  1.00  0.00    -0.237 OA
ATOM     81  O   UNL     1       2.385   5.296  14.930  1.00  0.00    -0.744 OA
ENDBRANCH  77  78
ENDBRANCH  56  70
BRANCH  57  82
ATOM     82  C   UNL     1      -4.391  18.304  11.609  1.00  0.00     0.058 A 
ATOM     83  C   UNL     1      -3.856  19.574  11.866  1.00  0.00     0.135 A 
ATOM     84  C   UNL     1      -5.700  18.236  11.105  1.00  0.00     0.135 A 
ATOM     85  F   UNL     1      -2.614  19.692  12.359  1.00  0.00    -0.206 F 
ATOM     86  C   UNL     1      -4.593  20.734  11.645  1.00  0.00     0.059 A 
ATOM     87  C   UNL     1      -6.447  19.381  10.852  1.00  0.00     0.059 A 
ATOM     88  F   UNL     1      -6.256  17.044  10.834  1.00  0.00    -0.206 F 
ATOM     89  C   UNL     1      -5.888  20.627  11.134  1.00  0.00     0.060 A 
BRANCH  89  90
ATOM     90  S   UNL     1      -6.818  22.139  10.802  1.00  0.00     0.124 S 
ATOM     91  O   UNL     1      -7.159  22.576  12.150  1.00  0.00    -0.237 OA
ATOM     92  O   UNL     1      -5.835  22.953  10.094  1.00  0.00    -0.237 OA
ATOM     93  O   UNL     1      -7.936  21.672   9.987  1.00  0.00    -0.744 OA
ENDBRANCH  89  90
ENDBRANCH  57  82
BRANCH  69  94
ATOM     94  C   UNL     1      -2.010  15.244  17.412  1.00  0.00     0.058 A 
ATOM     95  C   UNL     1      -3.201  15.142  18.146  1.00  0.00     0.135 A 
ATOM     96  C   UNL     1      -0.858  15.674  18.091  1.00  0.00     0.135 A 
ATOM     97  F   UNL     1      -4.333  14.740  17.545  1.00  0.00    -0.206 F 
ATOM     98  C   UNL     1      -3.255  15.479  19.495  1.00  0.00     0.059 A 
ATOM     99  C   UNL     1      -0.882  15.989  19.446  1.00  0.00     0.059 A 
ATOM    100  F   UNL     1       0.312  15.778  17.440  1.00  0.00    -0.206 F 
ATOM    101  C   UNL     1      -2.090  15.903  20.137  1.00  0.00     0.060 A 
BRANCH 101 102
ATOM    102  S   UNL     1      -2.167  16.316  21.892  1.00  0.00     0.124 S 
ATOM    103  O   UNL     1      -2.849  17.605  21.861  1.00  0.00    -0.237 OA
ATOM    104  O   UNL     1      -2.938  15.205  22.442  1.00  0.00    -0.237 OA
ATOM    105  O   UNL     1      -0.764  16.357  22.294  1.00  0.00    -0.744 OA
ENDBRANCH 101 102
ENDBRANCH  69  94
ENDBRANCH  43  44
ENDBRANCH  36  38
ENDBRANCH  35  36
ENDBRANCH  34  35
ENDBRANCH  33  34
ENDBRANCH  32  33
ENDBRANCH  31  32
ENDBRANCH  30  31
ENDBRANCH   1  30
TORSDOF 26
