REMARK SMILES C[C@H]1CC[C@H]([NH2+]Cc2c(C(=O)OCCOCCOC(=O)c3ccc(-c4c5nc(c(-c6c(F)cc(S(=O)(=O)[O-])cc6F)c6ccc([nH]6)c(-c6c(F)cc(S(=O)(=O)[O-])cc6F)c6nc(c(-c7c(F)cc(S(=O)(=O)[O-])cc7F)c7ccc4[nH]7)C=C6)C=C5)cc3)n(Cc3ccccc3F)c3ccccc23)CC1
REMARK SMILES IDX 15 1 14 2 13 3 12 4 10 5 11 6 9 7 8 8 101 9 87 10 96 11
REMARK SMILES IDX 100 12 97 13 99 14 98 15 7 16 6 17 5 20 1 21 2 22 3 23
REMARK SMILES IDX 103 24 4 25 102 26 88 27 89 28 90 29 94 30 91 31 93 32 95 33
REMARK SMILES IDX 92 34 16 35 17 36 18 37 19 38 20 39 21 40 22 41 86 42 23 43
REMARK SMILES IDX 85 44 24 45 25 46 26 47 79 48 27 49 84 50 78 51 80 52 28 53
REMARK SMILES IDX 83 54 77 55 76 56 29 58 63 59 42 60 62 61 43 62 46 63 61 64
REMARK SMILES IDX 81 65 44 66 45 67 60 69 82 70 47 71 30 72 31 73 40 74 32 75
REMARK SMILES IDX 33 76 39 77 41 78 34 79 35 80 36 81 37 82 38 83 64 84 65 85
REMARK SMILES IDX 74 86 66 87 67 88 73 89 75 90 68 91 69 92 70 93 71 94 72 95
REMARK SMILES IDX 48 96 49 97 58 98 50 99 51 100 57 101 59 102 52 103 53 104
REMARK SMILES IDX 54 105 55 106 56 107
REMARK H PARENT 6 18 6 19 80 57 46 68
REMARK Flexibility Score: inf
ROOT
ATOM      1  O   UNL     1      -0.869  -0.752   5.063  1.00  0.00    -0.374 OA
ENDROOT
BRANCH   1   2
ATOM      2  C   UNL     1      -0.382   0.282   4.218  1.00  0.00     0.202 C 
BRANCH   2   3
ATOM      3  C   UNL     1      -0.311   0.041   2.705  1.00  0.00     0.261 C 
BRANCH   3   4
ATOM      4  O   UNL     1      -1.347  -0.793   2.156  1.00  0.00    -0.459 OA
BRANCH   4   5
ATOM      5  C   UNL     1      -0.937  -2.060   1.853  1.00  0.00     0.355 C 
ATOM      6  O   UNL     1       0.201  -2.466   2.072  1.00  0.00    -0.244 OA
BRANCH   5   7
ATOM      7  C   UNL     1      -1.993  -2.872   1.248  1.00  0.00     0.137 A 
ATOM      8  C   UNL     1      -3.056  -2.529   0.383  1.00  0.00     0.047 A 
ATOM      9  C   UNL     1      -3.702  -3.759  -0.004  1.00  0.00     0.009 A 
ATOM     10  N   UNL     1      -1.987  -4.269   1.326  1.00  0.00    -0.330 N 
ATOM     11  C   UNL     1      -2.935  -4.811   0.475  1.00  0.00     0.050 A 
ATOM     12  C   UNL     1      -4.822  -4.055  -0.817  1.00  0.00     0.011 A 
ATOM     13  C   UNL     1      -3.179  -6.139   0.076  1.00  0.00     0.027 A 
ATOM     14  C   UNL     1      -5.110  -5.379  -1.161  1.00  0.00     0.001 A 
ATOM     15  C   UNL     1      -4.280  -6.406  -0.739  1.00  0.00     0.002 A 
BRANCH   8  16
ATOM     16  C   UNL     1      -3.508  -1.222  -0.233  1.00  0.00     0.300 C 
BRANCH  16  17
ATOM     17  N   UNL     1      -2.531  -0.157  -0.252  1.00  0.00    -0.340 N 
ATOM     18  H   UNL     1      -3.050   0.721  -0.258  1.00  0.00     0.346 HD
ATOM     19  H   UNL     1      -1.953  -0.347   0.566  1.00  0.00     0.346 HD
BRANCH  17  20
ATOM     20  C   UNL     1      -1.553  -0.087  -1.360  1.00  0.00     0.182 C 
ATOM     21  C   UNL     1       2.820  -0.185  -0.700  1.00  0.00     0.007 C 
ATOM     22  C   UNL     1       1.305  -0.165  -0.822  1.00  0.00    -0.014 C 
ATOM     23  C   UNL     1       0.774  -1.220  -1.783  1.00  0.00     0.009 C 
ATOM     24  C   UNL     1       0.755   1.170  -1.304  1.00  0.00     0.009 C 
ATOM     25  C   UNL     1      -0.730  -1.374  -1.596  1.00  0.00     0.065 C 
ATOM     26  C   UNL     1      -0.750   1.211  -1.092  1.00  0.00     0.065 C 
ENDBRANCH  17  20
ENDBRANCH  16  17
ENDBRANCH   8  16
BRANCH  10  27
ATOM     27  C   UNL     1      -1.063  -5.100   2.106  1.00  0.00     0.161 C 
BRANCH  27  28
ATOM     28  C   UNL     1      -1.653  -5.582   3.409  1.00  0.00     0.008 A 
ATOM     29  C   UNL     1      -2.504  -6.696   3.463  1.00  0.00     0.008 A 
ATOM     30  C   UNL     1      -1.325  -4.956   4.613  1.00  0.00     0.128 A 
ATOM     31  C   UNL     1      -3.000  -7.168   4.681  1.00  0.00     0.001 A 
ATOM     32  C   UNL     1      -1.808  -5.425   5.835  1.00  0.00     0.039 A 
ATOM     33  F   UNL     1      -0.507  -3.897   4.619  1.00  0.00    -0.207 F 
ATOM     34  C   UNL     1      -2.647  -6.535   5.869  1.00  0.00     0.003 A 
ENDBRANCH  27  28
ENDBRANCH  10  27
ENDBRANCH   5   7
ENDBRANCH   4   5
ENDBRANCH   3   4
ENDBRANCH   2   3
ENDBRANCH   1   2
BRANCH   1  35
ATOM     35  C   UNL     1      -2.233  -1.152   4.923  1.00  0.00     0.202 C 
BRANCH  35  36
ATOM     36  C   UNL     1      -3.318  -0.071   5.038  1.00  0.00     0.261 C 
BRANCH  36  37
ATOM     37  O   UNL     1      -3.209   0.901   3.988  1.00  0.00    -0.460 OA
BRANCH  37  38
ATOM     38  C   UNL     1      -3.429   2.187   4.367  1.00  0.00     0.338 C 
ATOM     39  O   UNL     1      -3.976   2.577   5.386  1.00  0.00    -0.246 OA
BRANCH  38  40
ATOM     40  C   UNL     1      -2.606   3.034   3.486  1.00  0.00     0.060 A 
ATOM     41  C   UNL     1      -2.745   2.973   2.102  1.00  0.00     0.016 A 
ATOM     42  C   UNL     1      -1.562   3.768   4.072  1.00  0.00     0.016 A 
ATOM     43  C   UNL     1      -1.804   3.623   1.309  1.00  0.00     0.010 A 
ATOM     44  C   UNL     1      -0.595   4.373   3.268  1.00  0.00     0.010 A 
ATOM     45  C   UNL     1      -0.697   4.278   1.879  1.00  0.00    -0.014 A 
BRANCH  45  46
ATOM     46  C   UNL     1       0.239   4.937   0.956  1.00  0.00     0.031 A 
ATOM     47  C   UNL     1      -0.357   6.020   0.124  1.00  0.00     0.074 A 
ATOM     48  C   UNL     1       1.576   4.771   0.874  1.00  0.00     0.049 A 
ATOM     49  N   UNL     1      -0.456   6.089  -1.164  1.00  0.00    -0.248 NA
ATOM     50  C   UNL     1      -0.961   7.151   0.844  1.00  0.00     0.031 C 
ATOM     51  C   UNL     1       2.461   4.062   1.797  1.00  0.00     0.029 A 
ATOM     52  N   UNL     1       2.445   5.309  -0.044  1.00  0.00    -0.354 N 
ATOM     53  C   UNL     1      -0.979   7.350  -1.434  1.00  0.00     0.074 A 
ATOM     54  C   UNL     1      -1.366   7.920  -0.166  1.00  0.00     0.031 C 
ATOM     55  C   UNL     1       3.745   4.386   1.512  1.00  0.00     0.029 A 
ATOM     56  C   UNL     1       3.782   5.215   0.315  1.00  0.00     0.049 A 
ATOM     57  H   UNL     1       2.145   5.726  -0.884  1.00  0.00     0.167 HD
ATOM     58  C   UNL     1      -0.912   7.936  -2.658  1.00  0.00     0.037 A 
ATOM     59  C   UNL     1       4.834   5.824  -0.286  1.00  0.00     0.037 A 
ATOM     60  C   UNL     1      -0.562   7.023  -3.708  1.00  0.00     0.049 A 
ATOM     61  C   UNL     1       4.442   6.235  -1.658  1.00  0.00     0.074 A 
ATOM     62  C   UNL     1      -1.122   5.888  -4.256  1.00  0.00     0.029 A 
ATOM     63  N   UNL     1       0.705   7.109  -4.226  1.00  0.00    -0.354 N 
ATOM     64  N   UNL     1       4.277   5.431  -2.668  1.00  0.00    -0.248 NA
ATOM     65  C   UNL     1       4.015   7.610  -1.882  1.00  0.00     0.031 C 
ATOM     66  C   UNL     1      -0.031   5.127  -4.768  1.00  0.00     0.029 A 
ATOM     67  C   UNL     1       1.138   5.833  -4.488  1.00  0.00     0.049 A 
ATOM     68  H   UNL     1       1.213   7.937  -4.381  1.00  0.00     0.167 HD
ATOM     69  C   UNL     1       3.383   6.082  -3.499  1.00  0.00     0.074 A 
ATOM     70  C   UNL     1       3.391   7.465  -3.051  1.00  0.00     0.031 C 
ATOM     71  C   UNL     1       2.499   5.386  -4.272  1.00  0.00     0.037 A 
BRANCH  58  72
ATOM     72  C   UNL     1      -0.867   9.427  -2.856  1.00  0.00     0.058 A 
ATOM     73  C   UNL     1      -1.235   9.988  -4.093  1.00  0.00     0.135 A 
ATOM     74  C   UNL     1      -0.215  10.290  -1.948  1.00  0.00     0.135 A 
ATOM     75  F   UNL     1      -1.833   9.236  -5.031  1.00  0.00    -0.206 F 
ATOM     76  C   UNL     1      -0.940  11.311  -4.422  1.00  0.00     0.059 A 
ATOM     77  C   UNL     1       0.044  11.624  -2.236  1.00  0.00     0.059 A 
ATOM     78  F   UNL     1       0.273   9.839  -0.783  1.00  0.00    -0.206 F 
ATOM     79  C   UNL     1      -0.285  12.115  -3.491  1.00  0.00     0.060 A 
BRANCH  79  80
ATOM     80  S   UNL     1       0.197  13.789  -3.955  1.00  0.00     0.124 S 
ATOM     81  O   UNL     1       1.334  13.529  -4.829  1.00  0.00    -0.237 OA
ATOM     82  O   UNL     1      -1.010  14.288  -4.607  1.00  0.00    -0.237 OA
ATOM     83  O   UNL     1       0.510  14.413  -2.673  1.00  0.00    -0.744 OA
ENDBRANCH  79  80
ENDBRANCH  58  72
BRANCH  59  84
ATOM     84  C   UNL     1       6.118   6.298   0.297  1.00  0.00     0.058 A 
ATOM     85  C   UNL     1       7.199   6.647  -0.536  1.00  0.00     0.135 A 
ATOM     86  C   UNL     1       6.207   6.714   1.638  1.00  0.00     0.135 A 
ATOM     87  F   UNL     1       7.197   6.300  -1.832  1.00  0.00    -0.206 F 
ATOM     88  C   UNL     1       8.263   7.432  -0.088  1.00  0.00     0.059 A 
ATOM     89  C   UNL     1       7.269   7.482   2.113  1.00  0.00     0.059 A 
ATOM     90  F   UNL     1       5.211   6.474   2.504  1.00  0.00    -0.206 F 
ATOM     91  C   UNL     1       8.274   7.870   1.234  1.00  0.00     0.060 A 
BRANCH  91  92
ATOM     92  S   UNL     1       9.527   9.063   1.754  1.00  0.00     0.124 S 
ATOM     93  O   UNL     1      10.747   8.265   1.701  1.00  0.00    -0.237 OA
ATOM     94  O   UNL     1       9.399  10.103   0.738  1.00  0.00    -0.237 OA
ATOM     95  O   UNL     1       9.091   9.450   3.094  1.00  0.00    -0.744 OA
ENDBRANCH  91  92
ENDBRANCH  59  84
BRANCH  71  96
ATOM     96  C   UNL     1       2.838   3.970  -4.650  1.00  0.00     0.058 A 
ATOM     97  C   UNL     1       3.077   2.937  -3.734  1.00  0.00     0.135 A 
ATOM     98  C   UNL     1       2.823   3.623  -6.014  1.00  0.00     0.135 A 
ATOM     99  F   UNL     1       2.993   3.144  -2.411  1.00  0.00    -0.206 F 
ATOM    100  C   UNL     1       3.344   1.636  -4.159  1.00  0.00     0.059 A 
ATOM    101  C   UNL     1       3.036   2.317  -6.454  1.00  0.00     0.059 A 
ATOM    102  F   UNL     1       2.556   4.557  -6.943  1.00  0.00    -0.206 F 
ATOM    103  C   UNL     1       3.305   1.328  -5.515  1.00  0.00     0.060 A 
BRANCH 103 104
ATOM    104  S   UNL     1       3.536  -0.391  -6.015  1.00  0.00     0.124 S 
ATOM    105  O   UNL     1       4.927  -0.636  -5.651  1.00  0.00    -0.237 OA
ATOM    106  O   UNL     1       2.539  -1.087  -5.207  1.00  0.00    -0.237 OA
ATOM    107  O   UNL     1       3.260  -0.371  -7.449  1.00  0.00    -0.744 OA
ENDBRANCH 103 104
ENDBRANCH  71  96
ENDBRANCH  45  46
ENDBRANCH  38  40
ENDBRANCH  37  38
ENDBRANCH  36  37
ENDBRANCH  35  36
ENDBRANCH   1  35
TORSDOF 22
