REMARK SMILES O=C(OCCOCCOC(=O)c1ccc2c(c1)[C@@H](C1CCOCC1)C(=O)N2)c1ccc(-c2c3nc(c(-c4c(F)cc(S(=O)(=O)[O-])cc4F)c4ccc([nH]4)c(-c4c(F)cc(S(=O)(=O)[O-])cc4F)c4nc(c(-c5c(F)cc(S(=O)(=O)[O-])cc5F)c5ccc2[nH]5)C=C4)C=C3)cc1
REMARK SMILES IDX 5 1 4 2 3 3 2 4 1 5 28 6 29 7 93 8 30 9 92 10 31 11 32 12
REMARK SMILES IDX 33 13 86 14 34 15 91 16 85 17 87 18 35 19 90 20 84 21 83 22
REMARK SMILES IDX 36 24 70 25 49 26 69 27 50 28 53 29 68 30 88 31 51 32 52 33
REMARK SMILES IDX 67 35 89 36 54 37 37 38 38 39 47 40 39 41 40 42 46 43 48 44
REMARK SMILES IDX 41 45 42 46 43 47 44 48 45 49 71 50 72 51 81 52 73 53 74 54
REMARK SMILES IDX 80 55 82 56 75 57 76 58 77 59 78 60 79 61 55 62 56 63 65 64
REMARK SMILES IDX 57 65 58 66 64 67 66 68 59 69 60 70 61 71 62 72 63 73 6 74
REMARK SMILES IDX 7 75 8 76 9 77 10 78 11 79 12 80 13 81 17 82 14 83 16 84
REMARK SMILES IDX 15 85 18 86 27 87 25 88 26 90 19 91 20 92 24 93 21 94 23 95
REMARK SMILES IDX 22 96
REMARK H PARENT 87 23 53 34 27 89
REMARK Flexibility Score: inf
ROOT
ATOM      1  C   UNL     1       4.216   0.606  -1.644  1.00  0.00     0.202 C 
ENDROOT
BRANCH   1   2
ATOM      2  C   UNL     1       3.880  -0.825  -1.220  1.00  0.00     0.261 C 
BRANCH   2   3
ATOM      3  O   UNL     1       2.497  -0.913  -0.842  1.00  0.00    -0.460 OA
BRANCH   3   4
ATOM      4  C   UNL     1       1.976  -1.016   0.404  1.00  0.00     0.338 C 
ATOM      5  O   UNL     1       0.758  -1.144   0.520  1.00  0.00    -0.246 OA
BRANCH   4   6
ATOM      6  C   UNL     1       2.800  -0.993   1.649  1.00  0.00     0.060 A 
ATOM      7  C   UNL     1       4.002  -0.297   1.794  1.00  0.00     0.016 A 
ATOM      8  C   UNL     1       2.273  -1.639   2.780  1.00  0.00     0.016 A 
ATOM      9  C   UNL     1       4.697  -0.288   2.993  1.00  0.00     0.010 A 
ATOM     10  C   UNL     1       2.944  -1.597   4.007  1.00  0.00     0.010 A 
ATOM     11  C   UNL     1       4.168  -0.928   4.109  1.00  0.00    -0.014 A 
BRANCH  11  12
ATOM     12  C   UNL     1       4.974  -0.932   5.341  1.00  0.00     0.031 A 
ATOM     13  C   UNL     1       5.723  -2.176   5.700  1.00  0.00     0.074 A 
ATOM     14  C   UNL     1       5.132   0.217   6.025  1.00  0.00     0.049 A 
ATOM     15  N   UNL     1       6.481  -2.413   6.734  1.00  0.00    -0.248 NA
ATOM     16  C   UNL     1       5.617  -3.303   4.756  1.00  0.00     0.031 C 
ATOM     17  C   UNL     1       4.527   1.503   5.660  1.00  0.00     0.029 A 
ATOM     18  N   UNL     1       5.870   0.503   7.141  1.00  0.00    -0.354 N 
ATOM     19  C   UNL     1       6.929  -3.719   6.578  1.00  0.00     0.074 A 
ATOM     20  C   UNL     1       6.352  -4.228   5.354  1.00  0.00     0.031 C 
ATOM     21  C   UNL     1       4.941   2.444   6.524  1.00  0.00     0.029 A 
ATOM     22  C   UNL     1       5.780   1.817   7.538  1.00  0.00     0.049 A 
ATOM     23  H   UNL     1       6.413  -0.168   7.614  1.00  0.00     0.167 HD
ATOM     24  C   UNL     1       7.745  -4.423   7.395  1.00  0.00     0.037 A 
ATOM     25  C   UNL     1       6.296   2.427   8.621  1.00  0.00     0.037 A 
ATOM     26  C   UNL     1       8.289  -3.883   8.612  1.00  0.00     0.049 A 
ATOM     27  C   UNL     1       7.120   1.593   9.566  1.00  0.00     0.074 A 
ATOM     28  C   UNL     1       9.055  -4.514   9.573  1.00  0.00     0.029 A 
ATOM     29  N   UNL     1       8.119  -2.568   9.029  1.00  0.00    -0.354 N 
ATOM     30  N   UNL     1       7.472   0.332   9.456  1.00  0.00    -0.248 NA
ATOM     31  C   UNL     1       7.601   2.250  10.787  1.00  0.00     0.031 C 
ATOM     32  C   UNL     1       9.318  -3.588  10.590  1.00  0.00     0.029 A 
ATOM     33  C   UNL     1       8.755  -2.369  10.240  1.00  0.00     0.049 A 
ATOM     34  H   UNL     1       7.619  -1.879   8.534  1.00  0.00     0.167 HD
ATOM     35  C   UNL     1       8.226   0.046  10.587  1.00  0.00     0.074 A 
ATOM     36  C   UNL     1       8.295   1.274  11.357  1.00  0.00     0.031 C 
ATOM     37  C   UNL     1       8.803  -1.122  10.964  1.00  0.00     0.037 A 
BRANCH  24  38
ATOM     38  C   UNL     1       8.020  -5.851   7.023  1.00  0.00     0.058 A 
ATOM     39  C   UNL     1       8.856  -6.191   5.947  1.00  0.00     0.135 A 
ATOM     40  C   UNL     1       7.403  -6.897   7.728  1.00  0.00     0.135 A 
ATOM     41  F   UNL     1       9.445  -5.230   5.218  1.00  0.00    -0.206 F 
ATOM     42  C   UNL     1       9.044  -7.516   5.563  1.00  0.00     0.059 A 
ATOM     43  C   UNL     1       7.595  -8.230   7.376  1.00  0.00     0.059 A 
ATOM     44  F   UNL     1       6.583  -6.627   8.756  1.00  0.00    -0.206 F 
ATOM     45  C   UNL     1       8.402  -8.528   6.280  1.00  0.00     0.060 A 
BRANCH  45  46
ATOM     46  S   UNL     1       8.626 -10.240   5.750  1.00  0.00     0.124 S 
ATOM     47  O   UNL     1       7.817 -10.276   4.535  1.00  0.00    -0.237 OA
ATOM     48  O   UNL     1      10.070 -10.320   5.551  1.00  0.00    -0.237 OA
ATOM     49  O   UNL     1       8.107 -11.014   6.872  1.00  0.00    -0.744 OA
ENDBRANCH  45  46
ENDBRANCH  24  38
BRANCH  25  50
ATOM     50  C   UNL     1       6.004   3.861   8.894  1.00  0.00     0.058 A 
ATOM     51  C   UNL     1       7.016   4.832   8.886  1.00  0.00     0.135 A 
ATOM     52  C   UNL     1       4.696   4.291   9.177  1.00  0.00     0.135 A 
ATOM     53  F   UNL     1       8.284   4.477   8.629  1.00  0.00    -0.206 F 
ATOM     54  C   UNL     1       6.748   6.171   9.165  1.00  0.00     0.059 A 
ATOM     55  C   UNL     1       4.398   5.627   9.430  1.00  0.00     0.059 A 
ATOM     56  F   UNL     1       3.685   3.409   9.189  1.00  0.00    -0.206 F 
ATOM     57  C   UNL     1       5.434   6.558   9.438  1.00  0.00     0.060 A 
BRANCH  57  58
ATOM     58  S   UNL     1       5.088   8.298   9.777  1.00  0.00     0.124 S 
ATOM     59  O   UNL     1       5.612   8.442  11.130  1.00  0.00    -0.237 OA
ATOM     60  O   UNL     1       5.840   8.974   8.725  1.00  0.00    -0.237 OA
ATOM     61  O   UNL     1       3.636   8.381   9.651  1.00  0.00    -0.744 OA
ENDBRANCH  57  58
ENDBRANCH  25  50
BRANCH  37  62
ATOM     62  C   UNL     1       9.578  -1.109  12.249  1.00  0.00     0.058 A 
ATOM     63  C   UNL     1       8.932  -1.097  13.494  1.00  0.00     0.135 A 
ATOM     64  C   UNL     1      10.979  -1.173  12.228  1.00  0.00     0.135 A 
ATOM     65  F   UNL     1       7.593  -1.029  13.561  1.00  0.00    -0.206 F 
ATOM     66  C   UNL     1       9.653  -1.131  14.681  1.00  0.00     0.059 A 
ATOM     67  C   UNL     1      11.719  -1.233  13.403  1.00  0.00     0.059 A 
ATOM     68  F   UNL     1      11.639  -1.196  11.059  1.00  0.00    -0.206 F 
ATOM     69  C   UNL     1      11.047  -1.203  14.624  1.00  0.00     0.060 A 
BRANCH  69  70
ATOM     70  S   UNL     1      11.971  -1.295  16.171  1.00  0.00     0.124 S 
ATOM     71  O   UNL     1      11.902   0.086  16.636  1.00  0.00    -0.237 OA
ATOM     72  O   UNL     1      11.197  -2.264  16.941  1.00  0.00    -0.237 OA
ATOM     73  O   UNL     1      13.292  -1.751  15.749  1.00  0.00    -0.744 OA
ENDBRANCH  69  70
ENDBRANCH  37  62
ENDBRANCH  11  12
ENDBRANCH   4   6
ENDBRANCH   3   4
ENDBRANCH   2   3
ENDBRANCH   1   2
BRANCH   1  74
ATOM     74  O   UNL     1       4.014   1.579  -0.623  1.00  0.00    -0.374 OA
BRANCH  74  75
ATOM     75  C   UNL     1       2.701   2.146  -0.541  1.00  0.00     0.202 C 
BRANCH  75  76
ATOM     76  C   UNL     1       2.814   3.673  -0.565  1.00  0.00     0.261 C 
BRANCH  76  77
ATOM     77  O   UNL     1       3.349   4.062  -1.842  1.00  0.00    -0.460 OA
BRANCH  77  78
ATOM     78  C   UNL     1       4.704   4.054  -1.920  1.00  0.00     0.338 C 
ATOM     79  O   UNL     1       5.510   4.093  -1.006  1.00  0.00    -0.246 OA
BRANCH  78  80
ATOM     80  C   UNL     1       5.066   3.767  -3.324  1.00  0.00     0.060 A 
ATOM     81  C   UNL     1       4.364   4.390  -4.376  1.00  0.00     0.018 A 
ATOM     82  C   UNL     1       6.082   2.825  -3.578  1.00  0.00     0.022 A 
ATOM     83  C   UNL     1       4.688   4.105  -5.700  1.00  0.00     0.027 A 
ATOM     84  C   UNL     1       6.357   2.508  -4.896  1.00  0.00    -0.011 A 
ATOM     85  C   UNL     1       5.687   3.179  -5.921  1.00  0.00     0.045 A 
ATOM     86  C   UNL     1       7.354   1.539  -5.499  1.00  0.00     0.114 C 
ATOM     87  N   UNL     1       6.218   2.819  -7.144  1.00  0.00    -0.325 N 
ATOM     88  C   UNL     1       7.266   1.925  -6.999  1.00  0.00     0.232 C 
ATOM     89  H   UNL     1       5.892   3.156  -8.010  1.00  0.00     0.169 HD
ATOM     90  O   UNL     1       7.981   1.543  -7.911  1.00  0.00    -0.274 OA
BRANCH  86  91
ATOM     91  C   UNL     1       7.055   0.034  -5.244  1.00  0.00     0.010 C 
ATOM     92  C   UNL     1       8.072  -0.880  -5.962  1.00  0.00     0.033 C 
ATOM     93  C   UNL     1       5.624  -0.402  -5.618  1.00  0.00     0.033 C 
ATOM     94  C   UNL     1       7.734  -2.358  -5.808  1.00  0.00     0.160 C 
ATOM     95  C   UNL     1       5.441  -1.911  -5.468  1.00  0.00     0.160 C 
ATOM     96  O   UNL     1       6.402  -2.615  -6.248  1.00  0.00    -0.381 OA
ENDBRANCH  86  91
ENDBRANCH  78  80
ENDBRANCH  77  78
ENDBRANCH  76  77
ENDBRANCH  75  76
ENDBRANCH  74  75
ENDBRANCH   1  74
TORSDOF 18
