REMARK SMILES Cc1ncccc1C(=O)N1CC[C@H](C(=O)OCCOCCOC(=O)c2ccc(-c3c4nc(c(-c5c(F)cc(S(=O)(=O)[O-])cc5F)c5ccc([nH]5)c(-c5c(F)cc(S(=O)(=O)[O-])cc5F)c5nc(c(-c6c(F)cc(S(=O)(=O)[O-])cc6F)c6ccc3[nH]6)C=C5)C=C4)cc2)C1
REMARK SMILES IDX 20 1 19 2 18 3 17 4 16 5 14 6 15 7 13 8 10 9 11 10 91 11
REMARK SMILES IDX 12 12 8 13 9 14 7 15 1 16 2 17 3 18 4 19 6 20 5 21 21 22
REMARK SMILES IDX 22 23 23 24 24 25 25 26 26 27 90 28 27 29 89 30 28 31 29 32
REMARK SMILES IDX 30 33 83 34 31 35 88 36 82 37 84 38 32 39 87 40 81 41 80 42
REMARK SMILES IDX 33 44 67 45 46 46 66 47 47 48 50 49 65 50 85 51 48 52 49 53
REMARK SMILES IDX 64 55 86 56 51 57 34 58 35 59 44 60 36 61 37 62 43 63 45 64
REMARK SMILES IDX 38 65 39 66 40 67 41 68 42 69 68 70 69 71 78 72 70 73 71 74
REMARK SMILES IDX 77 75 79 76 72 77 73 78 74 79 75 80 76 81 52 82 53 83 62 84
REMARK SMILES IDX 54 85 55 86 61 87 63 88 56 89 57 90 58 91 59 92 60 93
REMARK H PARENT 84 43 50 54
REMARK Flexibility Score: inf
ROOT
ATOM      1  C   UNL     1       7.549  -1.318  -1.593  1.00  0.00     0.202 C 
ENDROOT
BRANCH   1   2
ATOM      2  O   UNL     1       7.728  -1.560  -2.987  1.00  0.00    -0.374 OA
BRANCH   2   3
ATOM      3  C   UNL     1       6.659  -1.188  -3.857  1.00  0.00     0.202 C 
BRANCH   3   4
ATOM      4  C   UNL     1       5.454  -2.134  -3.910  1.00  0.00     0.261 C 
BRANCH   4   5
ATOM      5  O   UNL     1       4.814  -2.272  -2.629  1.00  0.00    -0.463 OA
BRANCH   5   6
ATOM      6  C   UNL     1       4.927  -3.489  -2.033  1.00  0.00     0.310 C 
ATOM      7  O   UNL     1       5.472  -4.469  -2.526  1.00  0.00    -0.252 OA
BRANCH   6   8
ATOM      8  C   UNL     1       4.267  -3.538  -0.673  1.00  0.00     0.120 C 
ATOM      9  N   UNL     1       2.136  -2.714  -0.076  1.00  0.00    -0.338 N 
ATOM     10  C   UNL     1       3.049  -2.223   0.932  1.00  0.00     0.121 C 
ATOM     11  C   UNL     1       2.772  -3.759  -0.858  1.00  0.00     0.135 C 
ATOM     12  C   UNL     1       4.389  -2.284   0.213  1.00  0.00     0.039 C 
BRANCH   9  13
ATOM     13  C   UNL     1       0.811  -2.423  -0.317  1.00  0.00     0.255 C 
ATOM     14  O   UNL     1       0.089  -3.260  -0.864  1.00  0.00    -0.269 OA
BRANCH  13  15
ATOM     15  C   UNL     1       0.202  -1.106   0.008  1.00  0.00     0.061 A 
ATOM     16  C   UNL     1       2.178   0.379  -0.703  1.00  0.00     0.067 C 
ATOM     17  C   UNL     1       0.786   0.149  -0.202  1.00  0.00     0.050 A 
ATOM     18  N   UNL     1       0.092   1.311  -0.022  1.00  0.00    -0.261 NA
ATOM     19  C   UNL     1      -1.228   1.236   0.247  1.00  0.00     0.111 A 
ATOM     20  C   UNL     1      -1.170  -1.134   0.317  1.00  0.00     0.017 A 
ATOM     21  C   UNL     1      -1.900   0.045   0.420  1.00  0.00     0.021 A 
ENDBRANCH  13  15
ENDBRANCH   9  13
ENDBRANCH   6   8
ENDBRANCH   5   6
ENDBRANCH   4   5
ENDBRANCH   3   4
ENDBRANCH   2   3
ENDBRANCH   1   2
BRANCH   1  22
ATOM     22  C   UNL     1       7.703   0.130  -1.109  1.00  0.00     0.261 C 
BRANCH  22  23
ATOM     23  O   UNL     1       6.724   1.018  -1.677  1.00  0.00    -0.460 OA
BRANCH  23  24
ATOM     24  C   UNL     1       7.230   1.940  -2.534  1.00  0.00     0.338 C 
ATOM     25  O   UNL     1       8.410   2.128  -2.799  1.00  0.00    -0.246 OA
BRANCH  24  26
ATOM     26  C   UNL     1       6.141   2.608  -3.268  1.00  0.00     0.060 A 
ATOM     27  C   UNL     1       6.189   2.575  -4.668  1.00  0.00     0.016 A 
ATOM     28  C   UNL     1       5.129   3.311  -2.611  1.00  0.00     0.016 A 
ATOM     29  C   UNL     1       5.241   3.270  -5.417  1.00  0.00     0.010 A 
ATOM     30  C   UNL     1       4.184   4.016  -3.365  1.00  0.00     0.010 A 
ATOM     31  C   UNL     1       4.248   4.019  -4.771  1.00  0.00    -0.014 A 
BRANCH  31  32
ATOM     32  C   UNL     1       3.327   4.867  -5.567  1.00  0.00     0.031 A 
ATOM     33  C   UNL     1       3.589   6.342  -5.684  1.00  0.00     0.074 A 
ATOM     34  C   UNL     1       2.267   4.317  -6.188  1.00  0.00     0.049 A 
ATOM     35  N   UNL     1       2.884   7.263  -6.289  1.00  0.00    -0.248 NA
ATOM     36  C   UNL     1       4.809   6.848  -5.034  1.00  0.00     0.031 C 
ATOM     37  C   UNL     1       1.927   2.895  -6.173  1.00  0.00     0.029 A 
ATOM     38  N   UNL     1       1.275   4.893  -6.941  1.00  0.00    -0.354 N 
ATOM     39  C   UNL     1       3.566   8.457  -6.090  1.00  0.00     0.074 A 
ATOM     40  C   UNL     1       4.732   8.147  -5.288  1.00  0.00     0.031 C 
ATOM     41  C   UNL     1       0.791   2.711  -6.867  1.00  0.00     0.029 A 
ATOM     42  C   UNL     1       0.308   4.005  -7.347  1.00  0.00     0.049 A 
ATOM     43  H   UNL     1       1.257   5.851  -7.168  1.00  0.00     0.167 HD
ATOM     44  C   UNL     1       3.251   9.696  -6.538  1.00  0.00     0.037 A 
ATOM     45  C   UNL     1      -0.850   4.214  -8.004  1.00  0.00     0.037 A 
ATOM     46  C   UNL     1       2.089   9.998  -7.333  1.00  0.00     0.049 A 
ATOM     47  C   UNL     1      -1.216   5.611  -8.430  1.00  0.00     0.074 A 
ATOM     48  C   UNL     1       1.704  11.215  -7.867  1.00  0.00     0.029 A 
ATOM     49  N   UNL     1       1.115   9.078  -7.696  1.00  0.00    -0.354 N 
ATOM     50  N   UNL     1      -0.543   6.726  -8.267  1.00  0.00    -0.248 NA
ATOM     51  C   UNL     1      -2.500   5.781  -9.126  1.00  0.00     0.031 C 
ATOM     52  C   UNL     1       0.472  11.043  -8.508  1.00  0.00     0.029 A 
ATOM     53  C   UNL     1       0.113   9.708  -8.416  1.00  0.00     0.049 A 
ATOM     54  H   UNL     1       1.134   8.119  -7.475  1.00  0.00     0.167 HD
ATOM     55  C   UNL     1      -1.313   7.726  -8.852  1.00  0.00     0.074 A 
ATOM     56  C   UNL     1      -2.496   7.082  -9.387  1.00  0.00     0.031 C 
ATOM     57  C   UNL     1      -1.065   9.056  -8.936  1.00  0.00     0.037 A 
BRANCH  44  58
ATOM     58  C   UNL     1       4.163  10.829  -6.155  1.00  0.00     0.058 A 
ATOM     59  C   UNL     1       5.435  10.981  -6.730  1.00  0.00     0.135 A 
ATOM     60  C   UNL     1       3.742  11.798  -5.230  1.00  0.00     0.135 A 
ATOM     61  F   UNL     1       5.893  10.075  -7.608  1.00  0.00    -0.206 F 
ATOM     62  C   UNL     1       6.267  12.041  -6.382  1.00  0.00     0.059 A 
ATOM     63  C   UNL     1       4.548  12.880  -4.886  1.00  0.00     0.059 A 
ATOM     64  F   UNL     1       2.535  11.700  -4.651  1.00  0.00    -0.206 F 
ATOM     65  C   UNL     1       5.815  12.985  -5.458  1.00  0.00     0.060 A 
BRANCH  65  66
ATOM     66  S   UNL     1       6.905  14.355  -5.019  1.00  0.00     0.124 S 
ATOM     67  O   UNL     1       7.898  13.682  -4.187  1.00  0.00    -0.237 OA
ATOM     68  O   UNL     1       7.376  14.811  -6.323  1.00  0.00    -0.237 OA
ATOM     69  O   UNL     1       6.023  15.281  -4.316  1.00  0.00    -0.744 OA
ENDBRANCH  65  66
ENDBRANCH  44  58
BRANCH  45  70
ATOM     70  C   UNL     1      -1.763   3.072  -8.273  1.00  0.00     0.058 A 
ATOM     71  C   UNL     1      -1.953   2.584  -9.573  1.00  0.00     0.135 A 
ATOM     72  C   UNL     1      -2.454   2.437  -7.228  1.00  0.00     0.135 A 
ATOM     73  F   UNL     1      -1.325   3.166 -10.606  1.00  0.00    -0.206 F 
ATOM     74  C   UNL     1      -2.801   1.512  -9.831  1.00  0.00     0.059 A 
ATOM     75  C   UNL     1      -3.287   1.348  -7.457  1.00  0.00     0.059 A 
ATOM     76  F   UNL     1      -2.300   2.862  -5.964  1.00  0.00    -0.206 F 
ATOM     77  C   UNL     1      -3.461   0.898  -8.765  1.00  0.00     0.060 A 
BRANCH  77  78
ATOM     78  S   UNL     1      -4.515  -0.529  -9.104  1.00  0.00     0.124 S 
ATOM     79  O   UNL     1      -5.674   0.103  -9.723  1.00  0.00    -0.237 OA
ATOM     80  O   UNL     1      -3.674  -1.328  -9.990  1.00  0.00    -0.237 OA
ATOM     81  O   UNL     1      -4.740  -1.102  -7.780  1.00  0.00    -0.744 OA
ENDBRANCH  77  78
ENDBRANCH  45  70
BRANCH  57  82
ATOM     82  C   UNL     1      -2.084   9.910  -9.640  1.00  0.00     0.058 A 
ATOM     83  C   UNL     1      -3.316  10.222  -9.045  1.00  0.00     0.135 A 
ATOM     84  C   UNL     1      -1.803  10.468 -10.898  1.00  0.00     0.135 A 
ATOM     85  F   UNL     1      -3.637   9.709  -7.847  1.00  0.00    -0.206 F 
ATOM     86  C   UNL     1      -4.242  11.045  -9.680  1.00  0.00     0.059 A 
ATOM     87  C   UNL     1      -2.704  11.313 -11.540  1.00  0.00     0.059 A 
ATOM     88  F   UNL     1      -0.635  10.208 -11.508  1.00  0.00    -0.206 F 
ATOM     89  C   UNL     1      -3.925  11.588 -10.927  1.00  0.00     0.060 A 
BRANCH  89  90
ATOM     90  S   UNL     1      -5.118  12.686 -11.721  1.00  0.00     0.124 S 
ATOM     91  O   UNL     1      -6.134  11.740 -12.171  1.00  0.00    -0.237 OA
ATOM     92  O   UNL     1      -5.513  13.566 -10.625  1.00  0.00    -0.237 OA
ATOM     93  O   UNL     1      -4.341  13.324 -12.779  1.00  0.00    -0.744 OA
ENDBRANCH  89  90
ENDBRANCH  57  82
ENDBRANCH  31  32
ENDBRANCH  24  26
ENDBRANCH  23  24
ENDBRANCH  22  23
ENDBRANCH   1  22
TORSDOF 19
