REMARK SMILES COc1cccc(C[N@@H+]2C[C@H](C(=O)OCCOCCOC(=O)c3ccc(-c4c5nc(c(-c6c(F)cc(S(=O)(=O)[O-])cc6F)c6ccc([nH]6)c(-c6c(F)cc(S(=O)(=O)[O-])cc6F)c6nc(c(-c7c(F)cc(S(=O)(=O)[O-])cc7F)c7ccc4[nH]7)C=C6)C=C5)cc3)C3(CC[NH+](C)CC3)C2)c1
REMARK SMILES IDX 17 1 16 2 15 3 14 4 12 5 13 6 11 7 9 8 10 9 96 10 89 12
REMARK SMILES IDX 90 13 95 14 91 15 94 16 92 17 93 18 8 20 7 21 3 22 4 23
REMARK SMILES IDX 97 24 5 25 6 26 2 27 1 28 18 29 19 30 20 31 21 32 22 33
REMARK SMILES IDX 23 34 24 35 88 36 25 37 87 38 26 39 27 40 28 41 81 42 29 43
REMARK SMILES IDX 86 44 80 45 82 46 30 47 85 48 79 49 78 50 31 52 65 53 44 54
REMARK SMILES IDX 64 55 45 56 48 57 63 58 83 59 46 60 47 61 62 63 84 64 49 65
REMARK SMILES IDX 32 66 33 67 42 68 34 69 35 70 41 71 43 72 36 73 37 74 38 75
REMARK SMILES IDX 39 76 40 77 66 78 67 79 76 80 68 81 69 82 75 83 77 84 70 85
REMARK SMILES IDX 71 86 72 87 73 88 74 89 50 90 51 91 60 92 52 93 53 94 59 95
REMARK SMILES IDX 61 96 54 97 55 98 56 99 57 100 58 101
REMARK H PARENT 9 11 92 19 82 51 48 62
REMARK Flexibility Score: inf
ROOT
ATOM      1  O   UNL     1      -0.345   6.547   5.322  1.00  0.00    -0.374 OA
ENDROOT
BRANCH   1   2
ATOM      2  C   UNL     1       0.241   7.854   5.287  1.00  0.00     0.202 C 
BRANCH   2   3
ATOM      3  C   UNL     1       1.580   7.977   6.023  1.00  0.00     0.261 C 
BRANCH   3   4
ATOM      4  O   UNL     1       2.643   7.396   5.234  1.00  0.00    -0.463 OA
BRANCH   4   5
ATOM      5  C   UNL     1       3.311   6.365   5.773  1.00  0.00     0.315 C 
ATOM      6  O   UNL     1       3.155   5.983   6.930  1.00  0.00    -0.252 OA
BRANCH   5   7
ATOM      7  C   UNL     1       4.257   5.642   4.824  1.00  0.00     0.166 C 
ATOM      8  N   UNL     1       4.615   3.471   3.965  1.00  0.00    -0.330 N 
ATOM      9  C   UNL     1       3.856   4.179   4.973  1.00  0.00     0.278 C 
ATOM     10  C   UNL     1       4.825   4.359   2.829  1.00  0.00     0.271 C 
ATOM     11  H   UNL     1       5.539   3.246   4.332  1.00  0.00     0.348 HD
ATOM     12  C   UNL     1       4.433   5.816   3.277  1.00  0.00     0.049 C 
ATOM     13  C   UNL     1       5.578   6.806   2.962  1.00  0.00     0.075 C 
ATOM     14  C   UNL     1       3.251   6.226   2.370  1.00  0.00     0.075 C 
ATOM     15  C   UNL     1       5.136   8.262   3.127  1.00  0.00     0.262 C 
ATOM     16  C   UNL     1       2.895   7.710   2.316  1.00  0.00     0.262 C 
ATOM     17  N   UNL     1       4.015   8.643   2.271  1.00  0.00    -0.337 N 
ATOM     18  C   UNL     1       4.413   8.974   0.908  1.00  0.00     0.332 C 
ATOM     19  H   UNL     1       3.665   9.510   2.680  1.00  0.00     0.347 HD
BRANCH   8  20
ATOM     20  C   UNL     1       4.154   2.108   3.683  1.00  0.00     0.299 C 
BRANCH  20  21
ATOM     21  C   UNL     1       2.713   1.932   3.229  1.00  0.00     0.010 A 
ATOM     22  C   UNL     1       1.081   1.559   1.473  1.00  0.00     0.119 A 
ATOM     23  C   UNL     1       0.036   1.645   2.389  1.00  0.00     0.046 A 
ATOM     24  C   UNL     1       2.408   1.734   1.876  1.00  0.00     0.056 A 
ATOM     25  C   UNL     1       0.325   1.820   3.737  1.00  0.00     0.004 A 
ATOM     26  C   UNL     1       1.653   1.933   4.156  1.00  0.00     0.010 A 
BRANCH  22  27
ATOM     27  O   UNL     1       0.767   1.338   0.160  1.00  0.00    -0.497 OA
ATOM     28  C   UNL     1       1.119   0.003  -0.210  1.00  0.00     0.278 C 
ENDBRANCH  22  27
ENDBRANCH  20  21
ENDBRANCH   8  20
ENDBRANCH   5   7
ENDBRANCH   4   5
ENDBRANCH   3   4
ENDBRANCH   2   3
ENDBRANCH   1   2
BRANCH   1  29
ATOM     29  C   UNL     1       0.173   5.606   4.383  1.00  0.00     0.202 C 
BRANCH  29  30
ATOM     30  C   UNL     1      -0.505   5.610   3.007  1.00  0.00     0.261 C 
BRANCH  30  31
ATOM     31  O   UNL     1      -0.277   6.851   2.316  1.00  0.00    -0.460 OA
BRANCH  31  32
ATOM     32  C   UNL     1      -1.345   7.684   2.272  1.00  0.00     0.338 C 
ATOM     33  O   UNL     1      -2.486   7.432   2.625  1.00  0.00    -0.246 OA
BRANCH  32  34
ATOM     34  C   UNL     1      -0.900   9.046   1.910  1.00  0.00     0.060 A 
ATOM     35  C   UNL     1      -1.376  10.100   2.697  1.00  0.00     0.016 A 
ATOM     36  C   UNL     1      -0.053   9.304   0.828  1.00  0.00     0.016 A 
ATOM     37  C   UNL     1      -1.045  11.416   2.378  1.00  0.00     0.010 A 
ATOM     38  C   UNL     1       0.296  10.626   0.522  1.00  0.00     0.010 A 
ATOM     39  C   UNL     1      -0.233  11.694   1.270  1.00  0.00    -0.014 A 
BRANCH  39  40
ATOM     40  C   UNL     1      -0.085  13.104   0.820  1.00  0.00     0.031 A 
ATOM     41  C   UNL     1      -0.845  13.565  -0.399  1.00  0.00     0.074 A 
ATOM     42  C   UNL     1       0.656  13.984   1.521  1.00  0.00     0.049 A 
ATOM     43  N   UNL     1      -0.910  14.759  -0.930  1.00  0.00    -0.248 NA
ATOM     44  C   UNL     1      -1.633  12.549  -1.116  1.00  0.00     0.031 C 
ATOM     45  C   UNL     1       1.437  13.670   2.718  1.00  0.00     0.029 A 
ATOM     46  N   UNL     1       0.868  15.328   1.328  1.00  0.00    -0.354 N 
ATOM     47  C   UNL     1      -1.728  14.634  -2.046  1.00  0.00     0.074 A 
ATOM     48  C   UNL     1      -2.115  13.244  -2.136  1.00  0.00     0.031 C 
ATOM     49  C   UNL     1       2.038  14.791   3.154  1.00  0.00     0.029 A 
ATOM     50  C   UNL     1       1.706  15.898   2.258  1.00  0.00     0.049 A 
ATOM     51  H   UNL     1       0.458  15.836   0.591  1.00  0.00     0.167 HD
ATOM     52  C   UNL     1      -2.137  15.592  -2.910  1.00  0.00     0.037 A 
ATOM     53  C   UNL     1       2.161  17.163   2.368  1.00  0.00     0.037 A 
ATOM     54  C   UNL     1      -1.792  16.985  -2.800  1.00  0.00     0.049 A 
ATOM     55  C   UNL     1       1.703  18.207   1.378  1.00  0.00     0.074 A 
ATOM     56  C   UNL     1      -2.223  18.038  -3.588  1.00  0.00     0.029 A 
ATOM     57  N   UNL     1      -0.934  17.518  -1.852  1.00  0.00    -0.354 N 
ATOM     58  N   UNL     1       0.867  18.084   0.375  1.00  0.00    -0.248 NA
ATOM     59  C   UNL     1       2.245  19.565   1.540  1.00  0.00     0.031 C 
ATOM     60  C   UNL     1      -1.582  19.201  -3.151  1.00  0.00     0.029 A 
ATOM     61  C   UNL     1      -0.795  18.880  -2.057  1.00  0.00     0.049 A 
ATOM     62  H   UNL     1      -0.490  17.005  -1.139  1.00  0.00     0.167 HD
ATOM     63  C   UNL     1       0.762  19.351  -0.192  1.00  0.00     0.074 A 
ATOM     64  C   UNL     1       1.607  20.230   0.587  1.00  0.00     0.031 C 
ATOM     65  C   UNL     1       0.033  19.751  -1.263  1.00  0.00     0.037 A 
BRANCH  52  66
ATOM     66  C   UNL     1      -3.000  15.179  -4.068  1.00  0.00     0.058 A 
ATOM     67  C   UNL     1      -4.354  14.851  -3.902  1.00  0.00     0.135 A 
ATOM     68  C   UNL     1      -2.483  15.198  -5.373  1.00  0.00     0.135 A 
ATOM     69  F   UNL     1      -4.892  14.799  -2.673  1.00  0.00    -0.206 F 
ATOM     70  C   UNL     1      -5.166  14.552  -4.991  1.00  0.00     0.059 A 
ATOM     71  C   UNL     1      -3.281  14.927  -6.479  1.00  0.00     0.059 A 
ATOM     72  F   UNL     1      -1.192  15.501  -5.584  1.00  0.00    -0.206 F 
ATOM     73  C   UNL     1      -4.622  14.601  -6.277  1.00  0.00     0.060 A 
BRANCH  73  74
ATOM     74  S   UNL     1      -5.701  14.263  -7.684  1.00  0.00     0.124 S 
ATOM     75  O   UNL     1      -5.891  12.820  -7.565  1.00  0.00    -0.237 OA
ATOM     76  O   UNL     1      -6.870  15.083  -7.383  1.00  0.00    -0.237 OA
ATOM     77  O   UNL     1      -4.912  14.698  -8.831  1.00  0.00    -0.744 OA
ENDBRANCH  73  74
ENDBRANCH  52  66
BRANCH  53  78
ATOM     78  C   UNL     1       3.128  17.528   3.441  1.00  0.00     0.058 A 
ATOM     79  C   UNL     1       2.777  18.411   4.473  1.00  0.00     0.135 A 
ATOM     80  C   UNL     1       4.446  17.045   3.416  1.00  0.00     0.135 A 
ATOM     81  F   UNL     1       1.533  18.910   4.535  1.00  0.00    -0.206 F 
ATOM     82  C   UNL     1       3.707  18.834   5.419  1.00  0.00     0.059 A 
ATOM     83  C   UNL     1       5.385  17.430   4.368  1.00  0.00     0.059 A 
ATOM     84  F   UNL     1       4.831  16.189   2.457  1.00  0.00    -0.206 F 
ATOM     85  C   UNL     1       5.012  18.343   5.353  1.00  0.00     0.060 A 
BRANCH  85  86
ATOM     86  S   UNL     1       6.216  18.898   6.579  1.00  0.00     0.124 S 
ATOM     87  O   UNL     1       6.512  20.246   6.109  1.00  0.00    -0.237 OA
ATOM     88  O   UNL     1       5.455  18.807   7.822  1.00  0.00    -0.237 OA
ATOM     89  O   UNL     1       7.300  17.929   6.445  1.00  0.00    -0.744 OA
ENDBRANCH  85  86
ENDBRANCH  53  78
BRANCH  65  90
ATOM     90  C   UNL     1       0.076  21.207  -1.639  1.00  0.00     0.058 A 
ATOM     91  C   UNL     1       1.207  21.782  -2.239  1.00  0.00     0.135 A 
ATOM     92  C   UNL     1      -1.053  22.023  -1.455  1.00  0.00     0.135 A 
ATOM     93  F   UNL     1       2.315  21.049  -2.434  1.00  0.00    -0.206 F 
ATOM     94  C   UNL     1       1.226  23.120  -2.622  1.00  0.00     0.059 A 
ATOM     95  C   UNL     1      -1.067  23.355  -1.857  1.00  0.00     0.059 A 
ATOM     96  F   UNL     1      -2.167  21.520  -0.899  1.00  0.00    -0.206 F 
ATOM     97  C   UNL     1       0.082  23.898  -2.430  1.00  0.00     0.060 A 
BRANCH  97  98
ATOM     98  S   UNL     1       0.105  25.622  -2.966  1.00  0.00     0.124 S 
ATOM     99  O   UNL     1       0.932  26.240  -1.934  1.00  0.00    -0.237 OA
ATOM    100  O   UNL     1       0.710  25.530  -4.291  1.00  0.00    -0.237 OA
ATOM    101  O   UNL     1      -1.304  26.002  -2.952  1.00  0.00    -0.744 OA
ENDBRANCH  97  98
ENDBRANCH  65  90
ENDBRANCH  39  40
ENDBRANCH  32  34
ENDBRANCH  31  32
ENDBRANCH  30  31
ENDBRANCH  29  30
ENDBRANCH   1  29
TORSDOF 20
