REMARK SMILES C[C@H](C[N@H+](C)[C@H]1CC[C@H]([NH3+])CC1)C(=O)OCCOCCOC(=O)c1ccc(-c2c3nc(c(-c4c(F)cc(S(=O)(=O)[O-])cc4F)c4ccc([nH]4)c(-c4c(F)cc(S(=O)(=O)[O-])cc4F)c4nc(c(-c5c(F)cc(S(=O)(=O)[O-])cc5F)c5ccc2[nH]5)C=C4)C=C3)cc1
REMARK SMILES IDX 17 1 16 2 15 3 13 4 14 5 2 6 1 7 3 8 4 9 5 10 6 12 7 13
REMARK SMILES IDX 12 14 8 15 11 16 9 17 10 18 18 22 19 23 20 24 21 25 22 26
REMARK SMILES IDX 23 27 24 28 25 29 89 30 26 31 88 32 27 33 28 34 29 35 82 36
REMARK SMILES IDX 30 37 87 38 81 39 83 40 31 41 86 42 80 43 79 44 32 46 66 47
REMARK SMILES IDX 45 48 65 49 46 50 49 51 64 52 84 53 47 54 48 55 63 57 85 58
REMARK SMILES IDX 50 59 33 60 34 61 43 62 35 63 36 64 42 65 44 66 37 67 38 68
REMARK SMILES IDX 39 69 40 70 41 71 67 72 68 73 77 74 69 75 70 76 76 77 78 78
REMARK SMILES IDX 71 79 72 80 73 81 74 82 75 83 51 84 52 85 61 86 53 87 54 88
REMARK SMILES IDX 60 89 62 90 55 91 56 92 57 93 58 94 59 95
REMARK H PARENT 4 11 10 19 10 20 10 21 83 45 49 56
REMARK Flexibility Score: inf
ROOT
ATOM      1  C   UNL     1      -3.682  -0.701   0.104  1.00  0.00     0.202 C 
ENDROOT
BRANCH   1   2
ATOM      2  C   UNL     1      -2.908  -1.289   1.290  1.00  0.00     0.261 C 
BRANCH   2   3
ATOM      3  O   UNL     1      -1.488  -1.047   1.226  1.00  0.00    -0.463 OA
BRANCH   3   4
ATOM      4  C   UNL     1      -0.720  -2.159   1.074  1.00  0.00     0.314 C 
ATOM      5  O   UNL     1      -1.154  -3.304   0.998  1.00  0.00    -0.252 OA
BRANCH   4   6
ATOM      6  C   UNL     1       0.768  -1.874   1.053  1.00  0.00     0.151 C 
ATOM      7  C   UNL     1       1.324  -1.984   2.470  1.00  0.00     0.026 C 
BRANCH   6   8
ATOM      8  C   UNL     1       1.179  -0.548   0.383  1.00  0.00     0.277 C 
BRANCH   8   9
ATOM      9  N   UNL     1       2.506  -0.680  -0.264  1.00  0.00    -0.334 N 
ATOM     10  C   UNL     1       3.230   0.589  -0.249  1.00  0.00     0.332 C 
ATOM     11  H   UNL     1       3.068  -1.325   0.292  1.00  0.00     0.348 HD
BRANCH   9  12
ATOM     12  C   UNL     1       2.416  -1.318  -1.600  1.00  0.00     0.184 C 
ATOM     13  C   UNL     1       3.708  -2.108  -1.885  1.00  0.00     0.071 C 
ATOM     14  C   UNL     1       2.092  -0.377  -2.779  1.00  0.00     0.071 C 
ATOM     15  C   UNL     1       3.615  -2.873  -3.208  1.00  0.00     0.071 C 
ATOM     16  C   UNL     1       1.994  -1.151  -4.097  1.00  0.00     0.071 C 
ATOM     17  C   UNL     1       3.278  -1.940  -4.375  1.00  0.00     0.181 C 
BRANCH  17  18
ATOM     18  N   UNL     1       3.133  -2.701  -5.615  1.00  0.00    -0.355 N 
ATOM     19  H   UNL     1       2.364  -3.364  -5.519  1.00  0.00     0.344 HD
ATOM     20  H   UNL     1       3.997  -3.208  -5.806  1.00  0.00     0.344 HD
ATOM     21  H   UNL     1       2.937  -2.062  -6.386  1.00  0.00     0.344 HD
ENDBRANCH  17  18
ENDBRANCH   9  12
ENDBRANCH   8   9
ENDBRANCH   6   8
ENDBRANCH   4   6
ENDBRANCH   3   4
ENDBRANCH   2   3
ENDBRANCH   1   2
BRANCH   1  22
ATOM     22  O   UNL     1      -3.330  -1.161  -1.199  1.00  0.00    -0.374 OA
BRANCH  22  23
ATOM     23  C   UNL     1      -2.126  -0.650  -1.766  1.00  0.00     0.202 C 
BRANCH  23  24
ATOM     24  C   UNL     1      -2.147   0.805  -2.254  1.00  0.00     0.261 C 
BRANCH  24  25
ATOM     25  O   UNL     1      -2.405   1.747  -1.195  1.00  0.00    -0.460 OA
BRANCH  25  26
ATOM     26  C   UNL     1      -3.534   2.478  -1.365  1.00  0.00     0.338 C 
ATOM     27  O   UNL     1      -4.259   2.490  -2.352  1.00  0.00    -0.246 OA
BRANCH  26  28
ATOM     28  C   UNL     1      -3.914   3.165  -0.117  1.00  0.00     0.060 A 
ATOM     29  C   UNL     1      -5.206   2.929   0.369  1.00  0.00     0.016 A 
ATOM     30  C   UNL     1      -3.084   4.100   0.507  1.00  0.00     0.016 A 
ATOM     31  C   UNL     1      -5.695   3.671   1.440  1.00  0.00     0.010 A 
ATOM     32  C   UNL     1      -3.581   4.849   1.584  1.00  0.00     0.010 A 
ATOM     33  C   UNL     1      -4.903   4.667   2.029  1.00  0.00    -0.014 A 
BRANCH  33  34
ATOM     34  C   UNL     1      -5.536   5.584   3.012  1.00  0.00     0.031 A 
ATOM     35  C   UNL     1      -6.024   6.934   2.557  1.00  0.00     0.074 A 
ATOM     36  C   UNL     1      -5.764   5.176   4.274  1.00  0.00     0.049 A 
ATOM     37  N   UNL     1      -6.697   7.839   3.221  1.00  0.00    -0.248 NA
ATOM     38  C   UNL     1      -5.717   7.314   1.168  1.00  0.00     0.031 C 
ATOM     39  C   UNL     1      -5.352   3.888   4.830  1.00  0.00     0.029 A 
ATOM     40  N   UNL     1      -6.411   5.799   5.311  1.00  0.00    -0.354 N 
ATOM     41  C   UNL     1      -6.912   8.884   2.330  1.00  0.00     0.074 A 
ATOM     42  C   UNL     1      -6.256   8.523   1.091  1.00  0.00     0.031 C 
ATOM     43  C   UNL     1      -5.758   3.815   6.110  1.00  0.00     0.029 A 
ATOM     44  C   UNL     1      -6.450   5.053   6.465  1.00  0.00     0.049 A 
ATOM     45  H   UNL     1      -6.809   6.696   5.236  1.00  0.00     0.167 HD
ATOM     46  C   UNL     1      -7.610  10.031   2.517  1.00  0.00     0.037 A 
ATOM     47  C   UNL     1      -6.983   5.336   7.670  1.00  0.00     0.037 A 
ATOM     48  C   UNL     1      -8.255  10.395   3.752  1.00  0.00     0.049 A 
ATOM     49  C   UNL     1      -7.726   6.631   7.864  1.00  0.00     0.074 A 
ATOM     50  C   UNL     1      -8.981  11.538   4.042  1.00  0.00     0.029 A 
ATOM     51  N   UNL     1      -8.252   9.624   4.905  1.00  0.00    -0.354 N 
ATOM     52  N   UNL     1      -7.940   7.597   7.002  1.00  0.00    -0.248 NA
ATOM     53  C   UNL     1      -8.313   6.867   9.190  1.00  0.00     0.031 C 
ATOM     54  C   UNL     1      -9.388  11.473   5.380  1.00  0.00     0.029 A 
ATOM     55  C   UNL     1      -8.951  10.271   5.912  1.00  0.00     0.049 A 
ATOM     56  H   UNL     1      -7.817   8.745   4.995  1.00  0.00     0.167 HD
ATOM     57  C   UNL     1      -8.697   8.549   7.678  1.00  0.00     0.074 A 
ATOM     58  C   UNL     1      -8.925   8.030   9.011  1.00  0.00     0.031 C 
ATOM     59  C   UNL     1      -9.159   9.746   7.238  1.00  0.00     0.037 A 
BRANCH  46  60
ATOM     60  C   UNL     1      -7.709  10.980   1.355  1.00  0.00     0.058 A 
ATOM     61  C   UNL     1      -8.528  10.700   0.249  1.00  0.00     0.135 A 
ATOM     62  C   UNL     1      -7.012  12.198   1.361  1.00  0.00     0.135 A 
ATOM     63  F   UNL     1      -9.203   9.541   0.185  1.00  0.00    -0.206 F 
ATOM     64  C   UNL     1      -8.637  11.585  -0.818  1.00  0.00     0.059 A 
ATOM     65  C   UNL     1      -7.123  13.109   0.314  1.00  0.00     0.059 A 
ATOM     66  F   UNL     1      -6.213  12.514   2.392  1.00  0.00    -0.206 F 
ATOM     67  C   UNL     1      -7.930  12.788  -0.777  1.00  0.00     0.060 A 
BRANCH  67  68
ATOM     68  S   UNL     1      -8.090  13.932  -2.164  1.00  0.00     0.124 S 
ATOM     69  O   UNL     1      -7.298  13.259  -3.189  1.00  0.00    -0.237 OA
ATOM     70  O   UNL     1      -9.532  13.952  -2.389  1.00  0.00    -0.237 OA
ATOM     71  O   UNL     1      -7.522  15.174  -1.648  1.00  0.00    -0.744 OA
ENDBRANCH  67  68
ENDBRANCH  46  60
BRANCH  47  72
ATOM     72  C   UNL     1      -6.829   4.372   8.792  1.00  0.00     0.058 A 
ATOM     73  C   UNL     1      -7.921   3.645   9.288  1.00  0.00     0.135 A 
ATOM     74  C   UNL     1      -5.578   4.168   9.393  1.00  0.00     0.135 A 
ATOM     75  F   UNL     1      -9.139   3.814   8.752  1.00  0.00    -0.206 F 
ATOM     76  C   UNL     1      -7.782   2.761  10.354  1.00  0.00     0.059 A 
ATOM     77  C   UNL     1      -5.409   3.271  10.443  1.00  0.00     0.059 A 
ATOM     78  F   UNL     1      -4.500   4.830   8.946  1.00  0.00    -0.206 F 
ATOM     79  C   UNL     1      -6.520   2.581  10.925  1.00  0.00     0.060 A 
BRANCH  79  80
ATOM     80  S   UNL     1      -6.335   1.397  12.276  1.00  0.00     0.124 S 
ATOM     81  O   UNL     1      -6.887   2.146  13.399  1.00  0.00    -0.237 OA
ATOM     82  O   UNL     1      -7.131   0.267  11.808  1.00  0.00    -0.237 OA
ATOM     83  O   UNL     1      -4.895   1.163  12.318  1.00  0.00    -0.744 OA
ENDBRANCH  79  80
ENDBRANCH  47  72
BRANCH  59  84
ATOM     84  C   UNL     1      -9.964  10.567   8.208  1.00  0.00     0.058 A 
ATOM     85  C   UNL     1      -9.361  11.214   9.299  1.00  0.00     0.135 A 
ATOM     86  C   UNL     1     -11.350  10.715   8.042  1.00  0.00     0.135 A 
ATOM     87  F   UNL     1      -8.039  11.102   9.503  1.00  0.00    -0.206 F 
ATOM     88  C   UNL     1     -10.111  11.944  10.216  1.00  0.00     0.059 A 
ATOM     89  C   UNL     1     -12.116  11.462   8.933  1.00  0.00     0.059 A 
ATOM     90  F   UNL     1     -11.974  10.129   7.008  1.00  0.00    -0.206 F 
ATOM     91  C   UNL     1     -11.489  12.055  10.028  1.00  0.00     0.060 A 
BRANCH  91  92
ATOM     92  S   UNL     1     -12.456  12.995  11.229  1.00  0.00     0.124 S 
ATOM     93  O   UNL     1     -12.551  12.048  12.335  1.00  0.00    -0.237 OA
ATOM     94  O   UNL     1     -11.615  14.164  11.466  1.00  0.00    -0.237 OA
ATOM     95  O   UNL     1     -13.705  13.263  10.522  1.00  0.00    -0.744 OA
ENDBRANCH  91  92
ENDBRANCH  59  84
ENDBRANCH  33  34
ENDBRANCH  26  28
ENDBRANCH  25  26
ENDBRANCH  24  25
ENDBRANCH  23  24
ENDBRANCH  22  23
ENDBRANCH   1  22
TORSDOF 21
