REMARK SMILES C[C@H](CC(=O)OCCOCCOC(=O)c1ccc(-c2c3nc(c(-c4c(F)cc(S(=O)(=O)[O-])cc4F)c4ccc([nH]4)c(-c4c(F)cc(S(=O)(=O)[O-])cc4F)c4nc(c(-c5c(F)cc(S(=O)(=O)[O-])cc5F)c5ccc2[nH]5)C=C4)C=C3)cc1)NC(=O)Cc1cn2ccsc2n1
REMARK SMILES IDX 8 1 7 2 6 3 4 4 5 5 3 6 2 7 1 8 81 9 82 10 83 12 84 13 85 14
REMARK SMILES IDX 86 15 92 16 87 17 91 18 88 19 90 20 89 21 9 22 10 23 11 24
REMARK SMILES IDX 12 25 13 26 14 27 15 28 16 29 80 30 17 31 79 32 18 33 19 34
REMARK SMILES IDX 20 35 73 36 21 37 78 38 72 39 74 40 22 41 77 42 71 43 70 44
REMARK SMILES IDX 23 46 57 47 36 48 56 49 37 50 40 51 55 52 75 53 38 54 39 55
REMARK SMILES IDX 54 57 76 58 41 59 24 60 25 61 34 62 26 63 27 64 33 65 35 66
REMARK SMILES IDX 28 67 29 68 30 69 31 70 32 71 58 72 59 73 68 74 60 75 61 76
REMARK SMILES IDX 67 77 69 78 62 79 63 80 64 81 65 82 66 83 42 84 43 85 52 86
REMARK SMILES IDX 44 87 45 88 51 89 53 90 46 91 47 92 48 93 49 94 50 95
REMARK H PARENT 81 11 74 45 40 56
REMARK Flexibility Score: inf
ROOT
ATOM      1  C   UNL     1      -0.187  -4.399   0.078  1.00  0.00     0.202 C 
ENDROOT
BRANCH   1   2
ATOM      2  C   UNL     1      -0.583  -3.189   0.931  1.00  0.00     0.261 C 
BRANCH   2   3
ATOM      3  O   UNL     1      -0.357  -1.917   0.294  1.00  0.00    -0.463 OA
BRANCH   3   4
ATOM      4  C   UNL     1       0.760  -1.273   0.719  1.00  0.00     0.307 C 
ATOM      5  O   UNL     1       1.589  -1.743   1.493  1.00  0.00    -0.252 OA
BRANCH   4   6
ATOM      6  C   UNL     1       0.867   0.142   0.230  1.00  0.00     0.147 C 
BRANCH   6   7
ATOM      7  C   UNL     1       0.393   0.550  -1.171  1.00  0.00     0.090 C 
ATOM      8  C   UNL     1       0.898  -0.307  -2.322  1.00  0.00     0.031 C 
BRANCH   7   9
ATOM      9  N   UNL     1      -1.056   0.708  -1.252  1.00  0.00    -0.353 N 
ATOM     10  C   UNL     1      -1.784   1.861  -1.384  1.00  0.00     0.226 C 
ATOM     11  H   UNL     1      -1.579  -0.125  -1.207  1.00  0.00     0.163 HD
ATOM     12  O   UNL     1      -3.015   1.777  -1.369  1.00  0.00    -0.275 OA
BRANCH  10  13
ATOM     13  C   UNL     1      -1.096   3.192  -1.648  1.00  0.00     0.157 C 
BRANCH  13  14
ATOM     14  C   UNL     1      -0.409   3.789  -0.461  1.00  0.00     0.070 A 
ATOM     15  C   UNL     1      -0.124   5.128  -0.199  1.00  0.00     0.118 A 
ATOM     16  N   UNL     1       0.152   2.984   0.513  1.00  0.00    -0.223 NA
ATOM     17  N   UNL     1       0.642   5.107   0.932  1.00  0.00    -0.297 N 
ATOM     18  C   UNL     1       0.758   3.809   1.311  1.00  0.00     0.193 A 
ATOM     19  C   UNL     1       1.328   6.006   1.715  1.00  0.00     0.104 A 
ATOM     20  S   UNL     1       1.770   3.631   2.705  1.00  0.00    -0.105 S 
ATOM     21  C   UNL     1       1.990   5.388   2.711  1.00  0.00     0.087 A 
ENDBRANCH  13  14
ENDBRANCH  10  13
ENDBRANCH   7   9
ENDBRANCH   6   7
ENDBRANCH   4   6
ENDBRANCH   3   4
ENDBRANCH   2   3
ENDBRANCH   1   2
BRANCH   1  22
ATOM     22  O   UNL     1       1.178  -4.501  -0.322  1.00  0.00    -0.374 OA
BRANCH  22  23
ATOM     23  C   UNL     1       1.613  -3.669  -1.396  1.00  0.00     0.202 C 
BRANCH  23  24
ATOM     24  C   UNL     1       1.062  -4.009  -2.784  1.00  0.00     0.261 C 
BRANCH  24  25
ATOM     25  O   UNL     1      -0.346  -3.714  -2.874  1.00  0.00    -0.460 OA
BRANCH  25  26
ATOM     26  C   UNL     1      -1.093  -4.727  -3.377  1.00  0.00     0.338 C 
ATOM     27  O   UNL     1      -0.681  -5.754  -3.889  1.00  0.00    -0.246 OA
BRANCH  26  28
ATOM     28  C   UNL     1      -2.517  -4.529  -3.050  1.00  0.00     0.060 A 
ATOM     29  C   UNL     1      -3.135  -5.532  -2.293  1.00  0.00     0.016 A 
ATOM     30  C   UNL     1      -3.264  -3.469  -3.568  1.00  0.00     0.016 A 
ATOM     31  C   UNL     1      -4.516  -5.524  -2.124  1.00  0.00     0.010 A 
ATOM     32  C   UNL     1      -4.657  -3.466  -3.400  1.00  0.00     0.010 A 
ATOM     33  C   UNL     1      -5.292  -4.524  -2.725  1.00  0.00    -0.014 A 
BRANCH  33  34
ATOM     34  C   UNL     1      -6.764  -4.723  -2.784  1.00  0.00     0.031 A 
ATOM     35  C   UNL     1      -7.372  -5.304  -4.035  1.00  0.00     0.074 A 
ATOM     36  C   UNL     1      -7.532  -4.503  -1.702  1.00  0.00     0.049 A 
ATOM     37  N   UNL     1      -8.605  -5.680  -4.261  1.00  0.00    -0.248 NA
ATOM     38  C   UNL     1      -6.468  -5.494  -5.181  1.00  0.00     0.031 C 
ATOM     39  C   UNL     1      -7.058  -3.971  -0.426  1.00  0.00     0.029 A 
ATOM     40  N   UNL     1      -8.872  -4.721  -1.500  1.00  0.00    -0.354 N 
ATOM     41  C   UNL     1      -8.624  -6.158  -5.567  1.00  0.00     0.074 A 
ATOM     42  C   UNL     1      -7.288  -5.988  -6.097  1.00  0.00     0.031 C 
ATOM     43  C   UNL     1      -8.091  -3.915   0.433  1.00  0.00     0.029 A 
ATOM     44  C   UNL     1      -9.299  -4.394  -0.236  1.00  0.00     0.049 A 
ATOM     45  H   UNL     1      -9.470  -5.078  -2.196  1.00  0.00     0.167 HD
ATOM     46  C   UNL     1      -9.653  -6.704  -6.259  1.00  0.00     0.037 A 
ATOM     47  C   UNL     1     -10.525  -4.477   0.320  1.00  0.00     0.037 A 
ATOM     48  C   UNL     1     -10.983  -6.872  -5.733  1.00  0.00     0.049 A 
ATOM     49  C   UNL     1     -11.664  -5.050  -0.482  1.00  0.00     0.074 A 
ATOM     50  C   UNL     1     -12.092  -7.421  -6.352  1.00  0.00     0.029 A 
ATOM     51  N   UNL     1     -11.386  -6.489  -4.462  1.00  0.00    -0.354 N 
ATOM     52  N   UNL     1     -11.659  -5.521  -1.706  1.00  0.00    -0.248 NA
ATOM     53  C   UNL     1     -12.974  -5.115   0.181  1.00  0.00     0.031 C 
ATOM     54  C   UNL     1     -13.175  -7.335  -5.470  1.00  0.00     0.029 A 
ATOM     55  C   UNL     1     -12.730  -6.773  -4.284  1.00  0.00     0.049 A 
ATOM     56  H   UNL     1     -10.802  -6.077  -3.785  1.00  0.00     0.167 HD
ATOM     57  C   UNL     1     -12.957  -5.958  -1.952  1.00  0.00     0.074 A 
ATOM     58  C   UNL     1     -13.716  -5.709  -0.744  1.00  0.00     0.031 C 
ATOM     59  C   UNL     1     -13.473  -6.516  -3.076  1.00  0.00     0.037 A 
BRANCH  46  60
ATOM     60  C   UNL     1      -9.382  -7.141  -7.672  1.00  0.00     0.058 A 
ATOM     61  C   UNL     1      -8.621  -8.287  -7.956  1.00  0.00     0.135 A 
ATOM     62  C   UNL     1      -9.905  -6.418  -8.755  1.00  0.00     0.135 A 
ATOM     63  F   UNL     1      -8.082  -9.005  -6.958  1.00  0.00    -0.206 F 
ATOM     64  C   UNL     1      -8.365  -8.684  -9.265  1.00  0.00     0.059 A 
ATOM     65  C   UNL     1      -9.682  -6.811 -10.072  1.00  0.00     0.059 A 
ATOM     66  F   UNL     1     -10.638  -5.314  -8.540  1.00  0.00    -0.206 F 
ATOM     67  C   UNL     1      -8.898  -7.937 -10.317  1.00  0.00     0.060 A 
BRANCH  67  68
ATOM     68  S   UNL     1      -8.556  -8.460 -12.011  1.00  0.00     0.124 S 
ATOM     69  O   UNL     1      -7.165  -8.046 -12.168  1.00  0.00    -0.237 OA
ATOM     70  O   UNL     1      -8.785  -9.900 -11.948  1.00  0.00    -0.237 OA
ATOM     71  O   UNL     1      -9.527  -7.709 -12.801  1.00  0.00    -0.744 OA
ENDBRANCH  67  68
ENDBRANCH  46  60
BRANCH  47  72
ATOM     72  C   UNL     1     -10.736  -4.013   1.716  1.00  0.00     0.058 A 
ATOM     73  C   UNL     1     -10.985  -4.921   2.756  1.00  0.00     0.135 A 
ATOM     74  C   UNL     1     -10.689  -2.648   2.038  1.00  0.00     0.135 A 
ATOM     75  F   UNL     1     -11.051  -6.236   2.497  1.00  0.00    -0.206 F 
ATOM     76  C   UNL     1     -11.191  -4.492   4.064  1.00  0.00     0.059 A 
ATOM     77  C   UNL     1     -10.868  -2.196   3.341  1.00  0.00     0.059 A 
ATOM     78  F   UNL     1     -10.446  -1.740   1.079  1.00  0.00    -0.206 F 
ATOM     79  C   UNL     1     -11.128  -3.127   4.346  1.00  0.00     0.060 A 
BRANCH  79  80
ATOM     80  S   UNL     1     -11.342  -2.582   6.055  1.00  0.00     0.124 S 
ATOM     81  O   UNL     1     -12.784  -2.718   6.229  1.00  0.00    -0.237 OA
ATOM     82  O   UNL     1     -10.517  -3.537   6.789  1.00  0.00    -0.237 OA
ATOM     83  O   UNL     1     -10.834  -1.213   6.036  1.00  0.00    -0.744 OA
ENDBRANCH  79  80
ENDBRANCH  47  72
BRANCH  59  84
ATOM     84  C   UNL     1     -14.922  -6.919  -3.038  1.00  0.00     0.058 A 
ATOM     85  C   UNL     1     -15.954  -5.967  -3.064  1.00  0.00     0.135 A 
ATOM     86  C   UNL     1     -15.284  -8.275  -2.994  1.00  0.00     0.135 A 
ATOM     87  F   UNL     1     -15.663  -4.657  -3.105  1.00  0.00    -0.206 F 
ATOM     88  C   UNL     1     -17.292  -6.344  -3.006  1.00  0.00     0.059 A 
ATOM     89  C   UNL     1     -16.616  -8.676  -2.961  1.00  0.00     0.059 A 
ATOM     90  F   UNL     1     -14.337  -9.227  -2.983  1.00  0.00    -0.206 F 
ATOM     91  C   UNL     1     -17.613  -7.701  -2.947  1.00  0.00     0.060 A 
BRANCH  91  92
ATOM     92  S   UNL     1     -19.352  -8.182  -2.868  1.00  0.00     0.124 S 
ATOM     93  O   UNL     1     -19.666  -7.914  -1.469  1.00  0.00    -0.237 OA
ATOM     94  O   UNL     1     -19.972  -7.286  -3.840  1.00  0.00    -0.237 OA
ATOM     95  O   UNL     1     -19.331  -9.591  -3.249  1.00  0.00    -0.744 OA
ENDBRANCH  91  92
ENDBRANCH  59  84
ENDBRANCH  33  34
ENDBRANCH  26  28
ENDBRANCH  25  26
ENDBRANCH  24  25
ENDBRANCH  23  24
ENDBRANCH  22  23
ENDBRANCH   1  22
TORSDOF 21
