REMARK SMILES COc1cc(/C=C2/N=C(c3ccccc3)OC2=O)ccc1OCC(=O)OCCOCCOC(=O)c1ccc(-c2c3nc(c(-c4c(F)cc(S(=O)(=O)[O-])cc4F)c4ccc([nH]4)c(-c4c(F)cc(S(=O)(=O)[O-])cc4F)c4nc(c(-c5c(F)cc(S(=O)(=O)[O-])cc5F)c5ccc2[nH]5)C=C4)C=C3)cc1
REMARK SMILES IDX 28 1 27 2 26 3 24 4 25 5 23 6 22 7 21 8 3 9 4 10 5 11 20 12
REMARK SMILES IDX 19 13 2 14 1 15 6 16 7 17 8 18 17 19 9 20 16 21 18 22 10 23
REMARK SMILES IDX 11 24 15 25 12 26 14 27 13 28 29 29 30 30 31 31 32 32 33 33
REMARK SMILES IDX 34 34 35 35 36 36 100 37 37 38 99 39 38 40 39 41 40 42 93 43
REMARK SMILES IDX 41 44 98 45 92 46 94 47 42 48 97 49 91 50 90 51 43 53 77 54
REMARK SMILES IDX 56 55 76 56 57 57 60 58 75 59 95 60 58 61 59 62 74 64 96 65
REMARK SMILES IDX 61 66 44 67 45 68 54 69 46 70 47 71 53 72 55 73 48 74 49 75
REMARK SMILES IDX 50 76 51 77 52 78 78 79 79 80 88 81 80 82 81 83 87 84 89 85
REMARK SMILES IDX 82 86 83 87 84 88 85 89 86 90 62 91 63 92 72 93 64 94 65 95
REMARK SMILES IDX 71 96 73 97 66 98 67 99 68 100 69 101 70 102
REMARK H PARENT 94 52 60 63
REMARK Flexibility Score: inf
ROOT
ATOM      1  C   UNL     1      -0.310  -2.561  -2.131  1.00  0.00     0.202 C 
ENDROOT
BRANCH   1   2
ATOM      2  C   UNL     1       0.896  -1.709  -2.550  1.00  0.00     0.261 C 
BRANCH   2   3
ATOM      3  O   UNL     1       1.879  -1.594  -1.497  1.00  0.00    -0.461 OA
BRANCH   3   4
ATOM      4  C   UNL     1       2.319  -0.334  -1.229  1.00  0.00     0.344 C 
ATOM      5  O   UNL     1       1.972   0.668  -1.848  1.00  0.00    -0.248 OA
BRANCH   4   6
ATOM      6  C   UNL     1       3.338  -0.268  -0.084  1.00  0.00     0.352 C 
BRANCH   6   7
ATOM      7  O   UNL     1       3.440  -1.287   0.881  1.00  0.00    -0.478 OA
BRANCH   7   8
ATOM      8  C   UNL     1       2.570  -1.436   1.919  1.00  0.00     0.162 A 
ATOM      9  C   UNL     1       1.583  -0.579   2.424  1.00  0.00     0.161 A 
ATOM     10  C   UNL     1       0.744  -1.023   3.473  1.00  0.00     0.058 A 
ATOM     11  C   UNL     1       0.924  -2.292   4.057  1.00  0.00    -0.019 A 
ATOM     12  C   UNL     1       2.768  -2.674   2.552  1.00  0.00     0.051 A 
ATOM     13  C   UNL     1       1.970  -3.097   3.613  1.00  0.00     0.012 A 
BRANCH   9  14
ATOM     14  O   UNL     1       1.563   0.759   2.127  1.00  0.00    -0.493 OA
ATOM     15  C   UNL     1       0.662   1.166   1.102  1.00  0.00     0.278 C 
ENDBRANCH   9  14
BRANCH  11  16
ATOM     16  C   UNL     1       0.049  -2.809   5.116  1.00  0.00     0.044 C 
ATOM     17  C   UNL     1       0.304  -2.761   6.430  1.00  0.00     0.153 C 
ATOM     18  N   UNL     1      -0.539  -3.252   7.402  1.00  0.00    -0.205 NA
ATOM     19  C   UNL     1       1.487  -2.095   7.059  1.00  0.00     0.363 C 
ATOM     20  C   UNL     1       0.024  -2.834   8.488  1.00  0.00     0.231 C 
ATOM     21  O   UNL     1       1.194  -2.165   8.389  1.00  0.00    -0.402 OA
ATOM     22  O   UNL     1       2.464  -1.586   6.565  1.00  0.00    -0.244 OA
BRANCH  20  23
ATOM     23  C   UNL     1      -0.439  -2.968   9.866  1.00  0.00     0.037 A 
ATOM     24  C   UNL     1      -0.822  -4.209  10.376  1.00  0.00     0.014 A 
ATOM     25  C   UNL     1      -0.506  -1.819  10.663  1.00  0.00     0.014 A 
ATOM     26  C   UNL     1      -1.255  -4.299  11.702  1.00  0.00     0.001 A 
ATOM     27  C   UNL     1      -0.956  -1.912  11.979  1.00  0.00     0.001 A 
ATOM     28  C   UNL     1      -1.324  -3.152  12.499  1.00  0.00     0.000 A 
ENDBRANCH  20  23
ENDBRANCH  11  16
ENDBRANCH   7   8
ENDBRANCH   6   7
ENDBRANCH   4   6
ENDBRANCH   3   4
ENDBRANCH   2   3
ENDBRANCH   1   2
BRANCH   1  29
ATOM     29  O   UNL     1      -1.139  -2.022  -1.099  1.00  0.00    -0.374 OA
BRANCH  29  30
ATOM     30  C   UNL     1      -0.614  -2.090   0.225  1.00  0.00     0.202 C 
BRANCH  30  31
ATOM     31  C   UNL     1      -0.778  -3.412   0.969  1.00  0.00     0.261 C 
BRANCH  31  32
ATOM     32  O   UNL     1      -0.040  -4.460   0.343  1.00  0.00    -0.460 OA
BRANCH  32  33
ATOM     33  C   UNL     1      -0.813  -5.420  -0.210  1.00  0.00     0.338 C 
ATOM     34  O   UNL     1      -2.021  -5.551  -0.126  1.00  0.00    -0.246 OA
BRANCH  33  35
ATOM     35  C   UNL     1       0.024  -6.188  -1.136  1.00  0.00     0.060 A 
ATOM     36  C   UNL     1      -0.405  -6.258  -2.466  1.00  0.00     0.016 A 
ATOM     37  C   UNL     1       1.200  -6.810  -0.712  1.00  0.00     0.016 A 
ATOM     38  C   UNL     1       0.326  -6.998  -3.380  1.00  0.00     0.010 A 
ATOM     39  C   UNL     1       1.928  -7.561  -1.629  1.00  0.00     0.010 A 
ATOM     40  C   UNL     1       1.472  -7.679  -2.953  1.00  0.00    -0.014 A 
BRANCH  40  41
ATOM     41  C   UNL     1       2.124  -8.627  -3.872  1.00  0.00     0.031 A 
ATOM     42  C   UNL     1       1.835 -10.088  -3.712  1.00  0.00     0.074 A 
ATOM     43  C   UNL     1       2.946  -8.164  -4.827  1.00  0.00     0.049 A 
ATOM     44  N   UNL     1       2.326 -11.103  -4.369  1.00  0.00    -0.248 NA
ATOM     45  C   UNL     1       0.868 -10.456  -2.664  1.00  0.00     0.031 C 
ATOM     46  C   UNL     1       3.256  -6.753  -5.055  1.00  0.00     0.029 A 
ATOM     47  N   UNL     1       3.682  -8.831  -5.768  1.00  0.00    -0.354 N 
ATOM     48  C   UNL     1       1.744 -12.231  -3.803  1.00  0.00     0.074 A 
ATOM     49  C   UNL     1       0.881 -11.778  -2.736  1.00  0.00     0.031 C 
ATOM     50  C   UNL     1       4.143  -6.660  -6.059  1.00  0.00     0.029 A 
ATOM     51  C   UNL     1       4.487  -8.005  -6.513  1.00  0.00     0.049 A 
ATOM     52  H   UNL     1       3.638  -9.805  -5.899  1.00  0.00     0.167 HD
ATOM     53  C   UNL     1       1.922 -13.525  -4.154  1.00  0.00     0.037 A 
ATOM     54  C   UNL     1       5.426  -8.312  -7.427  1.00  0.00     0.037 A 
ATOM     55  C   UNL     1       2.797 -13.937  -5.220  1.00  0.00     0.049 A 
ATOM     56  C   UNL     1       5.645  -9.760  -7.768  1.00  0.00     0.074 A 
ATOM     57  C   UNL     1       3.024 -15.210  -5.705  1.00  0.00     0.029 A 
ATOM     58  N   UNL     1       3.609 -13.077  -5.951  1.00  0.00    -0.354 N 
ATOM     59  N   UNL     1       5.043 -10.819  -7.277  1.00  0.00    -0.248 NA
ATOM     60  C   UNL     1       6.662 -10.059  -8.782  1.00  0.00     0.031 C 
ATOM     61  C   UNL     1       4.025 -15.129  -6.680  1.00  0.00     0.029 A 
ATOM     62  C   UNL     1       4.376 -13.797  -6.849  1.00  0.00     0.049 A 
ATOM     63  H   UNL     1       3.634 -12.098  -5.845  1.00  0.00     0.167 HD
ATOM     64  C   UNL     1       5.606 -11.913  -7.923  1.00  0.00     0.074 A 
ATOM     65  C   UNL     1       6.578 -11.381  -8.860  1.00  0.00     0.031 C 
ATOM     66  C   UNL     1       5.349 -13.235  -7.757  1.00  0.00     0.037 A 
BRANCH  53  67
ATOM     67  C   UNL     1       1.205 -14.573  -3.347  1.00  0.00     0.058 A 
ATOM     68  C   UNL     1      -0.191 -14.723  -3.381  1.00  0.00     0.135 A 
ATOM     69  C   UNL     1       1.932 -15.448  -2.522  1.00  0.00     0.135 A 
ATOM     70  F   UNL     1      -0.941 -13.903  -4.136  1.00  0.00    -0.206 F 
ATOM     71  C   UNL     1      -0.842 -15.675  -2.603  1.00  0.00     0.059 A 
ATOM     72  C   UNL     1       1.305 -16.428  -1.759  1.00  0.00     0.059 A 
ATOM     73  F   UNL     1       3.269 -15.348  -2.443  1.00  0.00    -0.206 F 
ATOM     74  C   UNL     1      -0.084 -16.523  -1.793  1.00  0.00     0.060 A 
BRANCH  74  75
ATOM     75  S   UNL     1      -0.944 -17.747  -0.782  1.00  0.00     0.124 S 
ATOM     76  O   UNL     1      -1.577 -16.901   0.226  1.00  0.00    -0.237 OA
ATOM     77  O   UNL     1      -1.847 -18.367  -1.746  1.00  0.00    -0.237 OA
ATOM     78  O   UNL     1       0.132 -18.603  -0.294  1.00  0.00    -0.744 OA
ENDBRANCH  74  75
ENDBRANCH  53  67
BRANCH  54  79
ATOM     79  C   UNL     1       6.232  -7.223  -8.038  1.00  0.00     0.058 A 
ATOM     80  C   UNL     1       6.065  -6.856  -9.380  1.00  0.00     0.135 A 
ATOM     81  C   UNL     1       7.140  -6.480  -7.265  1.00  0.00     0.135 A 
ATOM     82  F   UNL     1       5.215  -7.539 -10.162  1.00  0.00    -0.206 F 
ATOM     83  C   UNL     1       6.763  -5.786  -9.933  1.00  0.00     0.059 A 
ATOM     84  C   UNL     1       7.829  -5.391  -7.787  1.00  0.00     0.059 A 
ATOM     85  F   UNL     1       7.325  -6.783  -5.970  1.00  0.00    -0.206 F 
ATOM     86  C   UNL     1       7.634  -5.052  -9.124  1.00  0.00     0.060 A 
BRANCH  86  87
ATOM     87  S   UNL     1       8.464  -3.612  -9.830  1.00  0.00     0.124 S 
ATOM     88  O   UNL     1       9.413  -4.237 -10.744  1.00  0.00    -0.237 OA
ATOM     89  O   UNL     1       7.354  -2.897 -10.452  1.00  0.00    -0.237 OA
ATOM     90  O   UNL     1       9.048  -2.955  -8.665  1.00  0.00    -0.744 OA
ENDBRANCH  86  87
ENDBRANCH  54  79
BRANCH  66  91
ATOM     91  C   UNL     1       6.138 -14.198  -8.599  1.00  0.00     0.058 A 
ATOM     92  C   UNL     1       7.497 -14.446  -8.347  1.00  0.00     0.135 A 
ATOM     93  C   UNL     1       5.512 -14.935  -9.616  1.00  0.00     0.135 A 
ATOM     94  F   UNL     1       8.144 -13.759  -7.392  1.00  0.00    -0.206 F 
ATOM     95  C   UNL     1       8.211 -15.382  -9.085  1.00  0.00     0.059 A 
ATOM     96  C   UNL     1       6.199 -15.900 -10.345  1.00  0.00     0.059 A 
ATOM     97  F   UNL     1       4.212 -14.742  -9.890  1.00  0.00    -0.206 F 
ATOM     98  C   UNL     1       7.550 -16.111 -10.076  1.00  0.00     0.060 A 
BRANCH  98  99
ATOM     99  S   UNL     1       8.478 -17.362 -10.988  1.00  0.00     0.124 S 
ATOM    100  O   UNL     1       9.358 -16.536 -11.808  1.00  0.00    -0.237 OA
ATOM    101  O   UNL     1       9.127 -18.109  -9.915  1.00  0.00    -0.237 OA
ATOM    102  O   UNL     1       7.444 -18.090 -11.716  1.00  0.00    -0.744 OA
ENDBRANCH  98  99
ENDBRANCH  66  91
ENDBRANCH  40  41
ENDBRANCH  33  35
ENDBRANCH  32  33
ENDBRANCH  31  32
ENDBRANCH  30  31
ENDBRANCH  29  30
ENDBRANCH   1  29
TORSDOF 22
