REMARK SMILES CC(C)N(CC(=O)OCCOCCOC(=O)c1ccc(-c2c3nc(c(-c4c(F)cc(S(=O)(=O)[O-])cc4F)c4ccc([nH]4)c(-c4c(F)cc(S(=O)(=O)[O-])cc4F)c4nc(c(-c5c(F)cc(S(=O)(=O)[O-])cc5F)c5ccc2[nH]5)C=C4)C=C3)cc1)C(=O)NC1C(C)(C)C1(C)C
REMARK SMILES IDX 11 1 10 2 9 3 8 4 6 5 7 6 5 7 4 8 2 9 1 10 3 11 83 12 84 13
REMARK SMILES IDX 85 14 86 16 87 17 90 18 88 19 89 20 91 21 92 22 12 23 13 24
REMARK SMILES IDX 14 25 15 26 16 27 17 28 18 29 82 30 19 31 81 32 20 33 21 34
REMARK SMILES IDX 22 35 75 36 23 37 80 38 74 39 76 40 24 41 79 42 73 43 72 44
REMARK SMILES IDX 25 46 59 47 38 48 58 49 39 50 42 51 57 52 77 53 40 54 41 55
REMARK SMILES IDX 56 57 78 58 43 59 26 60 27 61 36 62 28 63 29 64 35 65 37 66
REMARK SMILES IDX 30 67 31 68 32 69 33 70 34 71 60 72 61 73 70 74 62 75 63 76
REMARK SMILES IDX 69 77 71 78 64 79 65 80 66 81 67 82 68 83 44 84 45 85 54 86
REMARK SMILES IDX 46 87 47 88 53 89 55 90 48 91 49 92 50 93 51 94 52 95
REMARK H PARENT 85 15 76 45 42 56
REMARK Flexibility Score: inf
ROOT
ATOM      1  O   UNL     1      -4.981  -4.161  -1.972  1.00  0.00    -0.374 OA
ENDROOT
BRANCH   1   2
ATOM      2  C   UNL     1      -4.184  -5.258  -2.368  1.00  0.00     0.202 C 
BRANCH   2   3
ATOM      3  C   UNL     1      -2.905  -4.962  -3.185  1.00  0.00     0.261 C 
BRANCH   3   4
ATOM      4  O   UNL     1      -1.814  -4.294  -2.522  1.00  0.00    -0.462 OA
BRANCH   4   5
ATOM      5  C   UNL     1      -2.040  -2.965  -2.406  1.00  0.00     0.325 C 
ATOM      6  O   UNL     1      -3.153  -2.492  -2.542  1.00  0.00    -0.250 OA
BRANCH   5   7
ATOM      7  C   UNL     1      -0.801  -2.113  -2.218  1.00  0.00     0.244 C 
BRANCH   7   8
ATOM      8  N   UNL     1      -0.612  -1.388  -0.967  1.00  0.00    -0.311 N 
BRANCH   8   9
ATOM      9  C   UNL     1       0.807  -1.296  -0.534  1.00  0.00     0.081 C 
ATOM     10  C   UNL     1       1.182  -0.101   0.359  1.00  0.00     0.031 C 
ATOM     11  C   UNL     1       1.318  -2.598   0.083  1.00  0.00     0.031 C 
ENDBRANCH   8   9
BRANCH   8  12
ATOM     12  C   UNL     1      -1.580  -0.761  -0.254  1.00  0.00     0.318 C 
ATOM     13  O   UNL     1      -1.448  -0.586   0.967  1.00  0.00    -0.249 OA
ATOM     14  N   UNL     1      -2.725  -0.247  -0.729  1.00  0.00    -0.334 N 
ATOM     15  H   UNL     1      -3.185   0.171   0.034  1.00  0.00     0.165 HD
BRANCH  14  16
ATOM     16  C   UNL     1      -3.562  -0.049  -1.873  1.00  0.00     0.096 C 
ATOM     17  C   UNL     1      -3.528   1.300  -2.579  1.00  0.00    -0.007 C 
ATOM     18  C   UNL     1      -3.499   0.011  -3.400  1.00  0.00    -0.007 C 
ATOM     19  C   UNL     1      -4.764   2.152  -2.678  1.00  0.00     0.014 C 
ATOM     20  C   UNL     1      -2.260   2.118  -2.413  1.00  0.00     0.014 C 
ATOM     21  C   UNL     1      -2.341  -0.148  -4.347  1.00  0.00     0.014 C 
ATOM     22  C   UNL     1      -4.770  -0.559  -4.055  1.00  0.00     0.014 C 
ENDBRANCH  14  16
ENDBRANCH   8  12
ENDBRANCH   7   8
ENDBRANCH   5   7
ENDBRANCH   4   5
ENDBRANCH   3   4
ENDBRANCH   2   3
ENDBRANCH   1   2
BRANCH   1  23
ATOM     23  C   UNL     1      -4.939  -3.588  -0.668  1.00  0.00     0.202 C 
BRANCH  23  24
ATOM     24  C   UNL     1      -3.910  -3.844   0.456  1.00  0.00     0.261 C 
BRANCH  24  25
ATOM     25  O   UNL     1      -2.888  -4.799   0.216  1.00  0.00    -0.460 OA
BRANCH  25  26
ATOM     26  C   UNL     1      -3.179  -6.049   0.638  1.00  0.00     0.338 C 
ATOM     27  O   UNL     1      -4.207  -6.436   1.176  1.00  0.00    -0.246 OA
BRANCH  26  28
ATOM     28  C   UNL     1      -2.149  -6.937   0.092  1.00  0.00     0.060 A 
ATOM     29  C   UNL     1      -2.560  -7.929  -0.807  1.00  0.00     0.016 A 
ATOM     30  C   UNL     1      -0.807  -6.785   0.449  1.00  0.00     0.016 A 
ATOM     31  C   UNL     1      -1.627  -8.800  -1.339  1.00  0.00     0.010 A 
ATOM     32  C   UNL     1       0.124  -7.687  -0.053  1.00  0.00     0.010 A 
ATOM     33  C   UNL     1      -0.298  -8.716  -0.913  1.00  0.00    -0.014 A 
BRANCH  33  34
ATOM     34  C   UNL     1       0.572  -9.872  -1.177  1.00  0.00     0.031 A 
ATOM     35  C   UNL     1       0.668 -10.924  -0.112  1.00  0.00     0.074 A 
ATOM     36  C   UNL     1       1.173 -10.007  -2.368  1.00  0.00     0.049 A 
ATOM     37  N   UNL     1       1.341 -12.041  -0.111  1.00  0.00    -0.248 NA
ATOM     38  C   UNL     1      -0.104 -10.682   1.119  1.00  0.00     0.031 C 
ATOM     39  C   UNL     1       1.073  -9.057  -3.475  1.00  0.00     0.029 A 
ATOM     40  N   UNL     1       1.983 -11.001  -2.842  1.00  0.00    -0.354 N 
ATOM     41  C   UNL     1       1.081 -12.631   1.120  1.00  0.00     0.074 A 
ATOM     42  C   UNL     1       0.216 -11.735   1.853  1.00  0.00     0.031 C 
ATOM     43  C   UNL     1       1.810  -9.510  -4.502  1.00  0.00     0.029 A 
ATOM     44  C   UNL     1       2.456 -10.761  -4.108  1.00  0.00     0.049 A 
ATOM     45  H   UNL     1       2.206 -11.809  -2.327  1.00  0.00     0.167 HD
ATOM     46  C   UNL     1       1.526 -13.819   1.589  1.00  0.00     0.037 A 
ATOM     47  C   UNL     1       3.333 -11.466  -4.845  1.00  0.00     0.037 A 
ATOM     48  C   UNL     1       2.398 -14.681   0.837  1.00  0.00     0.049 A 
ATOM     49  C   UNL     1       3.874 -12.751  -4.278  1.00  0.00     0.074 A 
ATOM     50  C   UNL     1       2.916 -15.910   1.196  1.00  0.00     0.029 A 
ATOM     51  N   UNL     1       2.896 -14.388  -0.428  1.00  0.00    -0.354 N 
ATOM     52  N   UNL     1       3.616 -13.313  -3.119  1.00  0.00    -0.248 NA
ATOM     53  C   UNL     1       4.817 -13.500  -5.116  1.00  0.00     0.031 C 
ATOM     54  C   UNL     1       3.778 -16.330   0.177  1.00  0.00     0.029 A 
ATOM     55  C   UNL     1       3.743 -15.397  -0.850  1.00  0.00     0.049 A 
ATOM     56  H   UNL     1       2.677 -13.581  -0.947  1.00  0.00     0.167 HD
ATOM     57  C   UNL     1       4.348 -14.494  -3.095  1.00  0.00     0.074 A 
ATOM     58  C   UNL     1       5.048 -14.569  -4.364  1.00  0.00     0.031 C 
ATOM     59  C   UNL     1       4.433 -15.435  -2.119  1.00  0.00     0.037 A 
BRANCH  46  60
ATOM     60  C   UNL     1       1.124 -14.206   2.986  1.00  0.00     0.058 A 
ATOM     61  C   UNL     1      -0.204 -14.515   3.327  1.00  0.00     0.135 A 
ATOM     62  C   UNL     1       2.084 -14.243   4.011  1.00  0.00     0.135 A 
ATOM     63  F   UNL     1      -1.169 -14.472   2.395  1.00  0.00    -0.206 F 
ATOM     64  C   UNL     1      -0.572 -14.804   4.638  1.00  0.00     0.059 A 
ATOM     65  C   UNL     1       1.745 -14.562   5.322  1.00  0.00     0.059 A 
ATOM     66  F   UNL     1       3.366 -13.949   3.747  1.00  0.00    -0.206 F 
ATOM     67  C   UNL     1       0.410 -14.821   5.630  1.00  0.00     0.060 A 
BRANCH  67  68
ATOM     68  S   UNL     1      -0.084 -15.175   7.330  1.00  0.00     0.124 S 
ATOM     69  O   UNL     1      -0.795 -13.951   7.687  1.00  0.00    -0.237 OA
ATOM     70  O   UNL     1      -0.912 -16.366   7.172  1.00  0.00    -0.237 OA
ATOM     71  O   UNL     1       1.186 -15.384   8.017  1.00  0.00    -0.744 OA
ENDBRANCH  67  68
ENDBRANCH  46  60
BRANCH  47  72
ATOM     72  C   UNL     1       3.745 -10.952  -6.176  1.00  0.00     0.058 A 
ATOM     73  C   UNL     1       3.337 -11.579  -7.360  1.00  0.00     0.135 A 
ATOM     74  C   UNL     1       4.504  -9.774  -6.287  1.00  0.00     0.135 A 
ATOM     75  F   UNL     1       2.618 -12.710  -7.308  1.00  0.00    -0.206 F 
ATOM     76  C   UNL     1       3.659 -11.054  -8.609  1.00  0.00     0.059 A 
ATOM     77  C   UNL     1       4.815  -9.216  -7.521  1.00  0.00     0.059 A 
ATOM     78  F   UNL     1       4.907  -9.127  -5.182  1.00  0.00    -0.206 F 
ATOM     79  C   UNL     1       4.388  -9.865  -8.678  1.00  0.00     0.060 A 
BRANCH  79  80
ATOM     80  S   UNL     1       4.716  -9.144 -10.301  1.00  0.00     0.124 S 
ATOM     81  O   UNL     1       5.684 -10.085 -10.852  1.00  0.00    -0.237 OA
ATOM     82  O   UNL     1       3.390  -9.157 -10.912  1.00  0.00    -0.237 OA
ATOM     83  O   UNL     1       5.236  -7.817  -9.981  1.00  0.00    -0.744 OA
ENDBRANCH  79  80
ENDBRANCH  47  72
BRANCH  59  84
ATOM     84  C   UNL     1       5.294 -16.636  -2.396  1.00  0.00     0.058 A 
ATOM     85  C   UNL     1       6.694 -16.550  -2.430  1.00  0.00     0.135 A 
ATOM     86  C   UNL     1       4.708 -17.901  -2.572  1.00  0.00     0.135 A 
ATOM     87  F   UNL     1       7.304 -15.364  -2.273  1.00  0.00    -0.206 F 
ATOM     88  C   UNL     1       7.484 -17.673  -2.655  1.00  0.00     0.059 A 
ATOM     89  C   UNL     1       5.479 -19.041  -2.763  1.00  0.00     0.059 A 
ATOM     90  F   UNL     1       3.373 -18.039  -2.536  1.00  0.00    -0.206 F 
ATOM     91  C   UNL     1       6.866 -18.915  -2.816  1.00  0.00     0.060 A 
BRANCH  91  92
ATOM     92  S   UNL     1       7.904 -20.368  -3.076  1.00  0.00     0.124 S 
ATOM     93  O   UNL     1       8.381 -20.148  -4.437  1.00  0.00    -0.237 OA
ATOM     94  O   UNL     1       8.905 -20.227  -2.023  1.00  0.00    -0.237 OA
ATOM     95  O   UNL     1       6.978 -21.483  -2.908  1.00  0.00    -0.744 OA
ENDBRANCH  91  92
ENDBRANCH  59  84
ENDBRANCH  33  34
ENDBRANCH  26  28
ENDBRANCH  25  26
ENDBRANCH  24  25
ENDBRANCH  23  24
ENDBRANCH   1  23
TORSDOF 21
