REMARK SMILES NS(=O)(=O)c1ccc(N2N=C(C(=O)OCCOCCOC(=O)c3ccc(-c4c5nc(c(-c6c(F)cc(S(=O)(=O)[O-])cc6F)c6ccc([nH]6)c(-c6c(F)cc(S(=O)(=O)[O-])cc6F)c6nc(c(-c7c(F)cc(S(=O)(=O)[O-])cc7F)c7ccc4[nH]7)C=C6)C=C5)cc3)C[C@H]2c2ccco2)cc1
REMARK SMILES IDX 17 1 16 2 15 3 14 4 12 5 13 6 11 7 9 8 10 9 90 10 89 11 8 12
REMARK SMILES IDX 5 13 6 14 97 15 7 16 96 17 2 18 3 19 4 20 1 21 91 24 92 25
REMARK SMILES IDX 95 26 93 27 94 28 18 29 19 30 20 31 21 32 22 33 23 34 24 35
REMARK SMILES IDX 88 36 25 37 87 38 26 39 27 40 28 41 81 42 29 43 86 44 80 45
REMARK SMILES IDX 82 46 30 47 85 48 79 49 78 50 31 52 65 53 44 54 64 55 45 56
REMARK SMILES IDX 48 57 63 58 83 59 46 60 47 61 62 63 84 64 49 65 32 66 33 67
REMARK SMILES IDX 42 68 34 69 35 70 41 71 43 72 36 73 37 74 38 75 39 76 40 77
REMARK SMILES IDX 66 78 67 79 76 80 68 81 69 82 75 83 77 84 70 85 71 86 72 87
REMARK SMILES IDX 73 88 74 89 50 90 51 91 60 92 52 93 53 94 59 95 61 96 54 97
REMARK SMILES IDX 55 98 56 99 57 100 58 101
REMARK H PARENT 1 22 1 23 82 51 48 62
REMARK Flexibility Score: inf
ROOT
ATOM      1  O   UNL     1      -1.250  -9.922  -5.245  1.00  0.00    -0.374 OA
ENDROOT
BRANCH   1   2
ATOM      2  C   UNL     1      -0.333 -10.519  -6.161  1.00  0.00     0.202 C 
BRANCH   2   3
ATOM      3  C   UNL     1       0.781  -9.620  -6.702  1.00  0.00     0.261 C 
BRANCH   3   4
ATOM      4  O   UNL     1       1.564  -9.078  -5.630  1.00  0.00    -0.459 OA
BRANCH   4   5
ATOM      5  C   UNL     1       1.595  -7.731  -5.580  1.00  0.00     0.354 C 
ATOM      6  O   UNL     1       1.227  -6.936  -6.423  1.00  0.00    -0.245 OA
BRANCH   5   7
ATOM      7  C   UNL     1       2.015  -7.302  -4.199  1.00  0.00     0.148 C 
ATOM      8  N   UNL     1       2.036  -6.248  -2.358  1.00  0.00    -0.254 N 
ATOM      9  N   UNL     1       1.365  -6.393  -3.538  1.00  0.00    -0.169 NA
ATOM     10  C   UNL     1       3.364  -6.899  -2.396  1.00  0.00     0.180 C 
ATOM     11  C   UNL     1       3.129  -7.976  -3.470  1.00  0.00     0.101 C 
BRANCH   8  12
ATOM     12  C   UNL     1       1.719  -5.133  -1.597  1.00  0.00     0.060 A 
ATOM     13  C   UNL     1       0.956  -2.872  -0.112  1.00  0.00     0.082 A 
ATOM     14  C   UNL     1       0.406  -4.120   0.191  1.00  0.00     0.024 A 
ATOM     15  C   UNL     1       1.860  -2.736  -1.164  1.00  0.00     0.024 A 
ATOM     16  C   UNL     1       0.793  -5.242  -0.550  1.00  0.00     0.029 A 
ATOM     17  C   UNL     1       2.219  -3.862  -1.909  1.00  0.00     0.029 A 
BRANCH  13  18
ATOM     18  S   UNL     1       0.454  -1.478   0.847  1.00  0.00     0.238 S 
ATOM     19  O   UNL     1       1.155  -1.516   2.108  1.00  0.00    -0.207 OA
ATOM     20  O   UNL     1      -0.982  -1.341   0.756  1.00  0.00    -0.207 OA
BRANCH  18  21
ATOM     21  N   UNL     1       1.076  -0.146   0.029  1.00  0.00    -0.225 NA
ATOM     22  H   UNL     1       0.824   0.707   0.528  1.00  0.00     0.137 HD
ATOM     23  H   UNL     1       0.688  -0.115  -0.914  1.00  0.00     0.137 HD
ENDBRANCH  18  21
ENDBRANCH  13  18
ENDBRANCH   8  12
BRANCH  10  24
ATOM     24  C   UNL     1       4.554  -6.033  -2.718  1.00  0.00     0.128 A 
ATOM     25  C   UNL     1       5.299  -5.140  -1.971  1.00  0.00     0.048 A 
ATOM     26  O   UNL     1       5.061  -6.093  -3.987  1.00  0.00    -0.467 OA
ATOM     27  C   UNL     1       6.295  -4.621  -2.833  1.00  0.00     0.042 A 
ATOM     28  C   UNL     1       6.119  -5.248  -4.043  1.00  0.00     0.195 A 
ENDBRANCH  10  24
ENDBRANCH   5   7
ENDBRANCH   4   5
ENDBRANCH   3   4
ENDBRANCH   2   3
ENDBRANCH   1   2
BRANCH   1  29
ATOM     29  C   UNL     1      -0.817  -9.731  -3.897  1.00  0.00     0.202 C 
BRANCH  29  30
ATOM     30  C   UNL     1      -0.725 -10.975  -3.001  1.00  0.00     0.261 C 
BRANCH  30  31
ATOM     31  O   UNL     1       0.255 -11.925  -3.455  1.00  0.00    -0.460 OA
BRANCH  31  32
ATOM     32  C   UNL     1      -0.261 -13.088  -3.930  1.00  0.00     0.338 C 
ATOM     33  O   UNL     1      -1.435 -13.416  -3.956  1.00  0.00    -0.246 OA
BRANCH  32  34
ATOM     34  C   UNL     1       0.795 -13.867  -4.605  1.00  0.00     0.060 A 
ATOM     35  C   UNL     1       0.595 -14.204  -5.950  1.00  0.00     0.016 A 
ATOM     36  C   UNL     1       1.927 -14.312  -3.922  1.00  0.00     0.016 A 
ATOM     37  C   UNL     1       1.519 -15.012  -6.612  1.00  0.00     0.010 A 
ATOM     38  C   UNL     1       2.848 -15.129  -4.587  1.00  0.00     0.010 A 
ATOM     39  C   UNL     1       2.639 -15.502  -5.927  1.00  0.00    -0.014 A 
BRANCH  39  40
ATOM     40  C   UNL     1       3.549 -16.467  -6.591  1.00  0.00     0.031 A 
ATOM     41  C   UNL     1       3.465 -17.927  -6.245  1.00  0.00     0.074 A 
ATOM     42  C   UNL     1       4.450 -16.039  -7.493  1.00  0.00     0.049 A 
ATOM     43  N   UNL     1       4.200 -18.922  -6.669  1.00  0.00    -0.248 NA
ATOM     44  C   UNL     1       2.418 -18.316  -5.288  1.00  0.00     0.031 C 
ATOM     45  C   UNL     1       4.617 -14.650  -7.920  1.00  0.00     0.029 A 
ATOM     46  N   UNL     1       5.409 -16.726  -8.195  1.00  0.00    -0.354 N 
ATOM     47  C   UNL     1       3.718 -20.053  -6.020  1.00  0.00     0.074 A 
ATOM     48  C   UNL     1       2.642 -19.615  -5.156  1.00  0.00     0.031 C 
ATOM     49  C   UNL     1       5.636 -14.583  -8.792  1.00  0.00     0.029 A 
ATOM     50  C   UNL     1       6.214 -15.916  -8.959  1.00  0.00     0.049 A 
ATOM     51  H   UNL     1       5.510 -17.704  -8.154  1.00  0.00     0.167 HD
ATOM     52  C   UNL     1       4.135 -21.338  -6.137  1.00  0.00     0.037 A 
ATOM     53  C   UNL     1       7.312 -16.207  -9.684  1.00  0.00     0.037 A 
ATOM     54  C   UNL     1       5.207 -21.763  -7.001  1.00  0.00     0.049 A 
ATOM     55  C   UNL     1       7.786 -17.633  -9.769  1.00  0.00     0.074 A 
ATOM     56  C   UNL     1       5.663 -23.049  -7.237  1.00  0.00     0.029 A 
ATOM     57  N   UNL     1       6.006 -20.914  -7.754  1.00  0.00    -0.354 N 
ATOM     58  N   UNL     1       7.284 -18.702  -9.199  1.00  0.00    -0.248 NA
ATOM     59  C   UNL     1       8.971 -17.893 -10.598  1.00  0.00     0.031 C 
ATOM     60  C   UNL     1       6.777 -22.970  -8.079  1.00  0.00     0.029 A 
ATOM     61  C   UNL     1       6.980 -21.642  -8.420  1.00  0.00     0.049 A 
ATOM     62  H   UNL     1       5.897 -19.937  -7.808  1.00  0.00     0.167 HD
ATOM     63  C   UNL     1       8.085 -19.764  -9.607  1.00  0.00     0.074 A 
ATOM     64  C   UNL     1       9.092 -19.210 -10.489  1.00  0.00     0.031 C 
ATOM     65  C   UNL     1       7.992 -21.078  -9.282  1.00  0.00     0.037 A 
BRANCH  52  66
ATOM     66  C   UNL     1       3.458 -22.369  -5.275  1.00  0.00     0.058 A 
ATOM     67  C   UNL     1       2.128 -22.766  -5.489  1.00  0.00     0.135 A 
ATOM     68  C   UNL     1       4.159 -22.980  -4.222  1.00  0.00     0.135 A 
ATOM     69  F   UNL     1       1.406 -22.207  -6.473  1.00  0.00    -0.206 F 
ATOM     70  C   UNL     1       1.505 -23.698  -4.665  1.00  0.00     0.059 A 
ATOM     71  C   UNL     1       3.566 -23.936  -3.404  1.00  0.00     0.059 A 
ATOM     72  F   UNL     1       5.434 -22.641  -3.972  1.00  0.00    -0.206 F 
ATOM     73  C   UNL     1       2.231 -24.274  -3.620  1.00  0.00     0.060 A 
BRANCH  73  74
ATOM     74  S   UNL     1       1.402 -25.462  -2.543  1.00  0.00     0.124 S 
ATOM     75  O   UNL     1       0.523 -24.588  -1.771  1.00  0.00    -0.237 OA
ATOM     76  O   UNL     1       0.740 -26.342  -3.499  1.00  0.00    -0.237 OA
ATOM     77  O   UNL     1       2.500 -26.066  -1.794  1.00  0.00    -0.744 OA
ENDBRANCH  73  74
ENDBRANCH  52  66
BRANCH  53  78
ATOM     78  C   UNL     1       8.047 -15.106 -10.361  1.00  0.00     0.058 A 
ATOM     79  C   UNL     1       8.013 -14.954 -11.753  1.00  0.00     0.135 A 
ATOM     80  C   UNL     1       8.754 -14.149  -9.614  1.00  0.00     0.135 A 
ATOM     81  F   UNL     1       7.363 -15.850 -12.511  1.00  0.00    -0.206 F 
ATOM     82  C   UNL     1       8.644 -13.885 -12.383  1.00  0.00     0.059 A 
ATOM     83  C   UNL     1       9.371 -13.060 -10.217  1.00  0.00     0.059 A 
ATOM     84  F   UNL     1       8.807 -14.246  -8.276  1.00  0.00    -0.206 F 
ATOM     85  C   UNL     1       9.310 -12.936 -11.604  1.00  0.00     0.060 A 
BRANCH  85  86
ATOM     86  S   UNL     1      10.036 -11.498 -12.422  1.00  0.00     0.124 S 
ATOM     87  O   UNL     1      11.188 -12.090 -13.091  1.00  0.00    -0.237 OA
ATOM     88  O   UNL     1       8.947 -11.060 -13.290  1.00  0.00    -0.237 OA
ATOM     89  O   UNL     1      10.341 -10.600 -11.312  1.00  0.00    -0.744 OA
ENDBRANCH  85  86
ENDBRANCH  53  78
BRANCH  65  90
ATOM     90  C   UNL     1       9.005 -22.017  -9.882  1.00  0.00     0.058 A 
ATOM     91  C   UNL     1      10.344 -22.024  -9.460  1.00  0.00     0.135 A 
ATOM     92  C   UNL     1       8.620 -22.959 -10.851  1.00  0.00     0.135 A 
ATOM     93  F   UNL     1      10.767 -21.140  -8.542  1.00  0.00    -0.206 F 
ATOM     94  C   UNL     1      11.270 -22.917  -9.991  1.00  0.00     0.059 A 
ATOM     95  C   UNL     1       9.523 -23.880 -11.374  1.00  0.00     0.059 A 
ATOM     96  F   UNL     1       7.351 -23.004 -11.284  1.00  0.00    -0.206 F 
ATOM     97  C   UNL     1      10.849 -23.844 -10.946  1.00  0.00     0.060 A 
BRANCH  97  98
ATOM     98  S   UNL     1      12.053 -25.020 -11.600  1.00  0.00     0.124 S 
ATOM     99  O   UNL     1      12.867 -24.162 -12.455  1.00  0.00    -0.237 OA
ATOM    100  O   UNL     1      12.704 -25.507 -10.388  1.00  0.00    -0.237 OA
ATOM    101  O   UNL     1      11.227 -26.000 -12.299  1.00  0.00    -0.744 OA
ENDBRANCH  97  98
ENDBRANCH  65  90
ENDBRANCH  39  40
ENDBRANCH  32  34
ENDBRANCH  31  32
ENDBRANCH  30  31
ENDBRANCH  29  30
ENDBRANCH   1  29
TORSDOF 21
