REMARK SMILES CC[C@@H](C)[NH2+][C@H](CN=[N+]=[N-])C(=O)OCCOCCOC(=O)c1ccc(-c2c3nc(c(-c4c(F)cc(S(=O)(=O)[O-])cc4F)c4ccc([nH]4)c(-c4c(F)cc(S(=O)(=O)[O-])cc4F)c4nc(c(-c5c(F)cc(S(=O)(=O)[O-])cc5F)c5ccc2[nH]5)C=C4)C=C3)cc1
REMARK SMILES IDX 16 1 15 2 14 3 13 4 11 5 12 6 6 7 5 8 3 11 4 12 2 13 1 14
REMARK SMILES IDX 7 15 8 16 9 17 10 18 17 19 18 20 19 21 20 22 21 23 22 24
REMARK SMILES IDX 23 25 87 26 24 27 86 28 25 29 26 30 27 31 80 32 28 33 85 34
REMARK SMILES IDX 79 35 81 36 29 37 84 38 78 39 77 40 30 42 64 43 43 44 63 45
REMARK SMILES IDX 44 46 47 47 62 48 82 49 45 50 46 51 61 53 83 54 48 55 31 56
REMARK SMILES IDX 32 57 41 58 33 59 34 60 40 61 42 62 35 63 36 64 37 65 38 66
REMARK SMILES IDX 39 67 65 68 66 69 75 70 67 71 68 72 74 73 76 74 69 75 70 76
REMARK SMILES IDX 71 77 72 78 73 79 49 80 50 81 59 82 51 83 52 84 58 85 60 86
REMARK SMILES IDX 53 87 54 88 55 89 56 90 57 91
REMARK H PARENT 5 9 5 10 81 41 47 52
REMARK Flexibility Score: inf
ROOT
ATOM      1  O   UNL     1       0.560   7.518  -3.744  1.00  0.00    -0.374 OA
ENDROOT
BRANCH   1   2
ATOM      2  C   UNL     1      -0.674   7.078  -4.308  1.00  0.00     0.202 C 
BRANCH   2   3
ATOM      3  C   UNL     1      -0.707   5.751  -5.085  1.00  0.00     0.261 C 
BRANCH   3   4
ATOM      4  O   UNL     1      -0.353   4.594  -4.296  1.00  0.00    -0.459 OA
BRANCH   4   5
ATOM      5  C   UNL     1       0.844   4.020  -4.615  1.00  0.00     0.365 C 
ATOM      6  O   UNL     1       1.591   4.426  -5.502  1.00  0.00    -0.245 OA
BRANCH   5   7
ATOM      7  C   UNL     1       1.203   2.795  -3.751  1.00  0.00     0.299 C 
BRANCH   7   8
ATOM      8  N   UNL     1       0.546   1.584  -4.293  1.00  0.00    -0.332 N 
ATOM      9  H   UNL     1       0.407   1.740  -5.292  1.00  0.00     0.347 HD
ATOM     10  H   UNL     1       1.178   0.824  -4.040  1.00  0.00     0.347 HD
BRANCH   8  11
ATOM     11  C   UNL     1      -0.749   1.175  -3.733  1.00  0.00     0.179 C 
ATOM     12  C   UNL     1      -0.565   0.304  -2.482  1.00  0.00     0.075 C 
BRANCH  11  13
ATOM     13  C   UNL     1      -1.468   0.386  -4.849  1.00  0.00     0.061 C 
ATOM     14  C   UNL     1      -2.864  -0.095  -4.469  1.00  0.00     0.010 C 
ENDBRANCH  11  13
ENDBRANCH   8  11
ENDBRANCH   7   8
BRANCH   7  15
ATOM     15  C   UNL     1       1.112   3.009  -2.229  1.00  0.00     0.168 C 
BRANCH  15  16
ATOM     16  N   UNL     1       2.026   4.051  -1.726  1.00  0.00    -0.087 NA
ATOM     17  N   UNL     1       3.220   3.752  -1.579  1.00  0.00     0.001 N 
ATOM     18  N   UNL     1       4.323   3.496  -1.444  1.00  0.00    -0.003 NA
ENDBRANCH  15  16
ENDBRANCH   7  15
ENDBRANCH   5   7
ENDBRANCH   4   5
ENDBRANCH   3   4
ENDBRANCH   2   3
ENDBRANCH   1   2
BRANCH   1  19
ATOM     19  C   UNL     1       1.061   6.772  -2.641  1.00  0.00     0.202 C 
BRANCH  19  20
ATOM     20  C   UNL     1       0.407   6.968  -1.268  1.00  0.00     0.261 C 
BRANCH  20  21
ATOM     21  O   UNL     1      -0.984   6.608  -1.258  1.00  0.00    -0.460 OA
BRANCH  21  22
ATOM     22  C   UNL     1      -1.822   7.670  -1.178  1.00  0.00     0.338 C 
ATOM     23  O   UNL     1      -1.514   8.842  -1.037  1.00  0.00    -0.246 OA
BRANCH  22  24
ATOM     24  C   UNL     1      -3.202   7.257  -1.483  1.00  0.00     0.060 A 
ATOM     25  C   UNL     1      -3.857   7.953  -2.506  1.00  0.00     0.016 A 
ATOM     26  C   UNL     1      -3.873   6.293  -0.729  1.00  0.00     0.016 A 
ATOM     27  C   UNL     1      -5.212   7.745  -2.730  1.00  0.00     0.010 A 
ATOM     28  C   UNL     1      -5.238   6.088  -0.954  1.00  0.00     0.010 A 
ATOM     29  C   UNL     1      -5.921   6.848  -1.922  1.00  0.00    -0.014 A 
BRANCH  29  30
ATOM     30  C   UNL     1      -7.402   6.832  -1.995  1.00  0.00     0.031 A 
ATOM     31  C   UNL     1      -8.193   7.513  -0.911  1.00  0.00     0.074 A 
ATOM     32  C   UNL     1      -8.024   6.266  -3.044  1.00  0.00     0.049 A 
ATOM     33  N   UNL     1      -9.489   7.610  -0.768  1.00  0.00    -0.248 NA
ATOM     34  C   UNL     1      -7.421   8.172   0.156  1.00  0.00     0.031 C 
ATOM     35  C   UNL     1      -7.354   5.623  -4.174  1.00  0.00     0.029 A 
ATOM     36  N   UNL     1      -9.359   6.143  -3.330  1.00  0.00    -0.354 N 
ATOM     37  C   UNL     1      -9.689   8.325   0.409  1.00  0.00     0.074 A 
ATOM     38  C   UNL     1      -8.381   8.611   0.957  1.00  0.00     0.031 C 
ATOM     39  C   UNL     1      -8.283   5.171  -5.032  1.00  0.00     0.029 A 
ATOM     40  C   UNL     1      -9.611   5.455  -4.492  1.00  0.00     0.049 A 
ATOM     41  H   UNL     1     -10.069   6.512  -2.756  1.00  0.00     0.167 HD
ATOM     42  C   UNL     1     -10.857   8.711   0.973  1.00  0.00     0.037 A 
ATOM     43  C   UNL     1     -10.781   5.080  -5.045  1.00  0.00     0.037 A 
ATOM     44  C   UNL     1     -12.152   8.425   0.409  1.00  0.00     0.049 A 
ATOM     45  C   UNL     1     -12.068   5.462  -4.361  1.00  0.00     0.074 A 
ATOM     46  C   UNL     1     -13.397   8.794   0.886  1.00  0.00     0.029 A 
ATOM     47  N   UNL     1     -12.369   7.692  -0.749  1.00  0.00    -0.354 N 
ATOM     48  N   UNL     1     -12.244   6.158  -3.262  1.00  0.00    -0.248 NA
ATOM     49  C   UNL     1     -13.315   5.013  -4.994  1.00  0.00     0.031 C 
ATOM     50  C   UNL     1     -14.368   8.227   0.054  1.00  0.00     0.029 A 
ATOM     51  C   UNL     1     -13.728   7.567  -0.983  1.00  0.00     0.049 A 
ATOM     52  H   UNL     1     -11.660   7.317  -1.321  1.00  0.00     0.167 HD
ATOM     53  C   UNL     1     -13.621   6.258  -3.090  1.00  0.00     0.074 A 
ATOM     54  C   UNL     1     -14.229   5.561  -4.205  1.00  0.00     0.031 C 
ATOM     55  C   UNL     1     -14.319   6.873  -2.103  1.00  0.00     0.037 A 
BRANCH  42  56
ATOM     56  C   UNL     1     -10.796   9.451   2.284  1.00  0.00     0.058 A 
ATOM     57  C   UNL     1     -10.302  10.761   2.382  1.00  0.00     0.135 A 
ATOM     58  C   UNL     1     -11.280   8.848   3.458  1.00  0.00     0.135 A 
ATOM     59  F   UNL     1      -9.810  11.382   1.298  1.00  0.00    -0.206 F 
ATOM     60  C   UNL     1     -10.265  11.437   3.599  1.00  0.00     0.059 A 
ATOM     61  C   UNL     1     -11.284   9.517   4.678  1.00  0.00     0.059 A 
ATOM     62  F   UNL     1     -11.762   7.596   3.425  1.00  0.00    -0.206 F 
ATOM     63  C   UNL     1     -10.761  10.807   4.741  1.00  0.00     0.060 A 
BRANCH  63  64
ATOM     64  S   UNL     1     -10.715  11.701   6.309  1.00  0.00     0.124 S 
ATOM     65  O   UNL     1      -9.283  11.721   6.591  1.00  0.00    -0.237 OA
ATOM     66  O   UNL     1     -11.309  12.985   5.952  1.00  0.00    -0.237 OA
ATOM     67  O   UNL     1     -11.517  10.868   7.201  1.00  0.00    -0.744 OA
ENDBRANCH  63  64
ENDBRANCH  42  56
BRANCH  43  68
ATOM     68  C   UNL     1     -10.788   4.291  -6.306  1.00  0.00     0.058 A 
ATOM     69  C   UNL     1     -11.284   4.835  -7.500  1.00  0.00     0.135 A 
ATOM     70  C   UNL     1     -10.292   2.978  -6.344  1.00  0.00     0.135 A 
ATOM     71  F   UNL     1     -11.778   6.082  -7.514  1.00  0.00    -0.206 F 
ATOM     72  C   UNL     1     -11.304   4.102  -8.682  1.00  0.00     0.059 A 
ATOM     73  C   UNL     1     -10.272   2.236  -7.521  1.00  0.00     0.059 A 
ATOM     74  F   UNL     1      -9.794   2.413  -5.233  1.00  0.00    -0.206 F 
ATOM     75  C   UNL     1     -10.790   2.804  -8.683  1.00  0.00     0.060 A 
BRANCH  75  76
ATOM     76  S   UNL     1     -10.778   1.880 -10.234  1.00  0.00     0.124 S 
ATOM     77  O   UNL     1     -12.198   1.615 -10.430  1.00  0.00    -0.237 OA
ATOM     78  O   UNL     1     -10.173   2.838 -11.153  1.00  0.00    -0.237 OA
ATOM     79  O   UNL     1      -9.955   0.714  -9.924  1.00  0.00    -0.744 OA
ENDBRANCH  75  76
ENDBRANCH  43  68
BRANCH  55  80
ATOM     80  C   UNL     1     -15.821   6.862  -2.201  1.00  0.00     0.058 A 
ATOM     81  C   UNL     1     -16.571   5.691  -2.006  1.00  0.00     0.135 A 
ATOM     82  C   UNL     1     -16.524   8.055  -2.443  1.00  0.00     0.135 A 
ATOM     83  F   UNL     1     -15.951   4.522  -1.778  1.00  0.00    -0.206 F 
ATOM     84  C   UNL     1     -17.960   5.698  -2.074  1.00  0.00     0.059 A 
ATOM     85  C   UNL     1     -17.914   8.091  -2.480  1.00  0.00     0.059 A 
ATOM     86  F   UNL     1     -15.859   9.206  -2.626  1.00  0.00    -0.206 F 
ATOM     87  C   UNL     1     -18.623   6.904  -2.307  1.00  0.00     0.060 A 
BRANCH  87  88
ATOM     88  S   UNL     1     -20.428   6.903  -2.359  1.00  0.00     0.124 S 
ATOM     89  O   UNL     1     -20.686   6.216  -3.620  1.00  0.00    -0.237 OA
ATOM     90  O   UNL     1     -20.772   6.160  -1.151  1.00  0.00    -0.237 OA
ATOM     91  O   UNL     1     -20.771   8.322  -2.335  1.00  0.00    -0.744 OA
ENDBRANCH  87  88
ENDBRANCH  55  80
ENDBRANCH  29  30
ENDBRANCH  22  24
ENDBRANCH  21  22
ENDBRANCH  20  21
ENDBRANCH  19  20
ENDBRANCH   1  19
TORSDOF 22
