REMARK SMILES O=C(OCCOCCOC(=O)c1ccc(-c2c3nc(c(-c4c(F)cc(S(=O)(=O)[O-])cc4F)c4ccc([nH]4)c(-c4c(F)cc(S(=O)(=O)[O-])cc4F)c4nc(c(-c5c(F)cc(S(=O)(=O)[O-])cc5F)c5ccc2[nH]5)C=C4)C=C3)cc1)C1=Cc2cc(Cl)cc(-c3ccc(CO)cc3)c2O[C@@H]1C(F)(F)F
REMARK SMILES IDX 6 1 5 2 4 3 3 4 2 5 1 6 78 7 79 8 96 9 80 10 95 11 81 12
REMARK SMILES IDX 94 13 82 14 85 15 83 16 84 17 97 18 98 19 99 20 100 21 86 22
REMARK SMILES IDX 87 23 93 24 88 25 92 26 89 27 90 28 91 29 7 31 8 32 9 33
REMARK SMILES IDX 10 34 11 35 12 36 13 37 77 38 14 39 76 40 15 41 16 42 17 43
REMARK SMILES IDX 70 44 18 45 75 46 69 47 71 48 19 49 74 50 68 51 67 52 20 54
REMARK SMILES IDX 54 55 33 56 53 57 34 58 37 59 52 60 72 61 35 62 36 63 51 65
REMARK SMILES IDX 73 66 38 67 21 68 22 69 31 70 23 71 24 72 30 73 32 74 25 75
REMARK SMILES IDX 26 76 27 77 28 78 29 79 55 80 56 81 65 82 57 83 58 84 64 85
REMARK SMILES IDX 66 86 59 87 60 88 61 89 62 90 63 91 39 92 40 93 49 94 41 95
REMARK SMILES IDX 42 96 48 97 50 98 43 99 44 100 45 101 46 102 47 103
REMARK H PARENT 91 30 71 53 37 64
REMARK Flexibility Score: inf
ROOT
ATOM      1  O   UNL     1       4.015  -0.196   2.526  1.00  0.00    -0.374 OA
ENDROOT
BRANCH   1   2
ATOM      2  C   UNL     1       4.428  -0.549   0.992  1.00  0.00     0.202 C 
BRANCH   2   3
ATOM      3  C   UNL     1       3.528   0.079  -0.888  1.00  0.00     0.261 C 
BRANCH   3   4
ATOM      4  O   UNL     1       2.580  -0.815  -1.782  1.00  0.00    -0.460 OA
BRANCH   4   5
ATOM      5  C   UNL     1       2.751  -2.129  -1.601  1.00  0.00     0.338 C 
ATOM      6  O   UNL     1       2.174  -3.082  -2.058  1.00  0.00    -0.246 OA
BRANCH   5   7
ATOM      7  C   UNL     1       3.627  -1.973  -0.474  1.00  0.00     0.087 C 
ATOM      8  C   UNL     1       4.987  -1.645  -0.926  1.00  0.00     0.027 C 
ATOM      9  C   UNL     1       2.501  -0.804   0.587  1.00  0.00     0.316 C 
ATOM     10  C   UNL     1       5.732  -0.010  -0.724  1.00  0.00     0.019 A 
ATOM     11  O   UNL     1       3.302   0.960   0.814  1.00  0.00    -0.475 OA
ATOM     12  C   UNL     1       6.877   0.190  -1.449  1.00  0.00     0.032 A 
ATOM     13  C   UNL     1       4.931   1.335   0.061  1.00  0.00     0.135 A 
ATOM     14  C   UNL     1       7.260   1.522  -1.581  1.00  0.00     0.042 A 
ATOM     15  C   UNL     1       5.492   2.647  -0.041  1.00  0.00     0.026 A 
ATOM     16  Cl  UNL     1       8.671   1.841  -2.535  1.00  0.00    -0.084 Cl
ATOM     17  C   UNL     1       6.586   2.652  -0.976  1.00  0.00     0.033 A 
BRANCH   9  18
ATOM     18  C   UNL     1       2.000  -1.938   1.603  1.00  0.00     0.430 C 
ATOM     19  F   UNL     1       0.995  -1.565   2.423  1.00  0.00    -0.167 F 
ATOM     20  F   UNL     1       1.466  -2.959   0.866  1.00  0.00    -0.167 F 
ATOM     21  F   UNL     1       2.972  -2.528   2.334  1.00  0.00    -0.167 F 
ENDBRANCH   9  18
BRANCH  15  22
ATOM     22  C   UNL     1       5.186   4.042   0.721  1.00  0.00    -0.015 A 
ATOM     23  C   UNL     1       3.551   4.566   0.138  1.00  0.00     0.009 A 
ATOM     24  C   UNL     1       5.889   5.019   2.371  1.00  0.00     0.009 A 
ATOM     25  C   UNL     1       2.685   5.835   1.018  1.00  0.00     0.007 A 
ATOM     26  C   UNL     1       4.885   6.267   3.167  1.00  0.00     0.007 A 
ATOM     27  C   UNL     1       3.333   6.646   2.466  1.00  0.00    -0.023 A 
BRANCH  27  28
ATOM     28  C   UNL     1       2.685   7.894   2.998  1.00  0.00     0.191 C 
BRANCH  28  29
ATOM     29  O   UNL     1       3.444   9.032   2.616  1.00  0.00    -0.392 OA
ATOM     30  H   UNL     1       4.340   8.960   2.981  1.00  0.00     0.211 HD
ENDBRANCH  28  29
ENDBRANCH  27  28
ENDBRANCH  15  22
ENDBRANCH   5   7
ENDBRANCH   4   5
ENDBRANCH   3   4
ENDBRANCH   2   3
ENDBRANCH   1   2
BRANCH   1  31
ATOM     31  C   UNL     1       2.760   0.097   3.187  1.00  0.00     0.202 C 
BRANCH  31  32
ATOM     32  C   UNL     1       2.792   1.181   4.262  1.00  0.00     0.261 C 
BRANCH  32  33
ATOM     33  O   UNL     1       3.430   2.321   3.747  1.00  0.00    -0.460 OA
BRANCH  33  34
ATOM     34  C   UNL     1       4.765   2.169   3.679  1.00  0.00     0.338 C 
ATOM     35  O   UNL     1       5.493   1.382   4.251  1.00  0.00    -0.246 OA
BRANCH  34  36
ATOM     36  C   UNL     1       5.179   3.117   2.680  1.00  0.00     0.060 A 
ATOM     37  C   UNL     1       6.852   3.099   2.064  1.00  0.00     0.016 A 
ATOM     38  C   UNL     1       4.094   4.496   2.215  1.00  0.00     0.016 A 
ATOM     39  C   UNL     1       7.522   4.415   1.046  1.00  0.00     0.010 A 
ATOM     40  C   UNL     1       4.912   5.928   1.038  1.00  0.00     0.010 A 
ATOM     41  C   UNL     1       6.608   5.823   0.533  1.00  0.00    -0.014 A 
BRANCH  41  42
ATOM     42  C   UNL     1       7.117   7.172   0.089  1.00  0.00     0.031 A 
ATOM     43  C   UNL     1       7.457   8.243   1.123  1.00  0.00     0.074 A 
ATOM     44  C   UNL     1       6.797   7.594  -1.151  1.00  0.00     0.049 A 
ATOM     45  N   UNL     1       7.491   9.552   1.009  1.00  0.00    -0.248 NA
ATOM     46  C   UNL     1       7.688   7.780   2.494  1.00  0.00     0.031 C 
ATOM     47  C   UNL     1       6.238   6.750  -2.203  1.00  0.00     0.029 A 
ATOM     48  N   UNL     1       6.813   8.855  -1.706  1.00  0.00    -0.354 N 
ATOM     49  C   UNL     1       7.680  10.057   2.299  1.00  0.00     0.074 A 
ATOM     50  C   UNL     1       7.667   8.913   3.183  1.00  0.00     0.031 C 
ATOM     51  C   UNL     1       5.946   7.514  -3.269  1.00  0.00     0.029 A 
ATOM     52  C   UNL     1       6.292   8.906  -2.979  1.00  0.00     0.049 A 
ATOM     53  H   UNL     1       7.164   9.646  -1.236  1.00  0.00     0.167 HD
ATOM     54  C   UNL     1       7.888  11.335   2.717  1.00  0.00     0.037 A 
ATOM     55  C   UNL     1       6.115   9.945  -3.822  1.00  0.00     0.037 A 
ATOM     56  C   UNL     1       7.974  12.467   1.826  1.00  0.00     0.049 A 
ATOM     57  C   UNL     1       6.516  11.338  -3.407  1.00  0.00     0.074 A 
ATOM     58  C   UNL     1       8.372  13.764   2.110  1.00  0.00     0.029 A 
ATOM     59  N   UNL     1       7.652  12.440   0.478  1.00  0.00    -0.354 N 
ATOM     60  N   UNL     1       6.884  11.774  -2.226  1.00  0.00    -0.248 NA
ATOM     61  C   UNL     1       6.511  12.377  -4.449  1.00  0.00     0.031 C 
ATOM     62  C   UNL     1       8.250  14.529   0.945  1.00  0.00     0.029 A 
ATOM     63  C   UNL     1       7.844  13.693  -0.082  1.00  0.00     0.049 A 
ATOM     64  H   UNL     1       7.333  11.646  -0.010  1.00  0.00     0.167 HD
ATOM     65  C   UNL     1       7.203  13.119  -2.397  1.00  0.00     0.074 A 
ATOM     66  C   UNL     1       6.981  13.429  -3.792  1.00  0.00     0.031 C 
ATOM     67  C   UNL     1       7.654  14.007  -1.477  1.00  0.00     0.037 A 
BRANCH  54  68
ATOM     68  C   UNL     1       8.105  11.592   4.199  1.00  0.00     0.058 A 
ATOM     69  C   UNL     1       9.190  11.032   4.896  1.00  0.00     0.135 A 
ATOM     70  C   UNL     1       7.266  12.463   4.921  1.00  0.00     0.135 A 
ATOM     71  F   UNL     1      10.047  10.211   4.269  1.00  0.00    -0.206 F 
ATOM     72  C   UNL     1       9.393  11.263   6.254  1.00  0.00     0.059 A 
ATOM     73  C   UNL     1       7.478  12.747   6.271  1.00  0.00     0.059 A 
ATOM     74  F   UNL     1       6.228  13.061   4.316  1.00  0.00    -0.206 F 
ATOM     75  C   UNL     1       8.530  12.119   6.935  1.00  0.00     0.060 A 
BRANCH  75  76
ATOM     76  S   UNL     1       8.812  12.396   8.698  1.00  0.00     0.124 S 
ATOM     77  O   UNL     1       8.380  11.121   9.263  1.00  0.00    -0.237 OA
ATOM     78  O   UNL     1      10.247  12.654   8.748  1.00  0.00    -0.237 OA
ATOM     79  O   UNL     1       7.960  13.540   9.006  1.00  0.00    -0.744 OA
ENDBRANCH  75  76
ENDBRANCH  54  68
BRANCH  55  80
ATOM     80  C   UNL     1       5.657   9.682  -5.213  1.00  0.00     0.058 A 
ATOM     81  C   UNL     1       6.585   9.706  -6.266  1.00  0.00     0.135 A 
ATOM     82  C   UNL     1       4.326   9.365  -5.522  1.00  0.00     0.135 A 
ATOM     83  F   UNL     1       7.869  10.011  -6.019  1.00  0.00    -0.206 F 
ATOM     84  C   UNL     1       6.213   9.439  -7.577  1.00  0.00     0.059 A 
ATOM     85  C   UNL     1       3.933   9.069  -6.826  1.00  0.00     0.059 A 
ATOM     86  F   UNL     1       3.405   9.306  -4.549  1.00  0.00    -0.206 F 
ATOM     87  C   UNL     1       4.884   9.111  -7.846  1.00  0.00     0.060 A 
BRANCH  87  88
ATOM     88  S   UNL     1       4.439   8.689  -9.545  1.00  0.00     0.124 S 
ATOM     89  O   UNL     1       4.580   9.975 -10.217  1.00  0.00    -0.237 OA
ATOM     90  O   UNL     1       5.441   7.681  -9.877  1.00  0.00    -0.237 OA
ATOM     91  O   UNL     1       3.073   8.188  -9.420  1.00  0.00    -0.744 OA
ENDBRANCH  87  88
ENDBRANCH  55  80
BRANCH  67  92
ATOM     92  C   UNL     1       8.031  15.392  -1.939  1.00  0.00     0.058 A 
ATOM     93  C   UNL     1       7.079  16.341  -2.339  1.00  0.00     0.135 A 
ATOM     94  C   UNL     1       9.378  15.796  -1.905  1.00  0.00     0.135 A 
ATOM     95  F   UNL     1       5.779  16.012  -2.398  1.00  0.00    -0.206 F 
ATOM     96  C   UNL     1       7.447  17.636  -2.702  1.00  0.00     0.059 A 
ATOM     97  C   UNL     1       9.765  17.092  -2.234  1.00  0.00     0.059 A 
ATOM     98  F   UNL     1      10.334  14.933  -1.525  1.00  0.00    -0.206 F 
ATOM     99  C   UNL     1       8.793  18.004  -2.638  1.00  0.00     0.060 A 
BRANCH  99 100
ATOM    100  S   UNL     1       9.250  19.701  -3.058  1.00  0.00     0.124 S 
ATOM    101  O   UNL     1       9.031  19.718  -4.500  1.00  0.00    -0.237 OA
ATOM    102  O   UNL     1       8.306  20.482  -2.264  1.00  0.00    -0.237 OA
ATOM    103  O   UNL     1      10.644  19.794  -2.634  1.00  0.00    -0.744 OA
ENDBRANCH  99 100
ENDBRANCH  67  92
ENDBRANCH  41  42
ENDBRANCH  34  36
ENDBRANCH  33  34
ENDBRANCH  32  33
ENDBRANCH  31  32
ENDBRANCH   1  31
TORSDOF 21
