REMARK SMILES CCCC[C@@H](NS(=O)(=O)c1cc2c3c(c1)c(C)cc(=O)n3CC2)C(=O)OCCOCCOC(=O)c1ccc(-c2c3nc(c(-c4c(F)cc(S(=O)(=O)[O-])cc4F)c4ccc([nH]4)c(-c4c(F)cc(S(=O)(=O)[O-])cc4F)c4nc(c(-c5c(F)cc(S(=O)(=O)[O-])cc5F)c5ccc2[nH]5)C=C4)C=C3)cc1
REMARK SMILES IDX 29 1 28 2 27 3 26 4 24 5 25 6 5 7 4 8 3 9 2 10 1 11 6 12
REMARK SMILES IDX 7 14 8 15 9 16 10 17 11 18 15 19 12 20 14 21 13 22 23 23
REMARK SMILES IDX 16 24 21 25 22 26 17 27 18 28 19 29 20 30 30 31 31 32 32 33
REMARK SMILES IDX 33 34 34 35 35 36 36 37 100 38 37 39 99 40 38 41 39 42 40 43
REMARK SMILES IDX 93 44 41 45 98 46 92 47 94 48 42 49 97 50 91 51 90 52 43 54
REMARK SMILES IDX 77 55 56 56 76 57 57 58 60 59 75 60 95 61 58 62 59 63 74 65
REMARK SMILES IDX 96 66 61 67 44 68 45 69 54 70 46 71 47 72 53 73 55 74 48 75
REMARK SMILES IDX 49 76 50 77 51 78 52 79 78 80 79 81 88 82 80 83 81 84 87 85
REMARK SMILES IDX 89 86 82 87 83 88 84 89 85 90 86 91 62 92 63 93 72 94 64 95
REMARK SMILES IDX 65 96 71 97 73 98 66 99 67 100 68 101 69 102 70 103
REMARK H PARENT 6 13 94 53 60 64
REMARK Flexibility Score: inf
ROOT
ATOM      1  O   UNL     1      -1.108   1.498   5.134  1.00  0.00    -0.374 OA
ENDROOT
BRANCH   1   2
ATOM      2  C   UNL     1      -1.231   0.456   6.087  1.00  0.00     0.202 C 
BRANCH   2   3
ATOM      3  C   UNL     1      -1.648  -0.945   5.646  1.00  0.00     0.261 C 
BRANCH   3   4
ATOM      4  O   UNL     1      -1.085  -1.474   4.450  1.00  0.00    -0.462 OA
BRANCH   4   5
ATOM      5  C   UNL     1      -1.633  -1.021   3.286  1.00  0.00     0.324 C 
ATOM      6  O   UNL     1      -2.322  -0.019   3.160  1.00  0.00    -0.250 OA
BRANCH   5   7
ATOM      7  C   UNL     1      -1.321  -1.949   2.132  1.00  0.00     0.179 C 
BRANCH   7   8
ATOM      8  C   UNL     1       0.196  -2.227   2.129  1.00  0.00     0.032 C 
BRANCH   8   9
ATOM      9  C   UNL     1       0.834  -2.517   0.766  1.00  0.00     0.002 C 
BRANCH   9  10
ATOM     10  C   UNL     1       0.588  -1.487  -0.342  1.00  0.00    -0.003 C 
ATOM     11  C   UNL     1       1.042  -0.073  -0.008  1.00  0.00     0.004 C 
ENDBRANCH   9  10
ENDBRANCH   8   9
ENDBRANCH   7   8
BRANCH   7  12
ATOM     12  N   UNL     1      -2.142  -3.179   2.271  1.00  0.00    -0.197 NA
ATOM     13  H   UNL     1      -2.002  -3.526   3.220  1.00  0.00     0.142 HD
BRANCH  12  14
ATOM     14  S   UNL     1      -3.818  -3.082   2.017  1.00  0.00     0.241 S 
ATOM     15  O   UNL     1      -4.042  -2.127   0.958  1.00  0.00    -0.207 OA
ATOM     16  O   UNL     1      -4.270  -4.453   1.892  1.00  0.00    -0.207 OA
BRANCH  14  17
ATOM     17  C   UNL     1      -4.516  -2.437   3.534  1.00  0.00     0.083 A 
ATOM     18  C   UNL     1      -4.826  -1.064   3.607  1.00  0.00     0.027 A 
ATOM     19  C   UNL     1      -4.711  -3.295   4.645  1.00  0.00     0.032 A 
ATOM     20  C   UNL     1      -5.115  -0.530   4.849  1.00  0.00    -0.020 A 
ATOM     21  C   UNL     1      -5.110  -2.760   5.878  1.00  0.00     0.003 A 
ATOM     22  C   UNL     1      -5.246  -1.381   5.933  1.00  0.00     0.055 A 
ATOM     23  C   UNL     1      -5.118   0.902   5.306  1.00  0.00     0.060 C 
ATOM     24  C   UNL     1      -5.315  -3.485   7.147  1.00  0.00    -0.036 A 
ATOM     25  N   UNL     1      -5.365  -0.669   7.117  1.00  0.00    -0.308 N 
ATOM     26  C   UNL     1      -5.246   0.762   6.843  1.00  0.00     0.131 C 
ATOM     27  C   UNL     1      -5.388  -4.981   7.130  1.00  0.00     0.045 C 
ATOM     28  C   UNL     1      -5.467  -2.776   8.288  1.00  0.00     0.075 A 
ATOM     29  C   UNL     1      -5.437  -1.279   8.338  1.00  0.00     0.251 A 
ATOM     30  O   UNL     1      -5.478  -0.686   9.409  1.00  0.00    -0.269 OA
ENDBRANCH  14  17
ENDBRANCH  12  14
ENDBRANCH   7  12
ENDBRANCH   5   7
ENDBRANCH   4   5
ENDBRANCH   3   4
ENDBRANCH   2   3
ENDBRANCH   1   2
BRANCH   1  31
ATOM     31  C   UNL     1       0.025   1.477   4.265  1.00  0.00     0.202 C 
BRANCH  31  32
ATOM     32  C   UNL     1       1.392   1.790   4.875  1.00  0.00     0.261 C 
BRANCH  32  33
ATOM     33  O   UNL     1       1.863   0.700   5.690  1.00  0.00    -0.460 OA
BRANCH  33  34
ATOM     34  C   UNL     1       1.882   0.946   7.024  1.00  0.00     0.338 C 
ATOM     35  O   UNL     1       1.629   1.998   7.583  1.00  0.00    -0.246 OA
BRANCH  34  36
ATOM     36  C   UNL     1       2.003  -0.342   7.737  1.00  0.00     0.060 A 
ATOM     37  C   UNL     1       1.005  -0.685   8.662  1.00  0.00     0.016 A 
ATOM     38  C   UNL     1       3.097  -1.180   7.524  1.00  0.00     0.016 A 
ATOM     39  C   UNL     1       1.115  -1.856   9.402  1.00  0.00     0.010 A 
ATOM     40  C   UNL     1       3.224  -2.339   8.293  1.00  0.00     0.010 A 
ATOM     41  C   UNL     1       2.252  -2.659   9.258  1.00  0.00    -0.014 A 
BRANCH  41  42
ATOM     42  C   UNL     1       2.525  -3.698  10.274  1.00  0.00     0.031 A 
ATOM     43  C   UNL     1       3.384  -3.321  11.450  1.00  0.00     0.074 A 
ATOM     44  C   UNL     1       1.975  -4.921  10.181  1.00  0.00     0.049 A 
ATOM     45  N   UNL     1       3.750  -4.047  12.472  1.00  0.00    -0.248 NA
ATOM     46  C   UNL     1       3.892  -1.938  11.481  1.00  0.00     0.031 C 
ATOM     47  C   UNL     1       1.083  -5.367   9.112  1.00  0.00     0.029 A 
ATOM     48  N   UNL     1       2.081  -6.009  11.009  1.00  0.00    -0.354 N 
ATOM     49  C   UNL     1       4.507  -3.205  13.277  1.00  0.00     0.074 A 
ATOM     50  C   UNL     1       4.599  -1.931  12.602  1.00  0.00     0.031 C 
ATOM     51  C   UNL     1       0.717  -6.639   9.354  1.00  0.00     0.029 A 
ATOM     52  C   UNL     1       1.368  -7.103  10.579  1.00  0.00     0.049 A 
ATOM     53  H   UNL     1       2.617  -6.007  11.835  1.00  0.00     0.167 HD
ATOM     54  C   UNL     1       5.053  -3.465  14.486  1.00  0.00     0.037 A 
ATOM     55  C   UNL     1       1.262  -8.335  11.116  1.00  0.00     0.037 A 
ATOM     56  C   UNL     1       4.964  -4.739  15.145  1.00  0.00     0.049 A 
ATOM     57  C   UNL     1       1.988  -8.636  12.405  1.00  0.00     0.074 A 
ATOM     58  C   UNL     1       5.502  -5.114  16.362  1.00  0.00     0.029 A 
ATOM     59  N   UNL     1       4.292  -5.844  14.643  1.00  0.00    -0.354 N 
ATOM     60  N   UNL     1       2.693  -7.828  13.162  1.00  0.00    -0.248 NA
ATOM     61  C   UNL     1       1.908 -10.014  12.913  1.00  0.00     0.031 C 
ATOM     62  C   UNL     1       5.197  -6.460  16.574  1.00  0.00     0.029 A 
ATOM     63  C   UNL     1       4.421  -6.908  15.516  1.00  0.00     0.049 A 
ATOM     64  H   UNL     1       3.798  -5.867  13.792  1.00  0.00     0.167 HD
ATOM     65  C   UNL     1       3.103  -8.589  14.254  1.00  0.00     0.074 A 
ATOM     66  C   UNL     1       2.568  -9.920  14.060  1.00  0.00     0.031 C 
ATOM     67  C   UNL     1       3.853  -8.218  15.320  1.00  0.00     0.037 A 
BRANCH  54  68
ATOM     68  C   UNL     1       5.781  -2.354  15.187  1.00  0.00     0.058 A 
ATOM     69  C   UNL     1       5.086  -1.276  15.755  1.00  0.00     0.135 A 
ATOM     70  C   UNL     1       7.172  -2.408  15.367  1.00  0.00     0.135 A 
ATOM     71  F   UNL     1       3.758  -1.165  15.592  1.00  0.00    -0.206 F 
ATOM     72  C   UNL     1       5.744  -0.288  16.479  1.00  0.00     0.059 A 
ATOM     73  C   UNL     1       7.848  -1.445  16.111  1.00  0.00     0.059 A 
ATOM     74  F   UNL     1       7.885  -3.413  14.836  1.00  0.00    -0.206 F 
ATOM     75  C   UNL     1       7.125  -0.388  16.662  1.00  0.00     0.060 A 
BRANCH  75  76
ATOM     76  S   UNL     1       7.951   0.879  17.646  1.00  0.00     0.124 S 
ATOM     77  O   UNL     1       7.795   2.057  16.797  1.00  0.00    -0.237 OA
ATOM     78  O   UNL     1       7.164   0.876  18.875  1.00  0.00    -0.237 OA
ATOM     79  O   UNL     1       9.315   0.377  17.774  1.00  0.00    -0.744 OA
ENDBRANCH  75  76
ENDBRANCH  54  68
BRANCH  55  80
ATOM     80  C   UNL     1       0.426  -9.375  10.458  1.00  0.00     0.058 A 
ATOM     81  C   UNL     1      -0.737  -9.858  11.076  1.00  0.00     0.135 A 
ATOM     82  C   UNL     1       0.777  -9.922   9.214  1.00  0.00     0.135 A 
ATOM     83  F   UNL     1      -1.113  -9.374  12.270  1.00  0.00    -0.206 F 
ATOM     84  C   UNL     1      -1.508 -10.861  10.498  1.00  0.00     0.059 A 
ATOM     85  C   UNL     1       0.007 -10.906   8.602  1.00  0.00     0.059 A 
ATOM     86  F   UNL     1       1.874  -9.488   8.572  1.00  0.00    -0.206 F 
ATOM     87  C   UNL     1      -1.128 -11.379   9.259  1.00  0.00     0.060 A 
BRANCH  87  88
ATOM     88  S   UNL     1      -2.151 -12.666   8.513  1.00  0.00     0.124 S 
ATOM     89  O   UNL     1      -1.915 -13.788   9.413  1.00  0.00    -0.237 OA
ATOM     90  O   UNL     1      -3.480 -12.066   8.571  1.00  0.00    -0.237 OA
ATOM     91  O   UNL     1      -1.590 -12.804   7.172  1.00  0.00    -0.744 OA
ENDBRANCH  87  88
ENDBRANCH  55  80
BRANCH  67  92
ATOM     92  C   UNL     1       4.125  -9.237  16.391  1.00  0.00     0.058 A 
ATOM     93  C   UNL     1       5.057 -10.267  16.202  1.00  0.00     0.135 A 
ATOM     94  C   UNL     1       3.558  -9.088  17.669  1.00  0.00     0.135 A 
ATOM     95  F   UNL     1       5.621 -10.455  14.998  1.00  0.00    -0.206 F 
ATOM     96  C   UNL     1       5.428 -11.107  17.245  1.00  0.00     0.059 A 
ATOM     97  C   UNL     1       3.935  -9.899  18.734  1.00  0.00     0.059 A 
ATOM     98  F   UNL     1       2.668  -8.110  17.904  1.00  0.00    -0.206 F 
ATOM     99  C   UNL     1       4.876 -10.904  18.512  1.00  0.00     0.060 A 
BRANCH  99 100
ATOM    100  S   UNL     1       5.451 -11.939  19.875  1.00  0.00     0.124 S 
ATOM    101  O   UNL     1       4.916 -13.244  19.502  1.00  0.00    -0.237 OA
ATOM    102  O   UNL     1       6.900 -11.797  19.780  1.00  0.00    -0.237 OA
ATOM    103  O   UNL     1       4.841 -11.325  21.052  1.00  0.00    -0.744 OA
ENDBRANCH  99 100
ENDBRANCH  67  92
ENDBRANCH  41  42
ENDBRANCH  34  36
ENDBRANCH  33  34
ENDBRANCH  32  33
ENDBRANCH  31  32
ENDBRANCH   1  31
TORSDOF 23
