REMARK SMILES CCCNC(=O)CN(C)C(=O)C[N@H+]1CCCC[C@H]1C(=O)OCCOCCOC(=O)c1ccc(-c2c3nc(c(-c4c(F)cc(S(=O)(=O)[O-])cc4F)c4ccc([nH]4)c(-c4c(F)cc(S(=O)(=O)[O-])cc4F)c4nc(c(-c5c(F)cc(S(=O)(=O)[O-])cc5F)c5ccc2[nH]5)C=C4)C=C3)cc1
REMARK SMILES IDX 22 1 21 2 19 3 20 4 18 5 13 6 14 7 15 9 17 10 16 11 12 12
REMARK SMILES IDX 10 13 11 14 8 15 9 16 7 17 5 18 4 19 6 21 3 22 2 23 1 24
REMARK SMILES IDX 23 25 24 26 25 27 26 28 27 29 28 30 29 31 30 32 31 33 95 34
REMARK SMILES IDX 32 35 94 36 33 37 34 38 35 39 88 40 36 41 93 42 87 43 89 44
REMARK SMILES IDX 37 45 92 46 86 47 85 48 38 50 72 51 51 52 71 53 52 54 55 55
REMARK SMILES IDX 70 56 90 57 53 58 54 59 69 61 91 62 56 63 39 64 40 65 49 66
REMARK SMILES IDX 41 67 42 68 48 69 50 70 43 71 44 72 45 73 46 74 47 75 73 76
REMARK SMILES IDX 74 77 83 78 75 79 76 80 82 81 84 82 77 83 78 84 79 85 80 86
REMARK SMILES IDX 81 87 57 88 58 89 67 90 59 91 60 92 66 93 68 94 61 95 62 96
REMARK SMILES IDX 63 97 64 98 65 99
REMARK H PARENT 13 8 4 20 89 49 55 60
REMARK Flexibility Score: inf
ROOT
ATOM      1  C   UNL     1      -6.529  -0.838  -1.015  1.00  0.00     0.261 C 
ENDROOT
BRANCH   1   2
ATOM      2  O   UNL     1      -5.106  -0.816  -0.830  1.00  0.00    -0.459 OA
BRANCH   2   3
ATOM      3  C   UNL     1      -4.606  -1.974  -0.310  1.00  0.00     0.365 C 
ATOM      4  O   UNL     1      -5.290  -2.966  -0.080  1.00  0.00    -0.245 OA
BRANCH   3   5
ATOM      5  C   UNL     1      -3.081  -1.867  -0.049  1.00  0.00     0.295 C 
ATOM      6  N   UNL     1      -2.534  -3.080   0.624  1.00  0.00    -0.315 N 
ATOM      7  C   UNL     1      -2.547  -4.248  -0.253  1.00  0.00     0.263 C 
ATOM      8  H   UNL     1      -1.551  -2.894   0.821  1.00  0.00     0.349 HD
ATOM      9  C   UNL     1      -1.523  -4.015  -1.355  1.00  0.00     0.062 C 
ATOM     10  C   UNL     1      -2.252  -1.553  -1.314  1.00  0.00     0.078 C 
ATOM     11  C   UNL     1      -1.824  -2.760  -2.161  1.00  0.00     0.013 C 
BRANCH   6  12
ATOM     12  C   UNL     1      -3.159  -3.323   1.936  1.00  0.00     0.364 C 
BRANCH  12  13
ATOM     13  C   UNL     1      -2.379  -2.555   3.011  1.00  0.00     0.277 C 
ATOM     14  O   UNL     1      -2.867  -1.551   3.531  1.00  0.00    -0.268 OA
BRANCH  13  15
ATOM     15  N   UNL     1      -1.114  -3.027   3.359  1.00  0.00    -0.332 N 
ATOM     16  C   UNL     1      -0.548  -4.253   2.820  1.00  0.00     0.147 C 
BRANCH  15  17
ATOM     17  C   UNL     1      -0.421  -2.337   4.447  1.00  0.00     0.219 C 
BRANCH  17  18
ATOM     18  C   UNL     1       0.072  -0.906   4.180  1.00  0.00     0.239 C 
ATOM     19  N   UNL     1       0.873  -0.610   3.117  1.00  0.00    -0.355 N 
ATOM     20  H   UNL     1       1.069   0.348   2.999  1.00  0.00     0.163 HD
ATOM     21  O   UNL     1      -0.084  -0.017   5.023  1.00  0.00    -0.273 OA
BRANCH  19  22
ATOM     22  C   UNL     1       1.481  -1.480   2.136  1.00  0.00     0.115 C 
BRANCH  22  23
ATOM     23  C   UNL     1       0.854  -1.316   0.759  1.00  0.00     0.018 C 
ATOM     24  C   UNL     1       1.221   0.006   0.098  1.00  0.00     0.006 C 
ENDBRANCH  22  23
ENDBRANCH  19  22
ENDBRANCH  17  18
ENDBRANCH  15  17
ENDBRANCH  13  15
ENDBRANCH  12  13
ENDBRANCH   6  12
ENDBRANCH   3   5
ENDBRANCH   2   3
ENDBRANCH   1   2
BRANCH   1  25
ATOM     25  C   UNL     1      -6.980  -1.208  -2.434  1.00  0.00     0.202 C 
BRANCH  25  26
ATOM     26  O   UNL     1      -6.519  -2.417  -3.032  1.00  0.00    -0.374 OA
BRANCH  26  27
ATOM     27  C   UNL     1      -5.161  -2.473  -3.454  1.00  0.00     0.202 C 
BRANCH  27  28
ATOM     28  C   UNL     1      -4.734  -1.701  -4.707  1.00  0.00     0.261 C 
BRANCH  28  29
ATOM     29  O   UNL     1      -4.941  -0.288  -4.574  1.00  0.00    -0.460 OA
BRANCH  29  30
ATOM     30  C   UNL     1      -5.944   0.194  -5.343  1.00  0.00     0.338 C 
ATOM     31  O   UNL     1      -6.582  -0.418  -6.192  1.00  0.00    -0.246 OA
BRANCH  30  32
ATOM     32  C   UNL     1      -6.337   1.531  -4.874  1.00  0.00     0.060 A 
ATOM     33  C   UNL     1      -7.689   1.718  -4.555  1.00  0.00     0.016 A 
ATOM     34  C   UNL     1      -5.430   2.589  -4.802  1.00  0.00     0.016 A 
ATOM     35  C   UNL     1      -8.156   2.984  -4.228  1.00  0.00     0.010 A 
ATOM     36  C   UNL     1      -5.904   3.866  -4.490  1.00  0.00     0.010 A 
ATOM     37  C   UNL     1      -7.276   4.071  -4.249  1.00  0.00    -0.014 A 
BRANCH  37  38
ATOM     38  C   UNL     1      -7.841   5.438  -4.219  1.00  0.00     0.031 A 
ATOM     39  C   UNL     1      -8.037   6.156  -5.527  1.00  0.00     0.074 A 
ATOM     40  C   UNL     1      -8.224   5.995  -3.056  1.00  0.00     0.049 A 
ATOM     41  N   UNL     1      -8.510   7.353  -5.751  1.00  0.00    -0.248 NA
ATOM     42  C   UNL     1      -7.649   5.426  -6.748  1.00  0.00     0.031 C 
ATOM     43  C   UNL     1      -8.117   5.363  -1.741  1.00  0.00     0.029 A 
ATOM     44  N   UNL     1      -8.780   7.220  -2.796  1.00  0.00    -0.354 N 
ATOM     45  C   UNL     1      -8.459   7.527  -7.129  1.00  0.00     0.074 A 
ATOM     46  C   UNL     1      -7.896   6.322  -7.693  1.00  0.00     0.031 C 
ATOM     47  C   UNL     1      -8.581   6.214  -0.809  1.00  0.00     0.029 A 
ATOM     48  C   UNL     1      -8.991   7.457  -1.459  1.00  0.00     0.049 A 
ATOM     49  H   UNL     1      -9.008   7.869  -3.501  1.00  0.00     0.167 HD
ATOM     50  C   UNL     1      -8.852   8.599  -7.855  1.00  0.00     0.037 A 
ATOM     51  C   UNL     1      -9.441   8.564  -0.836  1.00  0.00     0.037 A 
ATOM     52  C   UNL     1      -9.436   9.781  -7.280  1.00  0.00     0.049 A 
ATOM     53  C   UNL     1      -9.830   9.759  -1.670  1.00  0.00     0.074 A 
ATOM     54  C   UNL     1      -9.913  10.905  -7.929  1.00  0.00     0.029 A 
ATOM     55  N   UNL     1      -9.616   9.993  -5.921  1.00  0.00    -0.354 N 
ATOM     56  N   UNL     1      -9.818   9.894  -2.976  1.00  0.00    -0.248 NA
ATOM     57  C   UNL     1     -10.297  10.951  -0.949  1.00  0.00     0.031 C 
ATOM     58  C   UNL     1     -10.331  11.821  -6.959  1.00  0.00     0.029 A 
ATOM     59  C   UNL     1     -10.168  11.244  -5.710  1.00  0.00     0.049 A 
ATOM     60  H   UNL     1      -9.386   9.350  -5.213  1.00  0.00     0.167 HD
ATOM     61  C   UNL     1     -10.307  11.171  -3.231  1.00  0.00     0.074 A 
ATOM     62  C   UNL     1     -10.617  11.763  -1.946  1.00  0.00     0.031 C 
ATOM     63  C   UNL     1     -10.486  11.801  -4.419  1.00  0.00     0.037 A 
BRANCH  50  64
ATOM     64  C   UNL     1      -8.645   8.566  -9.343  1.00  0.00     0.058 A 
ATOM     65  C   UNL     1      -9.447   7.785 -10.189  1.00  0.00     0.135 A 
ATOM     66  C   UNL     1      -7.678   9.394  -9.936  1.00  0.00     0.135 A 
ATOM     67  F   UNL     1     -10.370   6.957  -9.673  1.00  0.00    -0.206 F 
ATOM     68  C   UNL     1      -9.300   7.828 -11.572  1.00  0.00     0.059 A 
ATOM     69  C   UNL     1      -7.529   9.471 -11.317  1.00  0.00     0.059 A 
ATOM     70  F   UNL     1      -6.878  10.152  -9.170  1.00  0.00    -0.206 F 
ATOM     71  C   UNL     1      -8.344   8.682 -12.127  1.00  0.00     0.060 A 
BRANCH  71  72
ATOM     72  S   UNL     1      -8.205   8.771 -13.925  1.00  0.00     0.124 S 
ATOM     73  O   UNL     1      -7.596   7.481 -14.235  1.00  0.00    -0.237 OA
ATOM     74  O   UNL     1      -9.595   8.930 -14.337  1.00  0.00    -0.237 OA
ATOM     75  O   UNL     1      -7.352   9.935 -14.144  1.00  0.00    -0.744 OA
ENDBRANCH  71  72
ENDBRANCH  50  64
BRANCH  51  76
ATOM     76  C   UNL     1      -9.525   8.615   0.649  1.00  0.00     0.058 A 
ATOM     77  C   UNL     1     -10.760   8.719   1.306  1.00  0.00     0.135 A 
ATOM     78  C   UNL     1      -8.365   8.608   1.440  1.00  0.00     0.135 A 
ATOM     79  F   UNL     1     -11.898   8.736   0.596  1.00  0.00    -0.206 F 
ATOM     80  C   UNL     1     -10.841   8.855   2.688  1.00  0.00     0.059 A 
ATOM     81  C   UNL     1      -8.422   8.712   2.826  1.00  0.00     0.059 A 
ATOM     82  F   UNL     1      -7.158   8.496   0.863  1.00  0.00    -0.206 F 
ATOM     83  C   UNL     1      -9.665   8.858   3.439  1.00  0.00     0.060 A 
BRANCH  83  84
ATOM     84  S   UNL     1      -9.779   9.044   5.232  1.00  0.00     0.124 S 
ATOM     85  O   UNL     1     -10.104  10.460   5.358  1.00  0.00    -0.237 OA
ATOM     86  O   UNL     1     -10.848   8.110   5.571  1.00  0.00    -0.237 OA
ATOM     87  O   UNL     1      -8.449   8.657   5.694  1.00  0.00    -0.744 OA
ENDBRANCH  83  84
ENDBRANCH  51  76
BRANCH  63  88
ATOM     88  C   UNL     1     -11.085  13.179  -4.390  1.00  0.00     0.058 A 
ATOM     89  C   UNL     1     -10.357  14.293  -3.946  1.00  0.00     0.135 A 
ATOM     90  C   UNL     1     -12.388  13.393  -4.869  1.00  0.00     0.135 A 
ATOM     91  F   UNL     1      -9.109  14.140  -3.474  1.00  0.00    -0.206 F 
ATOM     92  C   UNL     1     -10.909  15.569  -3.953  1.00  0.00     0.059 A 
ATOM     93  C   UNL     1     -12.949  14.665  -4.914  1.00  0.00     0.059 A 
ATOM     94  F   UNL     1     -13.122  12.363  -5.319  1.00  0.00    -0.206 F 
ATOM     95  C   UNL     1     -12.206  15.745  -4.441  1.00  0.00     0.060 A 
BRANCH  95  96
ATOM     96  S   UNL     1     -12.898  17.412  -4.477  1.00  0.00     0.124 S 
ATOM     97  O   UNL     1     -13.188  17.639  -3.065  1.00  0.00    -0.237 OA
ATOM     98  O   UNL     1     -11.800  18.195  -5.033  1.00  0.00    -0.237 OA
ATOM     99  O   UNL     1     -14.065  17.276  -5.343  1.00  0.00    -0.744 OA
ENDBRANCH  95  96
ENDBRANCH  63  88
ENDBRANCH  37  38
ENDBRANCH  30  32
ENDBRANCH  29  30
ENDBRANCH  28  29
ENDBRANCH  27  28
ENDBRANCH  26  27
ENDBRANCH  25  26
ENDBRANCH   1  25
TORSDOF 24
