REMARK SMILES C[C@](NC(=O)[C@](C)([NH3+])C(F)(F)F)(C(=O)OCCOCCOC(=O)c1ccc(-c2c3nc(c(-c4c(F)cc(S(=O)(=O)[O-])cc4F)c4ccc([nH]4)c(-c4c(F)cc(S(=O)(=O)[O-])cc4F)c4nc(c(-c5c(F)cc(S(=O)(=O)[O-])cc5F)c5ccc2[nH]5)C=C4)C=C3)cc1)c1ccccc1
REMARK SMILES IDX 18 1 17 2 16 3 15 4 13 5 14 6 2 7 1 8 90 9 91 10 95 11 92 12
REMARK SMILES IDX 94 13 93 14 3 15 4 16 5 18 6 19 7 20 8 21 9 25 10 26 11 27
REMARK SMILES IDX 12 28 19 29 20 30 21 31 22 32 23 33 24 34 25 35 89 36 26 37
REMARK SMILES IDX 88 38 27 39 28 40 29 41 82 42 30 43 87 44 81 45 83 46 31 47
REMARK SMILES IDX 86 48 80 49 79 50 32 52 66 53 45 54 65 55 46 56 49 57 64 58
REMARK SMILES IDX 84 59 47 60 48 61 63 63 85 64 50 65 33 66 34 67 43 68 35 69
REMARK SMILES IDX 36 70 42 71 44 72 37 73 38 74 39 75 40 76 41 77 67 78 68 79
REMARK SMILES IDX 77 80 69 81 70 82 76 83 78 84 71 85 72 86 73 87 74 88 75 89
REMARK SMILES IDX 51 90 52 91 61 92 53 93 54 94 60 95 62 96 55 97 56 98 57 99
REMARK SMILES IDX 58 100 59 101
REMARK H PARENT 3 17 8 22 8 23 8 24 83 51 49 62
REMARK Flexibility Score: inf
ROOT
ATOM      1  O   UNL     1       0.786   3.529   5.998  1.00  0.00    -0.374 OA
ENDROOT
BRANCH   1   2
ATOM      2  C   UNL     1       0.677   2.240   5.380  1.00  0.00     0.202 C 
BRANCH   2   3
ATOM      3  C   UNL     1      -0.371   2.142   4.259  1.00  0.00     0.261 C 
BRANCH   3   4
ATOM      4  O   UNL     1       0.044   2.702   2.978  1.00  0.00    -0.461 OA
BRANCH   4   5
ATOM      5  C   UNL     1      -0.913   3.421   2.336  1.00  0.00     0.336 C 
ATOM      6  O   UNL     1      -1.960   3.751   2.897  1.00  0.00    -0.249 OA
BRANCH   5   7
ATOM      7  C   UNL     1      -0.675   3.711   0.775  1.00  0.00     0.161 C 
ATOM      8  C   UNL     1      -1.613   2.612   0.165  1.00  0.00     0.053 C 
BRANCH   7   9
ATOM      9  C   UNL     1      -1.264   5.135   0.519  1.00  0.00    -0.012 A 
ATOM     10  C   UNL     1      -0.436   6.268   0.451  1.00  0.00     0.007 A 
ATOM     11  C   UNL     1      -2.656   5.364   0.545  1.00  0.00     0.007 A 
ATOM     12  C   UNL     1      -0.963   7.562   0.526  1.00  0.00     0.000 A 
ATOM     13  C   UNL     1      -3.184   6.656   0.604  1.00  0.00     0.000 A 
ATOM     14  C   UNL     1      -2.336   7.755   0.625  1.00  0.00     0.000 A 
ENDBRANCH   7   9
BRANCH   7  15
ATOM     15  N   UNL     1       0.556   3.517  -0.091  1.00  0.00    -0.331 N 
ATOM     16  C   UNL     1       1.901   3.708  -0.104  1.00  0.00     0.291 C 
ATOM     17  H   UNL     1       0.284   3.107  -0.944  1.00  0.00     0.165 HD
ATOM     18  O   UNL     1       2.391   3.849  -1.232  1.00  0.00    -0.267 OA
BRANCH  16  19
ATOM     19  C   UNL     1       2.781   3.712   1.145  1.00  0.00     0.267 C 
ATOM     20  C   UNL     1       2.343   4.888   2.009  1.00  0.00     0.100 C 
BRANCH  19  21
ATOM     21  N   UNL     1       4.216   4.058   0.808  1.00  0.00    -0.337 N 
ATOM     22  H   UNL     1       4.777   4.052   1.660  1.00  0.00     0.345 HD
ATOM     23  H   UNL     1       4.252   4.985   0.384  1.00  0.00     0.345 HD
ATOM     24  H   UNL     1       4.587   3.370   0.152  1.00  0.00     0.345 HD
ENDBRANCH  19  21
BRANCH  19  25
ATOM     25  C   UNL     1       2.666   2.279   1.734  1.00  0.00     0.453 C 
ATOM     26  F   UNL     1       2.632   2.319   3.079  1.00  0.00    -0.164 F 
ATOM     27  F   UNL     1       1.583   1.580   1.335  1.00  0.00    -0.164 F 
ATOM     28  F   UNL     1       3.744   1.519   1.411  1.00  0.00    -0.164 F 
ENDBRANCH  19  25
ENDBRANCH  16  19
ENDBRANCH   7  15
ENDBRANCH   5   7
ENDBRANCH   4   5
ENDBRANCH   3   4
ENDBRANCH   2   3
ENDBRANCH   1   2
BRANCH   1  29
ATOM     29  C   UNL     1       1.553   4.479   5.267  1.00  0.00     0.202 C 
BRANCH  29  30
ATOM     30  C   UNL     1       3.057   4.470   5.583  1.00  0.00     0.261 C 
BRANCH  30  31
ATOM     31  O   UNL     1       3.678   3.282   5.055  1.00  0.00    -0.460 OA
BRANCH  31  32
ATOM     32  C   UNL     1       4.255   2.474   5.977  1.00  0.00     0.338 C 
ATOM     33  O   UNL     1       4.529   2.771   7.121  1.00  0.00    -0.246 OA
BRANCH  32  34
ATOM     34  C   UNL     1       4.313   1.075   5.483  1.00  0.00     0.060 A 
ATOM     35  C   UNL     1       3.724   0.115   6.310  1.00  0.00     0.016 A 
ATOM     36  C   UNL     1       4.958   0.682   4.306  1.00  0.00     0.016 A 
ATOM     37  C   UNL     1       3.844  -1.240   6.010  1.00  0.00     0.010 A 
ATOM     38  C   UNL     1       5.066  -0.689   3.998  1.00  0.00     0.010 A 
ATOM     39  C   UNL     1       4.553  -1.662   4.877  1.00  0.00    -0.014 A 
BRANCH  39  40
ATOM     40  C   UNL     1       4.857  -3.116   4.746  1.00  0.00     0.031 A 
ATOM     41  C   UNL     1       6.239  -3.618   5.089  1.00  0.00     0.074 A 
ATOM     42  C   UNL     1       3.879  -4.004   4.472  1.00  0.00     0.049 A 
ATOM     43  N   UNL     1       6.670  -4.850   5.195  1.00  0.00    -0.248 NA
ATOM     44  C   UNL     1       7.268  -2.602   5.360  1.00  0.00     0.031 C 
ATOM     45  C   UNL     1       2.494  -3.662   4.153  1.00  0.00     0.029 A 
ATOM     46  N   UNL     1       3.896  -5.379   4.444  1.00  0.00    -0.354 N 
ATOM     47  C   UNL     1       8.011  -4.757   5.550  1.00  0.00     0.074 A 
ATOM     48  C   UNL     1       8.335  -3.349   5.605  1.00  0.00     0.031 C 
ATOM     49  C   UNL     1       1.791  -4.795   3.978  1.00  0.00     0.029 A 
ATOM     50  C   UNL     1       2.677  -5.945   4.148  1.00  0.00     0.049 A 
ATOM     51  H   UNL     1       4.707  -5.910   4.620  1.00  0.00     0.167 HD
ATOM     52  C   UNL     1       8.891  -5.751   5.824  1.00  0.00     0.037 A 
ATOM     53  C   UNL     1       2.315  -7.239   4.020  1.00  0.00     0.037 A 
ATOM     54  C   UNL     1       8.572  -7.155   5.787  1.00  0.00     0.049 A 
ATOM     55  C   UNL     1       3.333  -8.325   4.269  1.00  0.00     0.074 A 
ATOM     56  C   UNL     1       9.394  -8.228   6.087  1.00  0.00     0.029 A 
ATOM     57  N   UNL     1       7.345  -7.684   5.420  1.00  0.00    -0.354 N 
ATOM     58  N   UNL     1       4.580  -8.215   4.660  1.00  0.00    -0.248 NA
ATOM     59  C   UNL     1       2.892  -9.714   4.065  1.00  0.00     0.031 C 
ATOM     60  C   UNL     1       8.682  -9.407   5.844  1.00  0.00     0.029 A 
ATOM     61  C   UNL     1       7.399  -9.068   5.449  1.00  0.00     0.049 A 
ATOM     62  H   UNL     1       6.551  -7.154   5.175  1.00  0.00     0.167 HD
ATOM     63  C   UNL     1       5.063  -9.517   4.766  1.00  0.00     0.074 A 
ATOM     64  C   UNL     1       3.969 -10.399   4.423  1.00  0.00     0.031 C 
ATOM     65  C   UNL     1       6.304  -9.942   5.111  1.00  0.00     0.037 A 
BRANCH  52  66
ATOM     66  C   UNL     1      10.302  -5.367   6.178  1.00  0.00     0.058 A 
ATOM     67  C   UNL     1      10.627  -4.811   7.425  1.00  0.00     0.135 A 
ATOM     68  C   UNL     1      11.353  -5.638   5.287  1.00  0.00     0.135 A 
ATOM     69  F   UNL     1       9.659  -4.517   8.307  1.00  0.00    -0.206 F 
ATOM     70  C   UNL     1      11.944  -4.531   7.774  1.00  0.00     0.059 A 
ATOM     71  C   UNL     1      12.680  -5.389   5.624  1.00  0.00     0.059 A 
ATOM     72  F   UNL     1      11.096  -6.168   4.080  1.00  0.00    -0.206 F 
ATOM     73  C   UNL     1      12.965  -4.830   6.869  1.00  0.00     0.060 A 
BRANCH  73  74
ATOM     74  S   UNL     1      14.672  -4.498   7.354  1.00  0.00     0.124 S 
ATOM     75  O   UNL     1      14.706  -3.039   7.323  1.00  0.00    -0.237 OA
ATOM     76  O   UNL     1      14.742  -5.105   8.679  1.00  0.00    -0.237 OA
ATOM     77  O   UNL     1      15.457  -5.165   6.320  1.00  0.00    -0.744 OA
ENDBRANCH  73  74
ENDBRANCH  52  66
BRANCH  53  78
ATOM     78  C   UNL     1       0.929  -7.594   3.602  1.00  0.00     0.058 A 
ATOM     79  C   UNL     1       0.055  -8.285   4.455  1.00  0.00     0.135 A 
ATOM     80  C   UNL     1       0.470  -7.289   2.310  1.00  0.00     0.135 A 
ATOM     81  F   UNL     1       0.449  -8.615   5.695  1.00  0.00    -0.206 F 
ATOM     82  C   UNL     1      -1.211  -8.685   4.036  1.00  0.00     0.059 A 
ATOM     83  C   UNL     1      -0.802  -7.650   1.879  1.00  0.00     0.059 A 
ATOM     84  F   UNL     1       1.261  -6.624   1.454  1.00  0.00    -0.206 F 
ATOM     85  C   UNL     1      -1.629  -8.364   2.743  1.00  0.00     0.060 A 
BRANCH  85  86
ATOM     86  S   UNL     1      -3.280  -8.869   2.211  1.00  0.00     0.124 S 
ATOM     87  O   UNL     1      -3.102 -10.304   2.023  1.00  0.00    -0.237 OA
ATOM     88  O   UNL     1      -4.104  -8.470   3.347  1.00  0.00    -0.237 OA
ATOM     89  O   UNL     1      -3.490  -8.093   0.992  1.00  0.00    -0.744 OA
ENDBRANCH  85  86
ENDBRANCH  53  78
BRANCH  65  90
ATOM     90  C   UNL     1       6.549 -11.428   5.156  1.00  0.00     0.058 A 
ATOM     91  C   UNL     1       6.621 -12.199   3.985  1.00  0.00     0.135 A 
ATOM     92  C   UNL     1       6.771 -12.079   6.381  1.00  0.00     0.135 A 
ATOM     93  F   UNL     1       6.413 -11.629   2.788  1.00  0.00    -0.206 F 
ATOM     94  C   UNL     1       6.879 -13.566   4.028  1.00  0.00     0.059 A 
ATOM     95  C   UNL     1       7.060 -13.439   6.446  1.00  0.00     0.059 A 
ATOM     96  F   UNL     1       6.726 -11.389   7.532  1.00  0.00    -0.206 F 
ATOM     97  C   UNL     1       7.100 -14.177   5.264  1.00  0.00     0.060 A 
BRANCH  97  98
ATOM     98  S   UNL     1       7.465 -15.945   5.301  1.00  0.00     0.124 S 
ATOM     99  O   UNL     1       6.161 -16.522   4.992  1.00  0.00    -0.237 OA
ATOM    100  O   UNL     1       8.480 -16.077   4.260  1.00  0.00    -0.237 OA
ATOM    101  O   UNL     1       7.942 -16.166   6.664  1.00  0.00    -0.744 OA
ENDBRANCH  97  98
ENDBRANCH  65  90
ENDBRANCH  39  40
ENDBRANCH  32  34
ENDBRANCH  31  32
ENDBRANCH  30  31
ENDBRANCH  29  30
ENDBRANCH   1  29
TORSDOF 22
