REMARK SMILES O=C(OCCOCCOC(=O)[C@@H]1C[C@@H]1C(=O)N1CC2(CCCC2)c2c(F)cccc21)c1ccc(-c2c3nc(c(-c4c(F)cc(S(=O)(=O)[O-])cc4F)c4ccc([nH]4)c(-c4c(F)cc(S(=O)(=O)[O-])cc4F)c4nc(c(-c5c(F)cc(S(=O)(=O)[O-])cc5F)c5ccc2[nH]5)C=C4)C=C3)cc1
REMARK SMILES IDX 5 1 4 2 3 3 2 4 1 5 31 6 32 7 96 8 33 9 95 10 34 11 35 12
REMARK SMILES IDX 36 13 89 14 37 15 94 16 88 17 90 18 38 19 93 20 87 21 86 22
REMARK SMILES IDX 39 24 73 25 52 26 72 27 53 28 56 29 71 30 91 31 54 32 55 33
REMARK SMILES IDX 70 35 92 36 57 37 40 38 41 39 50 40 42 41 43 42 49 43 51 44
REMARK SMILES IDX 44 45 45 46 46 47 47 48 48 49 74 50 75 51 84 52 76 53 77 54
REMARK SMILES IDX 83 55 85 56 78 57 79 58 80 59 81 60 82 61 58 62 59 63 68 64
REMARK SMILES IDX 60 65 61 66 67 67 69 68 62 69 63 70 64 71 65 72 66 73 6 74
REMARK SMILES IDX 7 75 8 76 9 77 10 78 11 79 12 80 13 81 14 82 15 83 16 84
REMARK SMILES IDX 17 85 18 86 30 87 19 88 24 89 29 90 20 91 23 92 25 93 28 94
REMARK SMILES IDX 21 95 22 96 26 97 27 98
REMARK H PARENT 90 23 56 34
REMARK Flexibility Score: inf
ROOT
ATOM      1  C   UNL     1       4.968   0.186  -1.117  1.00  0.00     0.202 C 
ENDROOT
BRANCH   1   2
ATOM      2  C   UNL     1       4.708  -0.733   0.103  1.00  0.00     0.261 C 
BRANCH   2   3
ATOM      3  O   UNL     1       3.302  -0.916   0.363  1.00  0.00    -0.460 OA
BRANCH   3   4
ATOM      4  C   UNL     1       2.586  -0.393   1.387  1.00  0.00     0.338 C 
ATOM      5  O   UNL     1       1.507  -0.903   1.679  1.00  0.00    -0.246 OA
BRANCH   4   6
ATOM      6  C   UNL     1       3.021   0.845   2.101  1.00  0.00     0.060 A 
ATOM      7  C   UNL     1       4.084   1.634   1.681  1.00  0.00     0.016 A 
ATOM      8  C   UNL     1       2.304   1.274   3.227  1.00  0.00     0.016 A 
ATOM      9  C   UNL     1       4.445   2.798   2.297  1.00  0.00     0.010 A 
ATOM     10  C   UNL     1       2.703   2.422   3.926  1.00  0.00     0.010 A 
ATOM     11  C   UNL     1       3.797   3.156   3.461  1.00  0.00    -0.014 A 
BRANCH  11  12
ATOM     12  C   UNL     1       4.561   4.138   4.224  1.00  0.00     0.031 A 
ATOM     13  C   UNL     1       5.677   3.597   5.069  1.00  0.00     0.074 A 
ATOM     14  C   UNL     1       4.501   5.422   3.835  1.00  0.00     0.049 A 
ATOM     15  N   UNL     1       6.612   4.240   5.704  1.00  0.00    -0.248 NA
ATOM     16  C   UNL     1       5.802   2.124   5.149  1.00  0.00     0.031 C 
ATOM     17  C   UNL     1       3.610   5.946   2.792  1.00  0.00     0.029 A 
ATOM     18  N   UNL     1       5.243   6.500   4.216  1.00  0.00    -0.354 N 
ATOM     19  C   UNL     1       7.418   3.261   6.270  1.00  0.00     0.074 A 
ATOM     20  C   UNL     1       6.893   1.976   5.883  1.00  0.00     0.031 C 
ATOM     21  C   UNL     1       3.844   7.259   2.640  1.00  0.00     0.029 A 
ATOM     22  C   UNL     1       4.854   7.668   3.609  1.00  0.00     0.049 A 
ATOM     23  H   UNL     1       5.984   6.446   4.862  1.00  0.00     0.167 HD
ATOM     24  C   UNL     1       8.493   3.442   7.063  1.00  0.00     0.037 A 
ATOM     25  C   UNL     1       5.243   8.928   3.870  1.00  0.00     0.037 A 
ATOM     26  C   UNL     1       8.969   4.746   7.424  1.00  0.00     0.049 A 
ATOM     27  C   UNL     1       6.313   9.114   4.912  1.00  0.00     0.074 A 
ATOM     28  C   UNL     1       9.988   5.081   8.291  1.00  0.00     0.029 A 
ATOM     29  N   UNL     1       8.438   5.934   6.937  1.00  0.00    -0.354 N 
ATOM     30  N   UNL     1       7.021   8.196   5.531  1.00  0.00    -0.248 NA
ATOM     31  C   UNL     1       6.625  10.489   5.311  1.00  0.00     0.031 C 
ATOM     32  C   UNL     1      10.026   6.474   8.383  1.00  0.00     0.029 A 
ATOM     33  C   UNL     1       9.073   7.008   7.525  1.00  0.00     0.049 A 
ATOM     34  H   UNL     1       7.715   5.999   6.271  1.00  0.00     0.167 HD
ATOM     35  C   UNL     1       7.862   8.881   6.397  1.00  0.00     0.074 A 
ATOM     36  C   UNL     1       7.595  10.293   6.195  1.00  0.00     0.031 C 
ATOM     37  C   UNL     1       8.763   8.396   7.286  1.00  0.00     0.037 A 
BRANCH  24  38
ATOM     38  C   UNL     1       9.137   2.234   7.671  1.00  0.00     0.058 A 
ATOM     39  C   UNL     1       9.988   1.388   6.947  1.00  0.00     0.135 A 
ATOM     40  C   UNL     1       8.929   1.952   9.031  1.00  0.00     0.135 A 
ATOM     41  F   UNL     1      10.182   1.584   5.633  1.00  0.00    -0.206 F 
ATOM     42  C   UNL     1      10.632   0.315   7.558  1.00  0.00     0.059 A 
ATOM     43  C   UNL     1       9.577   0.900   9.667  1.00  0.00     0.059 A 
ATOM     44  F   UNL     1       8.095   2.713   9.758  1.00  0.00    -0.206 F 
ATOM     45  C   UNL     1      10.432   0.090   8.923  1.00  0.00     0.060 A 
BRANCH  45  46
ATOM     46  S   UNL     1      11.329  -1.261   9.716  1.00  0.00     0.124 S 
ATOM     47  O   UNL     1      10.722  -2.429   9.086  1.00  0.00    -0.237 OA
ATOM     48  O   UNL     1      12.709  -0.979   9.332  1.00  0.00    -0.237 OA
ATOM     49  O   UNL     1      11.027  -1.087  11.133  1.00  0.00    -0.744 OA
ENDBRANCH  45  46
ENDBRANCH  24  38
BRANCH  25  50
ATOM     50  C   UNL     1       4.537  10.072   3.235  1.00  0.00     0.058 A 
ATOM     51  C   UNL     1       5.196  10.983   2.400  1.00  0.00     0.135 A 
ATOM     52  C   UNL     1       3.163  10.277   3.463  1.00  0.00     0.135 A 
ATOM     53  F   UNL     1       6.507  10.841   2.154  1.00  0.00    -0.206 F 
ATOM     54  C   UNL     1       4.526  12.060   1.824  1.00  0.00     0.059 A 
ATOM     55  C   UNL     1       2.466  11.326   2.876  1.00  0.00     0.059 A 
ATOM     56  F   UNL     1       2.477   9.436   4.254  1.00  0.00    -0.206 F 
ATOM     57  C   UNL     1       3.159  12.221   2.067  1.00  0.00     0.060 A 
BRANCH  57  58
ATOM     58  S   UNL     1       2.296  13.611   1.304  1.00  0.00     0.124 S 
ATOM     59  O   UNL     1       2.875  14.744   2.016  1.00  0.00    -0.237 OA
ATOM     60  O   UNL     1       2.679  13.473  -0.098  1.00  0.00    -0.237 OA
ATOM     61  O   UNL     1       0.891  13.337   1.593  1.00  0.00    -0.744 OA
ENDBRANCH  57  58
ENDBRANCH  25  50
BRANCH  37  62
ATOM     62  C   UNL     1       9.511   9.395   8.116  1.00  0.00     0.058 A 
ATOM     63  C   UNL     1       8.887  10.059   9.181  1.00  0.00     0.135 A 
ATOM     64  C   UNL     1      10.887   9.592   7.922  1.00  0.00     0.135 A 
ATOM     65  F   UNL     1       7.572   9.903   9.399  1.00  0.00    -0.206 F 
ATOM     66  C   UNL     1       9.604  10.891  10.028  1.00  0.00     0.059 A 
ATOM     67  C   UNL     1      11.630  10.394   8.777  1.00  0.00     0.059 A 
ATOM     68  F   UNL     1      11.528   8.961   6.924  1.00  0.00    -0.206 F 
ATOM     69  C   UNL     1      10.978  11.041   9.826  1.00  0.00     0.060 A 
BRANCH  69  70
ATOM     70  S   UNL     1      11.905  12.069  10.982  1.00  0.00     0.124 S 
ATOM     71  O   UNL     1      11.400  13.400  10.661  1.00  0.00    -0.237 OA
ATOM     72  O   UNL     1      11.493  11.528  12.273  1.00  0.00    -0.237 OA
ATOM     73  O   UNL     1      13.296  11.822  10.618  1.00  0.00    -0.744 OA
ENDBRANCH  69  70
ENDBRANCH  37  62
ENDBRANCH  11  12
ENDBRANCH   4   6
ENDBRANCH   3   4
ENDBRANCH   2   3
ENDBRANCH   1   2
BRANCH   1  74
ATOM     74  O   UNL     1       4.386   1.496  -1.137  1.00  0.00    -0.374 OA
BRANCH  74  75
ATOM     75  C   UNL     1       2.992   1.583  -1.433  1.00  0.00     0.202 C 
BRANCH  75  76
ATOM     76  C   UNL     1       2.714   1.815  -2.913  1.00  0.00     0.261 C 
BRANCH  76  77
ATOM     77  O   UNL     1       3.085   0.654  -3.680  1.00  0.00    -0.463 OA
BRANCH  77  78
ATOM     78  C   UNL     1       4.350   0.688  -4.186  1.00  0.00     0.309 C 
ATOM     79  O   UNL     1       5.126   1.622  -4.108  1.00  0.00    -0.252 OA
BRANCH  78  80
ATOM     80  C   UNL     1       4.726  -0.527  -4.949  1.00  0.00     0.112 C 
ATOM     81  C   UNL     1       3.696  -1.536  -5.386  1.00  0.00     0.030 C 
ATOM     82  C   UNL     1       4.816  -1.968  -4.479  1.00  0.00     0.094 C 
BRANCH  82  83
ATOM     83  C   UNL     1       4.569  -2.488  -3.108  1.00  0.00     0.231 C 
ATOM     84  O   UNL     1       5.460  -2.381  -2.274  1.00  0.00    -0.274 OA
BRANCH  83  85
ATOM     85  N   UNL     1       3.431  -3.248  -2.916  1.00  0.00    -0.311 N 
ATOM     86  C   UNL     1       2.536  -3.119  -1.746  1.00  0.00     0.137 C 
ATOM     87  C   UNL     1       3.406  -4.606  -3.285  1.00  0.00     0.050 A 
ATOM     88  C   UNL     1       1.570  -4.345  -1.759  1.00  0.00     0.018 C 
ATOM     89  C   UNL     1       2.338  -5.265  -2.676  1.00  0.00     0.020 A 
ATOM     90  C   UNL     1       4.338  -5.284  -4.057  1.00  0.00     0.027 A 
ATOM     91  C   UNL     1       1.337  -4.914  -0.341  1.00  0.00     0.014 C 
ATOM     92  C   UNL     1       0.163  -4.009  -2.304  1.00  0.00     0.014 C 
ATOM     93  C   UNL     1       2.141  -6.611  -2.931  1.00  0.00     0.129 A 
ATOM     94  C   UNL     1       4.160  -6.650  -4.270  1.00  0.00     0.005 A 
ATOM     95  C   UNL     1      -0.065  -4.460   0.041  1.00  0.00     0.001 C 
ATOM     96  C   UNL     1      -0.822  -4.553  -1.270  1.00  0.00     0.001 C 
ATOM     97  F   UNL     1       1.092  -7.259  -2.411  1.00  0.00    -0.207 F 
ATOM     98  C   UNL     1       3.049  -7.308  -3.726  1.00  0.00     0.040 A 
ENDBRANCH  83  85
ENDBRANCH  82  83
ENDBRANCH  78  80
ENDBRANCH  77  78
ENDBRANCH  76  77
ENDBRANCH  75  76
ENDBRANCH  74  75
ENDBRANCH   1  74
TORSDOF 19
