REMARK SMILES Cc1ccnc(C(=O)c2[nH]c3ccc(OC(F)(F)F)cc3c2CC(=O)OCCOCCOC(=O)c2ccc(-c3c4nc(c(-c5c(F)cc(S(=O)(=O)[O-])cc5F)c5ccc([nH]5)c(-c5c(F)cc(S(=O)(=O)[O-])cc5F)c5nc(c(-c6c(F)cc(S(=O)(=O)[O-])cc6F)c6ccc3[nH]6)C=C5)C=C4)cc2)c1
REMARK SMILES IDX 29 1 28 2 27 3 26 4 24 5 25 6 23 7 22 8 9 9 10 10 11 11
REMARK SMILES IDX 21 13 12 14 20 15 13 16 14 17 7 18 8 19 6 20 1 21 2 22 3 23
REMARK SMILES IDX 101 24 4 25 5 26 15 27 16 28 17 29 18 30 19 31 30 32 31 33
REMARK SMILES IDX 32 34 33 35 34 36 35 37 36 38 100 39 37 40 99 41 38 42 39 43
REMARK SMILES IDX 40 44 93 45 41 46 98 47 92 48 94 49 42 50 97 51 91 52 90 53
REMARK SMILES IDX 43 55 77 56 56 57 76 58 57 59 60 60 75 61 95 62 58 63 59 64
REMARK SMILES IDX 74 66 96 67 61 68 44 69 45 70 54 71 46 72 47 73 53 74 55 75
REMARK SMILES IDX 48 76 49 77 50 78 51 79 52 80 78 81 79 82 88 83 80 84 81 85
REMARK SMILES IDX 87 86 89 87 82 88 83 89 84 90 85 91 86 92 62 93 63 94 72 95
REMARK SMILES IDX 64 96 65 97 71 98 73 99 66 100 67 101 68 102 69 103 70 104
REMARK H PARENT 10 12 94 54 60 65
REMARK Flexibility Score: inf
ROOT
ATOM      1  O   UNL     1       5.909  -3.308   0.355  1.00  0.00    -0.374 OA
ENDROOT
BRANCH   1   2
ATOM      2  C   UNL     1       6.019  -4.730   0.308  1.00  0.00     0.202 C 
BRANCH   2   3
ATOM      3  C   UNL     1       5.353  -5.550   1.420  1.00  0.00     0.261 C 
BRANCH   3   4
ATOM      4  O   UNL     1       3.915  -5.419   1.455  1.00  0.00    -0.463 OA
BRANCH   4   5
ATOM      5  C   UNL     1       3.398  -5.020   2.650  1.00  0.00     0.310 C 
ATOM      6  O   UNL     1       4.074  -4.824   3.659  1.00  0.00    -0.252 OA
BRANCH   5   7
ATOM      7  C   UNL     1       1.890  -4.915   2.706  1.00  0.00     0.161 C 
BRANCH   7   8
ATOM      8  C   UNL     1       1.106  -4.819   1.422  1.00  0.00     0.000 A 
ATOM      9  C   UNL     1       0.820  -3.668   0.679  1.00  0.00     0.093 A 
ATOM     10  N   UNL     1       0.100  -4.084  -0.424  1.00  0.00    -0.352 N 
ATOM     11  C   UNL     1      -0.349  -5.372  -0.246  1.00  0.00     0.046 A 
ATOM     12  H   UNL     1      -0.068  -3.536  -1.224  1.00  0.00     0.167 HD
ATOM     13  C   UNL     1       0.288  -5.867   0.886  1.00  0.00     0.008 A 
ATOM     14  C   UNL     1      -1.267  -6.131  -0.983  1.00  0.00     0.030 A 
ATOM     15  C   UNL     1      -0.021  -7.175   1.313  1.00  0.00     0.057 A 
ATOM     16  C   UNL     1      -1.595  -7.411  -0.504  1.00  0.00     0.049 A 
ATOM     17  C   UNL     1      -0.996  -7.926   0.644  1.00  0.00     0.130 A 
BRANCH   9  18
ATOM     18  C   UNL     1       1.212  -2.298   0.995  1.00  0.00     0.227 C 
ATOM     19  O   UNL     1       2.086  -2.052   1.825  1.00  0.00    -0.285 OA
BRANCH  18  20
ATOM     20  C   UNL     1       0.518  -1.120   0.385  1.00  0.00     0.113 A 
ATOM     21  C   UNL     1      -2.961   0.287  -0.115  1.00  0.00     0.044 C 
ATOM     22  C   UNL     1      -1.470   0.141  -0.077  1.00  0.00    -0.047 A 
ATOM     23  C   UNL     1      -0.654   1.252  -0.311  1.00  0.00     0.023 A 
ATOM     24  C   UNL     1      -0.870  -1.071   0.287  1.00  0.00     0.036 A 
ATOM     25  C   UNL     1       0.719   1.103  -0.213  1.00  0.00     0.112 A 
ATOM     26  N   UNL     1       1.320  -0.056   0.115  1.00  0.00    -0.253 NA
ENDBRANCH  18  20
ENDBRANCH   9  18
BRANCH  17  27
ATOM     27  O   UNL     1      -1.264  -9.129   1.234  1.00  0.00    -0.406 OA
BRANCH  27  28
ATOM     28  C   UNL     1      -2.425  -9.825   0.822  1.00  0.00     0.573 C 
ATOM     29  F   UNL     1      -3.523  -9.037   0.890  1.00  0.00    -0.132 F 
ATOM     30  F   UNL     1      -2.290 -10.294  -0.435  1.00  0.00    -0.132 F 
ATOM     31  F   UNL     1      -2.621 -10.875   1.651  1.00  0.00    -0.132 F 
ENDBRANCH  27  28
ENDBRANCH  17  27
ENDBRANCH   7   8
ENDBRANCH   5   7
ENDBRANCH   4   5
ENDBRANCH   3   4
ENDBRANCH   2   3
ENDBRANCH   1   2
BRANCH   1  32
ATOM     32  C   UNL     1       4.606  -2.758   0.182  1.00  0.00     0.202 C 
BRANCH  32  33
ATOM     33  C   UNL     1       4.041  -2.713  -1.245  1.00  0.00     0.261 C 
BRANCH  33  34
ATOM     34  O   UNL     1       4.096  -3.976  -1.925  1.00  0.00    -0.460 OA
BRANCH  34  35
ATOM     35  C   UNL     1       5.013  -4.037  -2.920  1.00  0.00     0.338 C 
ATOM     36  O   UNL     1       5.690  -3.122  -3.367  1.00  0.00    -0.246 OA
BRANCH  35  37
ATOM     37  C   UNL     1       5.221  -5.440  -3.309  1.00  0.00     0.060 A 
ATOM     38  C   UNL     1       6.504  -5.977  -3.146  1.00  0.00     0.016 A 
ATOM     39  C   UNL     1       4.188  -6.205  -3.854  1.00  0.00     0.016 A 
ATOM     40  C   UNL     1       6.764  -7.285  -3.543  1.00  0.00     0.010 A 
ATOM     41  C   UNL     1       4.455  -7.513  -4.265  1.00  0.00     0.010 A 
ATOM     42  C   UNL     1       5.747  -8.051  -4.128  1.00  0.00    -0.014 A 
BRANCH  42  43
ATOM     43  C   UNL     1       6.060  -9.389  -4.678  1.00  0.00     0.031 A 
ATOM     44  C   UNL     1       6.273  -9.537  -6.158  1.00  0.00     0.074 A 
ATOM     45  C   UNL     1       6.157 -10.448  -3.855  1.00  0.00     0.049 A 
ATOM     46  N   UNL     1       6.503 -10.617  -6.856  1.00  0.00    -0.248 NA
ATOM     47  C   UNL     1       6.217  -8.303  -6.959  1.00  0.00     0.031 C 
ATOM     48  C   UNL     1       6.003 -10.401  -2.401  1.00  0.00     0.029 A 
ATOM     49  N   UNL     1       6.398 -11.771  -4.124  1.00  0.00    -0.354 N 
ATOM     50  C   UNL     1       6.609 -10.199  -8.177  1.00  0.00     0.074 A 
ATOM     51  C   UNL     1       6.397  -8.768  -8.188  1.00  0.00     0.031 C 
ATOM     52  C   UNL     1       6.144 -11.642  -1.906  1.00  0.00     0.029 A 
ATOM     53  C   UNL     1       6.359 -12.575  -3.009  1.00  0.00     0.049 A 
ATOM     54  H   UNL     1       6.582 -12.113  -5.029  1.00  0.00     0.167 HD
ATOM     55  C   UNL     1       6.862 -10.947  -9.277  1.00  0.00     0.037 A 
ATOM     56  C   UNL     1       6.456 -13.915  -2.901  1.00  0.00     0.037 A 
ATOM     57  C   UNL     1       7.074 -12.371  -9.243  1.00  0.00     0.049 A 
ATOM     58  C   UNL     1       6.665 -14.730  -4.151  1.00  0.00     0.074 A 
ATOM     59  C   UNL     1       7.377 -13.220 -10.292  1.00  0.00     0.029 A 
ATOM     60  N   UNL     1       6.991 -13.157  -8.102  1.00  0.00    -0.354 N 
ATOM     61  N   UNL     1       6.807 -14.318  -5.390  1.00  0.00    -0.248 NA
ATOM     62  C   UNL     1       6.721 -16.189  -3.993  1.00  0.00     0.031 C 
ATOM     63  C   UNL     1       7.415 -14.527  -9.797  1.00  0.00     0.029 A 
ATOM     64  C   UNL     1       7.195 -14.487  -8.429  1.00  0.00     0.049 A 
ATOM     65  H   UNL     1       6.813 -12.819  -7.195  1.00  0.00     0.167 HD
ATOM     66  C   UNL     1       6.989 -15.466  -6.154  1.00  0.00     0.074 A 
ATOM     67  C   UNL     1       6.960 -16.586  -5.235  1.00  0.00     0.031 C 
ATOM     68  C   UNL     1       7.161 -15.586  -7.495  1.00  0.00     0.037 A 
BRANCH  55  69
ATOM     69  C   UNL     1       6.895 -10.254 -10.611  1.00  0.00     0.058 A 
ATOM     70  C   UNL     1       7.946  -9.402 -10.982  1.00  0.00     0.135 A 
ATOM     71  C   UNL     1       5.886 -10.497 -11.559  1.00  0.00     0.135 A 
ATOM     72  F   UNL     1       8.927  -9.118 -10.110  1.00  0.00    -0.206 F 
ATOM     73  C   UNL     1       7.991  -8.806 -12.239  1.00  0.00     0.059 A 
ATOM     74  C   UNL     1       5.924  -9.933 -12.831  1.00  0.00     0.059 A 
ATOM     75  F   UNL     1       4.853 -11.298 -11.255  1.00  0.00    -0.206 F 
ATOM     76  C   UNL     1       6.978  -9.082 -13.159  1.00  0.00     0.060 A 
BRANCH  76  77
ATOM     77  S   UNL     1       7.069  -8.326 -14.796  1.00  0.00     0.124 S 
ATOM     78  O   UNL     1       6.789  -6.927 -14.488  1.00  0.00    -0.237 OA
ATOM     79  O   UNL     1       8.439  -8.624 -15.200  1.00  0.00    -0.237 OA
ATOM     80  O   UNL     1       6.031  -9.021 -15.551  1.00  0.00    -0.744 OA
ENDBRANCH  76  77
ENDBRANCH  55  69
BRANCH  56  81
ATOM     81  C   UNL     1       6.333 -14.573  -1.571  1.00  0.00     0.058 A 
ATOM     82  C   UNL     1       7.422 -15.236  -0.987  1.00  0.00     0.135 A 
ATOM     83  C   UNL     1       5.120 -14.564  -0.863  1.00  0.00     0.135 A 
ATOM     84  F   UNL     1       8.601 -15.283  -1.627  1.00  0.00    -0.206 F 
ATOM     85  C   UNL     1       7.310 -15.885   0.239  1.00  0.00     0.059 A 
ATOM     86  C   UNL     1       4.991 -15.180   0.378  1.00  0.00     0.059 A 
ATOM     87  F   UNL     1       4.049 -13.935  -1.371  1.00  0.00    -0.206 F 
ATOM     88  C   UNL     1       6.088 -15.851   0.914  1.00  0.00     0.060 A 
BRANCH  88  89
ATOM     89  S   UNL     1       5.962 -16.672   2.518  1.00  0.00     0.124 S 
ATOM     90  O   UNL     1       5.991 -18.078   2.130  1.00  0.00    -0.237 OA
ATOM     91  O   UNL     1       7.147 -16.175   3.210  1.00  0.00    -0.237 OA
ATOM     92  O   UNL     1       4.689 -16.188   3.043  1.00  0.00    -0.744 OA
ENDBRANCH  88  89
ENDBRANCH  56  81
BRANCH  68  93
ATOM     93  C   UNL     1       7.345 -16.973  -8.046  1.00  0.00     0.058 A 
ATOM     94  C   UNL     1       6.279 -17.883  -8.116  1.00  0.00     0.135 A 
ATOM     95  C   UNL     1       8.587 -17.374  -8.566  1.00  0.00     0.135 A 
ATOM     96  F   UNL     1       5.074 -17.552  -7.626  1.00  0.00    -0.206 F 
ATOM     97  C   UNL     1       6.442 -19.151  -8.665  1.00  0.00     0.059 A 
ATOM     98  C   UNL     1       8.764 -18.625  -9.148  1.00  0.00     0.059 A 
ATOM     99  F   UNL     1       9.637 -16.538  -8.534  1.00  0.00    -0.206 F 
ATOM    100  C   UNL     1       7.688 -19.511  -9.183  1.00  0.00     0.060 A 
BRANCH 100 101
ATOM    101  S   UNL     1       7.871 -21.142  -9.932  1.00  0.00     0.124 S 
ATOM    102  O   UNL     1       7.835 -22.010  -8.759  1.00  0.00    -0.237 OA
ATOM    103  O   UNL     1       6.707 -21.215 -10.810  1.00  0.00    -0.237 OA
ATOM    104  O   UNL     1       9.159 -21.062 -10.614  1.00  0.00    -0.744 OA
ENDBRANCH 100 101
ENDBRANCH  68  93
ENDBRANCH  42  43
ENDBRANCH  35  37
ENDBRANCH  34  35
ENDBRANCH  33  34
ENDBRANCH  32  33
ENDBRANCH   1  32
TORSDOF 22
