REMARK SMILES C[N@H+]1CC[C@@H](Cc2nccnc2C(=O)OCCOCCOC(=O)c2ccc(-c3c4nc(c(-c5c(F)cc(S(=O)(=O)[O-])cc5F)c5ccc([nH]5)c(-c5c(F)cc(S(=O)(=O)[O-])cc5F)c5nc(c(-c6c(F)cc(S(=O)(=O)[O-])cc6F)c6ccc3[nH]6)C=C5)C=C4)cc2)C1
REMARK SMILES IDX 19 1 18 2 17 3 16 4 15 5 13 6 14 7 12 8 7 9 8 10 9 11 11 12
REMARK SMILES IDX 10 13 6 14 5 15 1 16 2 17 3 18 90 19 4 21 20 22 21 23 22 24
REMARK SMILES IDX 23 25 24 26 25 27 89 28 26 29 88 30 27 31 28 32 29 33 82 34
REMARK SMILES IDX 30 35 87 36 81 37 83 38 31 39 86 40 80 41 79 42 32 44 66 45
REMARK SMILES IDX 45 46 65 47 46 48 49 49 64 50 84 51 47 52 48 53 63 55 85 56
REMARK SMILES IDX 50 57 33 58 34 59 43 60 35 61 36 62 42 63 44 64 37 65 38 66
REMARK SMILES IDX 39 67 40 68 41 69 67 70 68 71 77 72 69 73 70 74 76 75 78 76
REMARK SMILES IDX 71 77 72 78 73 79 74 80 75 81 51 82 52 83 61 84 53 85 54 86
REMARK SMILES IDX 60 87 62 88 55 89 56 90 57 91 58 92 59 93
REMARK H PARENT 2 20 83 43 49 54
REMARK Flexibility Score: inf
ROOT
ATOM      1  C   UNL     1      -0.479  -2.861   4.016  1.00  0.00     0.202 C 
ENDROOT
BRANCH   1   2
ATOM      2  O   UNL     1      -0.003  -2.388   5.277  1.00  0.00    -0.374 OA
BRANCH   2   3
ATOM      3  C   UNL     1       0.791  -1.200   5.254  1.00  0.00     0.202 C 
BRANCH   3   4
ATOM      4  C   UNL     1       2.273  -1.415   4.950  1.00  0.00     0.261 C 
BRANCH   4   5
ATOM      5  O   UNL     1       2.424  -1.873   3.593  1.00  0.00    -0.458 OA
BRANCH   5   6
ATOM      6  C   UNL     1       2.979  -3.095   3.430  1.00  0.00     0.358 C 
ATOM      7  O   UNL     1       3.501  -3.751   4.321  1.00  0.00    -0.244 OA
BRANCH   6   8
ATOM      8  C   UNL     1       2.741  -3.638   2.050  1.00  0.00     0.169 A 
ATOM      9  C   UNL     1       2.600  -2.905   0.864  1.00  0.00     0.074 A 
ATOM     10  N   UNL     1       2.446  -3.561  -0.330  1.00  0.00    -0.257 NA
ATOM     11  C   UNL     1       2.372  -4.906  -0.307  1.00  0.00     0.131 A 
ATOM     12  N   UNL     1       2.647  -5.007   2.051  1.00  0.00    -0.246 NA
ATOM     13  C   UNL     1       2.455  -5.614   0.866  1.00  0.00     0.132 A 
BRANCH   9  14
ATOM     14  C   UNL     1       2.635  -1.401   0.730  1.00  0.00     0.068 C 
BRANCH  14  15
ATOM     15  C   UNL     1       1.734  -0.870  -0.408  1.00  0.00     0.056 C 
ATOM     16  C   UNL     1      -1.891  -0.243  -0.499  1.00  0.00     0.332 C 
ATOM     17  N   UNL     1      -0.473  -0.179  -0.817  1.00  0.00    -0.337 N 
ATOM     18  C   UNL     1       0.197   0.991  -0.255  1.00  0.00     0.262 C 
ATOM     19  C   UNL     1       0.270  -1.312  -0.267  1.00  0.00     0.266 C 
ATOM     20  H   UNL     1      -0.465  -0.161  -1.836  1.00  0.00     0.347 HD
ATOM     21  C   UNL     1       1.669   0.665  -0.450  1.00  0.00     0.071 C 
ENDBRANCH  14  15
ENDBRANCH   9  14
ENDBRANCH   6   8
ENDBRANCH   5   6
ENDBRANCH   4   5
ENDBRANCH   3   4
ENDBRANCH   2   3
ENDBRANCH   1   2
BRANCH   1  22
ATOM     22  C   UNL     1      -1.733  -2.165   3.471  1.00  0.00     0.261 C 
BRANCH  22  23
ATOM     23  O   UNL     1      -1.497  -0.784   3.143  1.00  0.00    -0.460 OA
BRANCH  23  24
ATOM     24  C   UNL     1      -1.988   0.122   4.026  1.00  0.00     0.338 C 
ATOM     25  O   UNL     1      -2.624  -0.102   5.042  1.00  0.00    -0.246 OA
BRANCH  24  26
ATOM     26  C   UNL     1      -1.486   1.457   3.654  1.00  0.00     0.060 A 
ATOM     27  C   UNL     1      -0.698   2.172   4.563  1.00  0.00     0.016 A 
ATOM     28  C   UNL     1      -1.804   2.010   2.416  1.00  0.00     0.016 A 
ATOM     29  C   UNL     1      -0.240   3.452   4.236  1.00  0.00     0.010 A 
ATOM     30  C   UNL     1      -1.298   3.263   2.068  1.00  0.00     0.010 A 
ATOM     31  C   UNL     1      -0.552   4.018   2.991  1.00  0.00    -0.014 A 
BRANCH  31  32
ATOM     32  C   UNL     1      -0.277   5.452   2.696  1.00  0.00     0.031 A 
ATOM     33  C   UNL     1      -1.453   6.378   2.496  1.00  0.00     0.074 A 
ATOM     34  C   UNL     1       0.978   5.928   2.579  1.00  0.00     0.049 A 
ATOM     35  N   UNL     1      -1.476   7.620   2.089  1.00  0.00    -0.248 NA
ATOM     36  C   UNL     1      -2.787   5.810   2.757  1.00  0.00     0.031 C 
ATOM     37  C   UNL     1       2.205   5.151   2.754  1.00  0.00     0.029 A 
ATOM     38  N   UNL     1       1.427   7.190   2.268  1.00  0.00    -0.354 N 
ATOM     39  C   UNL     1      -2.821   7.964   2.007  1.00  0.00     0.074 A 
ATOM     40  C   UNL     1      -3.583   6.785   2.349  1.00  0.00     0.031 C 
ATOM     41  C   UNL     1       3.265   5.953   2.554  1.00  0.00     0.029 A 
ATOM     42  C   UNL     1       2.797   7.290   2.193  1.00  0.00     0.049 A 
ATOM     43  H   UNL     1       0.823   7.952   2.113  1.00  0.00     0.167 HD
ATOM     44  C   UNL     1      -3.377   9.160   1.701  1.00  0.00     0.037 A 
ATOM     45  C   UNL     1       3.582   8.335   1.854  1.00  0.00     0.037 A 
ATOM     46  C   UNL     1      -2.617  10.346   1.412  1.00  0.00     0.049 A 
ATOM     47  C   UNL     1       2.943   9.655   1.498  1.00  0.00     0.074 A 
ATOM     48  C   UNL     1      -3.083  11.619   1.139  1.00  0.00     0.029 A 
ATOM     49  N   UNL     1      -1.232  10.406   1.366  1.00  0.00    -0.354 N 
ATOM     50  N   UNL     1       1.670   9.971   1.450  1.00  0.00    -0.248 NA
ATOM     51  C   UNL     1       3.847  10.764   1.155  1.00  0.00     0.031 C 
ATOM     52  C   UNL     1      -1.982  12.439   0.877  1.00  0.00     0.029 A 
ATOM     53  C   UNL     1      -0.827  11.692   1.052  1.00  0.00     0.049 A 
ATOM     54  H   UNL     1      -0.627   9.648   1.532  1.00  0.00     0.167 HD
ATOM     55  C   UNL     1       1.624  11.322   1.112  1.00  0.00     0.074 A 
ATOM     56  C   UNL     1       2.995  11.763   0.970  1.00  0.00     0.031 C 
ATOM     57  C   UNL     1       0.544  12.124   0.941  1.00  0.00     0.037 A 
BRANCH  44  58
ATOM     58  C   UNL     1      -4.880   9.243   1.661  1.00  0.00     0.058 A 
ATOM     59  C   UNL     1      -5.662   9.127   2.821  1.00  0.00     0.135 A 
ATOM     60  C   UNL     1      -5.546   9.467   0.445  1.00  0.00     0.135 A 
ATOM     61  F   UNL     1      -5.082   8.893   4.009  1.00  0.00    -0.206 F 
ATOM     62  C   UNL     1      -7.051   9.192   2.773  1.00  0.00     0.059 A 
ATOM     63  C   UNL     1      -6.931   9.572   0.378  1.00  0.00     0.059 A 
ATOM     64  F   UNL     1      -4.849   9.584  -0.697  1.00  0.00    -0.206 F 
ATOM     65  C   UNL     1      -7.676   9.417   1.546  1.00  0.00     0.060 A 
BRANCH  65  66
ATOM     66  S   UNL     1      -9.478   9.508   1.503  1.00  0.00     0.124 S 
ATOM     67  O   UNL     1      -9.844   8.113   1.732  1.00  0.00    -0.237 OA
ATOM     68  O   UNL     1      -9.769  10.427   2.598  1.00  0.00    -0.237 OA
ATOM     69  O   UNL     1      -9.762  10.019   0.166  1.00  0.00    -0.744 OA
ENDBRANCH  65  66
ENDBRANCH  44  58
BRANCH  45  70
ATOM     70  C   UNL     1       5.064   8.184   1.838  1.00  0.00     0.058 A 
ATOM     71  C   UNL     1       5.870   8.852   2.773  1.00  0.00     0.135 A 
ATOM     72  C   UNL     1       5.707   7.377   0.886  1.00  0.00     0.135 A 
ATOM     73  F   UNL     1       5.308   9.646   3.697  1.00  0.00    -0.206 F 
ATOM     74  C   UNL     1       7.257   8.740   2.756  1.00  0.00     0.059 A 
ATOM     75  C   UNL     1       7.091   7.226   0.866  1.00  0.00     0.059 A 
ATOM     76  F   UNL     1       4.984   6.707  -0.026  1.00  0.00    -0.206 F 
ATOM     77  C   UNL     1       7.859   7.920   1.800  1.00  0.00     0.060 A 
BRANCH  77  78
ATOM     78  S   UNL     1       9.656   7.741   1.820  1.00  0.00     0.124 S 
ATOM     79  O   UNL     1      10.088   9.052   1.347  1.00  0.00    -0.237 OA
ATOM     80  O   UNL     1       9.917   7.452   3.227  1.00  0.00    -0.237 OA
ATOM     81  O   UNL     1       9.893   6.630   0.904  1.00  0.00    -0.744 OA
ENDBRANCH  77  78
ENDBRANCH  45  70
BRANCH  57  82
ATOM     82  C   UNL     1       0.785  13.581   0.648  1.00  0.00     0.058 A 
ATOM     83  C   UNL     1       1.260  14.023  -0.596  1.00  0.00     0.135 A 
ATOM     84  C   UNL     1       0.452  14.555   1.605  1.00  0.00     0.135 A 
ATOM     85  F   UNL     1       1.597  13.136  -1.546  1.00  0.00    -0.206 F 
ATOM     86  C   UNL     1       1.413  15.378  -0.875  1.00  0.00     0.059 A 
ATOM     87  C   UNL     1       0.567  15.915   1.337  1.00  0.00     0.059 A 
ATOM     88  F   UNL     1      -0.019  14.187   2.808  1.00  0.00    -0.206 F 
ATOM     89  C   UNL     1       1.057  16.317   0.096  1.00  0.00     0.060 A 
BRANCH  89  90
ATOM     90  S   UNL     1       1.213  18.072  -0.297  1.00  0.00     0.124 S 
ATOM     91  O   UNL     1       2.661  18.248  -0.290  1.00  0.00    -0.237 OA
ATOM     92  O   UNL     1       0.570  18.156  -1.605  1.00  0.00    -0.237 OA
ATOM     93  O   UNL     1       0.496  18.731   0.790  1.00  0.00    -0.744 OA
ENDBRANCH  89  90
ENDBRANCH  57  82
ENDBRANCH  31  32
ENDBRANCH  24  26
ENDBRANCH  23  24
ENDBRANCH  22  23
ENDBRANCH   1  22
TORSDOF 19
