REMARK SMILES Cc1ccc(C(=O)OCCOCCOC(=O)c2ccc(-c3c4nc(c(-c5c(F)cc(S(=O)(=O)[O-])cc5F)c5ccc([nH]5)c(-c5c(F)cc(S(=O)(=O)[O-])cc5F)c5nc(c(-c6c(F)cc(S(=O)(=O)[O-])cc6F)c6ccc3[nH]6)C=C5)C=C4)cc2)c2c1N[C@H](c1ccccc1F)[C@H]1CC=C[C@@H]21
REMARK SMILES IDX 12 1 11 2 10 3 9 4 8 5 6 6 7 7 5 8 1 9 2 10 3 11 84 12 4 13
REMARK SMILES IDX 83 14 85 15 98 16 86 17 94 19 97 20 95 21 96 22 87 23 88 24
REMARK SMILES IDX 92 25 89 26 91 27 93 28 90 29 13 30 14 31 15 32 16 33 17 34
REMARK SMILES IDX 18 35 82 36 19 37 81 38 20 39 21 40 22 41 75 42 23 43 80 44
REMARK SMILES IDX 74 45 76 46 24 47 79 48 73 49 72 50 25 52 59 53 38 54 58 55
REMARK SMILES IDX 39 56 42 57 57 58 77 59 40 60 41 61 56 63 78 64 43 65 26 66
REMARK SMILES IDX 27 67 36 68 28 69 29 70 35 71 37 72 30 73 31 74 32 75 33 76
REMARK SMILES IDX 34 77 60 78 61 79 70 80 62 81 63 82 69 83 71 84 64 85 65 86
REMARK SMILES IDX 66 87 67 88 68 89 44 90 45 91 54 92 46 93 47 94 53 95 55 96
REMARK SMILES IDX 48 97 49 98 50 99 51 100 52 101
REMARK H PARENT 85 18 76 51 42 62
REMARK Flexibility Score: inf
ROOT
ATOM      1  C   UNL     1      -2.843  -4.748  -3.638  1.00  0.00     0.202 C 
ENDROOT
BRANCH   1   2
ATOM      2  O   UNL     1      -2.385  -5.753  -4.546  1.00  0.00    -0.374 OA
BRANCH   2   3
ATOM      3  C   UNL     1      -1.845  -6.950  -3.995  1.00  0.00     0.202 C 
BRANCH   3   4
ATOM      4  C   UNL     1      -0.444  -6.880  -3.377  1.00  0.00     0.261 C 
BRANCH   4   5
ATOM      5  O   UNL     1      -0.275  -5.724  -2.546  1.00  0.00    -0.460 OA
BRANCH   5   6
ATOM      6  C   UNL     1       0.676  -4.860  -2.967  1.00  0.00     0.338 C 
ATOM      7  O   UNL     1       1.506  -5.057  -3.846  1.00  0.00    -0.246 OA
BRANCH   6   8
ATOM      8  C   UNL     1       0.555  -3.583  -2.231  1.00  0.00     0.065 A 
ATOM      9  C   UNL     1       0.653   0.006   0.137  1.00  0.00     0.046 C 
ATOM     10  C   UNL     1       0.507  -1.219  -0.729  1.00  0.00    -0.028 A 
ATOM     11  C   UNL     1       0.671  -2.466  -0.101  1.00  0.00     0.006 A 
ATOM     12  C   UNL     1       0.321  -1.152  -2.131  1.00  0.00     0.042 A 
ATOM     13  C   UNL     1       0.689  -3.641  -0.842  1.00  0.00     0.016 A 
ATOM     14  C   UNL     1       0.340  -2.346  -2.893  1.00  0.00    -0.003 A 
ATOM     15  N   UNL     1       0.094   0.073  -2.754  1.00  0.00    -0.377 N 
ATOM     16  C   UNL     1       0.007  -2.302  -4.373  1.00  0.00     0.050 C 
ATOM     17  C   UNL     1       0.257   0.192  -4.196  1.00  0.00     0.117 C 
ATOM     18  H   UNL     1      -0.175   0.855  -2.221  1.00  0.00     0.161 HD
ATOM     19  C   UNL     1      -0.539  -0.942  -4.876  1.00  0.00     0.031 C 
ATOM     20  C   UNL     1       1.132  -2.526  -5.351  1.00  0.00    -0.023 C 
ATOM     21  C   UNL     1      -0.298  -1.005  -6.396  1.00  0.00     0.034 C 
ATOM     22  C   UNL     1       0.935  -1.842  -6.485  1.00  0.00    -0.030 C 
BRANCH  17  23
ATOM     23  C   UNL     1      -0.025   1.625  -4.621  1.00  0.00     0.010 A 
ATOM     24  C   UNL     1       0.958   2.602  -4.353  1.00  0.00     0.009 A 
ATOM     25  C   UNL     1      -1.169   2.036  -5.312  1.00  0.00     0.128 A 
ATOM     26  C   UNL     1       0.817   3.916  -4.807  1.00  0.00     0.001 A 
ATOM     27  C   UNL     1      -1.309   3.345  -5.778  1.00  0.00     0.039 A 
ATOM     28  F   UNL     1      -2.157   1.175  -5.588  1.00  0.00    -0.207 F 
ATOM     29  C   UNL     1      -0.311   4.285  -5.533  1.00  0.00     0.003 A 
ENDBRANCH  17  23
ENDBRANCH   6   8
ENDBRANCH   5   6
ENDBRANCH   4   5
ENDBRANCH   3   4
ENDBRANCH   2   3
ENDBRANCH   1   2
BRANCH   1  30
ATOM     30  C   UNL     1      -4.050  -5.067  -2.750  1.00  0.00     0.261 C 
BRANCH  30  31
ATOM     31  O   UNL     1      -3.744  -6.051  -1.743  1.00  0.00    -0.460 OA
BRANCH  31  32
ATOM     32  C   UNL     1      -4.478  -7.184  -1.810  1.00  0.00     0.338 C 
ATOM     33  O   UNL     1      -5.391  -7.436  -2.586  1.00  0.00    -0.246 OA
BRANCH  32  34
ATOM     34  C   UNL     1      -3.899  -8.195  -0.914  1.00  0.00     0.060 A 
ATOM     35  C   UNL     1      -3.329  -9.339  -1.488  1.00  0.00     0.016 A 
ATOM     36  C   UNL     1      -4.008  -8.066   0.472  1.00  0.00     0.016 A 
ATOM     37  C   UNL     1      -2.890 -10.377  -0.673  1.00  0.00     0.010 A 
ATOM     38  C   UNL     1      -3.589  -9.121   1.286  1.00  0.00     0.010 A 
ATOM     39  C   UNL     1      -3.061 -10.291   0.713  1.00  0.00    -0.014 A 
BRANCH  39  40
ATOM     40  C   UNL     1      -2.864 -11.506   1.535  1.00  0.00     0.031 A 
ATOM     41  C   UNL     1      -4.051 -12.386   1.806  1.00  0.00     0.074 A 
ATOM     42  C   UNL     1      -1.641 -11.842   1.981  1.00  0.00     0.049 A 
ATOM     43  N   UNL     1      -4.115 -13.505   2.478  1.00  0.00    -0.248 NA
ATOM     44  C   UNL     1      -5.338 -11.950   1.236  1.00  0.00     0.031 C 
ATOM     45  C   UNL     1      -0.415 -11.088   1.731  1.00  0.00     0.029 A 
ATOM     46  N   UNL     1      -1.233 -12.912   2.736  1.00  0.00    -0.354 N 
ATOM     47  C   UNL     1      -5.441 -13.915   2.399  1.00  0.00     0.074 A 
ATOM     48  C   UNL     1      -6.156 -12.907   1.649  1.00  0.00     0.031 C 
ATOM     49  C   UNL     1       0.613 -11.718   2.327  1.00  0.00     0.029 A 
ATOM     50  C   UNL     1       0.112 -12.904   3.020  1.00  0.00     0.049 A 
ATOM     51  H   UNL     1      -1.845 -13.617   3.047  1.00  0.00     0.167 HD
ATOM     52  C   UNL     1      -6.005 -15.041   2.894  1.00  0.00     0.037 A 
ATOM     53  C   UNL     1       0.847 -13.755   3.763  1.00  0.00     0.037 A 
ATOM     54  C   UNL     1      -5.287 -16.029   3.653  1.00  0.00     0.049 A 
ATOM     55  C   UNL     1       0.175 -14.947   4.395  1.00  0.00     0.074 A 
ATOM     56  C   UNL     1      -5.766 -17.204   4.204  1.00  0.00     0.029 A 
ATOM     57  N   UNL     1      -3.940 -15.954   3.976  1.00  0.00    -0.354 N 
ATOM     58  N   UNL     1      -1.075 -15.335   4.298  1.00  0.00    -0.248 NA
ATOM     59  C   UNL     1       1.009 -15.816   5.237  1.00  0.00     0.031 C 
ATOM     60  C   UNL     1      -4.719 -17.814   4.902  1.00  0.00     0.029 A 
ATOM     61  C   UNL     1      -3.576 -17.046   4.744  1.00  0.00     0.049 A 
ATOM     62  H   UNL     1      -3.332 -15.230   3.700  1.00  0.00     0.167 HD
ATOM     63  C   UNL     1      -1.172 -16.504   5.046  1.00  0.00     0.074 A 
ATOM     64  C   UNL     1       0.148 -16.764   5.584  1.00  0.00     0.031 C 
ATOM     65  C   UNL     1      -2.254 -17.291   5.266  1.00  0.00     0.037 A 
BRANCH  52  66
ATOM     66  C   UNL     1      -7.470 -15.256   2.643  1.00  0.00     0.058 A 
ATOM     67  C   UNL     1      -7.952 -15.605   1.372  1.00  0.00     0.135 A 
ATOM     68  C   UNL     1      -8.398 -15.156   3.692  1.00  0.00     0.135 A 
ATOM     69  F   UNL     1      -7.110 -15.693   0.330  1.00  0.00    -0.206 F 
ATOM     70  C   UNL     1      -9.305 -15.833   1.146  1.00  0.00     0.059 A 
ATOM     71  C   UNL     1      -9.753 -15.404   3.494  1.00  0.00     0.059 A 
ATOM     72  F   UNL     1      -7.990 -14.818   4.926  1.00  0.00    -0.206 F 
ATOM     73  C   UNL     1     -10.198 -15.734   2.215  1.00  0.00     0.060 A 
BRANCH  73  74
ATOM     74  S   UNL     1     -11.947 -16.052   1.905  1.00  0.00     0.124 S 
ATOM     75  O   UNL     1     -12.318 -14.891   1.103  1.00  0.00    -0.237 OA
ATOM     76  O   UNL     1     -11.910 -17.327   1.195  1.00  0.00    -0.237 OA
ATOM     77  O   UNL     1     -12.528 -16.100   3.244  1.00  0.00    -0.744 OA
ENDBRANCH  73  74
ENDBRANCH  52  66
BRANCH  53  78
ATOM     78  C   UNL     1       2.302 -13.509   3.947  1.00  0.00     0.058 A 
ATOM     79  C   UNL     1       3.257 -14.346   3.351  1.00  0.00     0.135 A 
ATOM     80  C   UNL     1       2.767 -12.423   4.705  1.00  0.00     0.135 A 
ATOM     81  F   UNL     1       2.862 -15.404   2.627  1.00  0.00    -0.206 F 
ATOM     82  C   UNL     1       4.621 -14.117   3.502  1.00  0.00     0.059 A 
ATOM     83  C   UNL     1       4.125 -12.160   4.852  1.00  0.00     0.059 A 
ATOM     84  F   UNL     1       1.893 -11.588   5.289  1.00  0.00    -0.206 F 
ATOM     85  C   UNL     1       5.045 -13.017   4.250  1.00  0.00     0.060 A 
BRANCH  85  86
ATOM     86  S   UNL     1       6.818 -12.699   4.389  1.00  0.00     0.124 S 
ATOM     87  O   UNL     1       7.250 -13.803   5.238  1.00  0.00    -0.237 OA
ATOM     88  O   UNL     1       7.247 -12.758   2.995  1.00  0.00    -0.237 OA
ATOM     89  O   UNL     1       6.875 -11.374   4.999  1.00  0.00    -0.744 OA
ENDBRANCH  85  86
ENDBRANCH  53  78
BRANCH  65  90
ATOM     90  C   UNL     1      -2.071 -18.520   6.112  1.00  0.00     0.058 A 
ATOM     91  C   UNL     1      -1.941 -18.436   7.506  1.00  0.00     0.135 A 
ATOM     92  C   UNL     1      -2.139 -19.799   5.533  1.00  0.00     0.135 A 
ATOM     93  F   UNL     1      -1.864 -17.238   8.107  1.00  0.00    -0.206 F 
ATOM     94  C   UNL     1      -1.886 -19.578   8.299  1.00  0.00     0.059 A 
ATOM     95  C   UNL     1      -2.111 -20.953   6.309  1.00  0.00     0.059 A 
ATOM     96  F   UNL     1      -2.273 -19.933   4.204  1.00  0.00    -0.206 F 
ATOM     97  C   UNL     1      -1.983 -20.832   7.692  1.00  0.00     0.060 A 
BRANCH  97  98
ATOM     98  S   UNL     1      -1.986 -22.299   8.743  1.00  0.00     0.124 S 
ATOM     99  O   UNL     1      -0.604 -22.331   9.210  1.00  0.00    -0.237 OA
ATOM    100  O   UNL     1      -2.987 -21.958   9.750  1.00  0.00    -0.237 OA
ATOM    101  O   UNL     1      -2.365 -23.373   7.830  1.00  0.00    -0.744 OA
ENDBRANCH  97  98
ENDBRANCH  65  90
ENDBRANCH  39  40
ENDBRANCH  32  34
ENDBRANCH  31  32
ENDBRANCH  30  31
ENDBRANCH   1  30
TORSDOF 18
