REMARK SMILES O=C(OCCOCCOC(=O)c1ccc(F)c(NS(=O)(=O)c2cc(Cl)sc2Cl)c1)c1ccc(-c2c3nc(c(-c4c(F)cc(S(=O)(=O)[O-])cc4F)c4ccc([nH]4)c(-c4c(F)cc(S(=O)(=O)[O-])cc4F)c4nc(c(-c5c(F)cc(S(=O)(=O)[O-])cc5F)c5ccc2[nH]5)C=C4)C=C3)cc1
REMARK SMILES IDX 6 1 5 2 4 3 3 4 2 5 1 6 30 7 31 8 95 9 32 10 94 11 33 12
REMARK SMILES IDX 34 13 35 14 88 15 36 16 93 17 87 18 89 19 37 20 92 21 86 22
REMARK SMILES IDX 85 23 38 25 72 26 51 27 71 28 52 29 55 30 70 31 90 32 53 33
REMARK SMILES IDX 54 34 69 36 91 37 56 38 39 39 40 40 49 41 41 42 42 43 48 44
REMARK SMILES IDX 50 45 43 46 44 47 45 48 46 49 47 50 73 51 74 52 83 53 75 54
REMARK SMILES IDX 76 55 82 56 84 57 77 58 78 59 79 60 80 61 81 62 57 63 58 64
REMARK SMILES IDX 67 65 59 66 60 67 66 68 68 69 61 70 62 71 63 72 64 73 65 74
REMARK SMILES IDX 7 75 8 76 9 77 10 78 11 79 12 80 13 81 29 82 14 83 17 84
REMARK SMILES IDX 15 85 16 86 18 87 19 89 20 90 21 91 22 92 23 93 27 94 24 95
REMARK SMILES IDX 26 96 28 97 25 98
REMARK H PARENT 89 24 55 35 18 88
REMARK Flexibility Score: inf
ROOT
ATOM      1  O   UNL     1       3.228  -1.055  -1.093  1.00  0.00    -0.374 OA
ENDROOT
BRANCH   1   2
ATOM      2  C   UNL     1       3.627  -1.669   0.129  1.00  0.00     0.202 C 
BRANCH   2   3
ATOM      3  C   UNL     1       3.688  -0.683   1.298  1.00  0.00     0.261 C 
BRANCH   3   4
ATOM      4  O   UNL     1       2.422  -0.053   1.517  1.00  0.00    -0.460 OA
BRANCH   4   5
ATOM      5  C   UNL     1       1.858   0.865   0.693  1.00  0.00     0.338 C 
ATOM      6  O   UNL     1       0.632   0.921   0.620  1.00  0.00    -0.246 OA
BRANCH   5   7
ATOM      7  C   UNL     1       2.666   1.931   0.020  1.00  0.00     0.060 A 
ATOM      8  C   UNL     1       3.907   1.754  -0.602  1.00  0.00     0.016 A 
ATOM      9  C   UNL     1       2.066   3.200  -0.052  1.00  0.00     0.016 A 
ATOM     10  C   UNL     1       4.557   2.809  -1.236  1.00  0.00     0.010 A 
ATOM     11  C   UNL     1       2.701   4.258  -0.703  1.00  0.00     0.010 A 
ATOM     12  C   UNL     1       3.959   4.065  -1.282  1.00  0.00    -0.014 A 
BRANCH  12  13
ATOM     13  C   UNL     1       4.709   5.194  -1.857  1.00  0.00     0.031 A 
ATOM     14  C   UNL     1       5.405   6.129  -0.920  1.00  0.00     0.074 A 
ATOM     15  C   UNL     1       4.803   5.325  -3.191  1.00  0.00     0.049 A 
ATOM     16  N   UNL     1       6.031   7.242  -1.181  1.00  0.00    -0.248 NA
ATOM     17  C   UNL     1       5.401   5.753   0.504  1.00  0.00     0.031 C 
ATOM     18  C   UNL     1       4.248   4.388  -4.170  1.00  0.00     0.029 A 
ATOM     19  N   UNL     1       5.407   6.288  -3.953  1.00  0.00    -0.354 N 
ATOM     20  C   UNL     1       6.476   7.714   0.047  1.00  0.00     0.074 A 
ATOM     21  C   UNL     1       6.049   6.769   1.053  1.00  0.00     0.031 C 
ATOM     22  C   UNL     1       4.543   4.823  -5.406  1.00  0.00     0.029 A 
ATOM     23  C   UNL     1       5.253   6.095  -5.305  1.00  0.00     0.049 A 
ATOM     24  H   UNL     1       5.904   7.047  -3.570  1.00  0.00     0.167 HD
ATOM     25  C   UNL     1       7.169   8.847   0.301  1.00  0.00     0.037 A 
ATOM     26  C   UNL     1       5.619   6.880  -6.337  1.00  0.00     0.037 A 
ATOM     27  C   UNL     1       7.562   9.773  -0.726  1.00  0.00     0.049 A 
ATOM     28  C   UNL     1       6.314   8.178  -6.028  1.00  0.00     0.074 A 
ATOM     29  C   UNL     1       8.199  10.991  -0.594  1.00  0.00     0.029 A 
ATOM     30  N   UNL     1       7.346   9.573  -2.084  1.00  0.00    -0.354 N 
ATOM     31  N   UNL     1       6.664   8.662  -4.858  1.00  0.00    -0.248 NA
ATOM     32  C   UNL     1       6.645   9.048  -7.163  1.00  0.00     0.031 C 
ATOM     33  C   UNL     1       8.340  11.543  -1.872  1.00  0.00     0.029 A 
ATOM     34  C   UNL     1       7.828  10.650  -2.804  1.00  0.00     0.049 A 
ATOM     35  H   UNL     1       6.915   8.780  -2.476  1.00  0.00     0.167 HD
ATOM     36  C   UNL     1       7.265   9.887  -5.114  1.00  0.00     0.074 A 
ATOM     37  C   UNL     1       7.239  10.067  -6.553  1.00  0.00     0.031 C 
ATOM     38  C   UNL     1       7.788  10.783  -4.241  1.00  0.00     0.037 A 
BRANCH  25  39
ATOM     39  C   UNL     1       7.470   9.158   1.738  1.00  0.00     0.058 A 
ATOM     40  C   UNL     1       6.746  10.152   2.414  1.00  0.00     0.135 A 
ATOM     41  C   UNL     1       8.442   8.449   2.463  1.00  0.00     0.135 A 
ATOM     42  F   UNL     1       5.793  10.848   1.774  1.00  0.00    -0.206 F 
ATOM     43  C   UNL     1       6.969  10.430   3.759  1.00  0.00     0.059 A 
ATOM     44  C   UNL     1       8.667   8.695   3.815  1.00  0.00     0.059 A 
ATOM     45  F   UNL     1       9.137   7.463   1.874  1.00  0.00    -0.206 F 
ATOM     46  C   UNL     1       7.928   9.691   4.454  1.00  0.00     0.060 A 
BRANCH  46  47
ATOM     47  S   UNL     1       8.137   9.995   6.222  1.00  0.00     0.124 S 
ATOM     48  O   UNL     1       8.849  11.268   6.225  1.00  0.00    -0.237 OA
ATOM     49  O   UNL     1       6.756  10.036   6.694  1.00  0.00    -0.237 OA
ATOM     50  O   UNL     1       8.907   8.840   6.673  1.00  0.00    -0.744 OA
ENDBRANCH  46  47
ENDBRANCH  25  39
BRANCH  26  51
ATOM     51  C   UNL     1       5.309   6.457  -7.728  1.00  0.00     0.058 A 
ATOM     52  C   UNL     1       3.985   6.396  -8.191  1.00  0.00     0.135 A 
ATOM     53  C   UNL     1       6.322   6.029  -8.599  1.00  0.00     0.135 A 
ATOM     54  F   UNL     1       2.976   6.792  -7.399  1.00  0.00    -0.206 F 
ATOM     55  C   UNL     1       3.671   5.887  -9.447  1.00  0.00     0.059 A 
ATOM     56  C   UNL     1       6.035   5.534  -9.870  1.00  0.00     0.059 A 
ATOM     57  F   UNL     1       7.605   6.082  -8.211  1.00  0.00    -0.206 F 
ATOM     58  C   UNL     1       4.703   5.445 -10.275  1.00  0.00     0.060 A 
BRANCH  58  59
ATOM     59  S   UNL     1       4.271   4.739 -11.881  1.00  0.00     0.124 S 
ATOM     60  O   UNL     1       3.644   3.481 -11.488  1.00  0.00    -0.237 OA
ATOM     61  O   UNL     1       3.373   5.750 -12.429  1.00  0.00    -0.237 OA
ATOM     62  O   UNL     1       5.559   4.616 -12.555  1.00  0.00    -0.744 OA
ENDBRANCH  58  59
ENDBRANCH  26  51
BRANCH  38  63
ATOM     63  C   UNL     1       8.392  12.033  -4.809  1.00  0.00     0.058 A 
ATOM     64  C   UNL     1       9.785  12.199  -4.824  1.00  0.00     0.135 A 
ATOM     65  C   UNL     1       7.590  13.112  -5.207  1.00  0.00     0.135 A 
ATOM     66  F   UNL     1      10.591  11.193  -4.448  1.00  0.00    -0.206 F 
ATOM     67  C   UNL     1      10.364  13.409  -5.181  1.00  0.00     0.059 A 
ATOM     68  C   UNL     1       8.149  14.328  -5.586  1.00  0.00     0.059 A 
ATOM     69  F   UNL     1       6.253  12.993  -5.217  1.00  0.00    -0.206 F 
ATOM     70  C   UNL     1       9.537  14.473  -5.546  1.00  0.00     0.060 A 
BRANCH  70  71
ATOM     71  S   UNL     1      10.303  16.053  -5.963  1.00  0.00     0.124 S 
ATOM     72  O   UNL     1      10.739  16.527  -4.654  1.00  0.00    -0.237 OA
ATOM     73  O   UNL     1      11.366  15.649  -6.879  1.00  0.00    -0.237 OA
ATOM     74  O   UNL     1       9.212  16.806  -6.574  1.00  0.00    -0.744 OA
ENDBRANCH  70  71
ENDBRANCH  38  63
ENDBRANCH  12  13
ENDBRANCH   5   7
ENDBRANCH   4   5
ENDBRANCH   3   4
ENDBRANCH   2   3
ENDBRANCH   1   2
BRANCH   1  75
ATOM     75  C   UNL     1       2.028  -1.569  -1.673  1.00  0.00     0.202 C 
BRANCH  75  76
ATOM     76  C   UNL     1       2.330  -2.571  -2.791  1.00  0.00     0.261 C 
BRANCH  76  77
ATOM     77  O   UNL     1       3.051  -3.708  -2.277  1.00  0.00    -0.460 OA
BRANCH  77  78
ATOM     78  C   UNL     1       4.393  -3.677  -2.477  1.00  0.00     0.338 C 
ATOM     79  O   UNL     1       5.040  -2.868  -3.115  1.00  0.00    -0.246 OA
BRANCH  78  80
ATOM     80  C   UNL     1       5.017  -4.669  -1.581  1.00  0.00     0.062 A 
ATOM     81  C   UNL     1       4.603  -6.001  -1.543  1.00  0.00     0.019 A 
ATOM     82  C   UNL     1       5.983  -4.188  -0.683  1.00  0.00     0.045 A 
ATOM     83  C   UNL     1       5.162  -6.853  -0.590  1.00  0.00     0.042 A 
ATOM     84  C   UNL     1       6.495  -5.011   0.308  1.00  0.00     0.085 A 
ATOM     85  C   UNL     1       6.079  -6.348   0.336  1.00  0.00     0.147 A 
ATOM     86  F   UNL     1       6.531  -7.158   1.306  1.00  0.00    -0.205 F 
BRANCH  84  87
ATOM     87  N   UNL     1       7.191  -4.477   1.448  1.00  0.00    -0.277 N 
ATOM     88  H   UNL     1       6.836  -4.652   2.349  1.00  0.00     0.180 HD
BRANCH  87  89
ATOM     89  S   UNL     1       8.599  -3.560   1.288  1.00  0.00     0.264 S 
ATOM     90  O   UNL     1       8.997  -3.254   2.648  1.00  0.00    -0.201 OA
ATOM     91  O   UNL     1       9.499  -4.249   0.398  1.00  0.00    -0.201 OA
BRANCH  89  92
ATOM     92  C   UNL     1       8.301  -2.001   0.602  1.00  0.00     0.118 A 
ATOM     93  C   UNL     1       7.896  -0.868   1.393  1.00  0.00     0.056 A 
ATOM     94  C   UNL     1       8.448  -1.646  -0.720  1.00  0.00     0.115 A 
ATOM     95  C   UNL     1       7.764   0.258   0.621  1.00  0.00     0.096 A 
ATOM     96  S   UNL     1       8.070  -0.012  -1.018  1.00  0.00    -0.110 S 
ATOM     97  Cl  UNL     1       8.903  -2.603  -2.077  1.00  0.00    -0.071 Cl
ATOM     98  Cl  UNL     1       7.333   1.829   1.161  1.00  0.00    -0.072 Cl
ENDBRANCH  89  92
ENDBRANCH  87  89
ENDBRANCH  84  87
ENDBRANCH  78  80
ENDBRANCH  77  78
ENDBRANCH  76  77
ENDBRANCH  75  76
ENDBRANCH   1  75
TORSDOF 20
