REMARK SMILES C[C@H](Oc1ccc(/C=C2/SC(=S)N(c3ccc(F)cc3)C2=O)cc1)C(=O)OCCOCCOC(=O)c1ccc(-c2c3nc(c(-c4c(F)cc(S(=O)(=O)[O-])cc4F)c4ccc([nH]4)c(-c4c(F)cc(S(=O)(=O)[O-])cc4F)c4nc(c(-c5c(F)cc(S(=O)(=O)[O-])cc5F)c5ccc2[nH]5)C=C4)C=C3)cc1
REMARK SMILES IDX 29 1 28 2 27 3 25 4 26 5 2 6 1 7 3 8 4 9 5 10 24 11 6 12
REMARK SMILES IDX 23 13 7 14 8 15 9 16 10 17 21 18 11 19 13 20 22 21 12 22
REMARK SMILES IDX 14 23 15 24 20 25 16 26 19 27 17 28 18 29 30 30 31 31 32 32
REMARK SMILES IDX 33 33 34 34 35 35 36 36 37 37 101 38 38 39 100 40 39 41
REMARK SMILES IDX 40 42 41 43 94 44 42 45 99 46 93 47 95 48 43 49 98 50 92 51
REMARK SMILES IDX 91 52 44 54 78 55 57 56 77 57 58 58 61 59 76 60 96 61 59 62
REMARK SMILES IDX 60 63 75 65 97 66 62 67 45 68 46 69 55 70 47 71 48 72 54 73
REMARK SMILES IDX 56 74 49 75 50 76 51 77 52 78 53 79 79 80 80 81 89 82 81 83
REMARK SMILES IDX 82 84 88 85 90 86 83 87 84 88 85 89 86 90 87 91 63 92 64 93
REMARK SMILES IDX 73 94 65 95 66 96 72 97 74 98 67 99 68 100 69 101 70 102
REMARK SMILES IDX 71 103
REMARK H PARENT 95 53 61 64
REMARK Flexibility Score: inf
ROOT
ATOM      1  C   UNL     1      -3.679   0.723   0.335  1.00  0.00     0.202 C 
ENDROOT
BRANCH   1   2
ATOM      2  C   UNL     1      -3.045   1.928  -0.359  1.00  0.00     0.261 C 
BRANCH   2   3
ATOM      3  O   UNL     1      -1.645   1.737  -0.610  1.00  0.00    -0.461 OA
BRANCH   3   4
ATOM      4  C   UNL     1      -0.784   2.440   0.183  1.00  0.00     0.347 C 
ATOM      5  O   UNL     1      -1.115   3.195   1.091  1.00  0.00    -0.248 OA
BRANCH   4   6
ATOM      6  C   UNL     1       0.667   2.241  -0.258  1.00  0.00     0.279 C 
ATOM      7  C   UNL     1       0.838   3.087  -1.522  1.00  0.00     0.066 C 
BRANCH   6   8
ATOM      8  O   UNL     1       0.914   0.838  -0.403  1.00  0.00    -0.479 OA
BRANCH   8   9
ATOM      9  C   UNL     1       2.099   0.388  -0.909  1.00  0.00     0.120 A 
ATOM     10  C   UNL     1       3.221   1.159  -1.193  1.00  0.00     0.047 A 
ATOM     11  C   UNL     1       2.132  -0.977  -1.201  1.00  0.00     0.047 A 
ATOM     12  C   UNL     1       4.287   0.615  -1.920  1.00  0.00     0.012 A 
ATOM     13  C   UNL     1       3.219  -1.537  -1.881  1.00  0.00     0.012 A 
ATOM     14  C   UNL     1       4.265  -0.724  -2.323  1.00  0.00    -0.024 A 
BRANCH  14  15
ATOM     15  C   UNL     1       5.343  -1.220  -3.188  1.00  0.00     0.029 C 
ATOM     16  C   UNL     1       5.209  -1.860  -4.362  1.00  0.00     0.081 C 
ATOM     17  S   UNL     1       6.580  -2.389  -5.265  1.00  0.00    -0.054 SA
ATOM     18  C   UNL     1       3.954  -2.257  -5.075  1.00  0.00     0.270 C 
ATOM     19  C   UNL     1       5.598  -3.219  -6.471  1.00  0.00     0.152 C 
ATOM     20  N   UNL     1       4.255  -3.088  -6.154  1.00  0.00    -0.261 N 
ATOM     21  O   UNL     1       2.839  -1.919  -4.704  1.00  0.00    -0.268 OA
ATOM     22  S   UNL     1       6.326  -3.937  -7.797  1.00  0.00    -0.051 S 
BRANCH  20  23
ATOM     23  C   UNL     1       3.196  -3.778  -6.823  1.00  0.00     0.051 A 
ATOM     24  C   UNL     1       2.015  -3.111  -7.190  1.00  0.00     0.030 A 
ATOM     25  C   UNL     1       3.279  -5.164  -7.038  1.00  0.00     0.030 A 
ATOM     26  C   UNL     1       0.955  -3.808  -7.778  1.00  0.00     0.041 A 
ATOM     27  C   UNL     1       2.212  -5.862  -7.610  1.00  0.00     0.041 A 
ATOM     28  C   UNL     1       1.062  -5.177  -7.978  1.00  0.00     0.123 A 
ATOM     29  F   UNL     1       0.041  -5.852  -8.517  1.00  0.00    -0.207 F 
ENDBRANCH  20  23
ENDBRANCH  14  15
ENDBRANCH   8   9
ENDBRANCH   6   8
ENDBRANCH   4   6
ENDBRANCH   3   4
ENDBRANCH   2   3
ENDBRANCH   1   2
BRANCH   1  30
ATOM     30  O   UNL     1      -3.210   0.441   1.651  1.00  0.00    -0.374 OA
BRANCH  30  31
ATOM     31  C   UNL     1      -1.981  -0.281   1.757  1.00  0.00     0.202 C 
BRANCH  31  32
ATOM     32  C   UNL     1      -2.065  -1.795   1.533  1.00  0.00     0.261 C 
BRANCH  32  33
ATOM     33  O   UNL     1      -2.317  -2.128   0.155  1.00  0.00    -0.460 OA
BRANCH  33  34
ATOM     34  C   UNL     1      -3.550  -2.618  -0.103  1.00  0.00     0.338 C 
ATOM     35  O   UNL     1      -4.436  -2.856   0.713  1.00  0.00    -0.246 OA
BRANCH  34  36
ATOM     36  C   UNL     1      -3.776  -2.676  -1.557  1.00  0.00     0.060 A 
ATOM     37  C   UNL     1      -4.946  -2.089  -2.061  1.00  0.00     0.016 A 
ATOM     38  C   UNL     1      -2.897  -3.349  -2.408  1.00  0.00     0.016 A 
ATOM     39  C   UNL     1      -5.265  -2.215  -3.412  1.00  0.00     0.010 A 
ATOM     40  C   UNL     1      -3.224  -3.482  -3.761  1.00  0.00     0.010 A 
ATOM     41  C   UNL     1      -4.425  -2.946  -4.261  1.00  0.00    -0.014 A 
BRANCH  41  42
ATOM     42  C   UNL     1      -4.862  -3.278  -5.638  1.00  0.00     0.031 A 
ATOM     43  C   UNL     1      -5.422  -4.646  -5.909  1.00  0.00     0.074 A 
ATOM     44  C   UNL     1      -4.743  -2.382  -6.633  1.00  0.00     0.049 A 
ATOM     45  N   UNL     1      -5.767  -5.190  -7.046  1.00  0.00    -0.248 NA
ATOM     46  C   UNL     1      -5.609  -5.520  -4.740  1.00  0.00     0.031 C 
ATOM     47  C   UNL     1      -4.243  -1.017  -6.483  1.00  0.00     0.029 A 
ATOM     48  N   UNL     1      -5.009  -2.500  -7.974  1.00  0.00    -0.354 N 
ATOM     49  C   UNL     1      -6.190  -6.478  -6.735  1.00  0.00     0.074 A 
ATOM     50  C   UNL     1      -6.043  -6.637  -5.304  1.00  0.00     0.031 C 
ATOM     51  C   UNL     1      -4.207  -0.433  -7.692  1.00  0.00     0.029 A 
ATOM     52  C   UNL     1      -4.645  -1.394  -8.704  1.00  0.00     0.049 A 
ATOM     53  H   UNL     1      -5.420  -3.300  -8.375  1.00  0.00     0.167 HD
ATOM     54  C   UNL     1      -6.656  -7.438  -7.569  1.00  0.00     0.037 A 
ATOM     55  C   UNL     1      -4.629  -1.195 -10.037  1.00  0.00     0.037 A 
ATOM     56  C   UNL     1      -6.799  -7.267  -8.990  1.00  0.00     0.049 A 
ATOM     57  C   UNL     1      -5.108  -2.290 -10.954  1.00  0.00     0.074 A 
ATOM     58  C   UNL     1      -7.301  -8.162  -9.918  1.00  0.00     0.029 A 
ATOM     59  N   UNL     1      -6.423  -6.131  -9.693  1.00  0.00    -0.354 N 
ATOM     60  N   UNL     1      -5.545  -3.488 -10.646  1.00  0.00    -0.248 NA
ATOM     61  C   UNL     1      -5.095  -2.008 -12.396  1.00  0.00     0.031 C 
ATOM     62  C   UNL     1      -7.181  -7.587 -11.188  1.00  0.00     0.029 A 
ATOM     63  C   UNL     1      -6.656  -6.312 -11.046  1.00  0.00     0.049 A 
ATOM     64  H   UNL     1      -6.047  -5.316  -9.288  1.00  0.00     0.167 HD
ATOM     65  C   UNL     1      -5.880  -4.095 -11.852  1.00  0.00     0.074 A 
ATOM     66  C   UNL     1      -5.600  -3.130 -12.895  1.00  0.00     0.031 C 
ATOM     67  C   UNL     1      -6.379  -5.337 -12.073  1.00  0.00     0.037 A 
BRANCH  54  68
ATOM     68  C   UNL     1      -7.006  -8.770  -6.965  1.00  0.00     0.058 A 
ATOM     69  C   UNL     1      -8.128  -8.942  -6.139  1.00  0.00     0.135 A 
ATOM     70  C   UNL     1      -6.206  -9.896  -7.224  1.00  0.00     0.135 A 
ATOM     71  F   UNL     1      -8.918  -7.897  -5.846  1.00  0.00    -0.206 F 
ATOM     72  C   UNL     1      -8.423 -10.172  -5.559  1.00  0.00     0.059 A 
ATOM     73  C   UNL     1      -6.498 -11.142  -6.678  1.00  0.00     0.059 A 
ATOM     74  F   UNL     1      -5.122  -9.789  -8.007  1.00  0.00    -0.206 F 
ATOM     75  C   UNL     1      -7.598 -11.265  -5.830  1.00  0.00     0.060 A 
BRANCH  75  76
ATOM     76  S   UNL     1      -7.979 -12.850  -5.053  1.00  0.00     0.124 S 
ATOM     77  O   UNL     1      -7.562 -12.605  -3.675  1.00  0.00    -0.237 OA
ATOM     78  O   UNL     1      -9.417 -12.967  -5.268  1.00  0.00    -0.237 OA
ATOM     79  O   UNL     1      -7.157 -13.800  -5.797  1.00  0.00    -0.744 OA
ENDBRANCH  75  76
ENDBRANCH  54  68
BRANCH  55  80
ATOM     80  C   UNL     1      -4.112   0.090 -10.575  1.00  0.00     0.058 A 
ATOM     81  C   UNL     1      -4.972   1.041 -11.142  1.00  0.00     0.135 A 
ATOM     82  C   UNL     1      -2.748   0.410 -10.490  1.00  0.00     0.135 A 
ATOM     83  F   UNL     1      -6.283   0.776 -11.257  1.00  0.00    -0.206 F 
ATOM     84  C   UNL     1      -4.500   2.266 -11.604  1.00  0.00     0.059 A 
ATOM     85  C   UNL     1      -2.255   1.637 -10.923  1.00  0.00     0.059 A 
ATOM     86  F   UNL     1      -1.885  -0.462  -9.946  1.00  0.00    -0.206 F 
ATOM     87  C   UNL     1      -3.140   2.558 -11.481  1.00  0.00     0.060 A 
BRANCH  87  88
ATOM     88  S   UNL     1      -2.551   4.184 -12.004  1.00  0.00     0.124 S 
ATOM     89  O   UNL     1      -2.609   4.066 -13.456  1.00  0.00    -0.237 OA
ATOM     90  O   UNL     1      -3.534   5.076 -11.395  1.00  0.00    -0.237 OA
ATOM     91  O   UNL     1      -1.212   4.257 -11.428  1.00  0.00    -0.744 OA
ENDBRANCH  87  88
ENDBRANCH  55  80
BRANCH  67  92
ATOM     92  C   UNL     1      -6.692  -5.726 -13.492  1.00  0.00     0.058 A 
ATOM     93  C   UNL     1      -5.681  -6.056 -14.407  1.00  0.00     0.135 A 
ATOM     94  C   UNL     1      -8.026  -5.865 -13.909  1.00  0.00     0.135 A 
ATOM     95  F   UNL     1      -4.390  -5.933 -14.062  1.00  0.00    -0.206 F 
ATOM     96  C   UNL     1      -5.982  -6.509 -15.689  1.00  0.00     0.059 A 
ATOM     97  C   UNL     1      -8.350  -6.338 -15.177  1.00  0.00     0.059 A 
ATOM     98  F   UNL     1      -9.031  -5.570 -13.069  1.00  0.00    -0.206 F 
ATOM     99  C   UNL     1      -7.320  -6.655 -16.061  1.00  0.00     0.060 A 
BRANCH  99 100
ATOM    100  S   UNL     1      -7.697  -7.309 -17.702  1.00  0.00     0.124 S 
ATOM    101  O   UNL     1      -7.368  -6.173 -18.555  1.00  0.00    -0.237 OA
ATOM    102  O   UNL     1      -6.798  -8.455 -17.796  1.00  0.00    -0.237 OA
ATOM    103  O   UNL     1      -9.117  -7.641 -17.618  1.00  0.00    -0.744 OA
ENDBRANCH  99 100
ENDBRANCH  67  92
ENDBRANCH  41  42
ENDBRANCH  34  36
ENDBRANCH  33  34
ENDBRANCH  32  33
ENDBRANCH  31  32
ENDBRANCH  30  31
ENDBRANCH   1  30
TORSDOF 21
