REMARK SMILES C[C@@H](CC(=O)OCCOCCOC(=O)c1ccc(-c2c3nc(c(-c4c(F)cc(S(=O)(=O)[O-])cc4F)c4ccc([nH]4)c(-c4c(F)cc(S(=O)(=O)[O-])cc4F)c4nc(c(-c5c(F)cc(S(=O)(=O)[O-])cc5F)c5ccc2[nH]5)C=C4)C=C3)cc1)CC(=O)N1C[C@H](C)[C@@H](C)C1
REMARK SMILES IDX 9 1 8 2 7 3 6 4 4 5 5 6 3 7 2 8 1 9 81 10 82 11 83 12 84 13
REMARK SMILES IDX 85 14 90 15 86 16 88 17 87 18 89 19 10 20 11 21 12 22 13 23
REMARK SMILES IDX 14 24 15 25 16 26 80 27 17 28 79 29 18 30 19 31 20 32 73 33
REMARK SMILES IDX 21 34 78 35 72 36 74 37 22 38 77 39 71 40 70 41 23 43 57 44
REMARK SMILES IDX 36 45 56 46 37 47 40 48 55 49 75 50 38 51 39 52 54 54 76 55
REMARK SMILES IDX 41 56 24 57 25 58 34 59 26 60 27 61 33 62 35 63 28 64 29 65
REMARK SMILES IDX 30 66 31 67 32 68 58 69 59 70 68 71 60 72 61 73 67 74 69 75
REMARK SMILES IDX 62 76 63 77 64 78 65 79 66 80 42 81 43 82 52 83 44 84 45 85
REMARK SMILES IDX 51 86 53 87 46 88 47 89 48 90 49 91 50 92
REMARK H PARENT 74 42 40 53
REMARK Flexibility Score: inf
ROOT
ATOM      1  O   UNL     1      -1.657  -4.015   1.539  1.00  0.00    -0.374 OA
ENDROOT
BRANCH   1   2
ATOM      2  C   UNL     1      -0.559  -3.565   2.338  1.00  0.00     0.202 C 
BRANCH   2   3
ATOM      3  C   UNL     1       0.822  -3.684   1.687  1.00  0.00     0.261 C 
BRANCH   3   4
ATOM      4  O   UNL     1       0.999  -2.682   0.663  1.00  0.00    -0.463 OA
BRANCH   4   5
ATOM      5  C   UNL     1       1.334  -3.122  -0.573  1.00  0.00     0.306 C 
ATOM      6  O   UNL     1       1.526  -4.296  -0.868  1.00  0.00    -0.252 OA
BRANCH   5   7
ATOM      7  C   UNL     1       1.434  -2.016  -1.615  1.00  0.00     0.126 C 
BRANCH   7   8
ATOM      8  C   UNL     1       1.176  -0.538  -1.217  1.00  0.00     0.006 C 
ATOM      9  C   UNL     1       2.212  -0.096  -0.178  1.00  0.00     0.009 C 
BRANCH   8  10
ATOM     10  C   UNL     1      -0.276  -0.331  -0.763  1.00  0.00     0.104 C 
BRANCH  10  11
ATOM     11  C   UNL     1      -1.040   0.945  -1.103  1.00  0.00     0.222 C 
ATOM     12  O   UNL     1      -1.833   0.950  -2.046  1.00  0.00    -0.275 OA
ATOM     13  N   UNL     1      -0.959   1.987  -0.212  1.00  0.00    -0.342 N 
ATOM     14  C   UNL     1      -2.076   2.868   0.048  1.00  0.00     0.123 C 
ATOM     15  C   UNL     1       0.234   2.430   0.466  1.00  0.00     0.123 C 
ATOM     16  C   UNL     1      -1.460   4.206   0.442  1.00  0.00     0.010 C 
ATOM     17  C   UNL     1      -0.041   3.860   0.944  1.00  0.00     0.010 C 
ATOM     18  C   UNL     1      -1.423   5.150  -0.755  1.00  0.00     0.010 C 
ATOM     19  C   UNL     1       0.079   3.983   2.457  1.00  0.00     0.010 C 
ENDBRANCH  10  11
ENDBRANCH   8  10
ENDBRANCH   7   8
ENDBRANCH   5   7
ENDBRANCH   4   5
ENDBRANCH   3   4
ENDBRANCH   2   3
ENDBRANCH   1   2
BRANCH   1  20
ATOM     20  C   UNL     1      -2.098  -3.135   0.508  1.00  0.00     0.202 C 
BRANCH  20  21
ATOM     21  C   UNL     1      -3.036  -2.001   0.949  1.00  0.00     0.261 C 
BRANCH  21  22
ATOM     22  O   UNL     1      -2.426  -1.126   1.916  1.00  0.00    -0.460 OA
BRANCH  22  23
ATOM     23  C   UNL     1      -2.896  -1.275   3.178  1.00  0.00     0.338 C 
ATOM     24  O   UNL     1      -3.830  -1.985   3.530  1.00  0.00    -0.246 OA
BRANCH  23  25
ATOM     25  C   UNL     1      -2.037  -0.574   4.156  1.00  0.00     0.060 A 
ATOM     26  C   UNL     1      -1.766  -1.241   5.357  1.00  0.00     0.016 A 
ATOM     27  C   UNL     1      -1.578   0.730   3.963  1.00  0.00     0.016 A 
ATOM     28  C   UNL     1      -1.129  -0.576   6.403  1.00  0.00     0.010 A 
ATOM     29  C   UNL     1      -0.925   1.392   5.014  1.00  0.00     0.010 A 
ATOM     30  C   UNL     1      -0.755   0.766   6.260  1.00  0.00    -0.014 A 
BRANCH  30  31
ATOM     31  C   UNL     1      -0.362   1.539   7.469  1.00  0.00     0.031 A 
ATOM     32  C   UNL     1      -1.348   2.506   8.079  1.00  0.00     0.074 A 
ATOM     33  C   UNL     1       0.826   1.330   8.066  1.00  0.00     0.049 A 
ATOM     34  N   UNL     1      -1.262   3.186   9.193  1.00  0.00    -0.248 NA
ATOM     35  C   UNL     1      -2.593   2.745   7.329  1.00  0.00     0.031 C 
ATOM     36  C   UNL     1       1.876   0.441   7.573  1.00  0.00     0.029 A 
ATOM     37  N   UNL     1       1.340   1.843   9.232  1.00  0.00    -0.354 N 
ATOM     38  C   UNL     1      -2.437   3.925   9.281  1.00  0.00     0.074 A 
ATOM     39  C   UNL     1      -3.194   3.657   8.078  1.00  0.00     0.031 C 
ATOM     40  C   UNL     1       2.904   0.455   8.440  1.00  0.00     0.029 A 
ATOM     41  C   UNL     1       2.587   1.358   9.546  1.00  0.00     0.049 A 
ATOM     42  H   UNL     1       0.861   2.498   9.790  1.00  0.00     0.167 HD
ATOM     43  C   UNL     1      -2.865   4.731  10.282  1.00  0.00     0.037 A 
ATOM     44  C   UNL     1       3.377   1.600  10.611  1.00  0.00     0.037 A 
ATOM     45  C   UNL     1      -2.125   4.984  11.490  1.00  0.00     0.049 A 
ATOM     46  C   UNL     1       2.881   2.499  11.715  1.00  0.00     0.074 A 
ATOM     47  C   UNL     1      -2.494   5.750  12.583  1.00  0.00     0.029 A 
ATOM     48  N   UNL     1      -0.864   4.478  11.766  1.00  0.00    -0.354 N 
ATOM     49  N   UNL     1       1.739   3.138  11.810  1.00  0.00    -0.248 NA
ATOM     50  C   UNL     1       3.774   2.692  12.866  1.00  0.00     0.031 C 
ATOM     51  C   UNL     1      -1.438   5.740  13.502  1.00  0.00     0.029 A 
ATOM     52  C   UNL     1      -0.432   4.930  13.003  1.00  0.00     0.049 A 
ATOM     53  H   UNL     1      -0.351   3.886  11.171  1.00  0.00     0.167 HD
ATOM     54  C   UNL     1       1.767   3.786  13.041  1.00  0.00     0.074 A 
ATOM     55  C   UNL     1       3.031   3.448  13.661  1.00  0.00     0.031 C 
ATOM     56  C   UNL     1       0.830   4.586  13.609  1.00  0.00     0.037 A 
BRANCH  43  57
ATOM     57  C   UNL     1      -4.203   5.399  10.113  1.00  0.00     0.058 A 
ATOM     58  C   UNL     1      -5.404   4.672  10.176  1.00  0.00     0.135 A 
ATOM     59  C   UNL     1      -4.290   6.786   9.911  1.00  0.00     0.135 A 
ATOM     60  F   UNL     1      -5.379   3.341  10.350  1.00  0.00    -0.206 F 
ATOM     61  C   UNL     1      -6.639   5.290  10.014  1.00  0.00     0.059 A 
ATOM     62  C   UNL     1      -5.516   7.430   9.774  1.00  0.00     0.059 A 
ATOM     63  F   UNL     1      -3.174   7.529   9.841  1.00  0.00    -0.206 F 
ATOM     64  C   UNL     1      -6.685   6.671   9.811  1.00  0.00     0.060 A 
BRANCH  64  65
ATOM     65  S   UNL     1      -8.295   7.460   9.601  1.00  0.00     0.124 S 
ATOM     66  O   UNL     1      -8.649   7.039   8.249  1.00  0.00    -0.237 OA
ATOM     67  O   UNL     1      -9.079   6.862  10.677  1.00  0.00    -0.237 OA
ATOM     68  O   UNL     1      -8.000   8.880   9.759  1.00  0.00    -0.744 OA
ENDBRANCH  64  65
ENDBRANCH  43  57
BRANCH  44  69
ATOM     69  C   UNL     1       4.714   0.956  10.704  1.00  0.00     0.058 A 
ATOM     70  C   UNL     1       4.969  -0.060  11.638  1.00  0.00     0.135 A 
ATOM     71  C   UNL     1       5.764   1.346   9.859  1.00  0.00     0.135 A 
ATOM     72  F   UNL     1       3.999  -0.460  12.474  1.00  0.00    -0.206 F 
ATOM     73  C   UNL     1       6.222  -0.655  11.744  1.00  0.00     0.059 A 
ATOM     74  C   UNL     1       7.019   0.749   9.929  1.00  0.00     0.059 A 
ATOM     75  F   UNL     1       5.567   2.304   8.940  1.00  0.00    -0.206 F 
ATOM     76  C   UNL     1       7.241  -0.245  10.882  1.00  0.00     0.060 A 
BRANCH  76  77
ATOM     77  S   UNL     1       8.849  -1.059  10.990  1.00  0.00     0.124 S 
ATOM     78  O   UNL     1       9.392  -0.477  12.212  1.00  0.00    -0.237 OA
ATOM     79  O   UNL     1       8.475  -2.468  11.063  1.00  0.00    -0.237 OA
ATOM     80  O   UNL     1       9.509  -0.658   9.751  1.00  0.00    -0.744 OA
ENDBRANCH  76  77
ENDBRANCH  44  69
BRANCH  56  81
ATOM     81  C   UNL     1       1.124   5.129  14.982  1.00  0.00     0.058 A 
ATOM     82  C   UNL     1       2.090   6.126  15.190  1.00  0.00     0.135 A 
ATOM     83  C   UNL     1       0.413   4.662  16.099  1.00  0.00     0.135 A 
ATOM     84  F   UNL     1       2.799   6.607  14.157  1.00  0.00    -0.206 F 
ATOM     85  C   UNL     1       2.370   6.612  16.464  1.00  0.00     0.059 A 
ATOM     86  C   UNL     1       0.657   5.154  17.378  1.00  0.00     0.059 A 
ATOM     87  F   UNL     1      -0.533   3.720  15.955  1.00  0.00    -0.206 F 
ATOM     88  C   UNL     1       1.652   6.115  17.553  1.00  0.00     0.060 A 
BRANCH  88  89
ATOM     89  S   UNL     1       2.023   6.751  19.201  1.00  0.00     0.124 S 
ATOM     90  O   UNL     1       3.272   6.062  19.506  1.00  0.00    -0.237 OA
ATOM     91  O   UNL     1       2.132   8.188  18.967  1.00  0.00    -0.237 OA
ATOM     92  O   UNL     1       0.868   6.338  19.992  1.00  0.00    -0.744 OA
ENDBRANCH  88  89
ENDBRANCH  56  81
ENDBRANCH  30  31
ENDBRANCH  23  25
ENDBRANCH  22  23
ENDBRANCH  21  22
ENDBRANCH  20  21
ENDBRANCH   1  20
TORSDOF 20
