REMARK SMILES CC(C)Cc1ccc(-c2cc(Cl)cc3c2O[C@@H](C(F)(F)F)C(C(=O)OCCOCCOC(=O)c2ccc(-c4c5nc(c(-c6c(F)cc(S(=O)(=O)[O-])cc6F)c6ccc([nH]6)c(-c6c(F)cc(S(=O)(=O)[O-])cc6F)c6nc(c(-c7c(F)cc(S(=O)(=O)[O-])cc7F)c7ccc4[nH]7)C=C6)C=C5)cc2)=C3)cc1
REMARK SMILES IDX 28 1 27 2 26 3 25 4 23 5 24 6 22 7 9 8 10 9 15 10 11 11
REMARK SMILES IDX 14 12 16 13 12 14 13 15 100 16 17 17 8 18 5 19 6 20 102 21
REMARK SMILES IDX 7 22 101 23 4 24 2 25 1 26 3 27 18 28 19 29 20 30 21 31
REMARK SMILES IDX 29 32 30 33 31 34 32 35 33 36 34 37 35 38 99 39 36 40 98 41
REMARK SMILES IDX 37 42 38 43 39 44 92 45 40 46 97 47 91 48 93 49 41 50 96 51
REMARK SMILES IDX 90 52 89 53 42 55 76 56 55 57 75 58 56 59 59 60 74 61 94 62
REMARK SMILES IDX 57 63 58 64 73 66 95 67 60 68 43 69 44 70 53 71 45 72 46 73
REMARK SMILES IDX 52 74 54 75 47 76 48 77 49 78 50 79 51 80 77 81 78 82 87 83
REMARK SMILES IDX 79 84 80 85 86 86 88 87 81 88 82 89 83 90 84 91 85 92 61 93
REMARK SMILES IDX 62 94 71 95 63 96 64 97 70 98 72 99 65 100 66 101 67 102
REMARK SMILES IDX 68 103 69 104
REMARK H PARENT 93 54 59 65
REMARK Flexibility Score: inf
ROOT
ATOM      1  O   UNL     1      -4.339  -4.177  -8.664  1.00  0.00    -0.374 OA
ENDROOT
BRANCH   1   2
ATOM      2  C   UNL     1      -4.308  -5.214  -9.634  1.00  0.00     0.202 C 
BRANCH   2   3
ATOM      3  C   UNL     1      -4.053  -6.655  -9.161  1.00  0.00     0.261 C 
BRANCH   3   4
ATOM      4  O   UNL     1      -4.322  -6.852  -7.763  1.00  0.00    -0.460 OA
BRANCH   4   5
ATOM      5  C   UNL     1      -3.433  -7.613  -7.097  1.00  0.00     0.338 C 
ATOM      6  O   UNL     1      -2.508  -8.229  -7.609  1.00  0.00    -0.246 OA
BRANCH   5   7
ATOM      7  C   UNL     1      -3.572  -7.509  -5.625  1.00  0.00     0.087 C 
ATOM      8  C   UNL     1      -3.584  -3.700  -3.933  1.00  0.00     0.026 A 
ATOM      9  C   UNL     1      -3.051  -2.894  -4.965  1.00  0.00     0.033 A 
ATOM     10  C   UNL     1      -3.595  -5.085  -4.221  1.00  0.00     0.135 A 
ATOM     11  C   UNL     1      -2.208  -3.443  -5.932  1.00  0.00     0.042 A 
ATOM     12  C   UNL     1      -2.555  -5.618  -5.001  1.00  0.00     0.019 A 
ATOM     13  O   UNL     1      -4.853  -5.739  -4.379  1.00  0.00    -0.475 OA
ATOM     14  Cl  UNL     1      -1.475  -2.418  -7.100  1.00  0.00    -0.084 Cl
ATOM     15  C   UNL     1      -1.877  -4.791  -5.890  1.00  0.00     0.032 A 
ATOM     16  C   UNL     1      -2.415  -7.088  -5.084  1.00  0.00     0.027 C 
ATOM     17  C   UNL     1      -4.803  -7.165  -4.815  1.00  0.00     0.316 C 
BRANCH   8  18
ATOM     18  C   UNL     1      -3.260  -3.135  -2.555  1.00  0.00    -0.015 A 
ATOM     19  C   UNL     1      -1.996  -1.805  -0.309  1.00  0.00    -0.048 A 
ATOM     20  C   UNL     1      -2.888  -1.131  -1.153  1.00  0.00     0.004 A 
ATOM     21  C   UNL     1      -1.797  -3.168  -0.556  1.00  0.00     0.004 A 
ATOM     22  C   UNL     1      -3.515  -1.784  -2.238  1.00  0.00     0.009 A 
ATOM     23  C   UNL     1      -2.417  -3.818  -1.653  1.00  0.00     0.009 A 
BRANCH  19  24
ATOM     24  C   UNL     1      -1.357  -1.086   0.869  1.00  0.00     0.038 C 
BRANCH  24  25
ATOM     25  C   UNL     1       0.190  -0.996   0.927  1.00  0.00    -0.013 C 
ATOM     26  C   UNL     1       0.776  -0.115  -0.178  1.00  0.00     0.008 C 
ATOM     27  C   UNL     1       0.632  -0.423   2.286  1.00  0.00     0.008 C 
ENDBRANCH  24  25
ENDBRANCH  19  24
ENDBRANCH   8  18
BRANCH  17  28
ATOM     28  C   UNL     1      -6.120  -7.795  -5.326  1.00  0.00     0.430 C 
ATOM     29  F   UNL     1      -6.082  -9.138  -5.098  1.00  0.00    -0.167 F 
ATOM     30  F   UNL     1      -7.197  -7.327  -4.654  1.00  0.00    -0.167 F 
ATOM     31  F   UNL     1      -6.365  -7.633  -6.638  1.00  0.00    -0.167 F 
ENDBRANCH  17  28
ENDBRANCH   5   7
ENDBRANCH   4   5
ENDBRANCH   3   4
ENDBRANCH   2   3
ENDBRANCH   1   2
BRANCH   1  32
ATOM     32  C   UNL     1      -5.395  -4.180  -7.706  1.00  0.00     0.202 C 
BRANCH  32  33
ATOM     33  C   UNL     1      -6.831  -3.964  -8.192  1.00  0.00     0.261 C 
BRANCH  33  34
ATOM     34  O   UNL     1      -7.301  -5.000  -9.066  1.00  0.00    -0.460 OA
BRANCH  34  35
ATOM     35  C   UNL     1      -7.532  -4.609 -10.341  1.00  0.00     0.338 C 
ATOM     36  O   UNL     1      -7.357  -3.496 -10.823  1.00  0.00    -0.246 OA
BRANCH  35  37
ATOM     37  C   UNL     1      -7.898  -5.780 -11.147  1.00  0.00     0.060 A 
ATOM     38  C   UNL     1      -7.075  -6.147 -12.220  1.00  0.00     0.016 A 
ATOM     39  C   UNL     1      -9.092  -6.453 -10.894  1.00  0.00     0.016 A 
ATOM     40  C   UNL     1      -7.463  -7.182 -13.069  1.00  0.00     0.010 A 
ATOM     41  C   UNL     1      -9.483  -7.480 -11.750  1.00  0.00     0.010 A 
ATOM     42  C   UNL     1      -8.687  -7.828 -12.857  1.00  0.00    -0.014 A 
BRANCH  42  43
ATOM     43  C   UNL     1      -9.243  -8.759 -13.864  1.00  0.00     0.031 A 
ATOM     44  C   UNL     1     -10.336  -8.260 -14.766  1.00  0.00     0.074 A 
ATOM     45  C   UNL     1      -8.822 -10.034 -13.932  1.00  0.00     0.049 A 
ATOM     46  N   UNL     1     -11.118  -8.927 -15.571  1.00  0.00    -0.248 NA
ATOM     47  C   UNL     1     -10.590  -6.809 -14.742  1.00  0.00     0.031 C 
ATOM     48  C   UNL     1      -7.731 -10.608 -13.145  1.00  0.00     0.029 A 
ATOM     49  N   UNL     1      -9.287 -11.085 -14.680  1.00  0.00    -0.354 N 
ATOM     50  C   UNL     1     -11.969  -7.984 -16.136  1.00  0.00     0.074 A 
ATOM     51  C   UNL     1     -11.626  -6.702 -15.561  1.00  0.00     0.031 C 
ATOM     52  C   UNL     1      -7.629 -11.917 -13.433  1.00  0.00     0.029 A 
ATOM     53  C   UNL     1      -8.678 -12.281 -14.383  1.00  0.00     0.049 A 
ATOM     54  H   UNL     1      -9.989 -10.992 -15.364  1.00  0.00     0.167 HD
ATOM     55  C   UNL     1     -12.944  -8.176 -17.055  1.00  0.00     0.037 A 
ATOM     56  C   UNL     1      -8.968 -13.530 -14.800  1.00  0.00     0.037 A 
ATOM     57  C   UNL     1     -13.273  -9.462 -17.611  1.00  0.00     0.049 A 
ATOM     58  C   UNL     1     -10.120 -13.733 -15.754  1.00  0.00     0.074 A 
ATOM     59  C   UNL     1     -14.246  -9.773 -18.542  1.00  0.00     0.029 A 
ATOM     60  N   UNL     1     -12.635 -10.650 -17.283  1.00  0.00    -0.354 N 
ATOM     61  N   UNL     1     -10.926 -12.839 -16.278  1.00  0.00    -0.248 NA
ATOM     62  C   UNL     1     -10.405 -15.113 -16.172  1.00  0.00     0.031 C 
ATOM     63  C   UNL     1     -14.231 -11.157 -18.741  1.00  0.00     0.029 A 
ATOM     64  C   UNL     1     -13.203 -11.699 -17.984  1.00  0.00     0.049 A 
ATOM     65  H   UNL     1     -11.889 -10.734 -16.646  1.00  0.00     0.167 HD
ATOM     66  C   UNL     1     -11.777 -13.542 -17.125  1.00  0.00     0.074 A 
ATOM     67  C   UNL     1     -11.395 -14.936 -17.037  1.00  0.00     0.031 C 
ATOM     68  C   UNL     1     -12.779 -13.076 -17.911  1.00  0.00     0.037 A 
BRANCH  55  69
ATOM     69  C   UNL     1     -13.736  -6.976 -17.497  1.00  0.00     0.058 A 
ATOM     70  C   UNL     1     -13.166  -5.964 -18.286  1.00  0.00     0.135 A 
ATOM     71  C   UNL     1     -15.093  -6.853 -17.158  1.00  0.00     0.135 A 
ATOM     72  F   UNL     1     -11.867  -6.020 -18.623  1.00  0.00    -0.206 F 
ATOM     73  C   UNL     1     -13.905  -4.862 -18.703  1.00  0.00     0.059 A 
ATOM     74  C   UNL     1     -15.861  -5.775 -17.590  1.00  0.00     0.059 A 
ATOM     75  F   UNL     1     -15.690  -7.788 -16.402  1.00  0.00    -0.206 F 
ATOM     76  C   UNL     1     -15.254  -4.778 -18.352  1.00  0.00     0.060 A 
BRANCH  76  77
ATOM     77  S   UNL     1     -16.201  -3.347 -18.912  1.00  0.00     0.124 S 
ATOM     78  O   UNL     1     -15.633  -2.282 -18.091  1.00  0.00    -0.237 OA
ATOM     79  O   UNL     1     -15.872  -3.295 -20.333  1.00  0.00    -0.237 OA
ATOM     80  O   UNL     1     -17.580  -3.708 -18.603  1.00  0.00    -0.744 OA
ENDBRANCH  76  77
ENDBRANCH  55  69
BRANCH  56  81
ATOM     81  C   UNL     1      -8.171 -14.688 -14.314  1.00  0.00     0.058 A 
ATOM     82  C   UNL     1      -7.354 -15.418 -15.190  1.00  0.00     0.135 A 
ATOM     83  C   UNL     1      -8.218 -15.101 -12.972  1.00  0.00     0.135 A 
ATOM     84  F   UNL     1      -7.280 -15.069 -16.484  1.00  0.00    -0.206 F 
ATOM     85  C   UNL     1      -6.634 -16.529 -14.764  1.00  0.00     0.059 A 
ATOM     86  C   UNL     1      -7.484 -16.192 -12.515  1.00  0.00     0.059 A 
ATOM     87  F   UNL     1      -8.974 -14.432 -12.088  1.00  0.00    -0.206 F 
ATOM     88  C   UNL     1      -6.706 -16.909 -13.422  1.00  0.00     0.060 A 
BRANCH  88  89
ATOM     89  S   UNL     1      -5.750 -18.340 -12.878  1.00  0.00     0.124 S 
ATOM     90  O   UNL     1      -6.481 -19.436 -13.502  1.00  0.00    -0.237 OA
ATOM     91  O   UNL     1      -4.430 -18.055 -13.432  1.00  0.00    -0.237 OA
ATOM     92  O   UNL     1      -5.839 -18.270 -11.422  1.00  0.00    -0.744 OA
ENDBRANCH  88  89
ENDBRANCH  56  81
BRANCH  68  93
ATOM     93  C   UNL     1     -13.485 -14.054 -18.810  1.00  0.00     0.058 A 
ATOM     94  C   UNL     1     -14.405 -14.991 -18.317  1.00  0.00     0.135 A 
ATOM     95  C   UNL     1     -13.311 -13.973 -20.202  1.00  0.00     0.135 A 
ATOM     96  F   UNL     1     -14.603 -15.115 -16.995  1.00  0.00    -0.206 F 
ATOM     97  C   UNL     1     -15.127 -15.817 -19.174  1.00  0.00     0.059 A 
ATOM     98  C   UNL     1     -14.043 -14.768 -21.078  1.00  0.00     0.059 A 
ATOM     99  F   UNL     1     -12.449 -13.087 -20.725  1.00  0.00    -0.206 F 
ATOM    100  C   UNL     1     -14.948 -15.689 -20.553  1.00  0.00     0.060 A 
BRANCH 100 101
ATOM    101  S   UNL     1     -15.951 -16.710 -21.654  1.00  0.00     0.124 S 
ATOM    102  O   UNL     1     -15.364 -18.030 -21.449  1.00  0.00    -0.237 OA
ATOM    103  O   UNL     1     -17.294 -16.522 -21.114  1.00  0.00    -0.237 OA
ATOM    104  O   UNL     1     -15.722 -16.119 -22.970  1.00  0.00    -0.744 OA
ENDBRANCH 100 101
ENDBRANCH  68  93
ENDBRANCH  42  43
ENDBRANCH  35  37
ENDBRANCH  34  35
ENDBRANCH  33  34
ENDBRANCH  32  33
ENDBRANCH   1  32
TORSDOF 21
