REMARK SMILES O=C(N[C@@H](Cc1c[nH]c2ccccc12)C(=O)N[C@@H](CS)C(=O)N[C@@H](CO)C(=O)OCCOCCOC(=O)c1ccc(-c2c3nc(c(-c4c(F)cc(S(=O)(=O)[O-])cc4F)c4ccc([nH]4)c(-c4c(F)cc(S(=O)(=O)[O-])cc4F)c4nc(c(-c5c(F)cc(S(=O)(=O)[O-])cc5F)c5ccc2[nH]5)C=C4)C=C3)cc1)c1ccc(F)cc1
REMARK SMILES IDX 30 1 29 2 27 3 28 4 24 5 23 6 21 7 22 8 18 10 17 11 15 12
REMARK SMILES IDX 16 13 4 15 3 16 1 17 2 18 104 20 105 21 110 22 106 23 109 24
REMARK SMILES IDX 107 25 108 26 5 27 6 28 7 29 14 30 8 31 9 32 13 33 10 35
REMARK SMILES IDX 12 36 11 37 19 38 20 39 25 41 26 42 31 44 32 45 33 46 34 47
REMARK SMILES IDX 35 48 36 49 37 50 38 51 39 52 103 53 40 54 102 55 41 56
REMARK SMILES IDX 42 57 43 58 96 59 44 60 101 61 95 62 97 63 45 64 100 65
REMARK SMILES IDX 94 66 93 67 46 69 80 70 59 71 79 72 60 73 63 74 78 75 98 76
REMARK SMILES IDX 61 77 62 78 77 80 99 81 64 82 47 83 48 84 57 85 49 86 50 87
REMARK SMILES IDX 56 88 58 89 51 90 52 91 53 92 54 93 55 94 81 95 82 96 91 97
REMARK SMILES IDX 83 98 84 99 90 100 92 101 85 102 86 103 87 104 88 105 89 106
REMARK SMILES IDX 65 107 66 108 75 109 67 110 68 111 74 112 76 113 69 114
REMARK SMILES IDX 70 115 71 116 72 117 73 118
REMARK H PARENT 23 9 17 14 3 19 8 34 20 40 26 43 97 68 63 79
REMARK Flexibility Score: inf
ROOT
ATOM      1  C   UNL     1       3.370  -9.249   4.930  1.00  0.00     0.261 C 
ENDROOT
BRANCH   1   2
ATOM      2  O   UNL     1       4.169  -8.139   4.494  1.00  0.00    -0.462 OA
BRANCH   2   3
ATOM      3  C   UNL     1       4.641  -8.216   3.220  1.00  0.00     0.331 C 
ATOM      4  O   UNL     1       4.630  -9.225   2.526  1.00  0.00    -0.250 OA
BRANCH   3   5
ATOM      5  C   UNL     1       5.232  -6.880   2.761  1.00  0.00     0.218 C 
BRANCH   5   6
ATOM      6  N   UNL     1       4.810  -5.734   3.605  1.00  0.00    -0.339 N 
ATOM      7  C   UNL     1       5.149  -4.466   3.239  1.00  0.00     0.244 C 
ATOM      8  O   UNL     1       6.304  -4.107   3.483  1.00  0.00    -0.273 OA
ATOM      9  H   UNL     1       4.287  -5.890   4.424  1.00  0.00     0.164 HD
BRANCH   7  10
ATOM     10  C   UNL     1       4.130  -3.565   2.469  1.00  0.00     0.181 C 
BRANCH  10  11
ATOM     11  N   UNL     1       4.798  -3.112   1.244  1.00  0.00    -0.342 N 
ATOM     12  C   UNL     1       5.263  -1.875   0.906  1.00  0.00     0.243 C 
ATOM     13  O   UNL     1       6.255  -1.853   0.165  1.00  0.00    -0.273 OA
ATOM     14  H   UNL     1       4.931  -3.808   0.560  1.00  0.00     0.164 HD
BRANCH  12  15
ATOM     15  C   UNL     1       4.605  -0.537   1.337  1.00  0.00     0.176 C 
BRANCH  15  16
ATOM     16  N   UNL     1       3.148  -0.568   1.181  1.00  0.00    -0.340 N 
ATOM     17  O   UNL     1       1.167  -0.148   0.177  1.00  0.00    -0.269 OA
ATOM     18  C   UNL     1       2.389  -0.029   0.165  1.00  0.00     0.251 C 
ATOM     19  H   UNL     1       2.649  -1.031   1.892  1.00  0.00     0.164 HD
BRANCH  18  20
ATOM     20  C   UNL     1       3.022   0.780  -0.908  1.00  0.00     0.040 A 
ATOM     21  C   UNL     1       3.997   0.253  -1.765  1.00  0.00     0.017 A 
ATOM     22  C   UNL     1       2.617   2.116  -1.046  1.00  0.00     0.017 A 
ATOM     23  C   UNL     1       4.618   1.082  -2.704  1.00  0.00     0.040 A 
ATOM     24  C   UNL     1       3.231   2.937  -1.995  1.00  0.00     0.040 A 
ATOM     25  C   UNL     1       4.235   2.417  -2.805  1.00  0.00     0.123 A 
ATOM     26  F   UNL     1       4.842   3.212  -3.696  1.00  0.00    -0.207 F 
ENDBRANCH  18  20
ENDBRANCH  15  16
BRANCH  15  27
ATOM     27  C   UNL     1       5.115   0.205   2.584  1.00  0.00     0.072 C 
BRANCH  27  28
ATOM     28  C   UNL     1       4.945  -0.445   3.916  1.00  0.00    -0.020 A 
ATOM     29  C   UNL     1       5.811  -1.376   4.450  1.00  0.00     0.087 A 
ATOM     30  C   UNL     1       3.983  -0.163   4.942  1.00  0.00     0.003 A 
ATOM     31  N   UNL     1       5.300  -1.823   5.636  1.00  0.00    -0.361 N 
ATOM     32  C   UNL     1       4.191  -1.085   5.972  1.00  0.00     0.046 A 
ATOM     33  C   UNL     1       2.966   0.799   5.110  1.00  0.00     0.010 A 
ATOM     34  H   UNL     1       5.671  -2.562   6.170  1.00  0.00     0.166 HD
ATOM     35  C   UNL     1       3.392  -1.145   7.119  1.00  0.00     0.026 A 
ATOM     36  C   UNL     1       2.201   0.798   6.286  1.00  0.00     0.001 A 
ATOM     37  C   UNL     1       2.399  -0.174   7.264  1.00  0.00     0.002 A 
ENDBRANCH  27  28
ENDBRANCH  15  27
ENDBRANCH  12  15
ENDBRANCH  10  11
BRANCH  10  38
ATOM     38  C   UNL     1       2.704  -4.089   2.266  1.00  0.00     0.101 C 
BRANCH  38  39
ATOM     39  S   UNL     1       2.476  -5.457   1.091  1.00  0.00    -0.177 SA
ATOM     40  H   UNL     1       2.811  -5.041  -0.159  1.00  0.00     0.102 HD
ENDBRANCH  38  39
ENDBRANCH  10  38
ENDBRANCH   7  10
ENDBRANCH   5   6
BRANCH   5  41
ATOM     41  C   UNL     1       6.761  -7.030   2.719  1.00  0.00     0.193 C 
BRANCH  41  42
ATOM     42  O   UNL     1       7.319  -6.870   4.024  1.00  0.00    -0.394 OA
ATOM     43  H   UNL     1       7.107  -5.985   4.360  1.00  0.00     0.210 HD
ENDBRANCH  41  42
ENDBRANCH   5  41
ENDBRANCH   3   5
ENDBRANCH   2   3
ENDBRANCH   1   2
BRANCH   1  44
ATOM     44  C   UNL     1       2.328  -8.765   5.941  1.00  0.00     0.202 C 
BRANCH  44  45
ATOM     45  O   UNL     1       1.318  -7.885   5.437  1.00  0.00    -0.374 OA
BRANCH  45  46
ATOM     46  C   UNL     1       1.714  -6.564   5.082  1.00  0.00     0.202 C 
BRANCH  46  47
ATOM     47  C   UNL     1       1.920  -5.557   6.225  1.00  0.00     0.261 C 
BRANCH  47  48
ATOM     48  O   UNL     1       2.849  -6.007   7.224  1.00  0.00    -0.460 OA
BRANCH  48  49
ATOM     49  C   UNL     1       2.268  -6.355   8.399  1.00  0.00     0.338 C 
ATOM     50  O   UNL     1       1.088  -6.226   8.707  1.00  0.00    -0.246 OA
BRANCH  49  51
ATOM     51  C   UNL     1       3.221  -7.087   9.247  1.00  0.00     0.060 A 
ATOM     52  C   UNL     1       2.891  -8.402   9.596  1.00  0.00     0.016 A 
ATOM     53  C   UNL     1       4.364  -6.477   9.768  1.00  0.00     0.016 A 
ATOM     54  C   UNL     1       3.685  -9.102  10.498  1.00  0.00     0.010 A 
ATOM     55  C   UNL     1       5.157  -7.181  10.684  1.00  0.00     0.010 A 
ATOM     56  C   UNL     1       4.801  -8.483  11.078  1.00  0.00    -0.014 A 
BRANCH  56  57
ATOM     57  C   UNL     1       5.494  -9.169  12.195  1.00  0.00     0.031 A 
ATOM     58  C   UNL     1       5.152  -8.795  13.611  1.00  0.00     0.074 A 
ATOM     59  C   UNL     1       6.353 -10.174  11.948  1.00  0.00     0.049 A 
ATOM     60  N   UNL     1       5.564  -9.326  14.733  1.00  0.00    -0.248 NA
ATOM     61  C   UNL     1       4.215  -7.673  13.784  1.00  0.00     0.031 C 
ATOM     62  C   UNL     1       6.732 -10.650  10.618  1.00  0.00     0.029 A 
ATOM     63  N   UNL     1       7.045 -10.987  12.808  1.00  0.00    -0.354 N 
ATOM     64  C   UNL     1       4.930  -8.614  15.745  1.00  0.00     0.074 A 
ATOM     65  C   UNL     1       4.143  -7.582  15.103  1.00  0.00     0.031 C 
ATOM     66  C   UNL     1       7.576 -11.687  10.752  1.00  0.00     0.029 A 
ATOM     67  C   UNL     1       7.812 -11.934  12.173  1.00  0.00     0.049 A 
ATOM     68  H   UNL     1       6.996 -10.901  13.788  1.00  0.00     0.167 HD
ATOM     69  C   UNL     1       4.985  -8.811  17.085  1.00  0.00     0.037 A 
ATOM     70  C   UNL     1       8.609 -12.893  12.683  1.00  0.00     0.037 A 
ATOM     71  C   UNL     1       5.786  -9.827  17.719  1.00  0.00     0.049 A 
ATOM     72  C   UNL     1       8.711 -13.048  14.177  1.00  0.00     0.074 A 
ATOM     73  C   UNL     1       5.918 -10.107  19.067  1.00  0.00     0.029 A 
ATOM     74  N   UNL     1       6.602 -10.725  17.044  1.00  0.00    -0.354 N 
ATOM     75  N   UNL     1       8.095 -12.377  15.122  1.00  0.00    -0.248 NA
ATOM     76  C   UNL     1       9.612 -14.098  14.671  1.00  0.00     0.031 C 
ATOM     77  C   UNL     1       6.848 -11.145  19.211  1.00  0.00     0.029 A 
ATOM     78  C   UNL     1       7.258 -11.546  17.949  1.00  0.00     0.049 A 
ATOM     79  H   UNL     1       6.700 -10.773  16.066  1.00  0.00     0.167 HD
ATOM     80  C   UNL     1       8.515 -12.940  16.323  1.00  0.00     0.074 A 
ATOM     81  C   UNL     1       9.425 -14.015  15.981  1.00  0.00     0.031 C 
ATOM     82  C   UNL     1       8.174 -12.602  17.593  1.00  0.00     0.037 A 
BRANCH  69  83
ATOM     83  C   UNL     1       4.176  -7.878  17.946  1.00  0.00     0.058 A 
ATOM     84  C   UNL     1       2.772  -7.923  17.968  1.00  0.00     0.135 A 
ATOM     85  C   UNL     1       4.810  -6.910  18.741  1.00  0.00     0.135 A 
ATOM     86  F   UNL     1       2.112  -8.818  17.215  1.00  0.00    -0.206 F 
ATOM     87  C   UNL     1       2.025  -7.011  18.709  1.00  0.00     0.059 A 
ATOM     88  C   UNL     1       4.083  -6.006  19.512  1.00  0.00     0.059 A 
ATOM     89  F   UNL     1       6.149  -6.821  18.760  1.00  0.00    -0.206 F 
ATOM     90  C   UNL     1       2.691  -6.049  19.469  1.00  0.00     0.060 A 
BRANCH  90  91
ATOM     91  S   UNL     1       1.711  -4.841  20.387  1.00  0.00     0.124 S 
ATOM     92  O   UNL     1       1.252  -3.965  19.313  1.00  0.00    -0.237 OA
ATOM     93  O   UNL     1       0.685  -5.674  21.007  1.00  0.00    -0.237 OA
ATOM     94  O   UNL     1       2.677  -4.252  21.309  1.00  0.00    -0.744 OA
ENDBRANCH  90  91
ENDBRANCH  69  83
BRANCH  70  95
ATOM     95  C   UNL     1       9.350 -13.800  11.766  1.00  0.00     0.058 A 
ATOM     96  C   UNL     1       8.986 -15.148  11.636  1.00  0.00     0.135 A 
ATOM     97  C   UNL     1      10.416 -13.330  10.984  1.00  0.00     0.135 A 
ATOM     98  F   UNL     1       7.981 -15.646  12.372  1.00  0.00    -0.206 F 
ATOM     99  C   UNL     1       9.653 -16.000  10.762  1.00  0.00     0.059 A 
ATOM    100  C   UNL     1      11.083 -14.157  10.086  1.00  0.00     0.059 A 
ATOM    101  F   UNL     1      10.796 -12.046  11.067  1.00  0.00    -0.206 F 
ATOM    102  C   UNL     1      10.696 -15.493   9.985  1.00  0.00     0.060 A 
BRANCH 102 103
ATOM    103  S   UNL     1      11.503 -16.589   8.798  1.00  0.00     0.124 S 
ATOM    104  O   UNL     1      12.283 -17.452   9.677  1.00  0.00    -0.237 OA
ATOM    105  O   UNL     1      10.363 -17.214   8.136  1.00  0.00    -0.237 OA
ATOM    106  O   UNL     1      12.275 -15.671   7.966  1.00  0.00    -0.744 OA
ENDBRANCH 102 103
ENDBRANCH  70  95
BRANCH  82 107
ATOM    107  C   UNL     1       8.777 -13.422  18.702  1.00  0.00     0.058 A 
ATOM    108  C   UNL     1      10.138 -13.330  19.034  1.00  0.00     0.135 A 
ATOM    109  C   UNL     1       7.981 -14.311  19.444  1.00  0.00     0.135 A 
ATOM    110  F   UNL     1      10.944 -12.498  18.356  1.00  0.00    -0.206 F 
ATOM    111  C   UNL     1      10.699 -14.124  20.030  1.00  0.00     0.059 A 
ATOM    112  C   UNL     1       8.515 -15.093  20.463  1.00  0.00     0.059 A 
ATOM    113  F   UNL     1       6.671 -14.428  19.179  1.00  0.00    -0.206 F 
ATOM    114  C   UNL     1       9.880 -15.009  20.734  1.00  0.00     0.060 A 
BRANCH 114 115
ATOM    115  S   UNL     1      10.620 -16.045  22.014  1.00  0.00     0.124 S 
ATOM    116  O   UNL     1      11.300 -17.058  21.214  1.00  0.00    -0.237 OA
ATOM    117  O   UNL     1      11.488 -15.105  22.718  1.00  0.00    -0.237 OA
ATOM    118  O   UNL     1       9.467 -16.515  22.777  1.00  0.00    -0.744 OA
ENDBRANCH 114 115
ENDBRANCH  82 107
ENDBRANCH  56  57
ENDBRANCH  49  51
ENDBRANCH  48  49
ENDBRANCH  47  48
ENDBRANCH  46  47
ENDBRANCH  45  46
ENDBRANCH  44  45
ENDBRANCH   1  44
TORSDOF 29
