REMARK SMILES Cc1cc(C(=O)OCCOCCOC(=O)c2ccc(-c3c4nc(c(-c5c(F)cc(S(=O)(=O)[O-])cc5F)c5ccc([nH]5)c(-c5c(F)cc(S(=O)(=O)[O-])cc5F)c5nc(c(-c6c(F)cc(S(=O)(=O)[O-])cc6F)c6ccc3[nH]6)C=C5)C=C4)cc2)ccc1NS(=O)(=O)c1ccc(C#N)cc1C
REMARK SMILES IDX 9 1 8 2 7 3 5 4 6 5 4 6 1 7 2 8 3 9 84 10 83 11 82 12 85 13
REMARK SMILES IDX 86 15 87 16 88 17 89 18 90 19 96 20 91 21 95 22 97 23 92 24
REMARK SMILES IDX 93 25 94 26 10 27 11 28 12 29 13 30 14 31 15 32 16 33 17 34
REMARK SMILES IDX 81 35 18 36 80 37 19 38 20 39 21 40 74 41 22 42 79 43 73 44
REMARK SMILES IDX 75 45 23 46 78 47 72 48 71 49 24 51 58 52 37 53 57 54 38 55
REMARK SMILES IDX 41 56 56 57 76 58 39 59 40 60 55 62 77 63 42 64 25 65 26 66
REMARK SMILES IDX 35 67 27 68 28 69 34 70 36 71 29 72 30 73 31 74 32 75 33 76
REMARK SMILES IDX 59 77 60 78 69 79 61 80 62 81 68 82 70 83 63 84 64 85 65 86
REMARK SMILES IDX 66 87 67 88 43 89 44 90 53 91 45 92 46 93 52 94 54 95 47 96
REMARK SMILES IDX 48 97 49 98 50 99 51 100
REMARK H PARENT 85 14 75 50 41 61
REMARK Flexibility Score: inf
ROOT
ATOM      1  C   UNL     1      -3.032  -2.477  -2.248  1.00  0.00     0.202 C 
ENDROOT
BRANCH   1   2
ATOM      2  C   UNL     1      -3.599  -2.176  -0.903  1.00  0.00     0.261 C 
BRANCH   2   3
ATOM      3  O   UNL     1      -2.690  -1.486  -0.004  1.00  0.00    -0.460 OA
BRANCH   3   4
ATOM      4  C   UNL     1      -1.411  -1.921   0.143  1.00  0.00     0.338 C 
ATOM      5  O   UNL     1      -1.010  -2.928   0.692  1.00  0.00    -0.246 OA
BRANCH   4   6
ATOM      6  C   UNL     1      -0.544  -0.815  -0.279  1.00  0.00     0.060 A 
ATOM      7  C   UNL     1       2.960   0.414   0.235  1.00  0.00     0.046 C 
ATOM      8  C   UNL     1       1.477   0.432   0.007  1.00  0.00    -0.026 A 
ATOM      9  C   UNL     1       0.770  -0.760   0.169  1.00  0.00     0.021 A 
ATOM     10  C   UNL     1       0.786   1.560  -0.479  1.00  0.00     0.052 A 
ATOM     11  C   UNL     1      -0.357   1.389  -1.237  1.00  0.00     0.028 A 
ATOM     12  C   UNL     1      -1.051   0.204  -1.093  1.00  0.00     0.018 A 
BRANCH  10  13
ATOM     13  N   UNL     1       1.069   2.809   0.132  1.00  0.00    -0.279 N 
ATOM     14  H   UNL     1       1.908   2.851   0.646  1.00  0.00     0.180 HD
BRANCH  13  15
ATOM     15  S   UNL     1       0.172   4.219   0.099  1.00  0.00     0.262 S 
ATOM     16  O   UNL     1       0.624   4.948   1.269  1.00  0.00    -0.201 OA
ATOM     17  O   UNL     1       0.337   4.782  -1.227  1.00  0.00    -0.201 OA
BRANCH  15  18
ATOM     18  C   UNL     1      -1.609   4.000   0.331  1.00  0.00     0.090 A 
ATOM     19  C   UNL     1      -2.197   2.777   0.681  1.00  0.00     0.024 A 
ATOM     20  C   UNL     1      -2.456   5.085   0.001  1.00  0.00    -0.029 A 
ATOM     21  C   UNL     1      -3.583   2.571   0.511  1.00  0.00     0.021 A 
ATOM     22  C   UNL     1      -3.841   4.866  -0.147  1.00  0.00     0.024 A 
ATOM     23  C   UNL     1      -1.998   6.514  -0.113  1.00  0.00     0.046 C 
ATOM     24  C   UNL     1      -4.403   3.607   0.062  1.00  0.00     0.052 A 
BRANCH  24  25
ATOM     25  C   UNL     1      -5.815   3.428  -0.167  1.00  0.00     0.099 C 
ATOM     26  N   UNL     1      -6.949   3.369  -0.374  1.00  0.00    -0.192 NA
ENDBRANCH  24  25
ENDBRANCH  15  18
ENDBRANCH  13  15
ENDBRANCH  10  13
ENDBRANCH   4   6
ENDBRANCH   3   4
ENDBRANCH   2   3
ENDBRANCH   1   2
BRANCH   1  27
ATOM     27  O   UNL     1      -1.858  -3.235  -2.008  1.00  0.00    -0.374 OA
BRANCH  27  28
ATOM     28  C   UNL     1      -1.030  -3.438  -3.123  1.00  0.00     0.202 C 
BRANCH  28  29
ATOM     29  C   UNL     1      -1.791  -4.067  -4.289  1.00  0.00     0.261 C 
BRANCH  29  30
ATOM     30  O   UNL     1      -2.110  -5.461  -4.037  1.00  0.00    -0.460 OA
BRANCH  30  31
ATOM     31  C   UNL     1      -3.377  -5.786  -3.621  1.00  0.00     0.338 C 
ATOM     32  O   UNL     1      -4.273  -6.095  -4.388  1.00  0.00    -0.246 OA
BRANCH  31  33
ATOM     33  C   UNL     1      -3.460  -5.907  -2.134  1.00  0.00     0.060 A 
ATOM     34  C   UNL     1      -4.678  -5.831  -1.429  1.00  0.00     0.016 A 
ATOM     35  C   UNL     1      -2.269  -5.947  -1.425  1.00  0.00     0.016 A 
ATOM     36  C   UNL     1      -4.688  -5.604  -0.038  1.00  0.00     0.010 A 
ATOM     37  C   UNL     1      -2.279  -5.600  -0.094  1.00  0.00     0.010 A 
ATOM     38  C   UNL     1      -3.478  -5.392   0.611  1.00  0.00    -0.014 A 
BRANCH  38  39
ATOM     39  C   UNL     1      -3.263  -4.957   1.998  1.00  0.00     0.031 A 
ATOM     40  C   UNL     1      -2.495  -5.899   2.845  1.00  0.00     0.074 A 
ATOM     41  C   UNL     1      -3.410  -3.654   2.358  1.00  0.00     0.049 A 
ATOM     42  N   UNL     1      -2.172  -5.660   4.058  1.00  0.00    -0.248 NA
ATOM     43  C   UNL     1      -2.026  -7.218   2.403  1.00  0.00     0.031 C 
ATOM     44  C   UNL     1      -2.689  -2.873   3.372  1.00  0.00     0.029 A 
ATOM     45  N   UNL     1      -4.229  -2.673   1.796  1.00  0.00    -0.354 N 
ATOM     46  C   UNL     1      -1.212  -6.568   4.436  1.00  0.00     0.074 A 
ATOM     47  C   UNL     1      -1.250  -7.590   3.427  1.00  0.00     0.031 C 
ATOM     48  C   UNL     1      -3.303  -1.685   3.563  1.00  0.00     0.029 A 
ATOM     49  C   UNL     1      -4.509  -1.688   2.749  1.00  0.00     0.049 A 
ATOM     50  H   UNL     1      -4.559  -2.674   0.869  1.00  0.00     0.167 HD
ATOM     51  C   UNL     1      -0.439  -6.239   5.507  1.00  0.00     0.037 A 
ATOM     52  C   UNL     1      -5.799  -1.478   3.121  1.00  0.00     0.037 A 
ATOM     53  C   UNL     1      -0.986  -5.027   6.139  1.00  0.00     0.049 A 
ATOM     54  C   UNL     1      -5.877  -1.979   4.532  1.00  0.00     0.074 A 
ATOM     55  C   UNL     1      -0.600  -3.699   6.160  1.00  0.00     0.029 A 
ATOM     56  N   UNL     1      -2.316  -5.051   6.563  1.00  0.00    -0.354 N 
ATOM     57  N   UNL     1      -5.103  -2.936   4.978  1.00  0.00    -0.248 NA
ATOM     58  C   UNL     1      -6.606  -1.291   5.591  1.00  0.00     0.031 C 
ATOM     59  C   UNL     1      -1.755  -2.922   6.497  1.00  0.00     0.029 A 
ATOM     60  C   UNL     1      -2.836  -3.776   6.689  1.00  0.00     0.049 A 
ATOM     61  H   UNL     1      -2.822  -5.875   6.749  1.00  0.00     0.167 HD
ATOM     62  C   UNL     1      -5.077  -2.877   6.335  1.00  0.00     0.074 A 
ATOM     63  C   UNL     1      -6.082  -1.882   6.679  1.00  0.00     0.031 C 
ATOM     64  C   UNL     1      -4.221  -3.590   7.118  1.00  0.00     0.037 A 
BRANCH  51  65
ATOM     65  C   UNL     1       0.869  -6.885   5.920  1.00  0.00     0.058 A 
ATOM     66  C   UNL     1       1.518  -6.441   7.094  1.00  0.00     0.135 A 
ATOM     67  C   UNL     1       1.583  -7.872   5.201  1.00  0.00     0.135 A 
ATOM     68  F   UNL     1       0.974  -5.494   7.872  1.00  0.00    -0.206 F 
ATOM     69  C   UNL     1       2.756  -6.930   7.518  1.00  0.00     0.059 A 
ATOM     70  C   UNL     1       2.807  -8.403   5.625  1.00  0.00     0.059 A 
ATOM     71  F   UNL     1       1.163  -8.344   4.023  1.00  0.00    -0.206 F 
ATOM     72  C   UNL     1       3.393  -7.919   6.783  1.00  0.00     0.060 A 
BRANCH  72  73
ATOM     73  S   UNL     1       4.982  -8.547   7.356  1.00  0.00     0.124 S 
ATOM     74  O   UNL     1       5.833  -7.367   7.240  1.00  0.00    -0.237 OA
ATOM     75  O   UNL     1       4.671  -8.977   8.715  1.00  0.00    -0.237 OA
ATOM     76  O   UNL     1       5.284  -9.625   6.417  1.00  0.00    -0.744 OA
ENDBRANCH  72  73
ENDBRANCH  51  65
BRANCH  52  77
ATOM     77  C   UNL     1      -6.736  -1.613   1.950  1.00  0.00     0.058 A 
ATOM     78  C   UNL     1      -6.717  -0.553   1.010  1.00  0.00     0.135 A 
ATOM     79  C   UNL     1      -7.165  -2.861   1.465  1.00  0.00     0.135 A 
ATOM     80  F   UNL     1      -6.284   0.661   1.391  1.00  0.00    -0.206 F 
ATOM     81  C   UNL     1      -6.958  -0.746  -0.355  1.00  0.00     0.059 A 
ATOM     82  C   UNL     1      -7.382  -3.082   0.092  1.00  0.00     0.059 A 
ATOM     83  F   UNL     1      -7.203  -3.922   2.284  1.00  0.00    -0.206 F 
ATOM     84  C   UNL     1      -7.222  -2.033  -0.817  1.00  0.00     0.060 A 
BRANCH  84  85
ATOM     85  S   UNL     1      -7.046  -2.362  -2.602  1.00  0.00     0.124 S 
ATOM     86  O   UNL     1      -8.323  -1.906  -3.133  1.00  0.00    -0.237 OA
ATOM     87  O   UNL     1      -5.884  -1.548  -2.963  1.00  0.00    -0.237 OA
ATOM     88  O   UNL     1      -6.809  -3.799  -2.650  1.00  0.00    -0.744 OA
ENDBRANCH  84  85
ENDBRANCH  52  77
BRANCH  64  89
ATOM     89  C   UNL     1      -4.702  -4.158   8.420  1.00  0.00     0.058 A 
ATOM     90  C   UNL     1      -6.070  -4.295   8.724  1.00  0.00     0.135 A 
ATOM     91  C   UNL     1      -3.804  -4.744   9.338  1.00  0.00     0.135 A 
ATOM     92  F   UNL     1      -7.034  -3.943   7.860  1.00  0.00    -0.206 F 
ATOM     93  C   UNL     1      -6.510  -4.829   9.922  1.00  0.00     0.059 A 
ATOM     94  C   UNL     1      -4.230  -5.370  10.498  1.00  0.00     0.059 A 
ATOM     95  F   UNL     1      -2.478  -4.746   9.137  1.00  0.00    -0.206 F 
ATOM     96  C   UNL     1      -5.580  -5.350  10.809  1.00  0.00     0.060 A 
BRANCH  96  97
ATOM     97  S   UNL     1      -6.159  -5.985  12.379  1.00  0.00     0.124 S 
ATOM     98  O   UNL     1      -6.339  -4.747  13.130  1.00  0.00    -0.237 OA
ATOM     99  O   UNL     1      -7.386  -6.683  12.004  1.00  0.00    -0.237 OA
ATOM    100  O   UNL     1      -5.065  -6.843  12.821  1.00  0.00    -0.744 OA
ENDBRANCH  96  97
ENDBRANCH  64  89
ENDBRANCH  38  39
ENDBRANCH  31  33
ENDBRANCH  30  31
ENDBRANCH  29  30
ENDBRANCH  28  29
ENDBRANCH  27  28
ENDBRANCH   1  27
TORSDOF 21
