REMARK SMILES O=C(OCCOCCOC(=O)[C@@H]1C=C[C@@H]([NH+]2CC3(CC3)C2)C1)c1ccc(-c2c3nc(c(-c4c(F)cc(S(=O)(=O)[O-])cc4F)c4ccc([nH]4)c(-c4c(F)cc(S(=O)(=O)[O-])cc4F)c4nc(c(-c5c(F)cc(S(=O)(=O)[O-])cc5F)c5ccc2[nH]5)C=C4)C=C3)cc1
REMARK SMILES IDX 5 1 4 2 3 3 2 4 1 5 23 6 24 7 88 8 25 9 87 10 26 11 27 12
REMARK SMILES IDX 28 13 81 14 29 15 86 16 80 17 82 18 30 19 85 20 79 21 78 22
REMARK SMILES IDX 31 24 65 25 44 26 64 27 45 28 48 29 63 30 83 31 46 32 47 33
REMARK SMILES IDX 62 35 84 36 49 37 32 38 33 39 42 40 34 41 35 42 41 43 43 44
REMARK SMILES IDX 36 45 37 46 38 47 39 48 40 49 66 50 67 51 76 52 68 53 69 54
REMARK SMILES IDX 75 55 77 56 70 57 71 58 72 59 73 60 74 61 50 62 51 63 60 64
REMARK SMILES IDX 52 65 53 66 59 67 61 68 54 69 55 70 56 71 57 72 58 73 6 74
REMARK SMILES IDX 7 75 8 76 9 77 10 78 11 79 12 80 13 81 22 82 14 83 15 84
REMARK SMILES IDX 16 85 17 86 21 87 18 89 19 90 20 91
REMARK H PARENT 82 23 48 34 16 88
REMARK Flexibility Score: inf
ROOT
ATOM      1  C   UNL     1       7.320  -0.199   2.855  1.00  0.00     0.202 C 
ENDROOT
BRANCH   1   2
ATOM      2  C   UNL     1       8.474  -0.236   1.858  1.00  0.00     0.261 C 
BRANCH   2   3
ATOM      3  O   UNL     1       8.902  -1.583   1.653  1.00  0.00    -0.460 OA
BRANCH   3   4
ATOM      4  C   UNL     1       9.850  -2.220   2.381  1.00  0.00     0.338 C 
ATOM      5  O   UNL     1      10.003  -3.429   2.215  1.00  0.00    -0.246 OA
BRANCH   4   6
ATOM      6  C   UNL     1      10.757  -1.520   3.340  1.00  0.00     0.060 A 
ATOM      7  C   UNL     1      10.381  -0.475   4.190  1.00  0.00     0.016 A 
ATOM      8  C   UNL     1      12.053  -2.037   3.471  1.00  0.00     0.016 A 
ATOM      9  C   UNL     1      11.223   0.023   5.159  1.00  0.00     0.010 A 
ATOM     10  C   UNL     1      12.913  -1.551   4.457  1.00  0.00     0.010 A 
ATOM     11  C   UNL     1      12.476  -0.540   5.318  1.00  0.00    -0.014 A 
BRANCH  11  12
ATOM     12  C   UNL     1      13.307   0.015   6.386  1.00  0.00     0.031 A 
ATOM     13  C   UNL     1      14.377   0.978   6.008  1.00  0.00     0.074 A 
ATOM     14  C   UNL     1      12.977  -0.255   7.662  1.00  0.00     0.049 A 
ATOM     15  N   UNL     1      15.293   1.513   6.758  1.00  0.00    -0.248 NA
ATOM     16  C   UNL     1      14.413   1.408   4.597  1.00  0.00     0.031 C 
ATOM     17  C   UNL     1      11.825  -1.063   8.084  1.00  0.00     0.029 A 
ATOM     18  N   UNL     1      13.557   0.130   8.837  1.00  0.00    -0.354 N 
ATOM     19  C   UNL     1      16.052   2.300   5.905  1.00  0.00     0.074 A 
ATOM     20  C   UNL     1      15.474   2.202   4.585  1.00  0.00     0.031 C 
ATOM     21  C   UNL     1      11.793  -1.119   9.425  1.00  0.00     0.029 A 
ATOM     22  C   UNL     1      12.965  -0.430   9.945  1.00  0.00     0.049 A 
ATOM     23  H   UNL     1      14.323   0.747   8.886  1.00  0.00     0.167 HD
ATOM     24  C   UNL     1      17.154   3.011   6.220  1.00  0.00     0.037 A 
ATOM     25  C   UNL     1      13.382  -0.436  11.225  1.00  0.00     0.037 A 
ATOM     26  C   UNL     1      17.672   3.079   7.558  1.00  0.00     0.049 A 
ATOM     27  C   UNL     1      14.671   0.282  11.524  1.00  0.00     0.074 A 
ATOM     28  C   UNL     1      18.794   3.740   8.015  1.00  0.00     0.029 A 
ATOM     29  N   UNL     1      17.094   2.450   8.655  1.00  0.00    -0.354 N 
ATOM     30  N   UNL     1      15.424   0.991  10.713  1.00  0.00    -0.248 NA
ATOM     31  C   UNL     1      15.188   0.180  12.892  1.00  0.00     0.031 C 
ATOM     32  C   UNL     1      18.929   3.459   9.378  1.00  0.00     0.029 A 
ATOM     33  C   UNL     1      17.859   2.672   9.783  1.00  0.00     0.049 A 
ATOM     34  H   UNL     1      16.262   1.925   8.631  1.00  0.00     0.167 HD
ATOM     35  C   UNL     1      16.500   1.425  11.472  1.00  0.00     0.074 A 
ATOM     36  C   UNL     1      16.282   0.925  12.817  1.00  0.00     0.031 C 
ATOM     37  C   UNL     1      17.581   2.155  11.101  1.00  0.00     0.037 A 
BRANCH  24  38
ATOM     38  C   UNL     1      17.905   3.670   5.105  1.00  0.00     0.058 A 
ATOM     39  C   UNL     1      17.443   4.830   4.467  1.00  0.00     0.135 A 
ATOM     40  C   UNL     1      19.133   3.132   4.686  1.00  0.00     0.135 A 
ATOM     41  F   UNL     1      16.254   5.358   4.798  1.00  0.00    -0.206 F 
ATOM     42  C   UNL     1      18.180   5.442   3.457  1.00  0.00     0.059 A 
ATOM     43  C   UNL     1      19.896   3.738   3.695  1.00  0.00     0.059 A 
ATOM     44  F   UNL     1      19.602   2.005   5.243  1.00  0.00    -0.206 F 
ATOM     45  C   UNL     1      19.411   4.894   3.086  1.00  0.00     0.060 A 
BRANCH  45  46
ATOM     46  S   UNL     1      20.382   5.733   1.818  1.00  0.00     0.124 S 
ATOM     47  O   UNL     1      19.592   5.468   0.619  1.00  0.00    -0.237 OA
ATOM     48  O   UNL     1      20.376   7.115   2.288  1.00  0.00    -0.237 OA
ATOM     49  O   UNL     1      21.676   5.060   1.877  1.00  0.00    -0.744 OA
ENDBRANCH  45  46
ENDBRANCH  24  38
BRANCH  25  50
ATOM     50  C   UNL     1      12.663  -1.226  12.264  1.00  0.00     0.058 A 
ATOM     51  C   UNL     1      12.107  -0.615  13.396  1.00  0.00     0.135 A 
ATOM     52  C   UNL     1      12.558  -2.625  12.168  1.00  0.00     0.135 A 
ATOM     53  F   UNL     1      12.179   0.717  13.543  1.00  0.00    -0.206 F 
ATOM     54  C   UNL     1      11.513  -1.360  14.413  1.00  0.00     0.059 A 
ATOM     55  C   UNL     1      11.939  -3.388  13.152  1.00  0.00     0.059 A 
ATOM     56  F   UNL     1      13.061  -3.269  11.102  1.00  0.00    -0.206 F 
ATOM     57  C   UNL     1      11.442  -2.749  14.284  1.00  0.00     0.060 A 
BRANCH  57  58
ATOM     58  S   UNL     1      10.696  -3.711  15.617  1.00  0.00     0.124 S 
ATOM     59  O   UNL     1      11.720  -3.619  16.652  1.00  0.00    -0.237 OA
ATOM     60  O   UNL     1       9.461  -2.977  15.874  1.00  0.00    -0.237 OA
ATOM     61  O   UNL     1      10.519  -5.032  15.021  1.00  0.00    -0.744 OA
ENDBRANCH  57  58
ENDBRANCH  25  50
BRANCH  37  62
ATOM     62  C   UNL     1      18.588   2.461  12.168  1.00  0.00     0.058 A 
ATOM     63  C   UNL     1      19.464   1.475  12.645  1.00  0.00     0.135 A 
ATOM     64  C   UNL     1      18.732   3.771  12.649  1.00  0.00     0.135 A 
ATOM     65  F   UNL     1      19.354   0.207  12.220  1.00  0.00    -0.206 F 
ATOM     66  C   UNL     1      20.448   1.778  13.576  1.00  0.00     0.059 A 
ATOM     67  C   UNL     1      19.731   4.103  13.554  1.00  0.00     0.059 A 
ATOM     68  F   UNL     1      17.921   4.747  12.210  1.00  0.00    -0.206 F 
ATOM     69  C   UNL     1      20.580   3.098  14.015  1.00  0.00     0.060 A 
BRANCH  69  70
ATOM     70  S   UNL     1      21.908   3.489  15.170  1.00  0.00     0.124 S 
ATOM     71  O   UNL     1      21.415   2.881  16.401  1.00  0.00    -0.237 OA
ATOM     72  O   UNL     1      23.058   2.833  14.555  1.00  0.00    -0.237 OA
ATOM     73  O   UNL     1      21.947   4.948  15.161  1.00  0.00    -0.744 OA
ENDBRANCH  69  70
ENDBRANCH  37  62
ENDBRANCH  11  12
ENDBRANCH   4   6
ENDBRANCH   3   4
ENDBRANCH   2   3
ENDBRANCH   1   2
BRANCH   1  74
ATOM     74  O   UNL     1       7.581  -0.854   4.089  1.00  0.00    -0.374 OA
BRANCH  74  75
ATOM     75  C   UNL     1       7.126  -2.191   4.260  1.00  0.00     0.202 C 
BRANCH  75  76
ATOM     76  C   UNL     1       6.199  -2.221   5.477  1.00  0.00     0.261 C 
BRANCH  76  77
ATOM     77  O   UNL     1       5.065  -1.393   5.180  1.00  0.00    -0.463 OA
BRANCH  77  78
ATOM     78  C   UNL     1       5.273  -0.047   5.347  1.00  0.00     0.313 C 
ATOM     79  O   UNL     1       6.068   0.472   6.110  1.00  0.00    -0.252 OA
BRANCH  78  80
ATOM     80  C   UNL     1       4.316   0.684   4.425  1.00  0.00     0.128 C 
ATOM     81  C   UNL     1       4.797   1.887   3.679  1.00  0.00    -0.010 C 
ATOM     82  C   UNL     1       3.181   1.216   5.281  1.00  0.00     0.089 C 
ATOM     83  C   UNL     1       4.140   2.996   4.018  1.00  0.00     0.033 C 
ATOM     84  C   UNL     1       3.126   2.746   5.085  1.00  0.00     0.208 C 
BRANCH  84  85
ATOM     85  N   UNL     1       1.846   3.377   4.739  1.00  0.00    -0.328 N 
ATOM     86  C   UNL     1       0.988   2.559   3.864  1.00  0.00     0.275 C 
ATOM     87  C   UNL     1       0.881   3.249   5.843  1.00  0.00     0.275 C 
ATOM     88  H   UNL     1       2.158   4.289   4.407  1.00  0.00     0.348 HD
ATOM     89  C   UNL     1       0.257   2.143   5.084  1.00  0.00     0.068 C 
ATOM     90  C   UNL     1       0.022   0.755   5.618  1.00  0.00     0.020 C 
ATOM     91  C   UNL     1      -1.131   1.606   5.174  1.00  0.00     0.020 C 
ENDBRANCH  84  85
ENDBRANCH  78  80
ENDBRANCH  77  78
ENDBRANCH  76  77
ENDBRANCH  75  76
ENDBRANCH  74  75
ENDBRANCH   1  74
TORSDOF 18
