REMARK SMILES C[C@H](NC(=O)N1CC[C@@H](C(=O)OCCOCCOC(=O)c2ccc(-c3c4nc(c(-c5c(F)cc(S(=O)(=O)[O-])cc5F)c5ccc([nH]5)c(-c5c(F)cc(S(=O)(=O)[O-])cc5F)c5nc(c(-c6c(F)cc(S(=O)(=O)[O-])cc6F)c6ccc3[nH]6)C=C5)C=C4)cc2)[C@H]1C)c1ccc(Cl)cc1
REMARK SMILES IDX 15 1 14 2 13 3 12 4 10 5 11 6 9 7 6 8 7 9 87 10 8 11 88 12
REMARK SMILES IDX 4 13 3 14 5 16 2 17 1 18 89 19 90 20 95 21 91 22 94 23 92 24
REMARK SMILES IDX 93 25 16 26 17 27 18 28 19 29 20 30 21 31 22 32 86 33 23 34
REMARK SMILES IDX 85 35 24 36 25 37 26 38 79 39 27 40 84 41 78 42 80 43 28 44
REMARK SMILES IDX 83 45 77 46 76 47 29 49 63 50 42 51 62 52 43 53 46 54 61 55
REMARK SMILES IDX 81 56 44 57 45 58 60 60 82 61 47 62 30 63 31 64 40 65 32 66
REMARK SMILES IDX 33 67 39 68 41 69 34 70 35 71 36 72 37 73 38 74 64 75 65 76
REMARK SMILES IDX 74 77 66 78 67 79 73 80 75 81 68 82 69 83 70 84 71 85 72 86
REMARK SMILES IDX 48 87 49 88 58 89 50 90 51 91 57 92 59 93 52 94 53 95 54 96
REMARK SMILES IDX 55 97 56 98
REMARK H PARENT 3 15 80 48 46 59
REMARK Flexibility Score: inf
ROOT
ATOM      1  O   UNL     1      -3.513  -2.871  -5.528  1.00  0.00    -0.374 OA
ENDROOT
BRANCH   1   2
ATOM      2  C   UNL     1      -3.192  -4.127  -4.926  1.00  0.00     0.202 C 
BRANCH   2   3
ATOM      3  C   UNL     1      -1.843  -4.723  -5.341  1.00  0.00     0.261 C 
BRANCH   3   4
ATOM      4  O   UNL     1      -0.763  -4.059  -4.656  1.00  0.00    -0.463 OA
BRANCH   4   5
ATOM      5  C   UNL     1      -0.169  -3.039  -5.315  1.00  0.00     0.311 C 
ATOM      6  O   UNL     1      -0.331  -2.790  -6.504  1.00  0.00    -0.252 OA
BRANCH   5   7
ATOM      7  C   UNL     1       0.740  -2.211  -4.436  1.00  0.00     0.123 C 
ATOM      8  N   UNL     1       1.552  -1.442  -2.336  1.00  0.00    -0.321 N 
ATOM      9  C   UNL     1       2.668  -1.907  -3.149  1.00  0.00     0.122 C 
ATOM     10  C   UNL     1       0.274  -1.691  -3.054  1.00  0.00     0.098 C 
ATOM     11  C   UNL     1       2.059  -2.897  -4.123  1.00  0.00     0.039 C 
ATOM     12  C   UNL     1      -0.640  -2.609  -2.255  1.00  0.00     0.032 C 
BRANCH   8  13
ATOM     13  C   UNL     1       1.755  -0.331  -1.559  1.00  0.00     0.318 C 
ATOM     14  N   UNL     1       1.190  -0.277  -0.330  1.00  0.00    -0.331 N 
ATOM     15  H   UNL     1       1.144   0.622   0.068  1.00  0.00     0.165 HD
ATOM     16  O   UNL     1       2.481   0.600  -1.908  1.00  0.00    -0.249 OA
BRANCH  14  17
ATOM     17  C   UNL     1       0.639  -1.345   0.493  1.00  0.00     0.111 C 
ATOM     18  C   UNL     1       1.476  -1.511   1.766  1.00  0.00     0.036 C 
BRANCH  17  19
ATOM     19  C   UNL     1      -0.823  -1.108   0.854  1.00  0.00    -0.026 A 
ATOM     20  C   UNL     1      -1.487   0.101   0.578  1.00  0.00     0.007 A 
ATOM     21  C   UNL     1      -1.555  -2.147   1.454  1.00  0.00     0.007 A 
ATOM     22  C   UNL     1      -2.841   0.264   0.887  1.00  0.00     0.021 A 
ATOM     23  C   UNL     1      -2.897  -1.970   1.794  1.00  0.00     0.021 A 
ATOM     24  C   UNL     1      -3.538  -0.771   1.497  1.00  0.00     0.041 A 
ATOM     25  Cl  UNL     1      -5.209  -0.580   1.857  1.00  0.00    -0.084 Cl
ENDBRANCH  17  19
ENDBRANCH  14  17
ENDBRANCH   8  13
ENDBRANCH   5   7
ENDBRANCH   4   5
ENDBRANCH   3   4
ENDBRANCH   2   3
ENDBRANCH   1   2
BRANCH   1  26
ATOM     26  C   UNL     1      -3.187  -1.696  -4.789  1.00  0.00     0.202 C 
BRANCH  26  27
ATOM     27  C   UNL     1      -4.146  -1.304  -3.653  1.00  0.00     0.261 C 
BRANCH  27  28
ATOM     28  O   UNL     1      -4.240  -2.298  -2.622  1.00  0.00    -0.460 OA
BRANCH  28  29
ATOM     29  C   UNL     1      -5.278  -3.166  -2.739  1.00  0.00     0.338 C 
ATOM     30  O   UNL     1      -6.137  -3.175  -3.607  1.00  0.00    -0.246 OA
BRANCH  29  31
ATOM     31  C   UNL     1      -5.122  -4.231  -1.728  1.00  0.00     0.060 A 
ATOM     32  C   UNL     1      -5.257  -5.574  -2.100  1.00  0.00     0.016 A 
ATOM     33  C   UNL     1      -4.865  -3.899  -0.402  1.00  0.00     0.016 A 
ATOM     34  C   UNL     1      -5.164  -6.584  -1.133  1.00  0.00     0.010 A 
ATOM     35  C   UNL     1      -4.747  -4.906   0.555  1.00  0.00     0.010 A 
ATOM     36  C   UNL     1      -4.932  -6.256   0.210  1.00  0.00    -0.014 A 
BRANCH  36  37
ATOM     37  C   UNL     1      -5.015  -7.258   1.310  1.00  0.00     0.031 A 
ATOM     38  C   UNL     1      -6.120  -7.114   2.333  1.00  0.00     0.074 A 
ATOM     39  C   UNL     1      -4.091  -8.228   1.457  1.00  0.00     0.049 A 
ATOM     40  N   UNL     1      -6.281  -7.730   3.475  1.00  0.00    -0.248 NA
ATOM     41  C   UNL     1      -7.158  -6.109   2.043  1.00  0.00     0.031 C 
ATOM     42  C   UNL     1      -2.967  -8.476   0.555  1.00  0.00     0.029 A 
ATOM     43  N   UNL     1      -3.939  -9.173   2.444  1.00  0.00    -0.354 N 
ATOM     44  C   UNL     1      -7.422  -7.174   4.046  1.00  0.00     0.074 A 
ATOM     45  C   UNL     1      -7.874  -6.128   3.157  1.00  0.00     0.031 C 
ATOM     46  C   UNL     1      -2.240  -9.503   1.032  1.00  0.00     0.029 A 
ATOM     47  C   UNL     1      -2.819  -9.961   2.293  1.00  0.00     0.049 A 
ATOM     48  H   UNL     1      -4.572  -9.277   3.191  1.00  0.00     0.167 HD
ATOM     49  C   UNL     1      -8.057  -7.522   5.190  1.00  0.00     0.037 A 
ATOM     50  C   UNL     1      -2.310 -10.923   3.091  1.00  0.00     0.037 A 
ATOM     51  C   UNL     1      -7.633  -8.591   6.054  1.00  0.00     0.049 A 
ATOM     52  C   UNL     1      -3.020 -11.274   4.379  1.00  0.00     0.074 A 
ATOM     53  C   UNL     1      -8.228  -9.041   7.219  1.00  0.00     0.029 A 
ATOM     54  N   UNL     1      -6.520  -9.388   5.839  1.00  0.00    -0.354 N 
ATOM     55  N   UNL     1      -4.112 -10.755   4.888  1.00  0.00    -0.248 NA
ATOM     56  C   UNL     1      -2.431 -12.344   5.200  1.00  0.00     0.031 C 
ATOM     57  C   UNL     1      -7.454 -10.086   7.730  1.00  0.00     0.029 A 
ATOM     58  C   UNL     1      -6.411 -10.325   6.850  1.00  0.00     0.049 A 
ATOM     59  H   UNL     1      -5.899  -9.300   5.080  1.00  0.00     0.167 HD
ATOM     60  C   UNL     1      -4.371 -11.477   6.051  1.00  0.00     0.074 A 
ATOM     61  C   UNL     1      -3.319 -12.460   6.178  1.00  0.00     0.031 C 
ATOM     62  C   UNL     1      -5.392 -11.340   6.932  1.00  0.00     0.037 A 
BRANCH  49  63
ATOM     63  C   UNL     1      -9.303  -6.765   5.566  1.00  0.00     0.058 A 
ATOM     64  C   UNL     1     -10.493  -6.907   4.835  1.00  0.00     0.135 A 
ATOM     65  C   UNL     1      -9.332  -5.954   6.713  1.00  0.00     0.135 A 
ATOM     66  F   UNL     1     -10.517  -7.657   3.721  1.00  0.00    -0.206 F 
ATOM     67  C   UNL     1     -11.663  -6.261   5.216  1.00  0.00     0.059 A 
ATOM     68  C   UNL     1     -10.501  -5.324   7.132  1.00  0.00     0.059 A 
ATOM     69  F   UNL     1      -8.223  -5.782   7.449  1.00  0.00    -0.206 F 
ATOM     70  C   UNL     1     -11.659  -5.479   6.372  1.00  0.00     0.060 A 
BRANCH  70  71
ATOM     71  S   UNL     1     -13.202  -4.689   6.875  1.00  0.00     0.124 S 
ATOM     72  O   UNL     1     -13.358  -3.670   5.841  1.00  0.00    -0.237 OA
ATOM     73  O   UNL     1     -14.149  -5.797   6.821  1.00  0.00    -0.237 OA
ATOM     74  O   UNL     1     -12.907  -4.184   8.212  1.00  0.00    -0.744 OA
ENDBRANCH  70  71
ENDBRANCH  49  63
BRANCH  50  75
ATOM     75  C   UNL     1      -1.063 -11.646   2.710  1.00  0.00     0.058 A 
ATOM     76  C   UNL     1      -1.089 -13.017   2.407  1.00  0.00     0.135 A 
ATOM     77  C   UNL     1       0.184 -11.001   2.696  1.00  0.00     0.135 A 
ATOM     78  F   UNL     1      -2.254 -13.682   2.413  1.00  0.00    -0.206 F 
ATOM     79  C   UNL     1       0.077 -13.732   2.151  1.00  0.00     0.059 A 
ATOM     80  C   UNL     1       1.361 -11.688   2.410  1.00  0.00     0.059 A 
ATOM     81  F   UNL     1       0.266  -9.688   2.960  1.00  0.00    -0.206 F 
ATOM     82  C   UNL     1       1.299 -13.058   2.161  1.00  0.00     0.060 A 
BRANCH  82  83
ATOM     83  S   UNL     1       2.807 -13.997   1.833  1.00  0.00     0.124 S 
ATOM     84  O   UNL     1       2.946 -14.766   3.064  1.00  0.00    -0.237 OA
ATOM     85  O   UNL     1       2.442 -14.756   0.641  1.00  0.00    -0.237 OA
ATOM     86  O   UNL     1       3.809 -12.956   1.622  1.00  0.00    -0.744 OA
ENDBRANCH  82  83
ENDBRANCH  50  75
BRANCH  62  87
ATOM     87  C   UNL     1      -5.500 -12.328   8.061  1.00  0.00     0.058 A 
ATOM     88  C   UNL     1      -4.643 -12.294   9.170  1.00  0.00     0.135 A 
ATOM     89  C   UNL     1      -6.559 -13.253   8.078  1.00  0.00     0.135 A 
ATOM     90  F   UNL     1      -3.613 -11.435   9.203  1.00  0.00    -0.206 F 
ATOM     91  C   UNL     1      -4.829 -13.146  10.256  1.00  0.00     0.059 A 
ATOM     92  C   UNL     1      -6.781 -14.092   9.164  1.00  0.00     0.059 A 
ATOM     93  F   UNL     1      -7.414 -13.320   7.045  1.00  0.00    -0.206 F 
ATOM     94  C   UNL     1      -5.908 -14.033  10.249  1.00  0.00     0.060 A 
BRANCH  94  95
ATOM     95  S   UNL     1      -6.183 -15.072  11.699  1.00  0.00     0.124 S 
ATOM     96  O   UNL     1      -5.080 -16.021  11.596  1.00  0.00    -0.237 OA
ATOM     97  O   UNL     1      -6.091 -14.110  12.793  1.00  0.00    -0.237 OA
ATOM     98  O   UNL     1      -7.513 -15.630  11.473  1.00  0.00    -0.744 OA
ENDBRANCH  94  95
ENDBRANCH  62  87
ENDBRANCH  36  37
ENDBRANCH  29  31
ENDBRANCH  28  29
ENDBRANCH  27  28
ENDBRANCH  26  27
ENDBRANCH   1  26
TORSDOF 20
