REMARK SMILES CC(=O)N1CCC[C@H]1COCC(=O)OCCOCCOC(=O)c1ccc(-c2c3nc(c(-c4c(F)cc(S(=O)(=O)[O-])cc4F)c4ccc([nH]4)c(-c4c(F)cc(S(=O)(=O)[O-])cc4F)c4nc(c(-c5c(F)cc(S(=O)(=O)[O-])cc5F)c5ccc2[nH]5)C=C4)C=C3)cc1
REMARK SMILES IDX 16 1 15 2 14 3 12 4 13 5 11 6 10 7 9 8 8 9 4 10 5 11 6 12
REMARK SMILES IDX 7 13 2 14 1 15 3 16 17 17 18 18 19 19 20 20 21 21 22 22
REMARK SMILES IDX 23 23 24 24 88 25 25 26 87 27 26 28 27 29 28 30 81 31 29 32
REMARK SMILES IDX 86 33 80 34 82 35 30 36 85 37 79 38 78 39 31 41 65 42 44 43
REMARK SMILES IDX 64 44 45 45 48 46 63 47 83 48 46 49 47 50 62 52 84 53 49 54
REMARK SMILES IDX 32 55 33 56 42 57 34 58 35 59 41 60 43 61 36 62 37 63 38 64
REMARK SMILES IDX 39 65 40 66 66 67 67 68 76 69 68 70 69 71 75 72 77 73 70 74
REMARK SMILES IDX 71 75 72 76 73 77 74 78 50 79 51 80 60 81 52 82 53 83 59 84
REMARK SMILES IDX 61 85 54 86 55 87 56 88 57 89 58 90
REMARK H PARENT 82 40 48 51
REMARK Flexibility Score: inf
ROOT
ATOM      1  C   UNL     1      -2.305  -5.794   6.419  1.00  0.00     0.202 C 
ENDROOT
BRANCH   1   2
ATOM      2  C   UNL     1      -0.818  -6.056   6.672  1.00  0.00     0.261 C 
BRANCH   2   3
ATOM      3  O   UNL     1       0.024  -4.954   6.261  1.00  0.00    -0.462 OA
BRANCH   3   4
ATOM      4  C   UNL     1       1.024  -5.270   5.395  1.00  0.00     0.332 C 
ATOM      5  O   UNL     1       1.176  -6.370   4.873  1.00  0.00    -0.250 OA
BRANCH   4   6
ATOM      6  C   UNL     1       2.022  -4.108   5.175  1.00  0.00     0.282 C 
BRANCH   6   7
ATOM      7  O   UNL     1       1.841  -2.819   4.633  1.00  0.00    -0.368 OA
BRANCH   7   8
ATOM      8  C   UNL     1       0.551  -2.440   4.176  1.00  0.00     0.186 C 
BRANCH   8   9
ATOM      9  C   UNL     1       0.274  -2.716   2.675  1.00  0.00     0.111 C 
ATOM     10  N   UNL     1       1.038  -1.840   1.791  1.00  0.00    -0.338 N 
ATOM     11  C   UNL     1       2.296  -2.458   1.421  1.00  0.00     0.120 C 
ATOM     12  C   UNL     1       2.031  -3.954   1.503  1.00  0.00     0.024 C 
ATOM     13  C   UNL     1       0.650  -4.097   2.146  1.00  0.00     0.029 C 
BRANCH  10  14
ATOM     14  C   UNL     1       0.546  -0.628   1.370  1.00  0.00     0.219 C 
ATOM     15  C   UNL     1       1.357   0.109   0.336  1.00  0.00     0.114 C 
ATOM     16  O   UNL     1      -0.530  -0.180   1.765  1.00  0.00    -0.275 OA
ENDBRANCH  10  14
ENDBRANCH   8   9
ENDBRANCH   7   8
ENDBRANCH   6   7
ENDBRANCH   4   6
ENDBRANCH   3   4
ENDBRANCH   2   3
ENDBRANCH   1   2
BRANCH   1  17
ATOM     17  O   UNL     1      -2.727  -5.865   5.056  1.00  0.00    -0.374 OA
BRANCH  17  18
ATOM     18  C   UNL     1      -2.406  -4.747   4.233  1.00  0.00     0.202 C 
BRANCH  18  19
ATOM     19  C   UNL     1      -3.311  -3.516   4.391  1.00  0.00     0.261 C 
BRANCH  19  20
ATOM     20  O   UNL     1      -3.218  -2.941   5.708  1.00  0.00    -0.460 OA
BRANCH  20  21
ATOM     21  C   UNL     1      -4.366  -3.006   6.430  1.00  0.00     0.338 C 
ATOM     22  O   UNL     1      -5.457  -3.385   6.038  1.00  0.00    -0.246 OA
BRANCH  21  23
ATOM     23  C   UNL     1      -4.097  -2.733   7.857  1.00  0.00     0.060 A 
ATOM     24  C   UNL     1      -4.558  -3.679   8.781  1.00  0.00     0.016 A 
ATOM     25  C   UNL     1      -3.490  -1.554   8.296  1.00  0.00     0.016 A 
ATOM     26  C   UNL     1      -4.470  -3.424  10.148  1.00  0.00     0.010 A 
ATOM     27  C   UNL     1      -3.409  -1.296   9.672  1.00  0.00     0.010 A 
ATOM     28  C   UNL     1      -3.936  -2.212  10.602  1.00  0.00    -0.014 A 
BRANCH  28  29
ATOM     29  C   UNL     1      -4.084  -1.854  12.037  1.00  0.00     0.031 A 
ATOM     30  C   UNL     1      -5.210  -0.942  12.448  1.00  0.00     0.074 A 
ATOM     31  C   UNL     1      -3.268  -2.380  12.970  1.00  0.00     0.049 A 
ATOM     32  N   UNL     1      -5.543  -0.523  13.642  1.00  0.00    -0.248 NA
ATOM     33  C   UNL     1      -6.079  -0.437  11.372  1.00  0.00     0.031 C 
ATOM     34  C   UNL     1      -2.163  -3.301  12.705  1.00  0.00     0.029 A 
ATOM     35  N   UNL     1      -3.246  -2.215  14.333  1.00  0.00    -0.354 N 
ATOM     36  C   UNL     1      -6.648   0.302  13.461  1.00  0.00     0.074 A 
ATOM     37  C   UNL     1      -6.920   0.340  12.041  1.00  0.00     0.031 C 
ATOM     38  C   UNL     1      -1.566  -3.613  13.868  1.00  0.00     0.029 A 
ATOM     39  C   UNL     1      -2.230  -2.900  14.957  1.00  0.00     0.049 A 
ATOM     40  H   UNL     1      -3.897  -1.658  14.818  1.00  0.00     0.167 HD
ATOM     41  C   UNL     1      -7.375   0.960  14.394  1.00  0.00     0.037 A 
ATOM     42  C   UNL     1      -1.870  -2.933  16.256  1.00  0.00     0.037 A 
ATOM     43  C   UNL     1      -7.121   0.902  15.809  1.00  0.00     0.049 A 
ATOM     44  C   UNL     1      -2.670  -2.153  17.269  1.00  0.00     0.074 A 
ATOM     45  C   UNL     1      -7.838   1.493  16.835  1.00  0.00     0.029 A 
ATOM     46  N   UNL     1      -6.067   0.222  16.398  1.00  0.00    -0.354 N 
ATOM     47  N   UNL     1      -3.743  -1.421  17.086  1.00  0.00    -0.248 NA
ATOM     48  C   UNL     1      -2.212  -2.206  18.666  1.00  0.00     0.031 C 
ATOM     49  C   UNL     1      -7.190   1.209  18.041  1.00  0.00     0.029 A 
ATOM     50  C   UNL     1      -6.096   0.404  17.771  1.00  0.00     0.049 A 
ATOM     51  H   UNL     1      -5.397  -0.312  15.913  1.00  0.00     0.167 HD
ATOM     52  C   UNL     1      -4.104  -0.952  18.346  1.00  0.00     0.074 A 
ATOM     53  C   UNL     1      -3.142  -1.490  19.284  1.00  0.00     0.031 C 
ATOM     54  C   UNL     1      -5.140  -0.151  18.695  1.00  0.00     0.037 A 
BRANCH  41  55
ATOM     55  C   UNL     1      -8.509   1.825  13.921  1.00  0.00     0.058 A 
ATOM     56  C   UNL     1      -9.723   1.277  13.480  1.00  0.00     0.135 A 
ATOM     57  C   UNL     1      -8.401   3.224  13.978  1.00  0.00     0.135 A 
ATOM     58  F   UNL     1      -9.872  -0.054  13.390  1.00  0.00    -0.206 F 
ATOM     59  C   UNL     1     -10.790   2.087  13.105  1.00  0.00     0.059 A 
ATOM     60  C   UNL     1      -9.462   4.053  13.628  1.00  0.00     0.059 A 
ATOM     61  F   UNL     1      -7.259   3.797  14.389  1.00  0.00    -0.206 F 
ATOM     62  C   UNL     1     -10.652   3.474  13.187  1.00  0.00     0.060 A 
BRANCH  62  63
ATOM     63  S   UNL     1     -12.057   4.513  12.732  1.00  0.00     0.124 S 
ATOM     64  O   UNL     1     -12.053   4.388  11.278  1.00  0.00    -0.237 OA
ATOM     65  O   UNL     1     -13.165   3.858  13.421  1.00  0.00    -0.237 OA
ATOM     66  O   UNL     1     -11.691   5.827  13.250  1.00  0.00    -0.744 OA
ENDBRANCH  62  63
ENDBRANCH  41  55
BRANCH  42  67
ATOM     67  C   UNL     1      -0.679  -3.715  16.686  1.00  0.00     0.058 A 
ATOM     68  C   UNL     1      -0.809  -4.861  17.484  1.00  0.00     0.135 A 
ATOM     69  C   UNL     1       0.618  -3.306  16.337  1.00  0.00     0.135 A 
ATOM     70  F   UNL     1      -2.027  -5.287  17.853  1.00  0.00    -0.206 F 
ATOM     71  C   UNL     1       0.303  -5.558  17.946  1.00  0.00     0.059 A 
ATOM     72  C   UNL     1       1.744  -4.000  16.765  1.00  0.00     0.059 A 
ATOM     73  F   UNL     1       0.797  -2.221  15.567  1.00  0.00    -0.206 F 
ATOM     74  C   UNL     1       1.577  -5.116  17.584  1.00  0.00     0.060 A 
BRANCH  74  75
ATOM     75  S   UNL     1       3.018  -6.035  18.170  1.00  0.00     0.124 S 
ATOM     76  O   UNL     1       3.099  -5.596  19.558  1.00  0.00    -0.237 OA
ATOM     77  O   UNL     1       2.608  -7.420  17.959  1.00  0.00    -0.237 OA
ATOM     78  O   UNL     1       4.089  -5.567  17.295  1.00  0.00    -0.744 OA
ENDBRANCH  74  75
ENDBRANCH  42  67
BRANCH  54  79
ATOM     79  C   UNL     1      -5.316   0.165  20.154  1.00  0.00     0.058 A 
ATOM     80  C   UNL     1      -4.469   1.063  20.822  1.00  0.00     0.135 A 
ATOM     81  C   UNL     1      -6.381  -0.395  20.879  1.00  0.00     0.135 A 
ATOM     82  F   UNL     1      -3.433   1.622  20.176  1.00  0.00    -0.206 F 
ATOM     83  C   UNL     1      -4.658   1.378  22.164  1.00  0.00     0.059 A 
ATOM     84  C   UNL     1      -6.603  -0.075  22.215  1.00  0.00     0.059 A 
ATOM     85  F   UNL     1      -7.227  -1.251  20.285  1.00  0.00    -0.206 F 
ATOM     86  C   UNL     1      -5.729   0.804  22.852  1.00  0.00     0.060 A 
BRANCH  86  87
ATOM     87  S   UNL     1      -5.985   1.245  24.584  1.00  0.00     0.124 S 
ATOM     88  O   UNL     1      -4.943   0.465  25.243  1.00  0.00    -0.237 OA
ATOM     89  O   UNL     1      -5.784   2.691  24.574  1.00  0.00    -0.237 OA
ATOM     90  O   UNL     1      -7.354   0.812  24.846  1.00  0.00    -0.744 OA
ENDBRANCH  86  87
ENDBRANCH  54  79
ENDBRANCH  28  29
ENDBRANCH  21  23
ENDBRANCH  20  21
ENDBRANCH  19  20
ENDBRANCH  18  19
ENDBRANCH  17  18
ENDBRANCH   1  17
TORSDOF 21
