REMARK SMILES O=C(OCCOCCOC(=O)c1cc(Br)ccc1OC(=O)c1ccc(F)cc1)c1ccc(-c2c3nc(c(-c4c(F)cc(S(=O)(=O)[O-])cc4F)c4ccc([nH]4)c(-c4c(F)cc(S(=O)(=O)[O-])cc4F)c4nc(c(-c5c(F)cc(S(=O)(=O)[O-])cc5F)c5ccc2[nH]5)C=C4)C=C3)cc1
REMARK SMILES IDX 6 1 5 2 4 3 3 4 2 5 1 6 29 7 30 8 94 9 31 10 93 11 32 12
REMARK SMILES IDX 33 13 34 14 87 15 35 16 92 17 86 18 88 19 36 20 91 21 85 22
REMARK SMILES IDX 84 23 37 25 71 26 50 27 70 28 51 29 54 30 69 31 89 32 52 33
REMARK SMILES IDX 53 34 68 36 90 37 55 38 38 39 39 40 48 41 40 42 41 43 47 44
REMARK SMILES IDX 49 45 42 46 43 47 44 48 45 49 46 50 72 51 73 52 82 53 74 54
REMARK SMILES IDX 75 55 81 56 83 57 76 58 77 59 78 60 79 61 80 62 56 63 57 64
REMARK SMILES IDX 66 65 58 66 59 67 65 68 67 69 60 70 61 71 62 72 63 73 64 74
REMARK SMILES IDX 7 75 8 76 9 77 10 78 11 79 12 80 13 81 18 82 14 83 17 84
REMARK SMILES IDX 15 85 16 86 19 87 20 88 21 89 22 90 23 91 28 92 24 93 27 94
REMARK SMILES IDX 25 95 26 96
REMARK H PARENT 88 24 54 35
REMARK Flexibility Score: inf
ROOT
ATOM      1  O   UNL     1       2.661   1.217  -1.067  1.00  0.00    -0.374 OA
ENDROOT
BRANCH   1   2
ATOM      2  C   UNL     1       2.950  -0.099  -1.522  1.00  0.00     0.202 C 
BRANCH   2   3
ATOM      3  C   UNL     1       2.859  -1.088  -0.358  1.00  0.00     0.261 C 
BRANCH   3   4
ATOM      4  O   UNL     1       1.580  -0.969   0.285  1.00  0.00    -0.460 OA
BRANCH   4   5
ATOM      5  C   UNL     1       1.272  -0.006   1.194  1.00  0.00     0.338 C 
ATOM      6  O   UNL     1       0.101   0.323   1.365  1.00  0.00    -0.246 OA
BRANCH   5   7
ATOM      7  C   UNL     1       2.302   0.503   2.143  1.00  0.00     0.060 A 
ATOM      8  C   UNL     1       3.484   1.141   1.760  1.00  0.00     0.016 A 
ATOM      9  C   UNL     1       1.995   0.433   3.508  1.00  0.00     0.016 A 
ATOM     10  C   UNL     1       4.374   1.635   2.705  1.00  0.00     0.010 A 
ATOM     11  C   UNL     1       2.860   0.983   4.461  1.00  0.00     0.010 A 
ATOM     12  C   UNL     1       4.065   1.577   4.063  1.00  0.00    -0.014 A 
BRANCH  12  13
ATOM     13  C   UNL     1       5.043   2.104   5.042  1.00  0.00     0.031 A 
ATOM     14  C   UNL     1       5.733   1.150   5.970  1.00  0.00     0.074 A 
ATOM     15  C   UNL     1       5.375   3.411   5.021  1.00  0.00     0.049 A 
ATOM     16  N   UNL     1       6.553   1.401   6.954  1.00  0.00    -0.248 NA
ATOM     17  C   UNL     1       5.463  -0.283   5.762  1.00  0.00     0.031 C 
ATOM     18  C   UNL     1       4.834   4.402   4.086  1.00  0.00     0.029 A 
ATOM     19  N   UNL     1       6.270   4.125   5.775  1.00  0.00    -0.354 N 
ATOM     20  C   UNL     1       6.874   0.165   7.501  1.00  0.00     0.074 A 
ATOM     21  C   UNL     1       6.149  -0.835   6.750  1.00  0.00     0.031 C 
ATOM     22  C   UNL     1       5.452   5.577   4.282  1.00  0.00     0.029 A 
ATOM     23  C   UNL     1       6.362   5.450   5.414  1.00  0.00     0.049 A 
ATOM     24  H   UNL     1       6.797   3.728   6.505  1.00  0.00     0.167 HD
ATOM     25  C   UNL     1       7.697  -0.102   8.542  1.00  0.00     0.037 A 
ATOM     26  C   UNL     1       7.077   6.454   5.958  1.00  0.00     0.037 A 
ATOM     27  C   UNL     1       8.409   0.917   9.266  1.00  0.00     0.049 A 
ATOM     28  C   UNL     1       7.922   6.148   7.163  1.00  0.00     0.074 A 
ATOM     29  C   UNL     1       9.204   0.784  10.390  1.00  0.00     0.029 A 
ATOM     30  N   UNL     1       8.419   2.264   8.923  1.00  0.00    -0.354 N 
ATOM     31  N   UNL     1       8.129   4.991   7.748  1.00  0.00    -0.248 NA
ATOM     32  C   UNL     1       8.605   7.279   7.803  1.00  0.00     0.031 C 
ATOM     33  C   UNL     1       9.663   2.057  10.747  1.00  0.00     0.029 A 
ATOM     34  C   UNL     1       9.196   2.976   9.819  1.00  0.00     0.049 A 
ATOM     35  H   UNL     1       7.942   2.654   8.155  1.00  0.00     0.167 HD
ATOM     36  C   UNL     1       8.966   5.251   8.825  1.00  0.00     0.074 A 
ATOM     37  C   UNL     1       9.245   6.675   8.797  1.00  0.00     0.031 C 
ATOM     38  C   UNL     1       9.451   4.396   9.759  1.00  0.00     0.037 A 
BRANCH  25  39
ATOM     39  C   UNL     1       7.808  -1.536   8.979  1.00  0.00     0.058 A 
ATOM     40  C   UNL     1       7.193  -1.963  10.167  1.00  0.00     0.135 A 
ATOM     41  C   UNL     1       8.490  -2.497   8.215  1.00  0.00     0.135 A 
ATOM     42  F   UNL     1       6.516  -1.091  10.930  1.00  0.00    -0.206 F 
ATOM     43  C   UNL     1       7.244  -3.291  10.578  1.00  0.00     0.059 A 
ATOM     44  C   UNL     1       8.533  -3.837   8.595  1.00  0.00     0.059 A 
ATOM     45  F   UNL     1       9.069  -2.150   7.054  1.00  0.00    -0.206 F 
ATOM     46  C   UNL     1       7.909  -4.223   9.781  1.00  0.00     0.060 A 
BRANCH  46  47
ATOM     47  S   UNL     1       7.887  -5.958  10.284  1.00  0.00     0.124 S 
ATOM     48  O   UNL     1       8.781  -5.949  11.435  1.00  0.00    -0.237 OA
ATOM     49  O   UNL     1       6.473  -6.175  10.576  1.00  0.00    -0.237 OA
ATOM     50  O   UNL     1       8.385  -6.658   9.103  1.00  0.00    -0.744 OA
ENDBRANCH  46  47
ENDBRANCH  25  39
BRANCH  26  51
ATOM     51  C   UNL     1       6.989   7.826   5.384  1.00  0.00     0.058 A 
ATOM     52  C   UNL     1       5.789   8.556   5.422  1.00  0.00     0.135 A 
ATOM     53  C   UNL     1       8.083   8.414   4.731  1.00  0.00     0.135 A 
ATOM     54  F   UNL     1       4.710   8.045   6.035  1.00  0.00    -0.206 F 
ATOM     55  C   UNL     1       5.661   9.791   4.796  1.00  0.00     0.059 A 
ATOM     56  C   UNL     1       7.989   9.664   4.120  1.00  0.00     0.059 A 
ATOM     57  F   UNL     1       9.259   7.771   4.683  1.00  0.00    -0.206 F 
ATOM     58  C   UNL     1       6.765  10.333   4.138  1.00  0.00     0.060 A 
BRANCH  58  59
ATOM     59  S   UNL     1       6.566  11.922   3.301  1.00  0.00     0.124 S 
ATOM     60  O   UNL     1       5.697  11.559   2.186  1.00  0.00    -0.237 OA
ATOM     61  O   UNL     1       5.953  12.742   4.341  1.00  0.00    -0.237 OA
ATOM     62  O   UNL     1       7.931  12.288   2.940  1.00  0.00    -0.744 OA
ENDBRANCH  58  59
ENDBRANCH  26  51
BRANCH  38  63
ATOM     63  C   UNL     1      10.344   4.972  10.820  1.00  0.00     0.058 A 
ATOM     64  C   UNL     1      11.719   4.692  10.817  1.00  0.00     0.135 A 
ATOM     65  C   UNL     1       9.825   5.729  11.882  1.00  0.00     0.135 A 
ATOM     66  F   UNL     1      12.260   3.967   9.825  1.00  0.00    -0.206 F 
ATOM     67  C   UNL     1      12.548   5.127  11.843  1.00  0.00     0.059 A 
ATOM     68  C   UNL     1      10.642   6.195  12.906  1.00  0.00     0.059 A 
ATOM     69  F   UNL     1       8.518   6.030  11.921  1.00  0.00    -0.206 F 
ATOM     70  C   UNL     1      11.999   5.873  12.887  1.00  0.00     0.060 A 
BRANCH  70  71
ATOM     71  S   UNL     1      13.092   6.435  14.208  1.00  0.00     0.124 S 
ATOM     72  O   UNL     1      13.356   5.192  14.924  1.00  0.00    -0.237 OA
ATOM     73  O   UNL     1      14.217   6.991  13.463  1.00  0.00    -0.237 OA
ATOM     74  O   UNL     1      12.280   7.414  14.925  1.00  0.00    -0.744 OA
ENDBRANCH  70  71
ENDBRANCH  38  63
ENDBRANCH  12  13
ENDBRANCH   5   7
ENDBRANCH   4   5
ENDBRANCH   3   4
ENDBRANCH   2   3
ENDBRANCH   1   2
BRANCH   1  75
ATOM     75  C   UNL     1       1.743   1.978  -1.840  1.00  0.00     0.202 C 
BRANCH  75  76
ATOM     76  C   UNL     1       2.478   3.039  -2.656  1.00  0.00     0.261 C 
BRANCH  76  77
ATOM     77  O   UNL     1       3.320   2.399  -3.627  1.00  0.00    -0.460 OA
BRANCH  77  78
ATOM     78  C   UNL     1       4.614   2.195  -3.262  1.00  0.00     0.342 C 
ATOM     79  O   UNL     1       5.173   2.612  -2.264  1.00  0.00    -0.246 OA
BRANCH  78  80
ATOM     80  C   UNL     1       5.186   1.203  -4.202  1.00  0.00     0.103 A 
ATOM     81  C   UNL     1       4.762   1.188  -5.540  1.00  0.00     0.035 A 
ATOM     82  C   UNL     1       6.048   0.198  -3.742  1.00  0.00     0.145 A 
ATOM     83  C   UNL     1       5.157   0.149  -6.379  1.00  0.00     0.019 A 
ATOM     84  C   UNL     1       6.440  -0.843  -4.588  1.00  0.00     0.049 A 
ATOM     85  Br  UNL     1       4.504   0.087  -8.153  1.00  0.00    -0.051 Br
ATOM     86  C   UNL     1       5.989  -0.868  -5.910  1.00  0.00     0.019 A 
BRANCH  82  87
ATOM     87  O   UNL     1       6.361   0.078  -2.377  1.00  0.00    -0.422 OA
BRANCH  87  88
ATOM     88  C   UNL     1       7.621   0.518  -2.006  1.00  0.00     0.343 C 
ATOM     89  O   UNL     1       8.469   0.996  -2.743  1.00  0.00    -0.246 OA
BRANCH  88  90
ATOM     90  C   UNL     1       7.852   0.174  -0.570  1.00  0.00     0.060 A 
ATOM     91  C   UNL     1       9.173   0.073  -0.110  1.00  0.00     0.019 A 
ATOM     92  C   UNL     1       6.797  -0.083   0.319  1.00  0.00     0.019 A 
ATOM     93  C   UNL     1       9.433  -0.304   1.213  1.00  0.00     0.040 A 
ATOM     94  C   UNL     1       7.060  -0.466   1.639  1.00  0.00     0.040 A 
ATOM     95  C   UNL     1       8.375  -0.574   2.073  1.00  0.00     0.123 A 
ATOM     96  F   UNL     1       8.623  -0.951   3.332  1.00  0.00    -0.207 F 
ENDBRANCH  88  90
ENDBRANCH  87  88
ENDBRANCH  82  87
ENDBRANCH  78  80
ENDBRANCH  77  78
ENDBRANCH  76  77
ENDBRANCH  75  76
ENDBRANCH   1  75
TORSDOF 20
