REMARK SMILES O=C(OCCOCCOC(=O)[C@H]1[C@@H](C(=O)Nc2ccccc2-c2ccccc2)[C@@H]2C=C[C@H]1O2)c1ccc(-c2c3nc(c(-c4c(F)cc(S(=O)(=O)[O-])cc4F)c4ccc([nH]4)c(-c4c(F)cc(S(=O)(=O)[O-])cc4F)c4nc(c(-c5c(F)cc(S(=O)(=O)[O-])cc5F)c5ccc2[nH]5)C=C4)C=C3)cc1
REMARK SMILES IDX 6 1 5 2 4 3 3 4 2 5 1 6 34 7 35 8 99 9 36 10 98 11 37 12
REMARK SMILES IDX 38 13 39 14 92 15 40 16 97 17 91 18 93 19 41 20 96 21 90 22
REMARK SMILES IDX 89 23 42 25 76 26 55 27 75 28 56 29 59 30 74 31 94 32 57 33
REMARK SMILES IDX 58 34 73 36 95 37 60 38 43 39 44 40 53 41 45 42 46 43 52 44
REMARK SMILES IDX 54 45 47 46 48 47 49 48 50 49 51 50 77 51 78 52 87 53 79 54
REMARK SMILES IDX 80 55 86 56 88 57 81 58 82 59 83 60 84 61 85 62 61 63 62 64
REMARK SMILES IDX 71 65 63 66 64 67 70 68 72 69 65 70 66 71 67 72 68 73 69 74
REMARK SMILES IDX 7 75 8 76 9 77 10 78 11 79 12 80 13 81 32 82 29 83 31 84
REMARK SMILES IDX 33 85 30 86 14 87 15 88 16 89 17 91 18 92 22 93 19 94 21 95
REMARK SMILES IDX 20 96 23 97 24 98 28 99 25 100 27 101 26 102
REMARK H PARENT 93 24 59 35 16 90
REMARK Flexibility Score: inf
ROOT
ATOM      1  O   UNL     1       2.351   1.796   4.205  1.00  0.00    -0.374 OA
ENDROOT
BRANCH   1   2
ATOM      2  C   UNL     1       2.424   1.340   2.850  1.00  0.00     0.202 C 
BRANCH   2   3
ATOM      3  C   UNL     1       1.286   1.710   1.889  1.00  0.00     0.261 C 
BRANCH   3   4
ATOM      4  O   UNL     1       1.050   3.126   1.856  1.00  0.00    -0.460 OA
BRANCH   4   5
ATOM      5  C   UNL     1      -0.004   3.792   2.382  1.00  0.00     0.338 C 
ATOM      6  O   UNL     1      -0.165   4.974   2.085  1.00  0.00    -0.246 OA
BRANCH   5   7
ATOM      7  C   UNL     1      -0.936   3.179   3.379  1.00  0.00     0.060 A 
ATOM      8  C   UNL     1      -0.627   2.063   4.159  1.00  0.00     0.016 A 
ATOM      9  C   UNL     1      -2.140   3.847   3.643  1.00  0.00     0.016 A 
ATOM     10  C   UNL     1      -1.440   1.627   5.179  1.00  0.00     0.010 A 
ATOM     11  C   UNL     1      -2.977   3.420   4.678  1.00  0.00     0.010 A 
ATOM     12  C   UNL     1      -2.607   2.319   5.455  1.00  0.00    -0.014 A 
BRANCH  12  13
ATOM     13  C   UNL     1      -3.427   1.781   6.541  1.00  0.00     0.031 A 
ATOM     14  C   UNL     1      -4.558   0.882   6.178  1.00  0.00     0.074 A 
ATOM     15  C   UNL     1      -3.016   1.970   7.808  1.00  0.00     0.049 A 
ATOM     16  N   UNL     1      -5.433   0.316   6.956  1.00  0.00    -0.248 NA
ATOM     17  C   UNL     1      -4.713   0.556   4.748  1.00  0.00     0.031 C 
ATOM     18  C   UNL     1      -1.808   2.705   8.203  1.00  0.00     0.029 A 
ATOM     19  N   UNL     1      -3.542   1.538   8.992  1.00  0.00    -0.354 N 
ATOM     20  C   UNL     1      -6.269  -0.399   6.112  1.00  0.00     0.074 A 
ATOM     21  C   UNL     1      -5.786  -0.222   4.763  1.00  0.00     0.031 C 
ATOM     22  C   UNL     1      -1.693   2.675   9.540  1.00  0.00     0.029 A 
ATOM     23  C   UNL     1      -2.851   1.986  10.093  1.00  0.00     0.049 A 
ATOM     24  H   UNL     1      -4.338   0.962   9.051  1.00  0.00     0.167 HD
ATOM     25  C   UNL     1      -7.360  -1.115   6.456  1.00  0.00     0.037 A 
ATOM     26  C   UNL     1      -3.169   1.891  11.397  1.00  0.00     0.037 A 
ATOM     27  C   UNL     1      -7.794  -1.261   7.818  1.00  0.00     0.049 A 
ATOM     28  C   UNL     1      -4.449   1.175  11.740  1.00  0.00     0.074 A 
ATOM     29  C   UNL     1      -8.907  -1.917   8.304  1.00  0.00     0.029 A 
ATOM     30  N   UNL     1      -7.123  -0.729   8.914  1.00  0.00    -0.354 N 
ATOM     31  N   UNL     1      -5.279   0.548  10.937  1.00  0.00    -0.248 NA
ATOM     32  C   UNL     1      -4.854   1.172  13.149  1.00  0.00     0.031 C 
ATOM     33  C   UNL     1      -8.937  -1.736   9.691  1.00  0.00     0.029 A 
ATOM     34  C   UNL     1      -7.816  -1.012  10.074  1.00  0.00     0.049 A 
ATOM     35  H   UNL     1      -6.279  -0.224   8.869  1.00  0.00     0.167 HD
ATOM     36  C   UNL     1      -6.304   0.073  11.743  1.00  0.00     0.074 A 
ATOM     37  C   UNL     1      -5.971   0.459  13.102  1.00  0.00     0.031 C 
ATOM     38  C   UNL     1      -7.428  -0.606  11.402  1.00  0.00     0.037 A 
BRANCH  25  39
ATOM     39  C   UNL     1      -8.187  -1.699   5.352  1.00  0.00     0.058 A 
ATOM     40  C   UNL     1      -7.788  -2.835   4.634  1.00  0.00     0.135 A 
ATOM     41  C   UNL     1      -9.416  -1.107   5.018  1.00  0.00     0.135 A 
ATOM     42  F   UNL     1      -6.603  -3.413   4.885  1.00  0.00    -0.206 F 
ATOM     43  C   UNL     1      -8.584  -3.370   3.624  1.00  0.00     0.059 A 
ATOM     44  C   UNL     1     -10.236  -1.635   4.026  1.00  0.00     0.059 A 
ATOM     45  F   UNL     1      -9.829  -0.001   5.656  1.00  0.00    -0.206 F 
ATOM     46  C   UNL     1      -9.809  -2.766   3.333  1.00  0.00     0.060 A 
BRANCH  46  47
ATOM     47  S   UNL     1     -10.848  -3.494   2.049  1.00  0.00     0.124 S 
ATOM     48  O   UNL     1     -10.103  -3.152   0.841  1.00  0.00    -0.237 OA
ATOM     49  O   UNL     1     -10.849  -4.907   2.414  1.00  0.00    -0.237 OA
ATOM     50  O   UNL     1     -12.125  -2.806   2.212  1.00  0.00    -0.744 OA
ENDBRANCH  46  47
ENDBRANCH  25  39
BRANCH  26  51
ATOM     51  C   UNL     1      -2.347   2.568  12.438  1.00  0.00     0.058 A 
ATOM     52  C   UNL     1      -1.708   1.847  13.457  1.00  0.00     0.135 A 
ATOM     53  C   UNL     1      -2.219   3.968  12.458  1.00  0.00     0.135 A 
ATOM     54  F   UNL     1      -1.799   0.509  13.490  1.00  0.00    -0.206 F 
ATOM     55  C   UNL     1      -1.006   2.488  14.477  1.00  0.00     0.059 A 
ATOM     56  C   UNL     1      -1.497   4.629  13.447  1.00  0.00     0.059 A 
ATOM     57  F   UNL     1      -2.798   4.713  11.503  1.00  0.00    -0.206 F 
ATOM     58  C   UNL     1      -0.914   3.881  14.466  1.00  0.00     0.060 A 
BRANCH  58  59
ATOM     59  S   UNL     1      -0.022   4.710  15.801  1.00  0.00     0.124 S 
ATOM     60  O   UNL     1      -0.966   4.583  16.905  1.00  0.00    -0.237 OA
ATOM     61  O   UNL     1       1.194   3.909  15.904  1.00  0.00    -0.237 OA
ATOM     62  O   UNL     1       0.170   6.062  15.286  1.00  0.00    -0.744 OA
ENDBRANCH  58  59
ENDBRANCH  26  51
BRANCH  38  63
ATOM     63  C   UNL     1      -8.355  -0.977  12.520  1.00  0.00     0.058 A 
ATOM     64  C   UNL     1      -9.176  -0.020  13.132  1.00  0.00     0.135 A 
ATOM     65  C   UNL     1      -8.472  -2.315  12.927  1.00  0.00     0.135 A 
ATOM     66  F   UNL     1      -9.089   1.272  12.778  1.00  0.00    -0.206 F 
ATOM     67  C   UNL     1     -10.078  -0.375  14.126  1.00  0.00     0.059 A 
ATOM     68  C   UNL     1      -9.388  -2.697  13.898  1.00  0.00     0.059 A 
ATOM     69  F   UNL     1      -7.713  -3.265  12.359  1.00  0.00    -0.206 F 
ATOM     70  C   UNL     1     -10.180  -1.718  14.497  1.00  0.00     0.060 A 
BRANCH  70  71
ATOM     71  S   UNL     1     -11.394  -2.174  15.750  1.00  0.00     0.124 S 
ATOM     72  O   UNL     1     -10.755  -1.690  16.968  1.00  0.00    -0.237 OA
ATOM     73  O   UNL     1     -12.579  -1.438  15.319  1.00  0.00    -0.237 OA
ATOM     74  O   UNL     1     -11.485  -3.626  15.621  1.00  0.00    -0.744 OA
ENDBRANCH  70  71
ENDBRANCH  38  63
ENDBRANCH  12  13
ENDBRANCH   5   7
ENDBRANCH   4   5
ENDBRANCH   3   4
ENDBRANCH   2   3
ENDBRANCH   1   2
BRANCH   1  75
ATOM     75  C   UNL     1       2.495   3.201   4.449  1.00  0.00     0.202 C 
BRANCH  75  76
ATOM     76  C   UNL     1       3.392   3.426   5.671  1.00  0.00     0.261 C 
BRANCH  76  77
ATOM     77  O   UNL     1       4.707   2.983   5.322  1.00  0.00    -0.463 OA
BRANCH  77  78
ATOM     78  C   UNL     1       4.867   1.646   5.413  1.00  0.00     0.312 C 
ATOM     79  O   UNL     1       4.413   0.957   6.310  1.00  0.00    -0.252 OA
BRANCH  78  80
ATOM     80  C   UNL     1       5.586   1.060   4.224  1.00  0.00     0.147 C 
ATOM     81  C   UNL     1       6.184   1.947   3.078  1.00  0.00     0.129 C 
ATOM     82  C   UNL     1       6.843   0.407   4.800  1.00  0.00     0.157 C 
ATOM     83  C   UNL     1       7.675   1.837   3.389  1.00  0.00     0.155 C 
ATOM     84  C   UNL     1       7.556  -0.408   3.756  1.00  0.00     0.004 C 
ATOM     85  O   UNL     1       7.700   1.576   4.815  1.00  0.00    -0.365 OA
ATOM     86  C   UNL     1       8.109   0.472   2.909  1.00  0.00     0.004 C 
BRANCH  81  87
ATOM     87  C   UNL     1       5.534   3.260   2.642  1.00  0.00     0.231 C 
ATOM     88  O   UNL     1       4.708   3.226   1.715  1.00  0.00    -0.274 OA
ATOM     89  N   UNL     1       5.596   4.430   3.312  1.00  0.00    -0.325 N 
ATOM     90  H   UNL     1       4.724   4.726   3.659  1.00  0.00     0.169 HD
BRANCH  89  91
ATOM     91  C   UNL     1       6.643   5.312   3.617  1.00  0.00     0.049 A 
ATOM     92  C   UNL     1       6.346   6.185   4.681  1.00  0.00     0.027 A 
ATOM     93  C   UNL     1       7.819   5.492   2.856  1.00  0.00     0.005 A 
ATOM     94  C   UNL     1       7.230   7.188   5.060  1.00  0.00     0.002 A 
ATOM     95  C   UNL     1       8.704   6.509   3.275  1.00  0.00     0.011 A 
ATOM     96  C   UNL     1       8.418   7.341   4.363  1.00  0.00     0.001 A 
BRANCH  93  97
ATOM     97  C   UNL     1       8.118   4.767   1.602  1.00  0.00    -0.016 A 
ATOM     98  C   UNL     1       9.331   4.075   1.443  1.00  0.00     0.009 A 
ATOM     99  C   UNL     1       7.191   4.703   0.549  1.00  0.00     0.009 A 
ATOM    100  C   UNL     1       9.549   3.243   0.342  1.00  0.00     0.001 A 
ATOM    101  C   UNL     1       7.403   3.870  -0.552  1.00  0.00     0.001 A 
ATOM    102  C   UNL     1       8.574   3.123  -0.644  1.00  0.00     0.000 A 
ENDBRANCH  93  97
ENDBRANCH  89  91
ENDBRANCH  81  87
ENDBRANCH  78  80
ENDBRANCH  77  78
ENDBRANCH  76  77
ENDBRANCH  75  76
ENDBRANCH   1  75
TORSDOF 20
