REMARK SMILES Cc1cccc([C@@H](CCC[C@@H]2CCCO2)C(=O)OCCOCCOC(=O)c2ccc(-c3c4nc(c(-c5c(F)cc(S(=O)(=O)[O-])cc5F)c5ccc([nH]5)c(-c5c(F)cc(S(=O)(=O)[O-])cc5F)c5nc(c(-c6c(F)cc(S(=O)(=O)[O-])cc6F)c6ccc3[nH]6)C=C5)C=C4)cc2)c1
REMARK SMILES IDX 20 1 19 2 18 3 16 4 17 5 7 6 6 7 1 8 2 9 3 10 93 11 4 12
REMARK SMILES IDX 5 13 8 14 9 15 10 16 11 17 12 18 15 19 13 20 14 21 21 22
REMARK SMILES IDX 22 23 23 24 24 25 25 26 26 27 27 28 28 29 92 30 29 31 91 32
REMARK SMILES IDX 30 33 31 34 32 35 85 36 33 37 90 38 84 39 86 40 34 41 89 42
REMARK SMILES IDX 83 43 82 44 35 46 69 47 48 48 68 49 49 50 52 51 67 52 87 53
REMARK SMILES IDX 50 54 51 55 66 57 88 58 53 59 36 60 37 61 46 62 38 63 39 64
REMARK SMILES IDX 45 65 47 66 40 67 41 68 42 69 43 70 44 71 70 72 71 73 80 74
REMARK SMILES IDX 72 75 73 76 79 77 81 78 74 79 75 80 76 81 77 82 78 83 54 84
REMARK SMILES IDX 55 85 64 86 56 87 57 88 63 89 65 90 58 91 59 92 60 93 61 94
REMARK SMILES IDX 62 95
REMARK H PARENT 86 45 52 56
REMARK Flexibility Score: inf
ROOT
ATOM      1  C   UNL     1      -2.427   0.663   2.664  1.00  0.00     0.202 C 
ENDROOT
BRANCH   1   2
ATOM      2  C   UNL     1      -3.251   1.257   1.549  1.00  0.00     0.261 C 
BRANCH   2   3
ATOM      3  O   UNL     1      -2.370   1.646   0.505  1.00  0.00    -0.463 OA
BRANCH   3   4
ATOM      4  C   UNL     1      -1.564   2.727   0.559  1.00  0.00     0.313 C 
ATOM      5  O   UNL     1      -1.607   3.653   1.369  1.00  0.00    -0.252 OA
BRANCH   4   6
ATOM      6  C   UNL     1      -0.520   2.558  -0.541  1.00  0.00     0.129 C 
BRANCH   6   7
ATOM      7  C   UNL     1       0.066   1.137  -0.530  1.00  0.00    -0.034 A 
ATOM      8  C   UNL     1       3.462  -0.435   0.042  1.00  0.00     0.044 C 
ATOM      9  C   UNL     1       1.985  -0.286  -0.121  1.00  0.00    -0.051 A 
ATOM     10  C   UNL     1       1.155  -1.413  -0.098  1.00  0.00     0.003 A 
ATOM     11  C   UNL     1       1.434   0.984  -0.315  1.00  0.00     0.008 A 
ATOM     12  C   UNL     1      -0.202  -1.284  -0.349  1.00  0.00     0.001 A 
ATOM     13  C   UNL     1      -0.723  -0.028  -0.627  1.00  0.00     0.004 A 
ENDBRANCH   6   7
BRANCH   6  14
ATOM     14  C   UNL     1      -0.930   3.002  -1.951  1.00  0.00     0.020 C 
BRANCH  14  15
ATOM     15  C   UNL     1      -2.245   2.480  -2.517  1.00  0.00     0.004 C 
BRANCH  15  16
ATOM     16  C   UNL     1      -3.515   2.911  -1.825  1.00  0.00     0.032 C 
BRANCH  16  17
ATOM     17  C   UNL     1      -3.670   4.359  -1.398  1.00  0.00     0.118 C 
ATOM     18  C   UNL     1      -4.158   5.234  -2.523  1.00  0.00     0.034 C 
ATOM     19  O   UNL     1      -2.587   5.134  -0.881  1.00  0.00    -0.378 OA
ATOM     20  C   UNL     1      -4.279   6.522  -1.764  1.00  0.00     0.031 C 
ATOM     21  C   UNL     1      -3.157   6.461  -0.741  1.00  0.00     0.160 C 
ENDBRANCH  16  17
ENDBRANCH  15  16
ENDBRANCH  14  15
ENDBRANCH   6  14
ENDBRANCH   4   6
ENDBRANCH   3   4
ENDBRANCH   2   3
ENDBRANCH   1   2
BRANCH   1  22
ATOM     22  O   UNL     1      -1.805   1.783   3.282  1.00  0.00    -0.374 OA
BRANCH  22  23
ATOM     23  C   UNL     1      -0.585   1.555   3.943  1.00  0.00     0.202 C 
BRANCH  23  24
ATOM     24  C   UNL     1      -0.778   0.658   5.162  1.00  0.00     0.261 C 
BRANCH  24  25
ATOM     25  O   UNL     1      -1.727   1.273   6.066  1.00  0.00    -0.460 OA
BRANCH  25  26
ATOM     26  C   UNL     1      -2.956   0.674   6.116  1.00  0.00     0.338 C 
ATOM     27  O   UNL     1      -3.144  -0.443   6.566  1.00  0.00    -0.246 OA
BRANCH  26  28
ATOM     28  C   UNL     1      -4.003   1.535   5.468  1.00  0.00     0.060 A 
ATOM     29  C   UNL     1      -5.219   0.984   5.015  1.00  0.00     0.016 A 
ATOM     30  C   UNL     1      -3.647   2.809   5.049  1.00  0.00     0.016 A 
ATOM     31  C   UNL     1      -5.999   1.644   4.035  1.00  0.00     0.010 A 
ATOM     32  C   UNL     1      -4.346   3.386   4.004  1.00  0.00     0.010 A 
ATOM     33  C   UNL     1      -5.534   2.833   3.477  1.00  0.00    -0.014 A 
BRANCH  33  34
ATOM     34  C   UNL     1      -6.109   3.619   2.354  1.00  0.00     0.031 A 
ATOM     35  C   UNL     1      -6.215   5.109   2.604  1.00  0.00     0.074 A 
ATOM     36  C   UNL     1      -6.290   3.156   1.088  1.00  0.00     0.049 A 
ATOM     37  N   UNL     1      -6.277   6.037   1.713  1.00  0.00    -0.248 NA
ATOM     38  C   UNL     1      -6.150   5.675   3.950  1.00  0.00     0.031 C 
ATOM     39  C   UNL     1      -6.499   4.017  -0.076  1.00  0.00     0.029 A 
ATOM     40  N   UNL     1      -6.272   1.895   0.497  1.00  0.00    -0.354 N 
ATOM     41  C   UNL     1      -6.253   7.277   2.310  1.00  0.00     0.074 A 
ATOM     42  C   UNL     1      -6.011   6.981   3.696  1.00  0.00     0.031 C 
ATOM     43  C   UNL     1      -6.616   3.304  -1.197  1.00  0.00     0.029 A 
ATOM     44  C   UNL     1      -6.848   1.959  -0.777  1.00  0.00     0.049 A 
ATOM     45  H   UNL     1      -5.909   1.081   0.913  1.00  0.00     0.167 HD
ATOM     46  C   UNL     1      -6.477   8.388   1.541  1.00  0.00     0.037 A 
ATOM     47  C   UNL     1      -7.964   1.310  -1.212  1.00  0.00     0.037 A 
ATOM     48  C   UNL     1      -7.078   7.994   0.232  1.00  0.00     0.049 A 
ATOM     49  C   UNL     1      -9.005   2.403  -1.530  1.00  0.00     0.074 A 
ATOM     50  C   UNL     1      -6.832   8.245  -1.106  1.00  0.00     0.029 A 
ATOM     51  N   UNL     1      -8.132   7.056   0.224  1.00  0.00    -0.354 N 
ATOM     52  N   UNL     1      -9.209   3.468  -0.768  1.00  0.00    -0.248 NA
ATOM     53  C   UNL     1      -9.492   2.594  -2.904  1.00  0.00     0.031 C 
ATOM     54  C   UNL     1      -7.647   7.373  -1.898  1.00  0.00     0.029 A 
ATOM     55  C   UNL     1      -8.448   6.615  -1.052  1.00  0.00     0.049 A 
ATOM     56  H   UNL     1      -8.593   6.747   1.037  1.00  0.00     0.167 HD
ATOM     57  C   UNL     1      -9.650   4.504  -1.578  1.00  0.00     0.074 A 
ATOM     58  C   UNL     1      -9.828   3.895  -2.895  1.00  0.00     0.031 C 
ATOM     59  C   UNL     1      -9.670   5.849  -1.301  1.00  0.00     0.037 A 
BRANCH  46  60
ATOM     60  C   UNL     1      -6.137   9.846   1.934  1.00  0.00     0.058 A 
ATOM     61  C   UNL     1      -6.112  10.878   0.963  1.00  0.00     0.135 A 
ATOM     62  C   UNL     1      -5.770  10.312   3.221  1.00  0.00     0.135 A 
ATOM     63  F   UNL     1      -6.478  10.668  -0.304  1.00  0.00    -0.206 F 
ATOM     64  C   UNL     1      -5.713  12.198   1.222  1.00  0.00     0.059 A 
ATOM     65  C   UNL     1      -5.370  11.630   3.509  1.00  0.00     0.059 A 
ATOM     66  F   UNL     1      -5.811   9.534   4.302  1.00  0.00    -0.206 F 
ATOM     67  C   UNL     1      -5.333  12.569   2.498  1.00  0.00     0.060 A 
BRANCH  67  68
ATOM     68  S   UNL     1      -4.847  14.278   2.804  1.00  0.00     0.124 S 
ATOM     69  O   UNL     1      -3.630  14.395   2.008  1.00  0.00    -0.237 OA
ATOM     70  O   UNL     1      -6.001  15.021   2.308  1.00  0.00    -0.237 OA
ATOM     71  O   UNL     1      -4.652  14.326   4.250  1.00  0.00    -0.744 OA
ENDBRANCH  67  68
ENDBRANCH  46  60
BRANCH  47  72
ATOM     72  C   UNL     1      -8.035  -0.084  -0.696  1.00  0.00     0.058 A 
ATOM     73  C   UNL     1      -7.074  -0.954  -1.272  1.00  0.00     0.135 A 
ATOM     74  C   UNL     1      -8.362  -0.300   0.649  1.00  0.00     0.135 A 
ATOM     75  F   UNL     1      -6.763  -0.837  -2.574  1.00  0.00    -0.206 F 
ATOM     76  C   UNL     1      -6.266  -1.776  -0.487  1.00  0.00     0.059 A 
ATOM     77  C   UNL     1      -7.559  -1.117   1.455  1.00  0.00     0.059 A 
ATOM     78  F   UNL     1      -9.289   0.464   1.243  1.00  0.00    -0.206 F 
ATOM     79  C   UNL     1      -6.466  -1.786   0.890  1.00  0.00     0.060 A 
BRANCH  79  80
ATOM     80  S   UNL     1      -5.135  -2.420   1.953  1.00  0.00     0.124 S 
ATOM     81  O   UNL     1      -5.412  -3.850   1.964  1.00  0.00    -0.237 OA
ATOM     82  O   UNL     1      -3.930  -2.010   1.236  1.00  0.00    -0.237 OA
ATOM     83  O   UNL     1      -5.365  -1.707   3.204  1.00  0.00    -0.744 OA
ENDBRANCH  79  80
ENDBRANCH  47  72
BRANCH  59  84
ATOM     84  C   UNL     1     -10.921   6.659  -1.562  1.00  0.00     0.058 A 
ATOM     85  C   UNL     1     -12.116   6.092  -2.026  1.00  0.00     0.135 A 
ATOM     86  C   UNL     1     -10.985   8.039  -1.224  1.00  0.00     0.135 A 
ATOM     87  F   UNL     1     -12.225   4.782  -2.288  1.00  0.00    -0.206 F 
ATOM     88  C   UNL     1     -13.265   6.848  -2.212  1.00  0.00     0.059 A 
ATOM     89  C   UNL     1     -12.126   8.806  -1.388  1.00  0.00     0.059 A 
ATOM     90  F   UNL     1      -9.958   8.697  -0.671  1.00  0.00    -0.206 F 
ATOM     91  C   UNL     1     -13.258   8.203  -1.899  1.00  0.00     0.060 A 
BRANCH  91  92
ATOM     92  S   UNL     1     -14.768   9.142  -2.112  1.00  0.00     0.124 S 
ATOM     93  O   UNL     1     -14.832   9.255  -3.566  1.00  0.00    -0.237 OA
ATOM     94  O   UNL     1     -15.761   8.265  -1.499  1.00  0.00    -0.237 OA
ATOM     95  O   UNL     1     -14.506  10.383  -1.392  1.00  0.00    -0.744 OA
ENDBRANCH  91  92
ENDBRANCH  59  84
ENDBRANCH  33  34
ENDBRANCH  26  28
ENDBRANCH  25  26
ENDBRANCH  24  25
ENDBRANCH  23  24
ENDBRANCH  22  23
ENDBRANCH   1  22
TORSDOF 22
