REMARK SMILES CC1(C)[C@H](C(=O)OCCOCCOC(=O)c2ccc(-c3c4nc(c(-c5c(F)cc(S(=O)(=O)[O-])cc5F)c5ccc([nH]5)c(-c5c(F)cc(S(=O)(=O)[O-])cc5F)c5nc(c(-c6c(F)cc(S(=O)(=O)[O-])cc6F)c6ccc3[nH]6)C=C5)C=C4)cc2)[C@@H]1C(=O)Nc1ccon1
REMARK SMILES IDX 11 1 10 2 9 3 8 4 7 5 5 6 6 7 4 8 1 9 2 10 3 11 82 12 83 13
REMARK SMILES IDX 84 14 85 15 86 17 87 18 90 19 88 20 89 21 12 22 13 23 14 24
REMARK SMILES IDX 15 25 16 26 17 27 81 28 18 29 80 30 19 31 20 32 21 33 74 34
REMARK SMILES IDX 22 35 79 36 73 37 75 38 23 39 78 40 72 41 71 42 24 44 58 45
REMARK SMILES IDX 37 46 57 47 38 48 41 49 56 50 76 51 39 52 40 53 55 55 77 56
REMARK SMILES IDX 42 57 25 58 26 59 35 60 27 61 28 62 34 63 36 64 29 65 30 66
REMARK SMILES IDX 31 67 32 68 33 69 59 70 60 71 69 72 61 73 62 74 68 75 70 76
REMARK SMILES IDX 63 77 64 78 65 79 66 80 67 81 43 82 44 83 53 84 45 85 46 86
REMARK SMILES IDX 52 87 54 88 47 89 48 90 49 91 50 92 51 93
REMARK H PARENT 85 16 75 43 41 54
REMARK Flexibility Score: inf
ROOT
ATOM      1  C   UNL     1      -0.491   0.883  -4.241  1.00  0.00     0.202 C 
ENDROOT
BRANCH   1   2
ATOM      2  O   UNL     1      -1.718   1.502  -4.612  1.00  0.00    -0.374 OA
BRANCH   2   3
ATOM      3  C   UNL     1      -2.162   2.671  -3.938  1.00  0.00     0.202 C 
BRANCH   3   4
ATOM      4  C   UNL     1      -2.560   2.613  -2.457  1.00  0.00     0.261 C 
BRANCH   4   5
ATOM      5  O   UNL     1      -1.698   1.845  -1.614  1.00  0.00    -0.463 OA
BRANCH   5   6
ATOM      6  C   UNL     1      -2.070   0.546  -1.516  1.00  0.00     0.310 C 
ATOM      7  O   UNL     1      -2.949   0.004  -2.174  1.00  0.00    -0.252 OA
BRANCH   6   8
ATOM      8  C   UNL     1      -1.295  -0.274  -0.564  1.00  0.00     0.118 C 
ATOM      9  C   UNL     1       0.998  -1.078   0.203  1.00  0.00     0.013 C 
ATOM     10  C   UNL     1      -0.005   0.054   0.147  1.00  0.00    -0.009 C 
ATOM     11  C   UNL     1       0.661   1.404   0.001  1.00  0.00     0.013 C 
ATOM     12  C   UNL     1      -1.333  -0.083   0.933  1.00  0.00     0.100 C 
BRANCH  12  13
ATOM     13  C   UNL     1      -1.814   1.104   1.693  1.00  0.00     0.230 C 
ATOM     14  O   UNL     1      -1.075   1.567   2.559  1.00  0.00    -0.274 OA
ATOM     15  N   UNL     1      -3.020   1.695   1.452  1.00  0.00    -0.308 N 
ATOM     16  H   UNL     1      -3.124   2.582   1.868  1.00  0.00     0.171 HD
BRANCH  15  17
ATOM     17  C   UNL     1      -4.114   1.279   0.738  1.00  0.00     0.175 A 
ATOM     18  C   UNL     1      -4.481  -0.009   0.294  1.00  0.00     0.092 A 
ATOM     19  N   UNL     1      -5.025   2.183   0.362  1.00  0.00    -0.062 NA
ATOM     20  C   UNL     1      -5.572   0.207  -0.508  1.00  0.00     0.233 A 
ATOM     21  O   UNL     1      -5.910   1.516  -0.463  1.00  0.00    -0.363 OA
ENDBRANCH  15  17
ENDBRANCH  12  13
ENDBRANCH   6   8
ENDBRANCH   5   6
ENDBRANCH   4   5
ENDBRANCH   3   4
ENDBRANCH   2   3
ENDBRANCH   1   2
BRANCH   1  22
ATOM     22  C   UNL     1       0.827   1.663  -4.293  1.00  0.00     0.261 C 
BRANCH  22  23
ATOM     23  O   UNL     1       0.815   2.896  -3.562  1.00  0.00    -0.460 OA
BRANCH  23  24
ATOM     24  C   UNL     1       0.867   3.996  -4.353  1.00  0.00     0.338 C 
ATOM     25  O   UNL     1       0.922   4.024  -5.571  1.00  0.00    -0.246 OA
BRANCH  24  26
ATOM     26  C   UNL     1       0.667   5.215  -3.554  1.00  0.00     0.060 A 
ATOM     27  C   UNL     1      -0.388   6.060  -3.921  1.00  0.00     0.016 A 
ATOM     28  C   UNL     1       1.578   5.593  -2.567  1.00  0.00     0.016 A 
ATOM     29  C   UNL     1      -0.493   7.324  -3.353  1.00  0.00     0.010 A 
ATOM     30  C   UNL     1       1.475   6.867  -2.003  1.00  0.00     0.010 A 
ATOM     31  C   UNL     1       0.471   7.755  -2.433  1.00  0.00    -0.014 A 
BRANCH  31  32
ATOM     32  C   UNL     1       0.526   9.192  -2.079  1.00  0.00     0.031 A 
ATOM     33  C   UNL     1       1.549  10.067  -2.753  1.00  0.00     0.074 A 
ATOM     34  C   UNL     1      -0.365   9.720  -1.222  1.00  0.00     0.049 A 
ATOM     35  N   UNL     1       1.774  11.346  -2.603  1.00  0.00    -0.248 NA
ATOM     36  C   UNL     1       2.437   9.411  -3.728  1.00  0.00     0.031 C 
ATOM     37  C   UNL     1      -1.428   8.976  -0.546  1.00  0.00     0.029 A 
ATOM     38  N   UNL     1      -0.519  11.008  -0.777  1.00  0.00    -0.354 N 
ATOM     39  C   UNL     1       2.832  11.647  -3.455  1.00  0.00     0.074 A 
ATOM     40  C   UNL     1       3.227  10.410  -4.093  1.00  0.00     0.031 C 
ATOM     41  C   UNL     1      -2.122   9.822   0.234  1.00  0.00     0.029 A 
ATOM     42  C   UNL     1      -1.534  11.156   0.137  1.00  0.00     0.049 A 
ATOM     43  H   UNL     1       0.045  11.755  -1.083  1.00  0.00     0.167 HD
ATOM     44  C   UNL     1       3.411  12.848  -3.693  1.00  0.00     0.037 A 
ATOM     45  C   UNL     1      -1.929  12.243   0.829  1.00  0.00     0.037 A 
ATOM     46  C   UNL     1       3.004  14.074  -3.057  1.00  0.00     0.049 A 
ATOM     47  C   UNL     1      -1.227  13.556   0.595  1.00  0.00     0.074 A 
ATOM     48  C   UNL     1       3.512  15.348  -3.241  1.00  0.00     0.029 A 
ATOM     49  N   UNL     1       1.996  14.180  -2.110  1.00  0.00    -0.354 N 
ATOM     50  N   UNL     1      -0.243  13.832  -0.230  1.00  0.00    -0.248 NA
ATOM     51  C   UNL     1      -1.693  14.707   1.380  1.00  0.00     0.031 C 
ATOM     52  C   UNL     1       2.850  16.213  -2.364  1.00  0.00     0.029 A 
ATOM     53  C   UNL     1       1.885  15.491  -1.679  1.00  0.00     0.049 A 
ATOM     54  H   UNL     1       1.440  13.432  -1.791  1.00  0.00     0.167 HD
ATOM     55  C   UNL     1       0.008  15.193  -0.082  1.00  0.00     0.074 A 
ATOM     56  C   UNL     1      -0.938  15.685   0.899  1.00  0.00     0.031 C 
ATOM     57  C   UNL     1       0.935  15.966  -0.702  1.00  0.00     0.037 A 
BRANCH  44  58
ATOM     58  C   UNL     1       4.565  12.890  -4.659  1.00  0.00     0.058 A 
ATOM     59  C   UNL     1       4.387  12.697  -6.038  1.00  0.00     0.135 A 
ATOM     60  C   UNL     1       5.865  13.161  -4.200  1.00  0.00     0.135 A 
ATOM     61  F   UNL     1       3.170  12.417  -6.531  1.00  0.00    -0.206 F 
ATOM     62  C   UNL     1       5.459  12.747  -6.924  1.00  0.00     0.059 A 
ATOM     63  C   UNL     1       6.947  13.244  -5.071  1.00  0.00     0.059 A 
ATOM     64  F   UNL     1       6.094  13.349  -2.891  1.00  0.00    -0.206 F 
ATOM     65  C   UNL     1       6.736  13.022  -6.431  1.00  0.00     0.060 A 
BRANCH  65  66
ATOM     66  S   UNL     1       8.114  13.092  -7.595  1.00  0.00     0.124 S 
ATOM     67  O   UNL     1       8.266  11.684  -7.951  1.00  0.00    -0.237 OA
ATOM     68  O   UNL     1       7.591  13.959  -8.646  1.00  0.00    -0.237 OA
ATOM     69  O   UNL     1       9.202  13.658  -6.802  1.00  0.00    -0.744 OA
ENDBRANCH  65  66
ENDBRANCH  44  58
BRANCH  45  70
ATOM     70  C   UNL     1      -3.037  12.134   1.815  1.00  0.00     0.058 A 
ATOM     71  C   UNL     1      -4.270  12.767   1.599  1.00  0.00     0.135 A 
ATOM     72  C   UNL     1      -2.883  11.392   2.997  1.00  0.00     0.135 A 
ATOM     73  F   UNL     1      -4.464  13.496   0.489  1.00  0.00    -0.206 F 
ATOM     74  C   UNL     1      -5.304  12.684   2.526  1.00  0.00     0.059 A 
ATOM     75  C   UNL     1      -3.912  11.269   3.925  1.00  0.00     0.059 A 
ATOM     76  F   UNL     1      -1.727  10.757   3.248  1.00  0.00    -0.206 F 
ATOM     77  C   UNL     1      -5.116  11.929   3.685  1.00  0.00     0.060 A 
BRANCH  77  78
ATOM     78  S   UNL     1      -6.480  11.794   4.861  1.00  0.00     0.124 S 
ATOM     79  O   UNL     1      -6.505  13.133   5.437  1.00  0.00    -0.237 OA
ATOM     80  O   UNL     1      -7.601  11.451   3.990  1.00  0.00    -0.237 OA
ATOM     81  O   UNL     1      -6.045  10.728   5.759  1.00  0.00    -0.744 OA
ENDBRANCH  77  78
ENDBRANCH  45  70
BRANCH  57  82
ATOM     82  C   UNL     1       0.951  17.433  -0.366  1.00  0.00     0.058 A 
ATOM     83  C   UNL     1       1.392  17.904   0.881  1.00  0.00     0.135 A 
ATOM     84  C   UNL     1       0.562  18.386  -1.323  1.00  0.00     0.135 A 
ATOM     85  F   UNL     1       1.772  17.038   1.834  1.00  0.00    -0.206 F 
ATOM     86  C   UNL     1       1.415  19.263   1.179  1.00  0.00     0.059 A 
ATOM     87  C   UNL     1       0.608  19.751  -1.058  1.00  0.00     0.059 A 
ATOM     88  F   UNL     1       0.145  17.993  -2.537  1.00  0.00    -0.206 F 
ATOM     89  C   UNL     1       1.021  20.179   0.202  1.00  0.00     0.060 A 
BRANCH  89  90
ATOM     90  S   UNL     1       1.077  21.940   0.595  1.00  0.00     0.124 S 
ATOM     91  O   UNL     1      -0.055  22.074   1.506  1.00  0.00    -0.237 OA
ATOM     92  O   UNL     1       2.398  22.083   1.199  1.00  0.00    -0.237 OA
ATOM     93  O   UNL     1       0.916  22.584  -0.705  1.00  0.00    -0.744 OA
ENDBRANCH  89  90
ENDBRANCH  57  82
ENDBRANCH  31  32
ENDBRANCH  24  26
ENDBRANCH  23  24
ENDBRANCH  22  23
ENDBRANCH   1  22
TORSDOF 19
