REMARK SMILES Cc1ccc(C(=O)OCCOCCOC(=O)c2ccc(-c3c4nc(c(-c5c(F)cc(S(=O)(=O)[O-])cc5F)c5ccc([nH]5)c(-c5c(F)cc(S(=O)(=O)[O-])cc5F)c5nc(c(-c6c(F)cc(S(=O)(=O)[O-])cc6F)c6ccc3[nH]6)C=C5)C=C4)cc2)cc1N1CC(C)C1
REMARK SMILES IDX 12 1 11 2 10 3 9 4 8 5 6 6 7 7 5 8 1 9 2 10 3 11 84 12 4 13
REMARK SMILES IDX 83 14 85 15 86 16 89 17 87 18 88 19 13 20 14 21 15 22 16 23
REMARK SMILES IDX 17 24 18 25 82 26 19 27 81 28 20 29 21 30 22 31 75 32 23 33
REMARK SMILES IDX 80 34 74 35 76 36 24 37 79 38 73 39 72 40 25 42 59 43 38 44
REMARK SMILES IDX 58 45 39 46 42 47 57 48 77 49 40 50 41 51 56 53 78 54 43 55
REMARK SMILES IDX 26 56 27 57 36 58 28 59 29 60 35 61 37 62 30 63 31 64 32 65
REMARK SMILES IDX 33 66 34 67 60 68 61 69 70 70 62 71 63 72 69 73 71 74 64 75
REMARK SMILES IDX 65 76 66 77 67 78 68 79 44 80 45 81 54 82 46 83 47 84 53 85
REMARK SMILES IDX 55 86 48 87 49 88 50 89 51 90 52 91
REMARK H PARENT 76 41 42 52
REMARK Flexibility Score: inf
ROOT
ATOM      1  C   UNL     1      -3.580  -1.099  -3.471  1.00  0.00     0.202 C 
ENDROOT
BRANCH   1   2
ATOM      2  O   UNL     1      -3.800  -0.302  -2.335  1.00  0.00    -0.374 OA
BRANCH   2   3
ATOM      3  C   UNL     1      -3.780   1.103  -2.547  1.00  0.00     0.202 C 
BRANCH   3   4
ATOM      4  C   UNL     1      -3.865   1.697  -1.181  1.00  0.00     0.261 C 
BRANCH   4   5
ATOM      5  O   UNL     1      -2.685   1.405  -0.405  1.00  0.00    -0.460 OA
BRANCH   5   6
ATOM      6  C   UNL     1      -2.453   0.171   0.129  1.00  0.00     0.338 C 
ATOM      7  O   UNL     1      -3.209  -0.750   0.307  1.00  0.00    -0.246 OA
BRANCH   6   8
ATOM      8  C   UNL     1      -0.991   0.084   0.320  1.00  0.00     0.062 A 
ATOM      9  C   UNL     1       3.270  -0.133  -0.081  1.00  0.00     0.046 C 
ATOM     10  C   UNL     1       1.786  -0.006   0.110  1.00  0.00    -0.028 A 
ATOM     11  C   UNL     1       1.024  -1.194   0.109  1.00  0.00     0.006 A 
ATOM     12  C   UNL     1       1.146   1.236   0.286  1.00  0.00     0.040 A 
ATOM     13  C   UNL     1      -0.364  -1.153   0.209  1.00  0.00     0.016 A 
ATOM     14  C   UNL     1      -0.239   1.253   0.430  1.00  0.00     0.041 A 
BRANCH  12  15
ATOM     15  N   UNL     1       1.846   2.464   0.232  1.00  0.00    -0.371 N 
ATOM     16  C   UNL     1       1.463   3.701   0.861  1.00  0.00     0.121 C 
ATOM     17  C   UNL     1       2.205   3.095  -1.013  1.00  0.00     0.121 C 
ATOM     18  C   UNL     1       1.705   4.430  -0.458  1.00  0.00     0.025 C 
ATOM     19  C   UNL     1       2.700   5.570  -0.392  1.00  0.00     0.011 C 
ENDBRANCH  12  15
ENDBRANCH   6   8
ENDBRANCH   5   6
ENDBRANCH   4   5
ENDBRANCH   3   4
ENDBRANCH   2   3
ENDBRANCH   1   2
BRANCH   1  20
ATOM     20  C   UNL     1      -4.582  -0.818  -4.593  1.00  0.00     0.261 C 
BRANCH  20  21
ATOM     21  O   UNL     1      -5.900  -1.303  -4.247  1.00  0.00    -0.460 OA
BRANCH  21  22
ATOM     22  C   UNL     1      -6.822  -0.361  -3.880  1.00  0.00     0.338 C 
ATOM     23  O   UNL     1      -7.444   0.321  -4.675  1.00  0.00    -0.246 OA
BRANCH  22  24
ATOM     24  C   UNL     1      -6.995  -0.341  -2.398  1.00  0.00     0.060 A 
ATOM     25  C   UNL     1      -7.571   0.756  -1.729  1.00  0.00     0.016 A 
ATOM     26  C   UNL     1      -6.407  -1.360  -1.660  1.00  0.00     0.016 A 
ATOM     27  C   UNL     1      -7.421   0.903  -0.336  1.00  0.00     0.010 A 
ATOM     28  C   UNL     1      -6.170  -1.160  -0.320  1.00  0.00     0.010 A 
ATOM     29  C   UNL     1      -6.651  -0.025   0.357  1.00  0.00    -0.014 A 
BRANCH  29  30
ATOM     30  C   UNL     1      -6.212   0.038   1.757  1.00  0.00     0.031 A 
ATOM     31  C   UNL     1      -6.627  -1.086   2.634  1.00  0.00     0.074 A 
ATOM     32  C   UNL     1      -5.161   0.823   2.110  1.00  0.00     0.049 A 
ATOM     33  N   UNL     1      -6.330  -1.187   3.880  1.00  0.00    -0.248 NA
ATOM     34  C   UNL     1      -7.453  -2.207   2.178  1.00  0.00     0.031 C 
ATOM     35  C   UNL     1      -4.146   0.572   3.135  1.00  0.00     0.029 A 
ATOM     36  N   UNL     1      -4.735   2.042   1.574  1.00  0.00    -0.354 N 
ATOM     37  C   UNL     1      -6.525  -2.501   4.247  1.00  0.00     0.074 A 
ATOM     38  C   UNL     1      -7.380  -3.036   3.223  1.00  0.00     0.031 C 
ATOM     39  C   UNL     1      -3.431   1.692   3.355  1.00  0.00     0.029 A 
ATOM     40  C   UNL     1      -4.043   2.749   2.567  1.00  0.00     0.049 A 
ATOM     41  H   UNL     1      -4.894   2.352   0.653  1.00  0.00     0.167 HD
ATOM     42  C   UNL     1      -5.781  -2.988   5.283  1.00  0.00     0.037 A 
ATOM     43  C   UNL     1      -4.505   3.958   2.986  1.00  0.00     0.037 A 
ATOM     44  C   UNL     1      -5.050  -1.879   5.927  1.00  0.00     0.049 A 
ATOM     45  C   UNL     1      -4.936   3.788   4.413  1.00  0.00     0.074 A 
ATOM     46  C   UNL     1      -3.715  -1.515   5.970  1.00  0.00     0.029 A 
ATOM     47  N   UNL     1      -5.766  -0.767   6.381  1.00  0.00    -0.354 N 
ATOM     48  N   UNL     1      -5.289   2.627   4.896  1.00  0.00    -0.248 NA
ATOM     49  C   UNL     1      -4.845   4.819   5.440  1.00  0.00     0.031 C 
ATOM     50  C   UNL     1      -3.648  -0.142   6.351  1.00  0.00     0.029 A 
ATOM     51  C   UNL     1      -4.939   0.327   6.557  1.00  0.00     0.049 A 
ATOM     52  H   UNL     1      -6.735  -0.764   6.554  1.00  0.00     0.167 HD
ATOM     53  C   UNL     1      -5.329   2.695   6.251  1.00  0.00     0.074 A 
ATOM     54  C   UNL     1      -5.117   4.103   6.548  1.00  0.00     0.031 C 
ATOM     55  C   UNL     1      -5.476   1.595   7.041  1.00  0.00     0.037 A 
BRANCH  42  56
ATOM     56  C   UNL     1      -5.511  -4.461   5.596  1.00  0.00     0.058 A 
ATOM     57  C   UNL     1      -4.589  -4.809   6.612  1.00  0.00     0.135 A 
ATOM     58  C   UNL     1      -6.047  -5.579   4.915  1.00  0.00     0.135 A 
ATOM     59  F   UNL     1      -3.999  -3.874   7.370  1.00  0.00    -0.206 F 
ATOM     60  C   UNL     1      -4.215  -6.128   6.901  1.00  0.00     0.059 A 
ATOM     61  C   UNL     1      -5.705  -6.907   5.200  1.00  0.00     0.059 A 
ATOM     62  F   UNL     1      -6.928  -5.465   3.921  1.00  0.00    -0.206 F 
ATOM     63  C   UNL     1      -4.780  -7.175   6.191  1.00  0.00     0.060 A 
BRANCH  63  64
ATOM     64  S   UNL     1      -4.313  -8.869   6.586  1.00  0.00     0.124 S 
ATOM     65  O   UNL     1      -2.890  -8.879   6.261  1.00  0.00    -0.237 OA
ATOM     66  O   UNL     1      -4.642  -8.955   8.005  1.00  0.00    -0.237 OA
ATOM     67  O   UNL     1      -5.157  -9.673   5.705  1.00  0.00    -0.744 OA
ENDBRANCH  63  64
ENDBRANCH  42  56
BRANCH  43  68
ATOM     68  C   UNL     1      -5.123   4.729   1.856  1.00  0.00     0.058 A 
ATOM     69  C   UNL     1      -4.231   5.234   0.878  1.00  0.00     0.135 A 
ATOM     70  C   UNL     1      -6.446   4.508   1.442  1.00  0.00     0.135 A 
ATOM     71  F   UNL     1      -2.943   5.450   1.197  1.00  0.00    -0.206 F 
ATOM     72  C   UNL     1      -4.588   5.361  -0.467  1.00  0.00     0.059 A 
ATOM     73  C   UNL     1      -6.820   4.613   0.092  1.00  0.00     0.059 A 
ATOM     74  F   UNL     1      -7.350   4.025   2.307  1.00  0.00    -0.206 F 
ATOM     75  C   UNL     1      -5.869   4.985  -0.862  1.00  0.00     0.060 A 
BRANCH  75  76
ATOM     76  S   UNL     1      -6.188   4.752  -2.638  1.00  0.00     0.124 S 
ATOM     77  O   UNL     1      -6.330   6.126  -3.104  1.00  0.00    -0.237 OA
ATOM     78  O   UNL     1      -4.980   4.059  -3.084  1.00  0.00    -0.237 OA
ATOM     79  O   UNL     1      -7.401   3.945  -2.655  1.00  0.00    -0.744 OA
ENDBRANCH  75  76
ENDBRANCH  43  68
BRANCH  55  80
ATOM     80  C   UNL     1      -6.089   1.664   8.406  1.00  0.00     0.058 A 
ATOM     81  C   UNL     1      -6.981   2.683   8.782  1.00  0.00     0.135 A 
ATOM     82  C   UNL     1      -5.949   0.592   9.314  1.00  0.00     0.135 A 
ATOM     83  F   UNL     1      -7.301   3.687   7.951  1.00  0.00    -0.206 F 
ATOM     84  C   UNL     1      -7.611   2.692  10.018  1.00  0.00     0.059 A 
ATOM     85  C   UNL     1      -6.628   0.543  10.521  1.00  0.00     0.059 A 
ATOM     86  F   UNL     1      -5.160  -0.461   9.051  1.00  0.00    -0.206 F 
ATOM     87  C   UNL     1      -7.423   1.620  10.883  1.00  0.00     0.060 A 
BRANCH  87  88
ATOM     88  S   UNL     1      -8.230   1.647  12.484  1.00  0.00     0.124 S 
ATOM     89  O   UNL     1      -7.328   2.511  13.239  1.00  0.00    -0.237 OA
ATOM     90  O   UNL     1      -9.537   2.216  12.171  1.00  0.00    -0.237 OA
ATOM     91  O   UNL     1      -8.242   0.243  12.881  1.00  0.00    -0.744 OA
ENDBRANCH  87  88
ENDBRANCH  55  80
ENDBRANCH  29  30
ENDBRANCH  22  24
ENDBRANCH  21  22
ENDBRANCH  20  21
ENDBRANCH   1  20
TORSDOF 18
