REMARK SMILES Cc1cc(C)n(-c2nc(C)c(C)c(Oc3cccc(C(=O)OCCOCCOC(=O)c4ccc(-c5c6nc(c(-c7c(F)cc(S(=O)(=O)[O-])cc7F)c7ccc([nH]7)c(-c7c(F)cc(S(=O)(=O)[O-])cc7F)c7nc(c(-c8c(F)cc(S(=O)(=O)[O-])cc8F)c8ccc5[nH]8)C=C7)C=C6)cc4)c3)n2)n1
REMARK SMILES IDX 25 1 24 2 23 3 22 4 20 5 21 6 19 7 15 8 16 9 97 10 17 11
REMARK SMILES IDX 18 12 14 13 13 14 7 15 8 16 98 17 9 18 10 19 11 20 12 21
REMARK SMILES IDX 6 22 1 23 2 24 3 25 99 26 4 27 5 28 26 29 27 30 28 31 29 32
REMARK SMILES IDX 30 33 31 34 32 35 96 36 33 37 95 38 34 39 35 40 36 41 89 42
REMARK SMILES IDX 37 43 94 44 88 45 90 46 38 47 93 48 87 49 86 50 39 52 73 53
REMARK SMILES IDX 52 54 72 55 53 56 56 57 71 58 91 59 54 60 55 61 70 63 92 64
REMARK SMILES IDX 57 65 40 66 41 67 50 68 42 69 43 70 49 71 51 72 44 73 45 74
REMARK SMILES IDX 46 75 47 76 48 77 74 78 75 79 84 80 76 81 77 82 83 83 85 84
REMARK SMILES IDX 78 85 79 86 80 87 81 88 82 89 58 90 59 91 68 92 60 93 61 94
REMARK SMILES IDX 67 95 69 96 62 97 63 98 64 99 65 100 66 101
REMARK H PARENT 90 51 56 62
REMARK Flexibility Score: inf
ROOT
ATOM      1  O   UNL     1      -1.991   3.881  -8.046  1.00  0.00    -0.374 OA
ENDROOT
BRANCH   1   2
ATOM      2  C   UNL     1      -2.850   3.822  -6.907  1.00  0.00     0.202 C 
BRANCH   2   3
ATOM      3  C   UNL     1      -2.295   3.390  -5.547  1.00  0.00     0.261 C 
BRANCH   3   4
ATOM      4  O   UNL     1      -1.228   4.224  -5.077  1.00  0.00    -0.460 OA
BRANCH   4   5
ATOM      5  C   UNL     1       0.001   3.663  -5.190  1.00  0.00     0.338 C 
ATOM      6  O   UNL     1       0.255   2.540  -5.608  1.00  0.00    -0.246 OA
BRANCH   5   7
ATOM      7  C   UNL     1       1.052   4.670  -4.946  1.00  0.00     0.063 A 
ATOM      8  C   UNL     1       2.087   6.370  -3.603  1.00  0.00     0.130 A 
ATOM      9  C   UNL     1       3.191   6.383  -4.461  1.00  0.00     0.047 A 
ATOM     10  C   UNL     1       0.975   5.573  -3.889  1.00  0.00     0.062 A 
ATOM     11  C   UNL     1       3.227   5.538  -5.566  1.00  0.00     0.005 A 
ATOM     12  C   UNL     1       2.171   4.659  -5.790  1.00  0.00     0.016 A 
BRANCH   8  13
ATOM     13  O   UNL     1       2.169   7.194  -2.506  1.00  0.00    -0.439 OA
BRANCH  13  14
ATOM     14  C   UNL     1       1.807   6.682  -1.259  1.00  0.00     0.227 A 
ATOM     15  C   UNL     1       0.985   4.975   0.015  1.00  0.00     0.254 A 
ATOM     16  N   UNL     1       0.815   5.787   1.080  1.00  0.00    -0.216 NA
ATOM     17  N   UNL     1       1.530   5.370  -1.143  1.00  0.00    -0.175 NA
ATOM     18  C   UNL     1       1.267   7.058   0.981  1.00  0.00     0.050 A 
ATOM     19  C   UNL     1       1.258   7.825   2.271  1.00  0.00     0.067 C 
ATOM     20  C   UNL     1       1.742   7.586  -0.210  1.00  0.00     0.033 A 
ATOM     21  C   UNL     1       2.174   9.012  -0.350  1.00  0.00     0.052 C 
BRANCH  15  22
ATOM     22  N   UNL     1       0.503   3.625   0.115  1.00  0.00    -0.203 N 
ATOM     23  C   UNL     1       1.090   0.127  -0.209  1.00  0.00     0.069 C 
ATOM     24  C   UNL     1       0.552   1.486   0.042  1.00  0.00     0.060 A 
ATOM     25  C   UNL     1      -0.636   1.824   0.719  1.00  0.00     0.049 A 
ATOM     26  N   UNL     1       1.191   2.569  -0.414  1.00  0.00    -0.170 NA
ATOM     27  C   UNL     1      -0.668   3.201   0.733  1.00  0.00     0.045 A 
ATOM     28  C   UNL     1      -1.732   4.129   1.191  1.00  0.00     0.067 C 
ENDBRANCH  15  22
ENDBRANCH  13  14
ENDBRANCH   8  13
ENDBRANCH   5   7
ENDBRANCH   4   5
ENDBRANCH   3   4
ENDBRANCH   2   3
ENDBRANCH   1   2
BRANCH   1  29
ATOM     29  C   UNL     1      -0.919   4.816  -8.117  1.00  0.00     0.202 C 
BRANCH  29  30
ATOM     30  C   UNL     1      -1.214   6.303  -8.250  1.00  0.00     0.261 C 
BRANCH  30  31
ATOM     31  O   UNL     1      -2.094   6.744  -7.237  1.00  0.00    -0.460 OA
BRANCH  31  32
ATOM     32  C   UNL     1      -3.382   6.780  -7.616  1.00  0.00     0.338 C 
ATOM     33  O   UNL     1      -3.867   6.352  -8.670  1.00  0.00    -0.246 OA
BRANCH  32  34
ATOM     34  C   UNL     1      -4.144   7.489  -6.594  1.00  0.00     0.060 A 
ATOM     35  C   UNL     1      -5.507   7.641  -6.838  1.00  0.00     0.016 A 
ATOM     36  C   UNL     1      -3.442   8.338  -5.735  1.00  0.00     0.016 A 
ATOM     37  C   UNL     1      -6.033   8.892  -6.631  1.00  0.00     0.010 A 
ATOM     38  C   UNL     1      -4.009   9.542  -5.446  1.00  0.00     0.010 A 
ATOM     39  C   UNL     1      -5.193   9.871  -6.098  1.00  0.00    -0.014 A 
BRANCH  39  40
ATOM     40  C   UNL     1      -5.589  11.263  -6.098  1.00  0.00     0.031 A 
ATOM     41  C   UNL     1      -6.449  11.513  -4.923  1.00  0.00     0.074 A 
ATOM     42  C   UNL     1      -5.099  12.171  -6.975  1.00  0.00     0.049 A 
ATOM     43  N   UNL     1      -7.742  11.533  -4.903  1.00  0.00    -0.248 NA
ATOM     44  C   UNL     1      -5.842  11.354  -3.585  1.00  0.00     0.031 C 
ATOM     45  C   UNL     1      -4.084  12.019  -8.027  1.00  0.00     0.029 A 
ATOM     46  N   UNL     1      -5.386  13.505  -7.047  1.00  0.00    -0.354 N 
ATOM     47  C   UNL     1      -8.057  11.695  -3.561  1.00  0.00     0.074 A 
ATOM     48  C   UNL     1      -6.928  11.209  -2.826  1.00  0.00     0.031 C 
ATOM     49  C   UNL     1      -3.664  13.243  -8.441  1.00  0.00     0.029 A 
ATOM     50  C   UNL     1      -4.465  14.264  -7.792  1.00  0.00     0.049 A 
ATOM     51  H   UNL     1      -6.175  13.904  -6.613  1.00  0.00     0.167 HD
ATOM     52  C   UNL     1      -9.012  12.582  -3.173  1.00  0.00     0.037 A 
ATOM     53  C   UNL     1      -4.392  15.629  -7.777  1.00  0.00     0.037 A 
ATOM     54  C   UNL     1      -9.842  12.952  -4.292  1.00  0.00     0.049 A 
ATOM     55  C   UNL     1      -5.720  16.096  -7.270  1.00  0.00     0.074 A 
ATOM     56  C   UNL     1     -10.672  12.254  -5.146  1.00  0.00     0.029 A 
ATOM     57  N   UNL     1      -9.525  14.124  -4.938  1.00  0.00    -0.354 N 
ATOM     58  N   UNL     1      -6.839  15.893  -7.917  1.00  0.00    -0.248 NA
ATOM     59  C   UNL     1      -5.844  16.241  -5.824  1.00  0.00     0.031 C 
ATOM     60  C   UNL     1     -10.435  12.816  -6.434  1.00  0.00     0.029 A 
ATOM     61  C   UNL     1      -9.563  13.895  -6.292  1.00  0.00     0.049 A 
ATOM     62  H   UNL     1      -9.308  14.981  -4.505  1.00  0.00     0.167 HD
ATOM     63  C   UNL     1      -7.733  15.457  -6.946  1.00  0.00     0.074 A 
ATOM     64  C   UNL     1      -7.057  15.701  -5.670  1.00  0.00     0.031 C 
ATOM     65  C   UNL     1      -8.794  14.654  -7.257  1.00  0.00     0.037 A 
BRANCH  52  66
ATOM     66  C   UNL     1      -8.916  13.412  -1.915  1.00  0.00     0.058 A 
ATOM     67  C   UNL     1     -10.047  14.135  -1.498  1.00  0.00     0.135 A 
ATOM     68  C   UNL     1      -7.712  13.725  -1.235  1.00  0.00     0.135 A 
ATOM     69  F   UNL     1     -11.239  13.931  -2.082  1.00  0.00    -0.206 F 
ATOM     70  C   UNL     1      -9.978  15.128  -0.521  1.00  0.00     0.059 A 
ATOM     71  C   UNL     1      -7.634  14.667  -0.220  1.00  0.00     0.059 A 
ATOM     72  F   UNL     1      -6.526  13.208  -1.571  1.00  0.00    -0.206 F 
ATOM     73  C   UNL     1      -8.764  15.388   0.109  1.00  0.00     0.060 A 
BRANCH  73  74
ATOM     74  S   UNL     1      -8.659  16.708   1.325  1.00  0.00     0.124 S 
ATOM     75  O   UNL     1      -8.941  17.882   0.509  1.00  0.00    -0.237 OA
ATOM     76  O   UNL     1      -9.698  16.319   2.273  1.00  0.00    -0.237 OA
ATOM     77  O   UNL     1      -7.292  16.599   1.824  1.00  0.00    -0.744 OA
ENDBRANCH  73  74
ENDBRANCH  52  66
BRANCH  53  78
ATOM     78  C   UNL     1      -3.177  16.504  -7.703  1.00  0.00     0.058 A 
ATOM     79  C   UNL     1      -3.256  17.910  -7.826  1.00  0.00     0.135 A 
ATOM     80  C   UNL     1      -1.963  16.010  -7.191  1.00  0.00     0.135 A 
ATOM     81  F   UNL     1      -4.377  18.483  -8.291  1.00  0.00    -0.206 F 
ATOM     82  C   UNL     1      -2.220  18.767  -7.411  1.00  0.00     0.059 A 
ATOM     83  C   UNL     1      -0.920  16.841  -6.771  1.00  0.00     0.059 A 
ATOM     84  F   UNL     1      -1.788  14.696  -6.989  1.00  0.00    -0.206 F 
ATOM     85  C   UNL     1      -1.064  18.221  -6.856  1.00  0.00     0.060 A 
BRANCH  85  86
ATOM     86  S   UNL     1       0.201  19.307  -6.140  1.00  0.00     0.124 S 
ATOM     87  O   UNL     1       0.707  20.005  -7.316  1.00  0.00    -0.237 OA
ATOM     88  O   UNL     1      -0.577  20.113  -5.205  1.00  0.00    -0.237 OA
ATOM     89  O   UNL     1       1.138  18.372  -5.521  1.00  0.00    -0.744 OA
ENDBRANCH  85  86
ENDBRANCH  53  78
BRANCH  65  90
ATOM     90  C   UNL     1      -9.110  14.403  -8.713  1.00  0.00     0.058 A 
ATOM     91  C   UNL     1      -8.306  13.659  -9.599  1.00  0.00     0.135 A 
ATOM     92  C   UNL     1     -10.379  14.780  -9.173  1.00  0.00     0.135 A 
ATOM     93  F   UNL     1      -7.119  13.177  -9.207  1.00  0.00    -0.206 F 
ATOM     94  C   UNL     1      -8.734  13.336 -10.893  1.00  0.00     0.059 A 
ATOM     95  C   UNL     1     -10.838  14.446 -10.443  1.00  0.00     0.059 A 
ATOM     96  F   UNL     1     -11.219  15.434  -8.355  1.00  0.00    -0.206 F 
ATOM     97  C   UNL     1     -10.006  13.735 -11.305  1.00  0.00     0.060 A 
BRANCH  97  98
ATOM     98  S   UNL     1     -10.589  13.294 -12.958  1.00  0.00     0.124 S 
ATOM     99  O   UNL     1      -9.694  14.064 -13.815  1.00  0.00    -0.237 OA
ATOM    100  O   UNL     1     -10.402  11.846 -12.983  1.00  0.00    -0.237 OA
ATOM    101  O   UNL     1     -11.982  13.735 -12.958  1.00  0.00    -0.744 OA
ENDBRANCH  97  98
ENDBRANCH  65  90
ENDBRANCH  39  40
ENDBRANCH  32  34
ENDBRANCH  31  32
ENDBRANCH  30  31
ENDBRANCH  29  30
ENDBRANCH   1  29
TORSDOF 20
