REMARK SMILES CC(C)(C)C[C@@H](O)[C@@H](F)C(=O)OCCOCCOC(=O)c1ccc(-c2c3nc(c(-c4c(F)cc(S(=O)(=O)[O-])cc4F)c4ccc([nH]4)c(-c4c(F)cc(S(=O)(=O)[O-])cc4F)c4nc(c(-c5c(F)cc(S(=O)(=O)[O-])cc5F)c5ccc2[nH]5)C=C4)C=C3)cc1
REMARK SMILES IDX 15 1 14 2 13 3 12 4 10 5 11 6 8 7 9 8 6 9 5 10 2 11 1 12
REMARK SMILES IDX 3 13 4 14 7 15 16 17 17 18 18 19 19 20 20 21 21 22 22 23
REMARK SMILES IDX 86 24 23 25 85 26 24 27 25 28 26 29 79 30 27 31 84 32 78 33
REMARK SMILES IDX 80 34 28 35 83 36 77 37 76 38 29 40 63 41 42 42 62 43 43 44
REMARK SMILES IDX 46 45 61 46 81 47 44 48 45 49 60 51 82 52 47 53 30 54 31 55
REMARK SMILES IDX 40 56 32 57 33 58 39 59 41 60 34 61 35 62 36 63 37 64 38 65
REMARK SMILES IDX 64 66 65 67 74 68 66 69 67 70 73 71 75 72 68 73 69 74 70 75
REMARK SMILES IDX 71 76 72 77 48 78 49 79 58 80 50 81 51 82 57 83 59 84 52 85
REMARK SMILES IDX 53 86 54 87 55 88 56 89
REMARK H PARENT 7 16 80 39 46 50
REMARK Flexibility Score: inf
ROOT
ATOM      1  O   UNL     1       0.582   2.503  -6.393  1.00  0.00    -0.374 OA
ENDROOT
BRANCH   1   2
ATOM      2  C   UNL     1      -0.659   1.838  -6.634  1.00  0.00     0.202 C 
BRANCH   2   3
ATOM      3  C   UNL     1      -0.592   0.315  -6.783  1.00  0.00     0.261 C 
BRANCH   3   4
ATOM      4  O   UNL     1      -0.307  -0.344  -5.530  1.00  0.00    -0.461 OA
BRANCH   4   5
ATOM      5  C   UNL     1       0.806  -1.129  -5.511  1.00  0.00     0.343 C 
ATOM      6  O   UNL     1       1.536  -1.317  -6.482  1.00  0.00    -0.249 OA
BRANCH   5   7
ATOM      7  C   UNL     1       1.040  -1.832  -4.182  1.00  0.00     0.304 C 
ATOM      8  F   UNL     1       0.530  -3.102  -4.218  1.00  0.00    -0.232 F 
BRANCH   7   9
ATOM      9  C   UNL     1       0.505  -1.127  -2.920  1.00  0.00     0.160 C 
BRANCH   9  10
ATOM     10  C   UNL     1       0.895  -1.959  -1.678  1.00  0.00     0.041 C 
BRANCH  10  11
ATOM     11  C   UNL     1       0.412  -1.488  -0.276  1.00  0.00    -0.036 C 
ATOM     12  C   UNL     1       1.019  -0.139   0.149  1.00  0.00     0.011 C 
ATOM     13  C   UNL     1       0.875  -2.548   0.748  1.00  0.00     0.011 C 
ATOM     14  C   UNL     1      -1.120  -1.394  -0.228  1.00  0.00     0.011 C 
ENDBRANCH  10  11
ENDBRANCH   9  10
BRANCH   9  15
ATOM     15  O   UNL     1       1.087   0.168  -2.787  1.00  0.00    -0.389 OA
ATOM     16  H   UNL     1       2.051   0.083  -2.712  1.00  0.00     0.211 HD
ENDBRANCH   9  15
ENDBRANCH   7   9
ENDBRANCH   5   7
ENDBRANCH   4   5
ENDBRANCH   3   4
ENDBRANCH   2   3
ENDBRANCH   1   2
BRANCH   1  17
ATOM     17  C   UNL     1       1.130   2.383  -5.081  1.00  0.00     0.202 C 
BRANCH  17  18
ATOM     18  C   UNL     1       0.495   3.278  -4.007  1.00  0.00     0.261 C 
BRANCH  18  19
ATOM     19  O   UNL     1      -0.893   2.961  -3.776  1.00  0.00    -0.460 OA
BRANCH  19  20
ATOM     20  C   UNL     1      -1.751   3.968  -4.073  1.00  0.00     0.338 C 
ATOM     21  O   UNL     1      -1.457   5.119  -4.374  1.00  0.00    -0.246 OA
BRANCH  20  22
ATOM     22  C   UNL     1      -3.138   3.475  -4.165  1.00  0.00     0.060 A 
ATOM     23  C   UNL     1      -3.826   3.720  -5.360  1.00  0.00     0.016 A 
ATOM     24  C   UNL     1      -3.794   2.887  -3.080  1.00  0.00     0.016 A 
ATOM     25  C   UNL     1      -5.186   3.431  -5.459  1.00  0.00     0.010 A 
ATOM     26  C   UNL     1      -5.164   2.603  -3.180  1.00  0.00     0.010 A 
ATOM     27  C   UNL     1      -5.875   2.910  -4.356  1.00  0.00    -0.014 A 
BRANCH  27  28
ATOM     28  C   UNL     1      -7.359   2.837  -4.399  1.00  0.00     0.031 A 
ATOM     29  C   UNL     1      -8.167   3.928  -3.746  1.00  0.00     0.074 A 
ATOM     30  C   UNL     1      -7.984   1.845  -5.061  1.00  0.00     0.049 A 
ATOM     31  N   UNL     1      -9.466   4.072  -3.679  1.00  0.00    -0.248 NA
ATOM     32  C   UNL     1      -7.409   5.002  -3.084  1.00  0.00     0.031 C 
ATOM     33  C   UNL     1      -7.318   0.752  -5.769  1.00  0.00     0.029 A 
ATOM     34  N   UNL     1      -9.322   1.600  -5.247  1.00  0.00    -0.354 N 
ATOM     35  C   UNL     1      -9.682   5.245  -2.966  1.00  0.00     0.074 A 
ATOM     36  C   UNL     1      -8.381   5.761  -2.598  1.00  0.00     0.031 C 
ATOM     37  C   UNL     1      -8.252  -0.048  -6.311  1.00  0.00     0.029 A 
ATOM     38  C   UNL     1      -9.580   0.460  -5.969  1.00  0.00     0.049 A 
ATOM     39  H   UNL     1     -10.030   2.187  -4.896  1.00  0.00     0.167 HD
ATOM     40  C   UNL     1     -10.856   5.845  -2.654  1.00  0.00     0.037 A 
ATOM     41  C   UNL     1     -10.752  -0.116  -6.304  1.00  0.00     0.037 A 
ATOM     42  C   UNL     1     -12.151   5.339  -3.028  1.00  0.00     0.049 A 
ATOM     43  C   UNL     1     -12.046   0.537  -5.894  1.00  0.00     0.074 A 
ATOM     44  C   UNL     1     -13.396   5.892  -2.779  1.00  0.00     0.029 A 
ATOM     45  N   UNL     1     -12.370   4.160  -3.723  1.00  0.00    -0.354 N 
ATOM     46  N   UNL     1     -12.233   1.660  -5.241  1.00  0.00    -0.248 NA
ATOM     47  C   UNL     1     -13.290  -0.152  -6.269  1.00  0.00     0.031 C 
ATOM     48  C   UNL     1     -14.370   5.024  -3.285  1.00  0.00     0.029 A 
ATOM     49  C   UNL     1     -13.730   3.954  -3.890  1.00  0.00     0.049 A 
ATOM     50  H   UNL     1     -11.664   3.558  -4.051  1.00  0.00     0.167 HD
ATOM     51  C   UNL     1     -13.612   1.823  -5.149  1.00  0.00     0.074 A 
ATOM     52  C   UNL     1     -14.212   0.688  -5.820  1.00  0.00     0.031 C 
ATOM     53  C   UNL     1     -14.316   2.823  -4.565  1.00  0.00     0.037 A 
BRANCH  40  54
ATOM     54  C   UNL     1     -10.796   7.110  -1.843  1.00  0.00     0.058 A 
ATOM     55  C   UNL     1     -10.373   8.327  -2.402  1.00  0.00     0.135 A 
ATOM     56  C   UNL     1     -11.196   7.110  -0.498  1.00  0.00     0.135 A 
ATOM     57  F   UNL     1      -9.964   8.378  -3.680  1.00  0.00    -0.206 F 
ATOM     58  C   UNL     1     -10.326   9.495  -1.648  1.00  0.00     0.059 A 
ATOM     59  C   UNL     1     -11.180   8.271   0.269  1.00  0.00     0.059 A 
ATOM     60  F   UNL     1     -11.607   5.973   0.085  1.00  0.00    -0.206 F 
ATOM     61  C   UNL     1     -10.729   9.456  -0.311  1.00  0.00     0.060 A 
BRANCH  61  62
ATOM     62  S   UNL     1     -10.661  10.978   0.658  1.00  0.00     0.124 S 
ATOM     63  O   UNL     1      -9.226  11.110   0.889  1.00  0.00    -0.237 OA
ATOM     64  O   UNL     1     -11.248  11.956  -0.252  1.00  0.00    -0.237 OA
ATOM     65  O   UNL     1     -11.460  10.665   1.838  1.00  0.00    -0.744 OA
ENDBRANCH  61  62
ENDBRANCH  40  54
BRANCH  41  66
ATOM     66  C   UNL     1     -10.759  -1.393  -7.067  1.00  0.00     0.058 A 
ATOM     67  C   UNL     1     -11.182  -1.438  -8.403  1.00  0.00     0.135 A 
ATOM     68  C   UNL     1     -10.345  -2.594  -6.471  1.00  0.00     0.135 A 
ATOM     69  F   UNL     1     -11.600  -0.318  -9.013  1.00  0.00    -0.206 F 
ATOM     70  C   UNL     1     -11.203  -2.630  -9.121  1.00  0.00     0.059 A 
ATOM     71  C   UNL     1     -10.335  -3.794  -7.174  1.00  0.00     0.059 A 
ATOM     72  F   UNL     1      -9.924  -2.602  -5.196  1.00  0.00    -0.206 F 
ATOM     73  C   UNL     1     -10.774  -3.803  -8.497  1.00  0.00     0.060 A 
BRANCH  73  74
ATOM     74  S   UNL     1     -10.753  -5.337  -9.451  1.00  0.00     0.124 S 
ATOM     75  O   UNL     1     -12.171  -5.674  -9.496  1.00  0.00    -0.237 OA
ATOM     76  O   UNL     1     -10.157  -4.906 -10.712  1.00  0.00    -0.237 OA
ATOM     77  O   UNL     1      -9.918  -6.221  -8.642  1.00  0.00    -0.744 OA
ENDBRANCH  73  74
ENDBRANCH  41  66
BRANCH  53  78
ATOM     78  C   UNL     1     -15.816   2.758  -4.647  1.00  0.00     0.058 A 
ATOM     79  C   UNL     1     -16.559   1.859  -3.868  1.00  0.00     0.135 A 
ATOM     80  C   UNL     1     -16.522   3.645  -5.477  1.00  0.00     0.135 A 
ATOM     81  F   UNL     1     -15.933   0.986  -3.063  1.00  0.00    -0.206 F 
ATOM     82  C   UNL     1     -17.950   1.826  -3.923  1.00  0.00     0.059 A 
ATOM     83  C   UNL     1     -17.913   3.647  -5.530  1.00  0.00     0.059 A 
ATOM     84  F   UNL     1     -15.860   4.534  -6.235  1.00  0.00    -0.206 F 
ATOM     85  C   UNL     1     -18.618   2.725  -4.757  1.00  0.00     0.060 A 
BRANCH  85  86
ATOM     86  S   UNL     1     -20.423   2.697  -4.795  1.00  0.00     0.124 S 
ATOM     87  O   UNL     1     -20.682   1.510  -5.602  1.00  0.00    -0.237 OA
ATOM     88  O   UNL     1     -20.765   2.589  -3.380  1.00  0.00    -0.237 OA
ATOM     89  O   UNL     1     -20.768   3.970  -5.420  1.00  0.00    -0.744 OA
ENDBRANCH  85  86
ENDBRANCH  53  78
ENDBRANCH  27  28
ENDBRANCH  20  22
ENDBRANCH  19  20
ENDBRANCH  18  19
ENDBRANCH  17  18
ENDBRANCH   1  17
TORSDOF 21
