REMARK SMILES CC(=O)N[C@H](CSCC(=O)Nc1ccc2c(c1)N1CC[NH+]=C1S2)C(=O)OCCOCCOC(=O)c1ccc(-c2c3nc(c(-c4c(F)cc(S(=O)(=O)[O-])cc4F)c4ccc([nH]4)c(-c4c(F)cc(S(=O)(=O)[O-])cc4F)c4nc(c(-c5c(F)cc(S(=O)(=O)[O-])cc5F)c5ccc2[nH]5)C=C4)C=C3)cc1
REMARK SMILES IDX 28 1 27 2 26 3 24 4 25 5 5 6 4 7 1 8 2 9 3 10 6 12 7 13 8 14
REMARK SMILES IDX 9 15 10 16 11 17 12 19 13 20 17 21 14 22 16 23 15 24 18 25
REMARK SMILES IDX 23 26 19 27 22 28 20 29 21 30 29 32 30 33 31 34 32 35 33 36
REMARK SMILES IDX 34 37 35 38 36 39 100 40 37 41 99 42 38 43 39 44 40 45 93 46
REMARK SMILES IDX 41 47 98 48 92 49 94 50 42 51 97 52 91 53 90 54 43 56 77 57
REMARK SMILES IDX 56 58 76 59 57 60 60 61 75 62 95 63 58 64 59 65 74 67 96 68
REMARK SMILES IDX 61 69 44 70 45 71 54 72 46 73 47 74 53 75 55 76 48 77 49 78
REMARK SMILES IDX 50 79 51 80 52 81 78 82 79 83 88 84 80 85 81 86 87 87 89 88
REMARK SMILES IDX 82 89 83 90 84 91 85 92 86 93 62 94 63 95 72 96 64 97 65 98
REMARK SMILES IDX 71 99 73 100 66 101 67 102 68 103 69 104 70 105
REMARK H PARENT 4 11 11 18 21 31 94 55 60 66
REMARK Flexibility Score: inf
ROOT
ATOM      1  C   UNL     1      -0.951   5.735  -2.131  1.00  0.00     0.202 C 
ENDROOT
BRANCH   1   2
ATOM      2  C   UNL     1       0.557   5.822  -2.385  1.00  0.00     0.261 C 
BRANCH   2   3
ATOM      3  O   UNL     1       1.158   4.525  -2.569  1.00  0.00    -0.462 OA
BRANCH   3   4
ATOM      4  C   UNL     1       1.831   4.019  -1.511  1.00  0.00     0.329 C 
ATOM      5  O   UNL     1       1.992   4.597  -0.441  1.00  0.00    -0.250 OA
BRANCH   4   6
ATOM      6  C   UNL     1       2.475   2.660  -1.813  1.00  0.00     0.202 C 
BRANCH   6   7
ATOM      7  N   UNL     1       3.833   2.793  -2.337  1.00  0.00    -0.342 N 
ATOM      8  C   UNL     1       4.917   3.413  -0.211  1.00  0.00     0.114 C 
ATOM      9  C   UNL     1       4.986   3.072  -1.673  1.00  0.00     0.217 C 
ATOM     10  O   UNL     1       6.055   3.054  -2.279  1.00  0.00    -0.275 OA
ATOM     11  H   UNL     1       3.925   2.663  -3.309  1.00  0.00     0.164 HD
ENDBRANCH   6   7
BRANCH   6  12
ATOM     12  C   UNL     1       1.590   1.686  -2.616  1.00  0.00     0.107 C 
BRANCH  12  13
ATOM     13  S   UNL     1       2.151   1.254  -4.313  1.00  0.00    -0.149 SA
BRANCH  13  14
ATOM     14  C   UNL     1       0.975   2.123  -5.404  1.00  0.00     0.169 C 
BRANCH  14  15
ATOM     15  C   UNL     1      -0.384   2.373  -4.801  1.00  0.00     0.234 C 
ATOM     16  O   UNL     1      -0.646   3.476  -4.312  1.00  0.00    -0.274 OA
ATOM     17  N   UNL     1      -1.396   1.460  -4.799  1.00  0.00    -0.325 N 
ATOM     18  H   UNL     1      -2.140   1.650  -4.183  1.00  0.00     0.169 HD
BRANCH  17  19
ATOM     19  C   UNL     1      -1.520   0.292  -5.555  1.00  0.00     0.045 A 
ATOM     20  C   UNL     1      -0.575  -0.741  -5.538  1.00  0.00     0.027 A 
ATOM     21  C   UNL     1      -2.648   0.208  -6.377  1.00  0.00     0.079 A 
ATOM     22  C   UNL     1      -0.709  -1.837  -6.395  1.00  0.00     0.022 A 
ATOM     23  C   UNL     1      -2.733  -0.813  -7.297  1.00  0.00     0.144 A 
ATOM     24  C   UNL     1      -1.771  -1.844  -7.282  1.00  0.00     0.067 A 
ATOM     25  N   UNL     1      -3.618  -0.920  -8.334  1.00  0.00    -0.216 N 
ATOM     26  S   UNL     1      -2.095  -3.003  -8.620  1.00  0.00     0.002 SA
ATOM     27  C   UNL     1      -4.632  -0.067  -8.877  1.00  0.00     0.289 C 
ATOM     28  C   UNL     1      -3.354  -1.933  -9.203  1.00  0.00     0.316 C 
ATOM     29  C   UNL     1      -4.749  -0.663 -10.303  1.00  0.00     0.280 C 
ATOM     30  N   UNL     1      -3.984  -1.970 -10.338  1.00  0.00    -0.264 N 
ATOM     31  H   UNL     1      -3.968  -2.664 -11.036  1.00  0.00     0.305 HD
ENDBRANCH  17  19
ENDBRANCH  14  15
ENDBRANCH  13  14
ENDBRANCH  12  13
ENDBRANCH   6  12
ENDBRANCH   4   6
ENDBRANCH   3   4
ENDBRANCH   2   3
ENDBRANCH   1   2
BRANCH   1  32
ATOM     32  O   UNL     1      -1.298   5.121  -0.887  1.00  0.00    -0.374 OA
BRANCH  32  33
ATOM     33  C   UNL     1      -1.557   3.719  -0.959  1.00  0.00     0.202 C 
BRANCH  33  34
ATOM     34  C   UNL     1      -3.016   3.360  -1.270  1.00  0.00     0.261 C 
BRANCH  34  35
ATOM     35  O   UNL     1      -3.297   3.488  -2.677  1.00  0.00    -0.460 OA
BRANCH  35  36
ATOM     36  C   UNL     1      -3.942   4.627  -3.053  1.00  0.00     0.338 C 
ATOM     37  O   UNL     1      -4.423   5.471  -2.332  1.00  0.00    -0.246 OA
BRANCH  36  38
ATOM     38  C   UNL     1      -3.800   4.768  -4.524  1.00  0.00     0.060 A 
ATOM     39  C   UNL     1      -3.950   3.671  -5.368  1.00  0.00     0.016 A 
ATOM     40  C   UNL     1      -3.462   6.017  -5.055  1.00  0.00     0.016 A 
ATOM     41  C   UNL     1      -3.687   3.809  -6.731  1.00  0.00     0.010 A 
ATOM     42  C   UNL     1      -3.258   6.165  -6.434  1.00  0.00     0.010 A 
ATOM     43  C   UNL     1      -3.365   5.059  -7.288  1.00  0.00    -0.014 A 
BRANCH  43  44
ATOM     44  C   UNL     1      -3.269   5.199  -8.768  1.00  0.00     0.031 A 
ATOM     45  C   UNL     1      -1.991   5.599  -9.456  1.00  0.00     0.074 A 
ATOM     46  C   UNL     1      -4.366   4.935  -9.509  1.00  0.00     0.049 A 
ATOM     47  N   UNL     1      -1.776   5.794 -10.733  1.00  0.00    -0.248 NA
ATOM     48  C   UNL     1      -0.806   5.806  -8.611  1.00  0.00     0.031 C 
ATOM     49  C   UNL     1      -5.669   4.537  -8.969  1.00  0.00     0.029 A 
ATOM     50  N   UNL     1      -4.562   4.945 -10.866  1.00  0.00    -0.354 N 
ATOM     51  C   UNL     1      -0.441   6.163 -10.849  1.00  0.00     0.074 A 
ATOM     52  C   UNL     1       0.103   6.177  -9.506  1.00  0.00     0.031 C 
ATOM     53  C   UNL     1      -6.510   4.289  -9.982  1.00  0.00     0.029 A 
ATOM     54  C   UNL     1      -5.837   4.590 -11.240  1.00  0.00     0.049 A 
ATOM     55  H   UNL     1      -3.858   5.183 -11.511  1.00  0.00     0.167 HD
ATOM     56  C   UNL     1       0.263   6.459 -11.970  1.00  0.00     0.037 A 
ATOM     57  C   UNL     1      -6.420   4.539 -12.453  1.00  0.00     0.037 A 
ATOM     58  C   UNL     1      -0.276   6.436 -13.309  1.00  0.00     0.049 A 
ATOM     59  C   UNL     1      -5.634   4.925 -13.669  1.00  0.00     0.074 A 
ATOM     60  C   UNL     1       0.375   6.707 -14.502  1.00  0.00     0.029 A 
ATOM     61  N   UNL     1      -1.588   6.129 -13.638  1.00  0.00    -0.354 N 
ATOM     62  N   UNL     1      -4.377   5.286 -13.752  1.00  0.00    -0.248 NA
ATOM     63  C   UNL     1      -6.349   4.916 -14.953  1.00  0.00     0.031 C 
ATOM     64  C   UNL     1      -0.551   6.605 -15.546  1.00  0.00     0.029 A 
ATOM     65  C   UNL     1      -1.769   6.225 -15.010  1.00  0.00     0.049 A 
ATOM     66  H   UNL     1      -2.288   5.880 -12.993  1.00  0.00     0.167 HD
ATOM     67  C   UNL     1      -4.148   5.545 -15.099  1.00  0.00     0.074 A 
ATOM     68  C   UNL     1      -5.390   5.277 -15.795  1.00  0.00     0.031 C 
ATOM     69  C   UNL     1      -3.011   5.973 -15.699  1.00  0.00     0.037 A 
BRANCH  56  70
ATOM     70  C   UNL     1       1.708   6.850 -11.814  1.00  0.00     0.058 A 
ATOM     71  C   UNL     1       2.701   5.901 -11.528  1.00  0.00     0.135 A 
ATOM     72  C   UNL     1       2.117   8.175 -12.046  1.00  0.00     0.135 A 
ATOM     73  F   UNL     1       2.364   4.624 -11.287  1.00  0.00    -0.206 F 
ATOM     74  C   UNL     1       4.046   6.251 -11.467  1.00  0.00     0.059 A 
ATOM     75  C   UNL     1       3.458   8.544 -12.011  1.00  0.00     0.059 A 
ATOM     76  F   UNL     1       1.208   9.122 -12.327  1.00  0.00    -0.206 F 
ATOM     77  C   UNL     1       4.416   7.575 -11.713  1.00  0.00     0.060 A 
BRANCH  77  78
ATOM     78  S   UNL     1       6.168   8.008 -11.650  1.00  0.00     0.124 S 
ATOM     79  O   UNL     1       6.436   7.919 -10.219  1.00  0.00    -0.237 OA
ATOM     80  O   UNL     1       6.774   6.969 -12.476  1.00  0.00    -0.237 OA
ATOM     81  O   UNL     1       6.207   9.354 -12.213  1.00  0.00    -0.744 OA
ENDBRANCH  77  78
ENDBRANCH  56  70
BRANCH  57  82
ATOM     82  C   UNL     1      -7.839   4.116 -12.561  1.00  0.00     0.058 A 
ATOM     83  C   UNL     1      -8.174   2.868 -13.103  1.00  0.00     0.135 A 
ATOM     84  C   UNL     1      -8.879   4.924 -12.075  1.00  0.00     0.135 A 
ATOM     85  F   UNL     1      -7.211   2.065 -13.581  1.00  0.00    -0.206 F 
ATOM     86  C   UNL     1      -9.492   2.430 -13.156  1.00  0.00     0.059 A 
ATOM     87  C   UNL     1     -10.201   4.498 -12.091  1.00  0.00     0.059 A 
ATOM     88  F   UNL     1      -8.603   6.119 -11.530  1.00  0.00    -0.206 F 
ATOM     89  C   UNL     1     -10.497   3.249 -12.637  1.00  0.00     0.060 A 
BRANCH  89  90
ATOM     90  S   UNL     1     -12.193   2.630 -12.620  1.00  0.00     0.124 S 
ATOM     91  O   UNL     1     -12.557   2.737 -14.028  1.00  0.00    -0.237 OA
ATOM     92  O   UNL     1     -12.017   1.276 -12.104  1.00  0.00    -0.237 OA
ATOM     93  O   UNL     1     -12.875   3.552 -11.716  1.00  0.00    -0.744 OA
ENDBRANCH  89  90
ENDBRANCH  57  82
BRANCH  69  94
ATOM     94  C   UNL     1      -3.051   6.175 -17.188  1.00  0.00     0.058 A 
ATOM     95  C   UNL     1      -3.713   7.273 -17.759  1.00  0.00     0.135 A 
ATOM     96  C   UNL     1      -2.393   5.284 -18.050  1.00  0.00     0.135 A 
ATOM     97  F   UNL     1      -4.368   8.148 -16.979  1.00  0.00    -0.206 F 
ATOM     98  C   UNL     1      -3.736   7.471 -19.136  1.00  0.00     0.059 A 
ATOM     99  C   UNL     1      -2.383   5.476 -19.429  1.00  0.00     0.059 A 
ATOM    100  F   UNL     1      -1.741   4.221 -17.554  1.00  0.00    -0.206 F 
ATOM    101  C   UNL     1      -3.067   6.568 -19.963  1.00  0.00     0.060 A 
BRANCH 101 102
ATOM    102  S   UNL     1      -3.082   6.854 -21.746  1.00  0.00     0.124 S 
ATOM    103  O   UNL     1      -4.458   6.506 -22.088  1.00  0.00    -0.237 OA
ATOM    104  O   UNL     1      -2.746   8.272 -21.837  1.00  0.00    -0.237 OA
ATOM    105  O   UNL     1      -2.060   5.940 -22.247  1.00  0.00    -0.744 OA
ENDBRANCH 101 102
ENDBRANCH  69  94
ENDBRANCH  43  44
ENDBRANCH  36  38
ENDBRANCH  35  36
ENDBRANCH  34  35
ENDBRANCH  33  34
ENDBRANCH  32  33
ENDBRANCH   1  32
TORSDOF 23
