REMARK SMILES CCN(CC)C(=O)COc1cc(C)ccc1C(=O)OCCOCCOC(=O)c1ccc(-c2c3nc(c(-c4c(F)cc(S(=O)(=O)[O-])cc4F)c4ccc([nH]4)c(-c4c(F)cc(S(=O)(=O)[O-])cc4F)c4nc(c(-c5c(F)cc(S(=O)(=O)[O-])cc5F)c5ccc2[nH]5)C=C4)C=C3)cc1
REMARK SMILES IDX 21 1 20 2 19 3 17 4 18 5 16 6 10 7 11 8 12 9 15 10 13 11
REMARK SMILES IDX 14 12 9 13 8 14 6 15 3 16 7 17 2 18 1 19 4 20 5 21 22 22
REMARK SMILES IDX 23 23 24 24 25 25 26 26 27 27 28 28 29 29 93 30 30 31 92 32
REMARK SMILES IDX 31 33 32 34 33 35 86 36 34 37 91 38 85 39 87 40 35 41 90 42
REMARK SMILES IDX 84 43 83 44 36 46 70 47 49 48 69 49 50 50 53 51 68 52 88 53
REMARK SMILES IDX 51 54 52 55 67 57 89 58 54 59 37 60 38 61 47 62 39 63 40 64
REMARK SMILES IDX 46 65 48 66 41 67 42 68 43 69 44 70 45 71 71 72 72 73 81 74
REMARK SMILES IDX 73 75 74 76 80 77 82 78 75 79 76 80 77 81 78 82 79 83 55 84
REMARK SMILES IDX 56 85 65 86 57 87 58 88 64 89 66 90 59 91 60 92 61 93 62 94
REMARK SMILES IDX 63 95
REMARK H PARENT 87 45 53 56
REMARK Flexibility Score: inf
ROOT
ATOM      1  C   UNL     1       5.820   8.226  -0.765  1.00  0.00     0.202 C 
ENDROOT
BRANCH   1   2
ATOM      2  C   UNL     1       4.399   7.796  -0.361  1.00  0.00     0.261 C 
BRANCH   2   3
ATOM      3  O   UNL     1       4.057   6.423  -0.350  1.00  0.00    -0.460 OA
BRANCH   3   4
ATOM      4  C   UNL     1       2.980   6.157  -1.097  1.00  0.00     0.342 C 
ATOM      5  O   UNL     1       2.321   6.957  -1.769  1.00  0.00    -0.246 OA
BRANCH   4   6
ATOM      6  C   UNL     1       3.016   4.750  -1.418  1.00  0.00     0.102 A 
ATOM      7  C   UNL     1       2.940   3.664  -0.535  1.00  0.00     0.134 A 
ATOM      8  C   UNL     1       3.042   2.403  -1.118  1.00  0.00     0.050 A 
ATOM      9  C   UNL     1       3.235   2.237  -2.503  1.00  0.00    -0.047 A 
ATOM     10  C   UNL     1       3.272   4.593  -2.789  1.00  0.00     0.020 A 
ATOM     11  C   UNL     1       3.254   0.881  -3.124  1.00  0.00     0.044 C 
ATOM     12  C   UNL     1       3.396   3.341  -3.330  1.00  0.00     0.004 A 
BRANCH   7  13
ATOM     13  O   UNL     1       2.691   3.861   0.797  1.00  0.00    -0.483 OA
BRANCH  13  14
ATOM     14  C   UNL     1       3.218   2.916   1.734  1.00  0.00     0.329 C 
BRANCH  14  15
ATOM     15  C   UNL     1       2.641   1.479   1.832  1.00  0.00     0.260 C 
ATOM     16  N   UNL     1       1.262   1.298   1.867  1.00  0.00    -0.340 N 
ATOM     17  O   UNL     1       3.407   0.507   1.799  1.00  0.00    -0.271 OA
BRANCH  16  18
ATOM     18  C   UNL     1       0.722  -0.025   1.549  1.00  0.00     0.116 C 
ATOM     19  C   UNL     1       0.889  -0.351   0.068  1.00  0.00     0.027 C 
ENDBRANCH  16  18
BRANCH  16  20
ATOM     20  C   UNL     1       0.326   2.314   2.349  1.00  0.00     0.116 C 
ATOM     21  C   UNL     1       0.127   2.208   3.856  1.00  0.00     0.027 C 
ENDBRANCH  16  20
ENDBRANCH  14  15
ENDBRANCH  13  14
ENDBRANCH   7  13
ENDBRANCH   4   6
ENDBRANCH   3   4
ENDBRANCH   2   3
ENDBRANCH   1   2
BRANCH   1  22
ATOM     22  O   UNL     1       6.583   7.314  -1.512  1.00  0.00    -0.374 OA
BRANCH  22  23
ATOM     23  C   UNL     1       6.653   6.036  -0.888  1.00  0.00     0.202 C 
BRANCH  23  24
ATOM     24  C   UNL     1       6.857   5.920   0.688  1.00  0.00     0.261 C 
BRANCH  24  25
ATOM     25  O   UNL     1       6.599   7.112   1.551  1.00  0.00    -0.460 OA
BRANCH  25  26
ATOM     26  C   UNL     1       5.673   7.242   2.568  1.00  0.00     0.338 C 
ATOM     27  O   UNL     1       4.980   6.309   2.950  1.00  0.00    -0.246 OA
BRANCH  26  28
ATOM     28  C   UNL     1       5.444   8.779   2.969  1.00  0.00     0.060 A 
ATOM     29  C   UNL     1       4.341   9.095   3.762  1.00  0.00     0.016 A 
ATOM     30  C   UNL     1       5.585   9.718   1.968  1.00  0.00     0.016 A 
ATOM     31  C   UNL     1       3.161   9.616   3.226  1.00  0.00     0.010 A 
ATOM     32  C   UNL     1       4.414  10.188   1.351  1.00  0.00     0.010 A 
ATOM     33  C   UNL     1       3.159   9.874   1.885  1.00  0.00    -0.014 A 
BRANCH  33  34
ATOM     34  C   UNL     1       1.998   9.520   1.030  1.00  0.00     0.031 A 
ATOM     35  C   UNL     1       1.498  10.513   0.054  1.00  0.00     0.074 A 
ATOM     36  C   UNL     1       1.523   8.237   1.078  1.00  0.00     0.049 A 
ATOM     37  N   UNL     1       0.288  10.592  -0.374  1.00  0.00    -0.248 NA
ATOM     38  C   UNL     1       2.325  11.598  -0.470  1.00  0.00     0.031 C 
ATOM     39  C   UNL     1       0.534   7.532   0.247  1.00  0.00     0.029 A 
ATOM     40  N   UNL     1       1.846   7.259   2.040  1.00  0.00    -0.354 N 
ATOM     41  C   UNL     1       0.281  11.479  -1.440  1.00  0.00     0.074 A 
ATOM     42  C   UNL     1       1.497  12.214  -1.309  1.00  0.00     0.031 C 
ATOM     43  C   UNL     1       0.140   6.399   0.873  1.00  0.00     0.029 A 
ATOM     44  C   UNL     1       0.721   6.432   2.207  1.00  0.00     0.049 A 
ATOM     45  H   UNL     1       2.706   7.171   2.512  1.00  0.00     0.167 HD
ATOM     46  C   UNL     1      -0.662  11.349  -2.418  1.00  0.00     0.037 A 
ATOM     47  C   UNL     1       0.017   6.576   3.371  1.00  0.00     0.037 A 
ATOM     48  C   UNL     1      -1.555  10.236  -2.054  1.00  0.00     0.049 A 
ATOM     49  C   UNL     1      -1.297   7.330   3.091  1.00  0.00     0.074 A 
ATOM     50  C   UNL     1      -1.670   8.918  -2.460  1.00  0.00     0.029 A 
ATOM     51  N   UNL     1      -2.212  10.300  -0.835  1.00  0.00    -0.354 N 
ATOM     52  N   UNL     1      -1.571   7.945   1.963  1.00  0.00    -0.248 NA
ATOM     53  C   UNL     1      -2.413   7.428   4.023  1.00  0.00     0.031 C 
ATOM     54  C   UNL     1      -2.385   8.200  -1.441  1.00  0.00     0.029 A 
ATOM     55  C   UNL     1      -2.701   9.079  -0.416  1.00  0.00     0.049 A 
ATOM     56  H   UNL     1      -2.320  11.133  -0.320  1.00  0.00     0.167 HD
ATOM     57  C   UNL     1      -2.838   8.451   1.958  1.00  0.00     0.074 A 
ATOM     58  C   UNL     1      -3.288   8.176   3.320  1.00  0.00     0.031 C 
ATOM     59  C   UNL     1      -3.427   9.031   0.855  1.00  0.00     0.037 A 
BRANCH  46  60
ATOM     60  C   UNL     1      -0.646  12.029  -3.794  1.00  0.00     0.058 A 
ATOM     61  C   UNL     1      -1.541  11.598  -4.800  1.00  0.00     0.135 A 
ATOM     62  C   UNL     1       0.207  13.079  -4.222  1.00  0.00     0.135 A 
ATOM     63  F   UNL     1      -2.455  10.649  -4.555  1.00  0.00    -0.206 F 
ATOM     64  C   UNL     1      -1.557  12.121  -6.103  1.00  0.00     0.059 A 
ATOM     65  C   UNL     1       0.226  13.602  -5.523  1.00  0.00     0.059 A 
ATOM     66  F   UNL     1       1.050  13.706  -3.403  1.00  0.00    -0.206 F 
ATOM     67  C   UNL     1      -0.664  13.120  -6.461  1.00  0.00     0.060 A 
BRANCH  67  68
ATOM     68  S   UNL     1      -0.718  13.807  -8.127  1.00  0.00     0.124 S 
ATOM     69  O   UNL     1      -0.456  12.633  -8.953  1.00  0.00    -0.237 OA
ATOM     70  O   UNL     1      -2.073  14.342  -8.192  1.00  0.00    -0.237 OA
ATOM     71  O   UNL     1       0.346  14.809  -8.121  1.00  0.00    -0.744 OA
ENDBRANCH  67  68
ENDBRANCH  46  60
BRANCH  47  72
ATOM     72  C   UNL     1       0.952   6.670   4.568  1.00  0.00     0.058 A 
ATOM     73  C   UNL     1       1.943   5.662   4.741  1.00  0.00     0.135 A 
ATOM     74  C   UNL     1       1.167   7.834   5.304  1.00  0.00     0.135 A 
ATOM     75  F   UNL     1       1.791   4.487   4.115  1.00  0.00    -0.206 F 
ATOM     76  C   UNL     1       3.140   5.848   5.452  1.00  0.00     0.059 A 
ATOM     77  C   UNL     1       2.348   8.037   6.057  1.00  0.00     0.059 A 
ATOM     78  F   UNL     1       0.310   8.861   5.197  1.00  0.00    -0.206 F 
ATOM     79  C   UNL     1       3.362   7.066   6.075  1.00  0.00     0.060 A 
BRANCH  79  80
ATOM     80  S   UNL     1       5.010   7.415   6.815  1.00  0.00     0.124 S 
ATOM     81  O   UNL     1       5.190   6.298   7.733  1.00  0.00    -0.237 OA
ATOM     82  O   UNL     1       5.924   7.432   5.676  1.00  0.00    -0.237 OA
ATOM     83  O   UNL     1       4.806   8.721   7.439  1.00  0.00    -0.744 OA
ENDBRANCH  79  80
ENDBRANCH  47  72
BRANCH  59  84
ATOM     84  C   UNL     1      -4.779   9.710   0.919  1.00  0.00     0.058 A 
ATOM     85  C   UNL     1      -5.826   9.230   1.711  1.00  0.00     0.135 A 
ATOM     86  C   UNL     1      -5.074  10.884   0.178  1.00  0.00     0.135 A 
ATOM     87  F   UNL     1      -5.776   8.004   2.253  1.00  0.00    -0.206 F 
ATOM     88  C   UNL     1      -6.972   9.982   1.952  1.00  0.00     0.059 A 
ATOM     89  C   UNL     1      -6.239  11.614   0.345  1.00  0.00     0.059 A 
ATOM     90  F   UNL     1      -4.248  11.400  -0.739  1.00  0.00    -0.206 F 
ATOM     91  C   UNL     1      -7.152  11.191   1.288  1.00  0.00     0.060 A 
BRANCH  91  92
ATOM     92  S   UNL     1      -8.611  12.177   1.623  1.00  0.00     0.124 S 
ATOM     93  O   UNL     1      -9.669  11.171   1.605  1.00  0.00    -0.237 OA
ATOM     94  O   UNL     1      -8.289  12.737   2.932  1.00  0.00    -0.237 OA
ATOM     95  O   UNL     1      -8.642  13.133   0.520  1.00  0.00    -0.744 OA
ENDBRANCH  91  92
ENDBRANCH  59  84
ENDBRANCH  33  34
ENDBRANCH  26  28
ENDBRANCH  25  26
ENDBRANCH  24  25
ENDBRANCH  23  24
ENDBRANCH  22  23
ENDBRANCH   1  22
TORSDOF 22
