REMARK SMILES Cc1ccccc1OC1(C(=O)OCCOCCOC(=O)c2ccc(-c3c4nc(c(-c5c(F)cc(S(=O)(=O)[O-])cc5F)c5ccc([nH]5)c(-c5c(F)cc(S(=O)(=O)[O-])cc5F)c5nc(c(-c6c(F)cc(S(=O)(=O)[O-])cc6F)c6ccc3[nH]6)C=C5)C=C4)cc2)CCN(C(=O)[C@H]2CCCCO2)CC1
REMARK SMILES IDX 16 1 15 2 14 3 13 4 12 5 10 6 11 7 9 8 87 9 99 10 88 11
REMARK SMILES IDX 98 12 89 13 90 14 91 15 8 16 7 17 1 18 2 19 3 20 4 21 6 22
REMARK SMILES IDX 5 23 92 24 93 25 97 26 94 27 96 28 95 29 17 30 18 31 19 32
REMARK SMILES IDX 20 33 21 34 22 35 86 36 23 37 85 38 24 39 25 40 26 41 79 42
REMARK SMILES IDX 27 43 84 44 78 45 80 46 28 47 83 48 77 49 76 50 29 52 63 53
REMARK SMILES IDX 42 54 62 55 43 56 46 57 61 58 81 59 44 60 45 61 60 63 82 64
REMARK SMILES IDX 47 65 30 66 31 67 40 68 32 69 33 70 39 71 41 72 34 73 35 74
REMARK SMILES IDX 36 75 37 76 38 77 64 78 65 79 74 80 66 81 67 82 73 83 75 84
REMARK SMILES IDX 68 85 69 86 70 87 71 88 72 89 48 90 49 91 58 92 50 93 51 94
REMARK SMILES IDX 57 95 59 96 52 97 53 98 54 99 55 100 56 101
REMARK H PARENT 80 51 46 62
REMARK Flexibility Score: inf
ROOT
ATOM      1  C   UNL     1       8.567  -9.248  -2.296  1.00  0.00     0.202 C 
ENDROOT
BRANCH   1   2
ATOM      2  O   UNL     1       8.217  -7.993  -2.843  1.00  0.00    -0.374 OA
BRANCH   2   3
ATOM      3  C   UNL     1       9.015  -6.885  -2.454  1.00  0.00     0.202 C 
BRANCH   3   4
ATOM      4  C   UNL     1       8.350  -5.653  -3.024  1.00  0.00     0.261 C 
BRANCH   4   5
ATOM      5  O   UNL     1       7.068  -5.327  -2.426  1.00  0.00    -0.460 OA
BRANCH   5   6
ATOM      6  C   UNL     1       6.017  -6.204  -2.373  1.00  0.00     0.350 C 
ATOM      7  O   UNL     1       5.725  -7.013  -3.239  1.00  0.00    -0.247 OA
BRANCH   6   8
ATOM      8  C   UNL     1       5.244  -5.973  -1.033  1.00  0.00     0.209 C 
ATOM      9  C   UNL     1       6.341  -5.892   0.037  1.00  0.00     0.082 C 
ATOM     10  C   UNL     1       4.345  -4.750  -1.268  1.00  0.00     0.082 C 
ATOM     11  C   UNL     1       6.861  -4.479   0.258  1.00  0.00     0.124 C 
ATOM     12  C   UNL     1       4.825  -3.418  -0.694  1.00  0.00     0.124 C 
ATOM     13  N   UNL     1       5.784  -3.510   0.406  1.00  0.00    -0.340 N 
ATOM     14  C   UNL     1       5.886  -2.595   1.458  1.00  0.00     0.251 C 
ATOM     15  O   UNL     1       6.791  -2.683   2.295  1.00  0.00    -0.272 OA
BRANCH   8  16
ATOM     16  O   UNL     1       4.454  -7.166  -0.842  1.00  0.00    -0.475 OA
BRANCH  16  17
ATOM     17  C   UNL     1       3.486  -7.426   0.089  1.00  0.00     0.123 A 
ATOM     18  C   UNL     1       3.898  -5.737   2.034  1.00  0.00     0.048 C 
ATOM     19  C   UNL     1       3.191  -6.855   1.340  1.00  0.00    -0.009 A 
ATOM     20  C   UNL     1       2.154  -7.414   2.129  1.00  0.00     0.007 A 
ATOM     21  C   UNL     1       1.396  -8.491   1.696  1.00  0.00     0.001 A 
ATOM     22  C   UNL     1       2.694  -8.515  -0.328  1.00  0.00     0.047 A 
ATOM     23  C   UNL     1       1.662  -9.041   0.456  1.00  0.00     0.004 A 
ENDBRANCH  16  17
ENDBRANCH   8  16
BRANCH  14  24
ATOM     24  C   UNL     1       4.801  -1.503   1.598  1.00  0.00     0.207 C 
ATOM     25  C   UNL     1       3.601  -2.107   2.343  1.00  0.00     0.042 C 
ATOM     26  O   UNL     1       5.341  -0.400   2.337  1.00  0.00    -0.368 OA
ATOM     27  C   UNL     1       2.578  -1.051   2.739  1.00  0.00     0.006 C 
ATOM     28  C   UNL     1       4.398   0.637   2.570  1.00  0.00     0.161 C 
ATOM     29  C   UNL     1       3.260   0.119   3.433  1.00  0.00     0.029 C 
ENDBRANCH  14  24
ENDBRANCH   6   8
ENDBRANCH   5   6
ENDBRANCH   4   5
ENDBRANCH   3   4
ENDBRANCH   2   3
ENDBRANCH   1   2
BRANCH   1  30
ATOM     30  C   UNL     1       9.946  -9.743  -2.744  1.00  0.00     0.261 C 
BRANCH  30  31
ATOM     31  O   UNL     1       9.933 -10.113  -4.137  1.00  0.00    -0.460 OA
BRANCH  31  32
ATOM     32  C   UNL     1      10.508  -9.207  -4.979  1.00  0.00     0.338 C 
ATOM     33  O   UNL     1      11.713  -9.081  -5.121  1.00  0.00    -0.246 OA
BRANCH  32  34
ATOM     34  C   UNL     1       9.461  -8.426  -5.692  1.00  0.00     0.060 A 
ATOM     35  C   UNL     1       9.745  -7.167  -6.250  1.00  0.00     0.016 A 
ATOM     36  C   UNL     1       8.145  -8.881  -5.650  1.00  0.00     0.016 A 
ATOM     37  C   UNL     1       8.698  -6.323  -6.665  1.00  0.00     0.010 A 
ATOM     38  C   UNL     1       7.120  -8.017  -5.975  1.00  0.00     0.010 A 
ATOM     39  C   UNL     1       7.378  -6.730  -6.476  1.00  0.00    -0.014 A 
BRANCH  39  40
ATOM     40  C   UNL     1       6.165  -5.928  -6.679  1.00  0.00     0.031 A 
ATOM     41  C   UNL     1       5.139  -6.420  -7.641  1.00  0.00     0.074 A 
ATOM     42  C   UNL     1       5.818  -4.959  -5.796  1.00  0.00     0.049 A 
ATOM     43  N   UNL     1       4.043  -5.794  -7.902  1.00  0.00    -0.248 NA
ATOM     44  C   UNL     1       5.270  -7.649  -8.429  1.00  0.00     0.031 C 
ATOM     45  C   UNL     1       4.466  -4.512  -5.455  1.00  0.00     0.029 A 
ATOM     46  N   UNL     1       6.630  -4.109  -5.034  1.00  0.00    -0.354 N 
ATOM     47  C   UNL     1       3.205  -6.665  -8.553  1.00  0.00     0.074 A 
ATOM     48  C   UNL     1       4.055  -7.743  -8.983  1.00  0.00     0.031 C 
ATOM     49  C   UNL     1       4.530  -3.342  -4.802  1.00  0.00     0.029 A 
ATOM     50  C   UNL     1       5.917  -2.919  -4.819  1.00  0.00     0.049 A 
ATOM     51  H   UNL     1       7.537  -4.310  -4.708  1.00  0.00     0.167 HD
ATOM     52  C   UNL     1       1.866  -6.415  -8.524  1.00  0.00     0.037 A 
ATOM     53  C   UNL     1       6.388  -1.716  -5.250  1.00  0.00     0.037 A 
ATOM     54  C   UNL     1       1.605  -5.055  -8.037  1.00  0.00     0.049 A 
ATOM     55  C   UNL     1       5.440  -1.125  -6.253  1.00  0.00     0.074 A 
ATOM     56  C   UNL     1       1.037  -4.534  -6.888  1.00  0.00     0.029 A 
ATOM     57  N   UNL     1       2.211  -3.981  -8.694  1.00  0.00    -0.354 N 
ATOM     58  N   UNL     1       4.563  -1.855  -6.889  1.00  0.00    -0.248 NA
ATOM     59  C   UNL     1       5.319   0.292  -6.574  1.00  0.00     0.031 C 
ATOM     60  C   UNL     1       1.416  -3.161  -6.805  1.00  0.00     0.029 A 
ATOM     61  C   UNL     1       2.166  -2.834  -7.927  1.00  0.00     0.049 A 
ATOM     62  H   UNL     1       2.618  -4.035  -9.589  1.00  0.00     0.167 HD
ATOM     63  C   UNL     1       3.768  -1.064  -7.654  1.00  0.00     0.074 A 
ATOM     64  C   UNL     1       4.289   0.275  -7.442  1.00  0.00     0.031 C 
ATOM     65  C   UNL     1       2.755  -1.583  -8.405  1.00  0.00     0.037 A 
BRANCH  52  66
ATOM     66  C   UNL     1       0.776  -7.438  -8.799  1.00  0.00     0.058 A 
ATOM     67  C   UNL     1      -0.575  -7.034  -8.899  1.00  0.00     0.135 A 
ATOM     68  C   UNL     1       0.970  -8.837  -8.868  1.00  0.00     0.135 A 
ATOM     69  F   UNL     1      -0.917  -5.741  -8.800  1.00  0.00    -0.206 F 
ATOM     70  C   UNL     1      -1.633  -7.935  -9.080  1.00  0.00     0.059 A 
ATOM     71  C   UNL     1      -0.063  -9.751  -9.100  1.00  0.00     0.059 A 
ATOM     72  F   UNL     1       2.163  -9.402  -8.648  1.00  0.00    -0.206 F 
ATOM     73  C   UNL     1      -1.367  -9.294  -9.191  1.00  0.00     0.060 A 
BRANCH  73  74
ATOM     74  S   UNL     1      -2.728 -10.454  -9.432  1.00  0.00     0.124 S 
ATOM     75  O   UNL     1      -3.398 -10.407  -8.136  1.00  0.00    -0.237 OA
ATOM     76  O   UNL     1      -3.455  -9.857 -10.547  1.00  0.00    -0.237 OA
ATOM     77  O   UNL     1      -2.053 -11.713  -9.738  1.00  0.00    -0.744 OA
ENDBRANCH  73  74
ENDBRANCH  52  66
BRANCH  53  78
ATOM     78  C   UNL     1       7.872  -1.606  -5.150  1.00  0.00     0.058 A 
ATOM     79  C   UNL     1       8.401  -1.458  -3.849  1.00  0.00     0.135 A 
ATOM     80  C   UNL     1       8.719  -2.162  -6.121  1.00  0.00     0.135 A 
ATOM     81  F   UNL     1       7.635  -0.936  -2.876  1.00  0.00    -0.206 F 
ATOM     82  C   UNL     1       9.640  -1.987  -3.486  1.00  0.00     0.059 A 
ATOM     83  C   UNL     1       9.962  -2.711  -5.775  1.00  0.00     0.059 A 
ATOM     84  F   UNL     1       8.284  -2.332  -7.378  1.00  0.00    -0.206 F 
ATOM     85  C   UNL     1      10.385  -2.672  -4.443  1.00  0.00     0.060 A 
BRANCH  85  86
ATOM     86  S   UNL     1      11.750  -3.739  -3.889  1.00  0.00     0.124 S 
ATOM     87  O   UNL     1      12.871  -2.809  -3.859  1.00  0.00    -0.237 OA
ATOM     88  O   UNL     1      11.283  -4.212  -2.586  1.00  0.00    -0.237 OA
ATOM     89  O   UNL     1      11.794  -4.769  -4.921  1.00  0.00    -0.744 OA
ENDBRANCH  85  86
ENDBRANCH  53  78
BRANCH  65  90
ATOM     90  C   UNL     1       2.199  -0.894  -9.619  1.00  0.00     0.058 A 
ATOM     91  C   UNL     1       2.942   0.026 -10.382  1.00  0.00     0.135 A 
ATOM     92  C   UNL     1       0.950  -1.272 -10.159  1.00  0.00     0.135 A 
ATOM     93  F   UNL     1       4.197   0.364 -10.053  1.00  0.00    -0.206 F 
ATOM     94  C   UNL     1       2.444   0.608 -11.542  1.00  0.00     0.059 A 
ATOM     95  C   UNL     1       0.459  -0.750 -11.351  1.00  0.00     0.059 A 
ATOM     96  F   UNL     1       0.171  -2.181  -9.554  1.00  0.00    -0.206 F 
ATOM     97  C   UNL     1       1.197   0.219 -12.016  1.00  0.00     0.060 A 
BRANCH  97  98
ATOM     98  S   UNL     1       0.563   0.961 -13.526  1.00  0.00     0.124 S 
ATOM     99  O   UNL     1      -0.087   2.159 -13.003  1.00  0.00    -0.237 OA
ATOM    100  O   UNL     1       1.776   1.193 -14.306  1.00  0.00    -0.237 OA
ATOM    101  O   UNL     1      -0.327  -0.065 -14.056  1.00  0.00    -0.744 OA
ENDBRANCH  97  98
ENDBRANCH  65  90
ENDBRANCH  39  40
ENDBRANCH  32  34
ENDBRANCH  31  32
ENDBRANCH  30  31
ENDBRANCH   1  30
TORSDOF 20
