REMARK SMILES C[C@@H]1CCCCN1S(=O)(=O)c1ccc(CCC(=O)OCCOCCOC(=O)c2ccc(-c3c4nc(c(-c5c(F)cc(S(=O)(=O)[O-])cc5F)c5ccc([nH]5)c(-c5c(F)cc(S(=O)(=O)[O-])cc5F)c5nc(c(-c6c(F)cc(S(=O)(=O)[O-])cc6F)c6ccc3[nH]6)C=C5)C=C4)cc2)cc1
REMARK SMILES IDX 21 1 20 2 19 3 17 4 18 5 16 6 15 7 14 8 11 9 12 10 95 11
REMARK SMILES IDX 13 12 94 13 8 14 9 15 10 16 7 17 1 18 2 19 3 20 4 21 6 22
REMARK SMILES IDX 5 23 22 24 23 25 24 26 25 27 26 28 27 29 28 30 29 31 93 32
REMARK SMILES IDX 30 33 92 34 31 35 32 36 33 37 86 38 34 39 91 40 85 41 87 42
REMARK SMILES IDX 35 43 90 44 84 45 83 46 36 48 70 49 49 50 69 51 50 52 53 53
REMARK SMILES IDX 68 54 88 55 51 56 52 57 67 59 89 60 54 61 37 62 38 63 47 64
REMARK SMILES IDX 39 65 40 66 46 67 48 68 41 69 42 70 43 71 44 72 45 73 71 74
REMARK SMILES IDX 72 75 81 76 73 77 74 78 80 79 82 80 75 81 76 82 77 83 78 84
REMARK SMILES IDX 79 85 55 86 56 87 65 88 57 89 58 90 64 91 66 92 59 93 60 94
REMARK SMILES IDX 61 95 62 96 63 97
REMARK H PARENT 87 47 53 58
REMARK Flexibility Score: inf
ROOT
ATOM      1  C   UNL     1       4.888  -6.000  -5.267  1.00  0.00     0.202 C 
ENDROOT
BRANCH   1   2
ATOM      2  C   UNL     1       6.107  -6.002  -4.335  1.00  0.00     0.261 C 
BRANCH   2   3
ATOM      3  O   UNL     1       6.341  -4.697  -3.763  1.00  0.00    -0.463 OA
BRANCH   3   4
ATOM      4  C   UNL     1       7.379  -3.970  -4.245  1.00  0.00     0.306 C 
ATOM      5  O   UNL     1       8.143  -4.328  -5.132  1.00  0.00    -0.252 OA
BRANCH   4   6
ATOM      6  C   UNL     1       7.475  -2.622  -3.565  1.00  0.00     0.127 C 
BRANCH   6   7
ATOM      7  C   UNL     1       6.414  -1.614  -4.022  1.00  0.00     0.047 C 
BRANCH   7   8
ATOM      8  C   UNL     1       5.186  -1.600  -3.140  1.00  0.00    -0.047 A 
ATOM      9  C   UNL     1       3.045  -1.748  -1.313  1.00  0.00     0.082 A 
ATOM     10  C   UNL     1       3.158  -2.677  -2.347  1.00  0.00     0.022 A 
ATOM     11  C   UNL     1       3.990  -0.727  -1.208  1.00  0.00     0.022 A 
ATOM     12  C   UNL     1       4.204  -2.584  -3.264  1.00  0.00     0.005 A 
ATOM     13  C   UNL     1       5.049  -0.650  -2.122  1.00  0.00     0.005 A 
BRANCH   9  14
ATOM     14  S   UNL     1       1.866  -2.072  -0.012  1.00  0.00     0.243 S 
ATOM     15  O   UNL     1       2.589  -2.026   1.238  1.00  0.00    -0.207 OA
ATOM     16  O   UNL     1       1.172  -3.278  -0.410  1.00  0.00    -0.207 OA
BRANCH  14  17
ATOM     17  N   UNL     1       0.714  -0.805  -0.053  1.00  0.00    -0.195 NA
ATOM     18  C   UNL     1       1.976   0.792   1.484  1.00  0.00     0.026 C 
ATOM     19  C   UNL     1       1.134   0.610   0.222  1.00  0.00     0.070 C 
ATOM     20  C   UNL     1      -0.092   1.544   0.340  1.00  0.00     0.020 C 
ATOM     21  C   UNL     1      -1.296   1.033  -0.430  1.00  0.00     0.003 C 
ATOM     22  C   UNL     1      -0.562  -1.167   0.642  1.00  0.00     0.103 C 
ATOM     23  C   UNL     1      -1.723  -0.332   0.097  1.00  0.00     0.017 C 
ENDBRANCH  14  17
ENDBRANCH   9  14
ENDBRANCH   7   8
ENDBRANCH   6   7
ENDBRANCH   4   6
ENDBRANCH   3   4
ENDBRANCH   2   3
ENDBRANCH   1   2
BRANCH   1  24
ATOM     24  O   UNL     1       5.179  -5.568  -6.600  1.00  0.00    -0.374 OA
BRANCH  24  25
ATOM     25  C   UNL     1       5.174  -4.158  -6.810  1.00  0.00     0.202 C 
BRANCH  25  26
ATOM     26  C   UNL     1       3.832  -3.597  -7.290  1.00  0.00     0.261 C 
BRANCH  26  27
ATOM     27  O   UNL     1       2.833  -3.677  -6.258  1.00  0.00    -0.460 OA
BRANCH  27  28
ATOM     28  C   UNL     1       1.943  -4.691  -6.395  1.00  0.00     0.338 C 
ATOM     29  O   UNL     1       1.868  -5.475  -7.326  1.00  0.00    -0.246 OA
BRANCH  28  30
ATOM     30  C   UNL     1       1.138  -4.828  -5.162  1.00  0.00     0.060 A 
ATOM     31  C   UNL     1       0.909  -6.123  -4.683  1.00  0.00     0.016 A 
ATOM     32  C   UNL     1       0.588  -3.728  -4.498  1.00  0.00     0.016 A 
ATOM     33  C   UNL     1       0.101  -6.325  -3.562  1.00  0.00     0.010 A 
ATOM     34  C   UNL     1      -0.212  -3.934  -3.365  1.00  0.00     0.010 A 
ATOM     35  C   UNL     1      -0.487  -5.236  -2.906  1.00  0.00    -0.014 A 
BRANCH  35  36
ATOM     36  C   UNL     1      -1.501  -5.473  -1.841  1.00  0.00     0.031 A 
ATOM     37  C   UNL     1      -2.955  -5.228  -2.151  1.00  0.00     0.074 A 
ATOM     38  C   UNL     1      -1.151  -5.938  -0.625  1.00  0.00     0.049 A 
ATOM     39  N   UNL     1      -4.005  -5.368  -1.382  1.00  0.00    -0.248 NA
ATOM     40  C   UNL     1      -3.269  -4.763  -3.512  1.00  0.00     0.031 C 
ATOM     41  C   UNL     1       0.213  -6.227  -0.189  1.00  0.00     0.029 A 
ATOM     42  N   UNL     1      -1.922  -6.237   0.474  1.00  0.00    -0.354 N 
ATOM     43  C   UNL     1      -5.098  -5.015  -2.163  1.00  0.00     0.074 A 
ATOM     44  C   UNL     1      -4.582  -4.601  -3.450  1.00  0.00     0.031 C 
ATOM     45  C   UNL     1       0.189  -6.639   1.091  1.00  0.00     0.029 A 
ATOM     46  C   UNL     1      -1.192  -6.638   1.568  1.00  0.00     0.049 A 
ATOM     47  H   UNL     1      -2.904  -6.170   0.477  1.00  0.00     0.167 HD
ATOM     48  C   UNL     1      -6.415  -5.058  -1.853  1.00  0.00     0.037 A 
ATOM     49  C   UNL     1      -1.589  -6.958   2.816  1.00  0.00     0.037 A 
ATOM     50  C   UNL     1      -6.938  -5.488  -0.584  1.00  0.00     0.049 A 
ATOM     51  C   UNL     1      -3.057  -6.948   3.156  1.00  0.00     0.074 A 
ATOM     52  C   UNL     1      -8.261  -5.593  -0.190  1.00  0.00     0.029 A 
ATOM     53  N   UNL     1      -6.166  -5.888   0.496  1.00  0.00    -0.354 N 
ATOM     54  N   UNL     1      -4.079  -6.648   2.392  1.00  0.00    -0.248 NA
ATOM     55  C   UNL     1      -3.426  -7.336   4.526  1.00  0.00     0.031 C 
ATOM     56  C   UNL     1      -8.288  -6.022   1.141  1.00  0.00     0.029 A 
ATOM     57  C   UNL     1      -6.984  -6.223   1.562  1.00  0.00     0.049 A 
ATOM     58  H   UNL     1      -5.183  -5.927   0.503  1.00  0.00     0.167 HD
ATOM     59  C   UNL     1      -5.212  -6.848   3.175  1.00  0.00     0.074 A 
ATOM     60  C   UNL     1      -4.750  -7.294   4.473  1.00  0.00     0.031 C 
ATOM     61  C   UNL     1      -6.516  -6.684   2.845  1.00  0.00     0.037 A 
BRANCH  48  62
ATOM     62  C   UNL     1      -7.387  -4.630  -2.916  1.00  0.00     0.058 A 
ATOM     63  C   UNL     1      -7.645  -5.432  -4.039  1.00  0.00     0.135 A 
ATOM     64  C   UNL     1      -8.083  -3.417  -2.801  1.00  0.00     0.135 A 
ATOM     65  F   UNL     1      -6.991  -6.593  -4.205  1.00  0.00    -0.206 F 
ATOM     66  C   UNL     1      -8.539  -5.033  -5.026  1.00  0.00     0.059 A 
ATOM     67  C   UNL     1      -9.001  -3.010  -3.764  1.00  0.00     0.059 A 
ATOM     68  F   UNL     1      -7.871  -2.612  -1.748  1.00  0.00    -0.206 F 
ATOM     69  C   UNL     1      -9.210  -3.818  -4.881  1.00  0.00     0.060 A 
BRANCH  69  70
ATOM     70  S   UNL     1     -10.366  -3.310  -6.171  1.00  0.00     0.124 S 
ATOM     71  O   UNL     1      -9.453  -2.892  -7.231  1.00  0.00    -0.237 OA
ATOM     72  O   UNL     1     -11.112  -4.539  -6.426  1.00  0.00    -0.237 OA
ATOM     73  O   UNL     1     -11.128  -2.237  -5.540  1.00  0.00    -0.744 OA
ENDBRANCH  69  70
ENDBRANCH  48  62
BRANCH  49  74
ATOM     74  C   UNL     1      -0.584  -7.330   3.849  1.00  0.00     0.058 A 
ATOM     75  C   UNL     1      -0.465  -8.652   4.300  1.00  0.00     0.135 A 
ATOM     76  C   UNL     1       0.254  -6.364   4.426  1.00  0.00     0.135 A 
ATOM     77  F   UNL     1      -1.256  -9.608   3.789  1.00  0.00    -0.206 F 
ATOM     78  C   UNL     1       0.432  -9.002   5.303  1.00  0.00     0.059 A 
ATOM     79  C   UNL     1       1.177  -6.693   5.414  1.00  0.00     0.059 A 
ATOM     80  F   UNL     1       0.179  -5.084   4.027  1.00  0.00    -0.206 F 
ATOM     81  C   UNL     1       1.248  -8.014   5.857  1.00  0.00     0.060 A 
BRANCH  81  82
ATOM     82  S   UNL     1       2.423  -8.482   7.147  1.00  0.00     0.124 S 
ATOM     83  O   UNL     1       1.543  -8.655   8.297  1.00  0.00    -0.237 OA
ATOM     84  O   UNL     1       3.009  -9.704   6.603  1.00  0.00    -0.237 OA
ATOM     85  O   UNL     1       3.327  -7.338   7.210  1.00  0.00    -0.744 OA
ENDBRANCH  81  82
ENDBRANCH  49  74
BRANCH  61  86
ATOM     86  C   UNL     1      -7.548  -7.031   3.882  1.00  0.00     0.058 A 
ATOM     87  C   UNL     1      -7.791  -6.203   4.988  1.00  0.00     0.135 A 
ATOM     88  C   UNL     1      -8.344  -8.179   3.733  1.00  0.00     0.135 A 
ATOM     89  F   UNL     1      -7.055  -5.097   5.178  1.00  0.00    -0.206 F 
ATOM     90  C   UNL     1      -8.776  -6.510   5.922  1.00  0.00     0.059 A 
ATOM     91  C   UNL     1      -9.350  -8.493   4.642  1.00  0.00     0.059 A 
ATOM     92  F   UNL     1      -8.159  -8.999   2.687  1.00  0.00    -0.206 F 
ATOM     93  C   UNL     1      -9.551  -7.657   5.739  1.00  0.00     0.060 A 
BRANCH  93  94
ATOM     94  S   UNL     1     -10.855  -8.024   6.934  1.00  0.00     0.124 S 
ATOM     95  O   UNL     1     -10.084  -8.543   8.060  1.00  0.00    -0.237 OA
ATOM     96  O   UNL     1     -11.472  -6.717   7.138  1.00  0.00    -0.237 OA
ATOM     97  O   UNL     1     -11.687  -9.001   6.239  1.00  0.00    -0.744 OA
ENDBRANCH  93  94
ENDBRANCH  61  86
ENDBRANCH  35  36
ENDBRANCH  28  30
ENDBRANCH  27  28
ENDBRANCH  26  27
ENDBRANCH  25  26
ENDBRANCH  24  25
ENDBRANCH   1  24
TORSDOF 21
