REMARK SMILES COc1cccc(C(=O)Nc2ccc(NC(=O)[C@@H]3[C@@H](C(=O)OCCOCCOC(=O)c4ccc(-c5c6nc(c(-c7c(F)cc(S(=O)(=O)[O-])cc7F)c7ccc([nH]7)c(-c7c(F)cc(S(=O)(=O)[O-])cc7F)c7nc(c(-c8c(F)cc(S(=O)(=O)[O-])cc8F)c8ccc5[nH]8)C=C7)C=C6)cc4)[C@@H]4C=C[C@H]3C4)cc2)c1
REMARK SMILES IDX 24 1 23 2 22 3 20 4 21 5 19 6 18 7 100 8 97 9 99 10 101 11
REMARK SMILES IDX 98 12 16 13 15 14 17 16 14 17 11 18 12 19 103 20 13 21
REMARK SMILES IDX 102 22 10 23 8 24 9 25 7 27 3 28 4 29 104 30 5 31 6 32 2 33
REMARK SMILES IDX 1 34 25 35 26 36 27 37 28 38 29 39 30 40 31 41 32 42 96 43
REMARK SMILES IDX 33 44 95 45 34 46 35 47 36 48 89 49 37 50 94 51 88 52 90 53
REMARK SMILES IDX 38 54 93 55 87 56 86 57 39 59 73 60 52 61 72 62 53 63 56 64
REMARK SMILES IDX 71 65 91 66 54 67 55 68 70 70 92 71 57 72 40 73 41 74 50 75
REMARK SMILES IDX 42 76 43 77 49 78 51 79 44 80 45 81 46 82 47 83 48 84 74 85
REMARK SMILES IDX 75 86 84 87 76 88 77 89 83 90 85 91 78 92 79 93 80 94 81 95
REMARK SMILES IDX 82 96 58 97 59 98 68 99 60 100 61 101 67 102 69 103 62 104
REMARK SMILES IDX 63 105 64 106 65 107 66 108
REMARK H PARENT 15 15 10 26 90 58 56 69
REMARK Flexibility Score: inf
ROOT
ATOM      1  C   UNL     1       8.912  -3.601  -1.325  1.00  0.00     0.202 C 
ENDROOT
BRANCH   1   2
ATOM      2  C   UNL     1       8.058  -3.083  -2.487  1.00  0.00     0.261 C 
BRANCH   2   3
ATOM      3  O   UNL     1       6.654  -3.266  -2.216  1.00  0.00    -0.463 OA
BRANCH   3   4
ATOM      4  C   UNL     1       5.968  -4.149  -2.985  1.00  0.00     0.310 C 
ATOM      5  O   UNL     1       6.458  -4.811  -3.892  1.00  0.00    -0.252 OA
BRANCH   4   6
ATOM      6  C   UNL     1       4.519  -4.302  -2.560  1.00  0.00     0.119 C 
ATOM      7  C   UNL     1       3.984  -3.245  -1.550  1.00  0.00     0.100 C 
ATOM      8  C   UNL     1       3.247  -4.113  -0.497  1.00  0.00     0.025 C 
ATOM      9  C   UNL     1       4.305  -5.624  -1.771  1.00  0.00     0.027 C 
ATOM     10  C   UNL     1       2.195  -5.005  -1.123  1.00  0.00    -0.027 C 
ATOM     11  C   UNL     1       4.324  -5.180  -0.295  1.00  0.00     0.017 C 
ATOM     12  C   UNL     1       2.829  -5.928  -1.862  1.00  0.00    -0.027 C 
BRANCH   7  13
ATOM     13  C   UNL     1       3.134  -2.164  -2.160  1.00  0.00     0.228 C 
ATOM     14  N   UNL     1       3.211  -0.872  -1.723  1.00  0.00    -0.326 N 
ATOM     15  H   UNL     1       2.711  -0.252  -2.301  1.00  0.00     0.169 HD
ATOM     16  O   UNL     1       2.361  -2.403  -3.092  1.00  0.00    -0.274 OA
BRANCH  14  17
ATOM     17  C   UNL     1       3.834  -0.212  -0.643  1.00  0.00     0.041 A 
ATOM     18  C   UNL     1       4.598   1.269   1.618  1.00  0.00     0.041 A 
ATOM     19  C   UNL     1       4.931  -0.075   1.525  1.00  0.00     0.028 A 
ATOM     20  C   UNL     1       4.027   1.920   0.530  1.00  0.00     0.028 A 
ATOM     21  C   UNL     1       4.497  -0.820   0.426  1.00  0.00     0.028 A 
ATOM     22  C   UNL     1       3.668   1.183  -0.604  1.00  0.00     0.028 A 
BRANCH  18  23
ATOM     23  N   UNL     1       4.716   1.857   2.876  1.00  0.00    -0.322 N 
ATOM     24  C   UNL     1       3.745   2.479   3.634  1.00  0.00     0.255 C 
ATOM     25  O   UNL     1       4.057   2.921   4.740  1.00  0.00    -0.269 OA
ATOM     26  H   UNL     1       5.614   1.824   3.279  1.00  0.00     0.170 HD
BRANCH  24  27
ATOM     27  C   UNL     1       2.310   2.564   3.222  1.00  0.00     0.043 A 
ATOM     28  C   UNL     1       0.308   1.758   2.092  1.00  0.00     0.119 A 
ATOM     29  C   UNL     1      -0.380   2.887   2.541  1.00  0.00     0.046 A 
ATOM     30  C   UNL     1       1.635   1.570   2.488  1.00  0.00     0.060 A 
ATOM     31  C   UNL     1       0.247   3.831   3.351  1.00  0.00     0.005 A 
ATOM     32  C   UNL     1       1.592   3.676   3.679  1.00  0.00     0.014 A 
BRANCH  28  33
ATOM     33  O   UNL     1      -0.439   0.935   1.297  1.00  0.00    -0.497 OA
ATOM     34  C   UNL     1       0.199  -0.124   0.598  1.00  0.00     0.278 C 
ENDBRANCH  28  33
ENDBRANCH  24  27
ENDBRANCH  18  23
ENDBRANCH  14  17
ENDBRANCH   7  13
ENDBRANCH   4   6
ENDBRANCH   3   4
ENDBRANCH   2   3
ENDBRANCH   1   2
BRANCH   1  35
ATOM     35  O   UNL     1       9.049  -5.024  -1.270  1.00  0.00    -0.374 OA
BRANCH  35  36
ATOM     36  C   UNL     1       7.956  -5.733  -0.693  1.00  0.00     0.202 C 
BRANCH  36  37
ATOM     37  C   UNL     1       8.017  -5.901   0.828  1.00  0.00     0.261 C 
BRANCH  37  38
ATOM     38  O   UNL     1       8.015  -4.629   1.502  1.00  0.00    -0.460 OA
BRANCH  38  39
ATOM     39  C   UNL     1       9.207  -4.291   2.043  1.00  0.00     0.338 C 
ATOM     40  O   UNL     1      10.209  -4.998   2.114  1.00  0.00    -0.246 OA
BRANCH  39  41
ATOM     41  C   UNL     1       9.229  -2.870   2.428  1.00  0.00     0.060 A 
ATOM     42  C   UNL     1      10.340  -2.122   2.019  1.00  0.00     0.016 A 
ATOM     43  C   UNL     1       8.253  -2.297   3.250  1.00  0.00     0.016 A 
ATOM     44  C   UNL     1      10.518  -0.824   2.487  1.00  0.00     0.010 A 
ATOM     45  C   UNL     1       8.435  -0.989   3.720  1.00  0.00     0.010 A 
ATOM     46  C   UNL     1       9.591  -0.264   3.376  1.00  0.00    -0.014 A 
BRANCH  46  47
ATOM     47  C   UNL     1       9.935   1.010   4.058  1.00  0.00     0.031 A 
ATOM     48  C   UNL     1      10.474   0.966   5.464  1.00  0.00     0.074 A 
ATOM     49  C   UNL     1       9.846   2.183   3.406  1.00  0.00     0.049 A 
ATOM     50  N   UNL     1      10.870   1.949   6.231  1.00  0.00    -0.248 NA
ATOM     51  C   UNL     1      10.584  -0.363   6.087  1.00  0.00     0.031 C 
ATOM     52  C   UNL     1       9.382   2.352   2.030  1.00  0.00     0.029 A 
ATOM     53  N   UNL     1      10.152   3.457   3.817  1.00  0.00    -0.354 N 
ATOM     54  C   UNL     1      11.271   1.361   7.425  1.00  0.00     0.074 A 
ATOM     55  C   UNL     1      11.043  -0.062   7.293  1.00  0.00     0.031 C 
ATOM     56  C   UNL     1       9.437   3.656   1.709  1.00  0.00     0.029 A 
ATOM     57  C   UNL     1       9.913   4.417   2.863  1.00  0.00     0.049 A 
ATOM     58  H   UNL     1      10.509   3.663   4.711  1.00  0.00     0.167 HD
ATOM     59  C   UNL     1      11.796   1.949   8.527  1.00  0.00     0.037 A 
ATOM     60  C   UNL     1      10.052   5.756   2.919  1.00  0.00     0.037 A 
ATOM     61  C   UNL     1      12.031   3.363   8.655  1.00  0.00     0.049 A 
ATOM     62  C   UNL     1      10.584   6.395   4.176  1.00  0.00     0.074 A 
ATOM     63  C   UNL     1      12.573   4.052   9.727  1.00  0.00     0.029 A 
ATOM     64  N   UNL     1      11.736   4.307   7.683  1.00  0.00    -0.354 N 
ATOM     65  N   UNL     1      10.978   5.822   5.289  1.00  0.00    -0.248 NA
ATOM     66  C   UNL     1      10.691   7.861   4.185  1.00  0.00     0.031 C 
ATOM     67  C   UNL     1      12.566   5.417   9.418  1.00  0.00     0.029 A 
ATOM     68  C   UNL     1      12.064   5.573   8.137  1.00  0.00     0.049 A 
ATOM     69  H   UNL     1      11.350   4.106   6.800  1.00  0.00     0.167 HD
ATOM     70  C   UNL     1      11.400   6.856   6.120  1.00  0.00     0.074 A 
ATOM     71  C   UNL     1      11.225   8.087   5.378  1.00  0.00     0.031 C 
ATOM     72  C   UNL     1      11.890   6.790   7.384  1.00  0.00     0.037 A 
BRANCH  59  73
ATOM     73  C   UNL     1      12.131   1.062   9.694  1.00  0.00     0.058 A 
ATOM     74  C   UNL     1      13.238   0.200   9.672  1.00  0.00     0.135 A 
ATOM     75  C   UNL     1      11.350   1.096  10.860  1.00  0.00     0.135 A 
ATOM     76  F   UNL     1      14.007   0.115   8.575  1.00  0.00    -0.206 F 
ATOM     77  C   UNL     1      13.544  -0.617  10.755  1.00  0.00     0.059 A 
ATOM     78  C   UNL     1      11.651   0.305  11.965  1.00  0.00     0.059 A 
ATOM     79  F   UNL     1      10.278   1.902  10.933  1.00  0.00    -0.206 F 
ATOM     80  C   UNL     1      12.743  -0.559  11.897  1.00  0.00     0.060 A 
BRANCH  80  81
ATOM     81  S   UNL     1      13.150  -1.627  13.295  1.00  0.00     0.124 S 
ATOM     82  O   UNL     1      12.710  -2.929  12.803  1.00  0.00    -0.237 OA
ATOM     83  O   UNL     1      14.594  -1.451  13.414  1.00  0.00    -0.237 OA
ATOM     84  O   UNL     1      12.361  -1.071  14.389  1.00  0.00    -0.744 OA
ENDBRANCH  80  81
ENDBRANCH  59  73
BRANCH  60  85
ATOM     85  C   UNL     1       9.671   6.589   1.748  1.00  0.00     0.058 A 
ATOM     86  C   UNL     1      10.639   7.253   0.980  1.00  0.00     0.135 A 
ATOM     87  C   UNL     1       8.326   6.733   1.372  1.00  0.00     0.135 A 
ATOM     88  F   UNL     1      11.937   7.155   1.305  1.00  0.00    -0.206 F 
ATOM     89  C   UNL     1      10.287   8.038  -0.115  1.00  0.00     0.059 A 
ATOM     90  C   UNL     1       7.952   7.493   0.269  1.00  0.00     0.059 A 
ATOM     91  F   UNL     1       7.363   6.108   2.067  1.00  0.00    -0.206 F 
ATOM     92  C   UNL     1       8.940   8.149  -0.464  1.00  0.00     0.060 A 
BRANCH  92  93
ATOM     93  S   UNL     1       8.495   9.118  -1.921  1.00  0.00     0.124 S 
ATOM     94  O   UNL     1       8.652  10.481  -1.427  1.00  0.00    -0.237 OA
ATOM     95  O   UNL     1       9.482   8.674  -2.899  1.00  0.00    -0.237 OA
ATOM     96  O   UNL     1       7.123   8.698  -2.194  1.00  0.00    -0.744 OA
ENDBRANCH  92  93
ENDBRANCH  60  85
BRANCH  72  97
ATOM     97  C   UNL     1      12.300   8.081   8.038  1.00  0.00     0.058 A 
ATOM     98  C   UNL     1      11.352   9.002   8.510  1.00  0.00     0.135 A 
ATOM     99  C   UNL     1      13.658   8.373   8.245  1.00  0.00     0.135 A 
ATOM    100  F   UNL     1      10.042   8.773   8.333  1.00  0.00    -0.206 F 
ATOM    101  C   UNL     1      11.737  10.179   9.146  1.00  0.00     0.059 A 
ATOM    102  C   UNL     1      14.065   9.532   8.899  1.00  0.00     0.059 A 
ATOM    103  F   UNL     1      14.605   7.520   7.823  1.00  0.00    -0.206 F 
ATOM    104  C   UNL     1      13.096  10.435   9.336  1.00  0.00     0.060 A 
BRANCH 104 105
ATOM    105  S   UNL     1      13.583  11.949  10.191  1.00  0.00     0.124 S 
ATOM    106  O   UNL     1      13.370  12.953   9.155  1.00  0.00    -0.237 OA
ATOM    107  O   UNL     1      12.652  11.989  11.315  1.00  0.00    -0.237 OA
ATOM    108  O   UNL     1      14.977  11.703  10.551  1.00  0.00    -0.744 OA
ENDBRANCH 104 105
ENDBRANCH  72  97
ENDBRANCH  46  47
ENDBRANCH  39  41
ENDBRANCH  38  39
ENDBRANCH  37  38
ENDBRANCH  36  37
ENDBRANCH  35  36
ENDBRANCH   1  35
TORSDOF 22
