REMARK SMILES COc1ccc2c(c1)c(CC(=O)OCCOCCOC(=O)c1ccc(-c3c4nc(c(-c5c(F)cc(S(=O)(=O)[O-])cc5F)c5ccc([nH]5)c(-c5c(F)cc(S(=O)(=O)[O-])cc5F)c5nc(c(-c6c(F)cc(S(=O)(=O)[O-])cc6F)c6ccc3[nH]6)C=C5)C=C4)cc1)c(C)n2Cc1ccc(Br)cc1
REMARK SMILES IDX 16 1 15 2 14 3 13 4 11 5 12 6 10 7 9 8 3 9 4 10 8 11 5 12
REMARK SMILES IDX 7 13 6 14 90 15 88 16 89 17 2 18 1 19 91 20 92 21 93 22
REMARK SMILES IDX 98 23 94 24 97 25 95 26 96 27 17 28 18 29 19 30 20 31 21 32
REMARK SMILES IDX 22 33 23 34 87 35 24 36 86 37 25 38 26 39 27 40 80 41 28 42
REMARK SMILES IDX 85 43 79 44 81 45 29 46 84 47 78 48 77 49 30 51 64 52 43 53
REMARK SMILES IDX 63 54 44 55 47 56 62 57 82 58 45 59 46 60 61 62 83 63 48 64
REMARK SMILES IDX 31 65 32 66 41 67 33 68 34 69 40 70 42 71 35 72 36 73 37 74
REMARK SMILES IDX 38 75 39 76 65 77 66 78 75 79 67 80 68 81 74 82 76 83 69 84
REMARK SMILES IDX 70 85 71 86 72 87 73 88 49 89 50 90 59 91 51 92 52 93 58 94
REMARK SMILES IDX 60 95 53 96 54 97 55 98 56 99 57 100
REMARK H PARENT 81 50 47 61
REMARK Flexibility Score: inf
ROOT
ATOM      1  O   UNL     1      -2.642   0.293  -5.014  1.00  0.00    -0.374 OA
ENDROOT
BRANCH   1   2
ATOM      2  C   UNL     1      -2.673   0.814  -6.338  1.00  0.00     0.202 C 
BRANCH   2   3
ATOM      3  C   UNL     1      -2.698   2.333  -6.601  1.00  0.00     0.261 C 
BRANCH   3   4
ATOM      4  O   UNL     1      -1.980   3.148  -5.658  1.00  0.00    -0.463 OA
BRANCH   4   5
ATOM      5  C   UNL     1      -2.768   3.755  -4.732  1.00  0.00     0.310 C 
ATOM      6  O   UNL     1      -3.993   3.649  -4.695  1.00  0.00    -0.252 OA
BRANCH   5   7
ATOM      7  C   UNL     1      -2.050   4.593  -3.695  1.00  0.00     0.160 C 
BRANCH   7   8
ATOM      8  C   UNL     1      -0.547   4.548  -3.610  1.00  0.00    -0.008 A 
ATOM      9  C   UNL     1       0.905   1.709  -1.494  1.00  0.00     0.119 A 
ATOM     10  C   UNL     1       2.239   1.976  -1.772  1.00  0.00     0.048 A 
ATOM     11  C   UNL     1      -0.088   2.541  -2.014  1.00  0.00     0.057 A 
ATOM     12  C   UNL     1       2.604   3.086  -2.557  1.00  0.00     0.031 A 
ATOM     13  C   UNL     1       0.241   3.617  -2.867  1.00  0.00     0.007 A 
ATOM     14  C   UNL     1       1.589   3.904  -3.097  1.00  0.00     0.049 A 
ATOM     15  N   UNL     1       1.631   5.061  -3.873  1.00  0.00    -0.340 N 
ATOM     16  C   UNL     1       0.334   5.524  -4.057  1.00  0.00     0.020 A 
ATOM     17  C   UNL     1      -0.031   6.858  -4.612  1.00  0.00     0.065 C 
BRANCH   9  18
ATOM     18  O   UNL     1       0.433   0.581  -0.880  1.00  0.00    -0.497 OA
ATOM     19  C   UNL     1       1.170   0.115   0.239  1.00  0.00     0.278 C 
ENDBRANCH   9  18
BRANCH  15  20
ATOM     20  C   UNL     1       2.864   5.787  -4.215  1.00  0.00     0.157 C 
BRANCH  20  21
ATOM     21  C   UNL     1       3.248   5.740  -5.680  1.00  0.00    -0.028 A 
ATOM     22  C   UNL     1       2.557   6.491  -6.644  1.00  0.00     0.007 A 
ATOM     23  C   UNL     1       4.350   4.986  -6.113  1.00  0.00     0.007 A 
ATOM     24  C   UNL     1       2.889   6.436  -7.999  1.00  0.00     0.016 A 
ATOM     25  C   UNL     1       4.712   4.954  -7.468  1.00  0.00     0.016 A 
ATOM     26  C   UNL     1       3.966   5.662  -8.407  1.00  0.00     0.017 A 
ATOM     27  Br  UNL     1       4.419   5.585 -10.239  1.00  0.00    -0.051 Br
ENDBRANCH  20  21
ENDBRANCH  15  20
ENDBRANCH   7   8
ENDBRANCH   5   7
ENDBRANCH   4   5
ENDBRANCH   3   4
ENDBRANCH   2   3
ENDBRANCH   1   2
BRANCH   1  28
ATOM     28  C   UNL     1      -1.524   0.623  -4.195  1.00  0.00     0.202 C 
BRANCH  28  29
ATOM     29  C   UNL     1      -0.107   0.192  -4.611  1.00  0.00     0.261 C 
BRANCH  29  30
ATOM     30  O   UNL     1       0.242   0.636  -5.918  1.00  0.00    -0.460 OA
BRANCH  30  31
ATOM     31  C   UNL     1       0.929  -0.273  -6.655  1.00  0.00     0.338 C 
ATOM     32  O   UNL     1       1.627  -1.193  -6.256  1.00  0.00    -0.246 OA
BRANCH  31  33
ATOM     33  C   UNL     1       0.319  -0.182  -7.986  1.00  0.00     0.060 A 
ATOM     34  C   UNL     1       0.218   1.059  -8.620  1.00  0.00     0.016 A 
ATOM     35  C   UNL     1      -0.458  -1.282  -8.386  1.00  0.00     0.016 A 
ATOM     36  C   UNL     1      -0.736   1.214  -9.613  1.00  0.00     0.010 A 
ATOM     37  C   UNL     1      -1.425  -1.113  -9.367  1.00  0.00     0.010 A 
ATOM     38  C   UNL     1      -1.584   0.142  -9.957  1.00  0.00    -0.014 A 
BRANCH  38  39
ATOM     39  C   UNL     1      -2.413   0.307 -11.151  1.00  0.00     0.031 A 
ATOM     40  C   UNL     1      -1.562   0.480 -12.361  1.00  0.00     0.074 A 
ATOM     41  C   UNL     1      -3.752   0.182 -11.252  1.00  0.00     0.049 A 
ATOM     42  N   UNL     1      -1.421   1.539 -13.087  1.00  0.00    -0.248 NA
ATOM     43  C   UNL     1      -0.599  -0.592 -12.668  1.00  0.00     0.031 C 
ATOM     44  C   UNL     1      -4.710  -0.266 -10.242  1.00  0.00     0.029 A 
ATOM     45  N   UNL     1      -4.538   0.358 -12.356  1.00  0.00    -0.354 N 
ATOM     46  C   UNL     1      -0.505   1.193 -14.075  1.00  0.00     0.074 A 
ATOM     47  C   UNL     1       0.106  -0.038 -13.653  1.00  0.00     0.031 C 
ATOM     48  C   UNL     1      -5.896  -0.538 -10.841  1.00  0.00     0.029 A 
ATOM     49  C   UNL     1      -5.824  -0.163 -12.245  1.00  0.00     0.049 A 
ATOM     50  H   UNL     1      -4.220   0.817 -13.167  1.00  0.00     0.167 HD
ATOM     51  C   UNL     1      -0.498   1.816 -15.284  1.00  0.00     0.037 A 
ATOM     52  C   UNL     1      -6.731  -0.318 -13.249  1.00  0.00     0.037 A 
ATOM     53  C   UNL     1      -1.195   3.074 -15.228  1.00  0.00     0.049 A 
ATOM     54  C   UNL     1      -6.328   0.597 -14.348  1.00  0.00     0.074 A 
ATOM     55  C   UNL     1      -1.041   4.242 -14.506  1.00  0.00     0.029 A 
ATOM     56  N   UNL     1      -2.464   3.121 -15.752  1.00  0.00    -0.354 N 
ATOM     57  N   UNL     1      -6.375   1.898 -14.271  1.00  0.00    -0.248 NA
ATOM     58  C   UNL     1      -5.463   0.063 -15.389  1.00  0.00     0.031 C 
ATOM     59  C   UNL     1      -2.367   4.692 -14.243  1.00  0.00     0.029 A 
ATOM     60  C   UNL     1      -3.249   3.806 -14.864  1.00  0.00     0.049 A 
ATOM     61  H   UNL     1      -2.755   2.734 -16.609  1.00  0.00     0.167 HD
ATOM     62  C   UNL     1      -5.245   2.332 -14.947  1.00  0.00     0.074 A 
ATOM     63  C   UNL     1      -4.771   1.165 -15.686  1.00  0.00     0.031 C 
ATOM     64  C   UNL     1      -4.646   3.515 -14.632  1.00  0.00     0.037 A 
BRANCH  51  65
ATOM     65  C   UNL     1      -0.224   1.103 -16.588  1.00  0.00     0.058 A 
ATOM     66  C   UNL     1      -0.149   1.860 -17.775  1.00  0.00     0.135 A 
ATOM     67  C   UNL     1      -0.342  -0.294 -16.764  1.00  0.00     0.135 A 
ATOM     68  F   UNL     1      -0.032   3.197 -17.728  1.00  0.00    -0.206 F 
ATOM     69  C   UNL     1      -0.287   1.283 -19.037  1.00  0.00     0.059 A 
ATOM     70  C   UNL     1      -0.423  -0.895 -18.012  1.00  0.00     0.059 A 
ATOM     71  F   UNL     1      -0.489  -1.143 -15.740  1.00  0.00    -0.206 F 
ATOM     72  C   UNL     1      -0.446  -0.096 -19.141  1.00  0.00     0.060 A 
BRANCH  72  73
ATOM     73  S   UNL     1      -0.759  -0.831 -20.753  1.00  0.00     0.124 S 
ATOM     74  O   UNL     1      -2.083  -0.301 -21.058  1.00  0.00    -0.237 OA
ATOM     75  O   UNL     1       0.345  -0.298 -21.544  1.00  0.00    -0.237 OA
ATOM     76  O   UNL     1      -0.697  -2.264 -20.485  1.00  0.00    -0.744 OA
ENDBRANCH  72  73
ENDBRANCH  51  65
BRANCH  52  77
ATOM     77  C   UNL     1      -7.730  -1.403 -13.472  1.00  0.00     0.058 A 
ATOM     78  C   UNL     1      -8.745  -1.282 -14.444  1.00  0.00     0.135 A 
ATOM     79  C   UNL     1      -7.529  -2.698 -12.956  1.00  0.00     0.135 A 
ATOM     80  F   UNL     1      -8.996  -0.092 -15.012  1.00  0.00    -0.206 F 
ATOM     81  C   UNL     1      -9.476  -2.382 -14.912  1.00  0.00     0.059 A 
ATOM     82  C   UNL     1      -8.250  -3.809 -13.401  1.00  0.00     0.059 A 
ATOM     83  F   UNL     1      -6.554  -2.939 -12.068  1.00  0.00    -0.206 F 
ATOM     84  C   UNL     1      -9.205  -3.649 -14.399  1.00  0.00     0.060 A 
BRANCH  84  85
ATOM     85  S   UNL     1     -10.028  -5.095 -15.114  1.00  0.00     0.124 S 
ATOM     86  O   UNL     1     -11.418  -4.876 -14.728  1.00  0.00    -0.237 OA
ATOM     87  O   UNL     1      -9.731  -4.949 -16.534  1.00  0.00    -0.237 OA
ATOM     88  O   UNL     1      -9.370  -6.221 -14.455  1.00  0.00    -0.744 OA
ENDBRANCH  84  85
ENDBRANCH  52  77
BRANCH  64  89
ATOM     89  C   UNL     1      -5.398   4.507 -13.789  1.00  0.00     0.058 A 
ATOM     90  C   UNL     1      -5.746   4.311 -12.441  1.00  0.00     0.135 A 
ATOM     91  C   UNL     1      -5.597   5.788 -14.326  1.00  0.00     0.135 A 
ATOM     92  F   UNL     1      -5.507   3.141 -11.829  1.00  0.00    -0.206 F 
ATOM     93  C   UNL     1      -6.276   5.346 -11.666  1.00  0.00     0.059 A 
ATOM     94  C   UNL     1      -6.094   6.840 -13.565  1.00  0.00     0.059 A 
ATOM     95  F   UNL     1      -5.236   6.049 -15.594  1.00  0.00    -0.206 F 
ATOM     96  C   UNL     1      -6.433   6.611 -12.234  1.00  0.00     0.060 A 
BRANCH  96  97
ATOM     97  S   UNL     1      -6.993   7.981 -11.198  1.00  0.00     0.124 S 
ATOM     98  O   UNL     1      -8.384   7.627 -10.943  1.00  0.00    -0.237 OA
ATOM     99  O   UNL     1      -6.094   7.897 -10.051  1.00  0.00    -0.237 OA
ATOM    100  O   UNL     1      -6.794   9.155 -12.046  1.00  0.00    -0.744 OA
ENDBRANCH  96  97
ENDBRANCH  64  89
ENDBRANCH  38  39
ENDBRANCH  31  33
ENDBRANCH  30  31
ENDBRANCH  29  30
ENDBRANCH  28  29
ENDBRANCH   1  28
TORSDOF 21
