REMARK SMILES CC[C@H](C)c1ccccc1Oc1cccc(F)c1C(=O)OCCOCCOC(=O)c1ccc(-c2c3nc(c(-c4c(F)cc(S(=O)(=O)[O-])cc4F)c4ccc([nH]4)c(-c4c(F)cc(S(=O)(=O)[O-])cc4F)c4nc(c(-c5c(F)cc(S(=O)(=O)[O-])cc5F)c5ccc2[nH]5)C=C4)C=C3)cc1
REMARK SMILES IDX 23 1 22 2 21 3 19 4 20 5 18 6 12 7 13 8 14 9 16 10 15 11
REMARK SMILES IDX 17 12 11 13 10 14 5 15 6 16 7 17 9 18 8 19 3 20 4 21 2 22
REMARK SMILES IDX 1 23 24 24 25 25 26 26 27 27 28 28 29 29 30 30 31 31 95 32
REMARK SMILES IDX 32 33 94 34 33 35 34 36 35 37 88 38 36 39 93 40 87 41 89 42
REMARK SMILES IDX 37 43 92 44 86 45 85 46 38 48 72 49 51 50 71 51 52 52 55 53
REMARK SMILES IDX 70 54 90 55 53 56 54 57 69 59 91 60 56 61 39 62 40 63 49 64
REMARK SMILES IDX 41 65 42 66 48 67 50 68 43 69 44 70 45 71 46 72 47 73 73 74
REMARK SMILES IDX 74 75 83 76 75 77 76 78 82 79 84 80 77 81 78 82 79 83 80 84
REMARK SMILES IDX 81 85 57 86 58 87 67 88 59 89 60 90 66 91 68 92 61 93 62 94
REMARK SMILES IDX 63 95 64 96 65 97
REMARK H PARENT 89 47 55 58
REMARK Flexibility Score: inf
ROOT
ATOM      1  C   UNL     1       5.252  -1.153   4.601  1.00  0.00     0.202 C 
ENDROOT
BRANCH   1   2
ATOM      2  C   UNL     1       3.820  -0.661   4.381  1.00  0.00     0.261 C 
BRANCH   2   3
ATOM      3  O   UNL     1       3.158  -1.336   3.298  1.00  0.00    -0.459 OA
BRANCH   3   4
ATOM      4  C   UNL     1       2.744  -0.519   2.300  1.00  0.00     0.345 C 
ATOM      5  O   UNL     1       2.917   0.687   2.227  1.00  0.00    -0.246 OA
BRANCH   4   6
ATOM      6  C   UNL     1       2.142  -1.288   1.200  1.00  0.00     0.138 A 
ATOM      7  C   UNL     1       1.089  -2.192   1.328  1.00  0.00     0.144 A 
ATOM      8  C   UNL     1       0.604  -2.843   0.174  1.00  0.00     0.048 A 
ATOM      9  C   UNL     1       1.094  -2.546  -1.096  1.00  0.00     0.007 A 
ATOM     10  C   UNL     1       2.631  -1.002  -0.083  1.00  0.00     0.141 A 
ATOM     11  C   UNL     1       2.110  -1.612  -1.224  1.00  0.00     0.040 A 
ATOM     12  F   UNL     1       3.641  -0.135  -0.257  1.00  0.00    -0.206 F 
BRANCH   7  13
ATOM     13  O   UNL     1       0.424  -2.609   2.445  1.00  0.00    -0.456 OA
BRANCH  13  14
ATOM     14  C   UNL     1       0.179  -1.851   3.564  1.00  0.00     0.130 A 
ATOM     15  C   UNL     1      -0.308  -0.526   3.651  1.00  0.00    -0.002 A 
ATOM     16  C   UNL     1      -0.564  -0.049   4.959  1.00  0.00     0.008 A 
ATOM     17  C   UNL     1      -0.398  -0.840   6.104  1.00  0.00     0.001 A 
ATOM     18  C   UNL     1       0.318  -2.646   4.723  1.00  0.00     0.047 A 
ATOM     19  C   UNL     1       0.035  -2.147   5.987  1.00  0.00     0.004 A 
BRANCH  15  20
ATOM     20  C   UNL     1      -0.513   0.410   2.449  1.00  0.00     0.019 C 
ATOM     21  C   UNL     1      -1.342  -0.184   1.300  1.00  0.00     0.013 C 
BRANCH  20  22
ATOM     22  C   UNL     1      -0.933   1.879   2.738  1.00  0.00     0.005 C 
ATOM     23  C   UNL     1      -2.418   2.094   3.005  1.00  0.00     0.004 C 
ENDBRANCH  20  22
ENDBRANCH  15  20
ENDBRANCH  13  14
ENDBRANCH   7  13
ENDBRANCH   4   6
ENDBRANCH   3   4
ENDBRANCH   2   3
ENDBRANCH   1   2
BRANCH   1  24
ATOM     24  O   UNL     1       6.196  -1.023   3.541  1.00  0.00    -0.374 OA
BRANCH  24  25
ATOM     25  C   UNL     1       5.909  -1.629   2.287  1.00  0.00     0.202 C 
BRANCH  25  26
ATOM     26  C   UNL     1       5.823  -3.161   2.190  1.00  0.00     0.261 C 
BRANCH  26  27
ATOM     27  O   UNL     1       5.018  -3.798   3.196  1.00  0.00    -0.460 OA
BRANCH  27  28
ATOM     28  C   UNL     1       5.744  -4.446   4.142  1.00  0.00     0.338 C 
ATOM     29  O   UNL     1       6.959  -4.537   4.198  1.00  0.00    -0.246 OA
BRANCH  28  30
ATOM     30  C   UNL     1       4.885  -4.950   5.230  1.00  0.00     0.060 A 
ATOM     31  C   UNL     1       5.204  -4.542   6.532  1.00  0.00     0.016 A 
ATOM     32  C   UNL     1       3.925  -5.940   5.010  1.00  0.00     0.016 A 
ATOM     33  C   UNL     1       4.626  -5.184   7.622  1.00  0.00     0.010 A 
ATOM     34  C   UNL     1       3.352  -6.592   6.110  1.00  0.00     0.010 A 
ATOM     35  C   UNL     1       3.747  -6.256   7.418  1.00  0.00    -0.014 A 
BRANCH  35  36
ATOM     36  C   UNL     1       3.441  -7.136   8.574  1.00  0.00     0.031 A 
ATOM     37  C   UNL     1       4.266  -8.382   8.773  1.00  0.00     0.074 A 
ATOM     38  C   UNL     1       2.529  -6.774   9.493  1.00  0.00     0.049 A 
ATOM     39  N   UNL     1       4.250  -9.239   9.762  1.00  0.00    -0.248 NA
ATOM     40  C   UNL     1       5.246  -8.700   7.720  1.00  0.00     0.031 C 
ATOM     41  C   UNL     1       1.700  -5.571   9.432  1.00  0.00     0.029 A 
ATOM     42  N   UNL     1       2.164  -7.377  10.670  1.00  0.00    -0.354 N 
ATOM     43  C   UNL     1       5.222 -10.187   9.458  1.00  0.00     0.074 A 
ATOM     44  C   UNL     1       5.779  -9.825   8.173  1.00  0.00     0.031 C 
ATOM     45  C   UNL     1       0.927  -5.519  10.531  1.00  0.00     0.029 A 
ATOM     46  C   UNL     1       1.198  -6.690  11.365  1.00  0.00     0.049 A 
ATOM     47  H   UNL     1       2.556  -8.222  10.986  1.00  0.00     0.167 HD
ATOM     48  C   UNL     1       5.628 -11.252  10.189  1.00  0.00     0.037 A 
ATOM     49  C   UNL     1       0.606  -6.973  12.542  1.00  0.00     0.037 A 
ATOM     50  C   UNL     1       5.075 -11.613  11.467  1.00  0.00     0.049 A 
ATOM     51  C   UNL     1       1.035  -8.195  13.311  1.00  0.00     0.074 A 
ATOM     52  C   UNL     1       5.416 -12.676  12.286  1.00  0.00     0.029 A 
ATOM     53  N   UNL     1       4.062 -10.920  12.113  1.00  0.00    -0.354 N 
ATOM     54  N   UNL     1       1.964  -9.073  13.015  1.00  0.00    -0.248 NA
ATOM     55  C   UNL     1       0.340  -8.459  14.579  1.00  0.00     0.031 C 
ATOM     56  C   UNL     1       4.585 -12.644  13.412  1.00  0.00     0.029 A 
ATOM     57  C   UNL     1       3.753 -11.540  13.312  1.00  0.00     0.049 A 
ATOM     58  H   UNL     1       3.627 -10.106  11.770  1.00  0.00     0.167 HD
ATOM     59  C   UNL     1       1.979  -9.981  14.070  1.00  0.00     0.074 A 
ATOM     60  C   UNL     1       0.977  -9.536  15.017  1.00  0.00     0.031 C 
ATOM     61  C   UNL     1       2.751 -11.083  14.241  1.00  0.00     0.037 A 
BRANCH  48  62
ATOM     62  C   UNL     1       6.717 -12.112   9.611  1.00  0.00     0.058 A 
ATOM     63  C   UNL     1       8.053 -11.680   9.576  1.00  0.00     0.135 A 
ATOM     64  C   UNL     1       6.427 -13.388   9.103  1.00  0.00     0.135 A 
ATOM     65  F   UNL     1       8.381 -10.461  10.032  1.00  0.00    -0.206 F 
ATOM     66  C   UNL     1       9.060 -12.474   9.035  1.00  0.00     0.059 A 
ATOM     67  C   UNL     1       7.421 -14.208   8.577  1.00  0.00     0.059 A 
ATOM     68  F   UNL     1       5.166 -13.847   9.110  1.00  0.00    -0.206 F 
ATOM     69  C   UNL     1       8.733 -13.736   8.534  1.00  0.00     0.060 A 
BRANCH  69  70
ATOM     70  S   UNL     1      10.047 -14.756   7.832  1.00  0.00     0.124 S 
ATOM     71  O   UNL     1      10.264 -14.105   6.544  1.00  0.00    -0.237 OA
ATOM     72  O   UNL     1      11.120 -14.603   8.809  1.00  0.00    -0.237 OA
ATOM     73  O   UNL     1       9.447 -16.085   7.770  1.00  0.00    -0.744 OA
ENDBRANCH  69  70
ENDBRANCH  48  62
BRANCH  49  74
ATOM     74  C   UNL     1      -0.458  -6.080  13.072  1.00  0.00     0.058 A 
ATOM     75  C   UNL     1      -0.238  -5.276  14.200  1.00  0.00     0.135 A 
ATOM     76  C   UNL     1      -1.722  -6.026  12.465  1.00  0.00     0.135 A 
ATOM     77  F   UNL     1       0.952  -5.303  14.820  1.00  0.00    -0.206 F 
ATOM     78  C   UNL     1      -1.238  -4.460  14.719  1.00  0.00     0.059 A 
ATOM     79  C   UNL     1      -2.731  -5.201  12.952  1.00  0.00     0.059 A 
ATOM     80  F   UNL     1      -1.979  -6.769  11.378  1.00  0.00    -0.206 F 
ATOM     81  C   UNL     1      -2.482  -4.430  14.086  1.00  0.00     0.060 A 
BRANCH  81  82
ATOM     82  S   UNL     1      -3.764  -3.335  14.737  1.00  0.00     0.124 S 
ATOM     83  O   UNL     1      -4.219  -4.079  15.905  1.00  0.00    -0.237 OA
ATOM     84  O   UNL     1      -3.016  -2.111  15.008  1.00  0.00    -0.237 OA
ATOM     85  O   UNL     1      -4.715  -3.245  13.633  1.00  0.00    -0.744 OA
ENDBRANCH  81  82
ENDBRANCH  49  74
BRANCH  61  86
ATOM     86  C   UNL     1       2.553 -11.870  15.506  1.00  0.00     0.058 A 
ATOM     87  C   UNL     1       1.425 -12.682  15.697  1.00  0.00     0.135 A 
ATOM     88  C   UNL     1       3.515 -11.831  16.528  1.00  0.00     0.135 A 
ATOM     89  F   UNL     1       0.475 -12.751  14.751  1.00  0.00    -0.206 F 
ATOM     90  C   UNL     1       1.240 -13.403  16.872  1.00  0.00     0.059 A 
ATOM     91  C   UNL     1       3.362 -12.563  17.702  1.00  0.00     0.059 A 
ATOM     92  F   UNL     1       4.619 -11.080  16.390  1.00  0.00    -0.206 F 
ATOM     93  C   UNL     1       2.212 -13.333  17.871  1.00  0.00     0.060 A 
BRANCH  93  94
ATOM     94  S   UNL     1       1.968 -14.279  19.390  1.00  0.00     0.124 S 
ATOM     95  O   UNL     1       1.007 -13.445  20.103  1.00  0.00    -0.237 OA
ATOM     96  O   UNL     1       1.456 -15.552  18.891  1.00  0.00    -0.237 OA
ATOM     97  O   UNL     1       3.306 -14.335  19.971  1.00  0.00    -0.744 OA
ENDBRANCH  93  94
ENDBRANCH  61  86
ENDBRANCH  35  36
ENDBRANCH  28  30
ENDBRANCH  27  28
ENDBRANCH  26  27
ENDBRANCH  25  26
ENDBRANCH  24  25
ENDBRANCH   1  24
TORSDOF 21
