REMARK SMILES O=C(OCCOCCOC(=O)c1cccnc1Nc1cccc(C(F)(F)F)c1)c1ccc(-c2c3nc(c(-c4c(F)cc(S(=O)(=O)[O-])cc4F)c4ccc([nH]4)c(-c4c(F)cc(S(=O)(=O)[O-])cc4F)c4nc(c(-c5c(F)cc(S(=O)(=O)[O-])cc5F)c5ccc2[nH]5)C=C4)C=C3)cc1
REMARK SMILES IDX 6 1 5 2 4 3 3 4 2 5 1 6 29 7 30 8 94 9 31 10 93 11 32 12
REMARK SMILES IDX 33 13 34 14 87 15 35 16 92 17 86 18 88 19 36 20 91 21 85 22
REMARK SMILES IDX 84 23 37 25 71 26 50 27 70 28 51 29 54 30 69 31 89 32 52 33
REMARK SMILES IDX 53 34 68 36 90 37 55 38 38 39 39 40 48 41 40 42 41 43 47 44
REMARK SMILES IDX 49 45 42 46 43 47 44 48 45 49 46 50 72 51 73 52 82 53 74 54
REMARK SMILES IDX 75 55 81 56 83 57 76 58 77 59 78 60 79 61 80 62 56 63 57 64
REMARK SMILES IDX 66 65 58 66 59 67 65 68 67 69 60 70 61 71 62 72 63 73 64 74
REMARK SMILES IDX 7 75 8 76 9 77 10 78 11 79 12 80 13 81 17 82 14 83 16 84
REMARK SMILES IDX 15 85 18 86 19 88 20 89 28 90 21 91 23 92 22 93 24 94 25 95
REMARK SMILES IDX 26 96 27 97
REMARK H PARENT 88 24 54 35 18 87
REMARK Flexibility Score: inf
ROOT
ATOM      1  O   UNL     1       3.820  -0.037  -1.595  1.00  0.00    -0.374 OA
ENDROOT
BRANCH   1   2
ATOM      2  C   UNL     1       4.091  -1.143  -0.747  1.00  0.00     0.202 C 
BRANCH   2   3
ATOM      3  C   UNL     1       3.606  -0.975   0.691  1.00  0.00     0.261 C 
BRANCH   3   4
ATOM      4  O   UNL     1       2.220  -0.600   0.710  1.00  0.00    -0.460 OA
BRANCH   4   5
ATOM      5  C   UNL     1       1.730   0.630   1.008  1.00  0.00     0.338 C 
ATOM      6  O   UNL     1       0.515   0.789   1.094  1.00  0.00    -0.246 OA
BRANCH   5   7
ATOM      7  C   UNL     1       2.620   1.795   1.272  1.00  0.00     0.060 A 
ATOM      8  C   UNL     1       3.786   2.050   0.552  1.00  0.00     0.016 A 
ATOM      9  C   UNL     1       2.218   2.732   2.232  1.00  0.00     0.016 A 
ATOM     10  C   UNL     1       4.590   3.138   0.820  1.00  0.00     0.010 A 
ATOM     11  C   UNL     1       2.983   3.881   2.459  1.00  0.00     0.010 A 
ATOM     12  C   UNL     1       4.178   4.078   1.753  1.00  0.00    -0.014 A 
BRANCH  12  13
ATOM     13  C   UNL     1       5.076   5.217   2.002  1.00  0.00     0.031 A 
ATOM     14  C   UNL     1       5.825   5.258   3.293  1.00  0.00     0.074 A 
ATOM     15  C   UNL     1       5.301   6.102   1.013  1.00  0.00     0.049 A 
ATOM     16  N   UNL     1       6.597   6.193   3.768  1.00  0.00    -0.248 NA
ATOM     17  C   UNL     1       5.690   4.079   4.166  1.00  0.00     0.031 C 
ATOM     18  C   UNL     1       4.717   6.033  -0.332  1.00  0.00     0.029 A 
ATOM     19  N   UNL     1       6.108   7.205   0.964  1.00  0.00    -0.354 N 
ATOM     20  C   UNL     1       6.994   5.745   5.021  1.00  0.00     0.074 A 
ATOM     21  C   UNL     1       6.389   4.449   5.227  1.00  0.00     0.031 C 
ATOM     22  C   UNL     1       5.217   7.026  -1.083  1.00  0.00     0.029 A 
ATOM     23  C   UNL     1       6.077   7.854  -0.248  1.00  0.00     0.049 A 
ATOM     24  H   UNL     1       6.658   7.505   1.723  1.00  0.00     0.167 HD
ATOM     25  C   UNL     1       7.780   6.384   5.917  1.00  0.00     0.037 A 
ATOM     26  C   UNL     1       6.651   9.014  -0.618  1.00  0.00     0.037 A 
ATOM     27  C   UNL     1       8.366   7.671   5.654  1.00  0.00     0.049 A 
ATOM     28  C   UNL     1       7.453   9.746   0.421  1.00  0.00     0.074 A 
ATOM     29  C   UNL     1       9.122   8.469   6.490  1.00  0.00     0.029 A 
ATOM     30  N   UNL     1       8.256   8.346   4.442  1.00  0.00    -0.354 N 
ATOM     31  N   UNL     1       7.738   9.376   1.650  1.00  0.00    -0.248 NA
ATOM     32  C   UNL     1       7.989  11.056   0.044  1.00  0.00     0.031 C 
ATOM     33  C   UNL     1       9.433   9.645   5.796  1.00  0.00     0.029 A 
ATOM     34  C   UNL     1       8.918   9.557   4.509  1.00  0.00     0.049 A 
ATOM     35  H   UNL     1       7.776   8.010   3.651  1.00  0.00     0.167 HD
ATOM     36  C   UNL     1       8.502  10.400   2.190  1.00  0.00     0.074 A 
ATOM     37  C   UNL     1       8.643  11.400   1.146  1.00  0.00     0.031 C 
ATOM     38  C   UNL     1       9.037  10.512   3.432  1.00  0.00     0.037 A 
BRANCH  25  39
ATOM     39  C   UNL     1       7.938   5.737   7.264  1.00  0.00     0.058 A 
ATOM     40  C   UNL     1       8.672   4.553   7.450  1.00  0.00     0.135 A 
ATOM     41  C   UNL     1       7.265   6.267   8.377  1.00  0.00     0.135 A 
ATOM     42  F   UNL     1       9.308   3.982   6.414  1.00  0.00    -0.206 F 
ATOM     43  C   UNL     1       8.687   3.891   8.675  1.00  0.00     0.059 A 
ATOM     44  C   UNL     1       7.289   5.638   9.618  1.00  0.00     0.059 A 
ATOM     45  F   UNL     1       6.539   7.390   8.256  1.00  0.00    -0.206 F 
ATOM     46  C   UNL     1       7.981   4.435   9.749  1.00  0.00     0.060 A 
BRANCH  46  47
ATOM     47  S   UNL     1       7.949   3.533  11.314  1.00  0.00     0.124 S 
ATOM     48  O   UNL     1       7.038   2.437  10.998  1.00  0.00    -0.237 OA
ATOM     49  O   UNL     1       9.350   3.162  11.489  1.00  0.00    -0.237 OA
ATOM     50  O   UNL     1       7.441   4.518  12.264  1.00  0.00    -0.744 OA
ENDBRANCH  46  47
ENDBRANCH  25  39
BRANCH  26  51
ATOM     51  C   UNL     1       6.442   9.554  -1.989  1.00  0.00     0.058 A 
ATOM     52  C   UNL     1       7.502   9.655  -2.901  1.00  0.00     0.135 A 
ATOM     53  C   UNL     1       5.168   9.949  -2.432  1.00  0.00     0.135 A 
ATOM     54  F   UNL     1       8.742   9.300  -2.530  1.00  0.00    -0.206 F 
ATOM     55  C   UNL     1       7.310  10.127  -4.198  1.00  0.00     0.059 A 
ATOM     56  C   UNL     1       4.945  10.398  -3.731  1.00  0.00     0.059 A 
ATOM     57  F   UNL     1       4.112   9.866  -1.606  1.00  0.00    -0.206 F 
ATOM     58  C   UNL     1       6.025  10.491  -4.605  1.00  0.00     0.060 A 
BRANCH  58  59
ATOM     59  S   UNL     1       5.775  11.049  -6.306  1.00  0.00     0.124 S 
ATOM     60  O   UNL     1       6.401  12.366  -6.279  1.00  0.00    -0.237 OA
ATOM     61  O   UNL     1       6.478  10.023  -7.071  1.00  0.00    -0.237 OA
ATOM     62  O   UNL     1       4.323  11.044  -6.452  1.00  0.00    -0.744 OA
ENDBRANCH  58  59
ENDBRANCH  26  51
BRANCH  38  63
ATOM     63  C   UNL     1       9.859  11.737   3.702  1.00  0.00     0.058 A 
ATOM     64  C   UNL     1       9.268  12.992   3.904  1.00  0.00     0.135 A 
ATOM     65  C   UNL     1      11.254  11.632   3.819  1.00  0.00     0.135 A 
ATOM     66  F   UNL     1       7.938  13.141   3.792  1.00  0.00    -0.206 F 
ATOM     67  C   UNL     1      10.037  14.111   4.197  1.00  0.00     0.059 A 
ATOM     68  C   UNL     1      12.039  12.732   4.139  1.00  0.00     0.059 A 
ATOM     69  F   UNL     1      11.861  10.448   3.643  1.00  0.00    -0.206 F 
ATOM     70  C   UNL     1      11.421  13.969   4.317  1.00  0.00     0.060 A 
BRANCH  70  71
ATOM     71  S   UNL     1      12.405  15.419   4.745  1.00  0.00     0.124 S 
ATOM     72  O   UNL     1      12.413  16.151   3.483  1.00  0.00    -0.237 OA
ATOM     73  O   UNL     1      11.624  16.020   5.822  1.00  0.00    -0.237 OA
ATOM     74  O   UNL     1      13.687  14.851   5.151  1.00  0.00    -0.744 OA
ENDBRANCH  70  71
ENDBRANCH  38  63
ENDBRANCH  12  13
ENDBRANCH   5   7
ENDBRANCH   4   5
ENDBRANCH   3   4
ENDBRANCH   2   3
ENDBRANCH   1   2
BRANCH   1  75
ATOM     75  C   UNL     1       2.603  -0.075  -2.328  1.00  0.00     0.202 C 
BRANCH  75  76
ATOM     76  C   UNL     1       2.956  -0.014  -3.813  1.00  0.00     0.261 C 
BRANCH  76  77
ATOM     77  O   UNL     1       3.629  -1.234  -4.178  1.00  0.00    -0.460 OA
BRANCH  77  78
ATOM     78  C   UNL     1       4.971  -1.280  -3.961  1.00  0.00     0.341 C 
ATOM     79  O   UNL     1       5.725  -0.355  -3.710  1.00  0.00    -0.246 OA
BRANCH  78  80
ATOM     80  C   UNL     1       5.384  -2.695  -3.938  1.00  0.00     0.102 A 
ATOM     81  C   UNL     1       4.778  -3.596  -4.826  1.00  0.00     0.021 A 
ATOM     82  C   UNL     1       6.338  -3.159  -3.017  1.00  0.00     0.144 A 
ATOM     83  C   UNL     1       5.111  -4.939  -4.766  1.00  0.00     0.021 A 
ATOM     84  N   UNL     1       6.652  -4.480  -2.969  1.00  0.00    -0.238 NA
ATOM     85  C   UNL     1       6.045  -5.328  -3.827  1.00  0.00     0.113 A 
BRANCH  82  86
ATOM     86  N   UNL     1       6.876  -2.319  -2.021  1.00  0.00    -0.340 N 
ATOM     87  H   UNL     1       6.575  -1.382  -2.028  1.00  0.00     0.168 HD
BRANCH  86  88
ATOM     88  C   UNL     1       7.795  -2.675  -1.016  1.00  0.00     0.040 A 
ATOM     89  C   UNL     1       7.447  -2.570   0.337  1.00  0.00     0.026 A 
ATOM     90  C   UNL     1       9.116  -2.995  -1.338  1.00  0.00     0.039 A 
ATOM     91  C   UNL     1       8.376  -2.829   1.347  1.00  0.00     0.003 A 
ATOM     92  C   UNL     1      10.067  -3.252  -0.335  1.00  0.00     0.058 A 
ATOM     93  C   UNL     1       9.681  -3.171   1.012  1.00  0.00     0.013 A 
BRANCH  92  94
ATOM     94  C   UNL     1      11.485  -3.610  -0.688  1.00  0.00     0.416 C 
ATOM     95  F   UNL     1      12.396  -2.774  -0.117  1.00  0.00    -0.166 F 
ATOM     96  F   UNL     1      11.823  -4.864  -0.272  1.00  0.00    -0.166 F 
ATOM     97  F   UNL     1      11.744  -3.584  -2.026  1.00  0.00    -0.166 F 
ENDBRANCH  92  94
ENDBRANCH  86  88
ENDBRANCH  82  86
ENDBRANCH  78  80
ENDBRANCH  77  78
ENDBRANCH  76  77
ENDBRANCH  75  76
ENDBRANCH   1  75
TORSDOF 20
