REMARK SMILES CCOc1ccc(-c2nc(C(=O)OCCOCCOC(=O)c3ccc(-c4c5nc(c(-c6c(F)cc(S(=O)(=O)[O-])cc6F)c6ccc([nH]6)c(-c6c(F)cc(S(=O)(=O)[O-])cc6F)c6nc(c(-c7c(F)cc(S(=O)(=O)[O-])cc7F)c7ccc4[nH]7)C=C6)C=C5)cc3)cc(=O)[nH]2)cc1
REMARK SMILES IDX 16 1 15 2 14 3 13 4 11 5 12 6 10 7 8 8 9 9 91 10 89 11 88 13
REMARK SMILES IDX 90 14 7 15 4 16 5 17 93 18 6 19 92 20 3 21 2 22 1 23 17 24
REMARK SMILES IDX 18 25 19 26 20 27 21 28 22 29 23 30 87 31 24 32 86 33 25 34
REMARK SMILES IDX 26 35 27 36 80 37 28 38 85 39 79 40 81 41 29 42 84 43 78 44
REMARK SMILES IDX 77 45 30 47 64 48 43 49 63 50 44 51 47 52 62 53 82 54 45 55
REMARK SMILES IDX 46 56 61 58 83 59 48 60 31 61 32 62 41 63 33 64 34 65 40 66
REMARK SMILES IDX 42 67 35 68 36 69 37 70 38 71 39 72 65 73 66 74 75 75 67 76
REMARK SMILES IDX 68 77 74 78 76 79 69 80 70 81 71 82 72 83 73 84 49 85 50 86
REMARK SMILES IDX 59 87 51 88 52 89 58 90 60 91 53 92 54 93 55 94 56 95 57 96
REMARK H PARENT 91 12 81 46 47 57
REMARK Flexibility Score: inf
ROOT
ATOM      1  O   UNL     1       9.622   3.938  -3.162  1.00  0.00    -0.374 OA
ENDROOT
BRANCH   1   2
ATOM      2  C   UNL     1      10.737   4.744  -2.775  1.00  0.00     0.202 C 
BRANCH   2   3
ATOM      3  C   UNL     1      10.446   5.835  -1.740  1.00  0.00     0.261 C 
BRANCH   3   4
ATOM      4  O   UNL     1      10.042   5.254  -0.488  1.00  0.00    -0.459 OA
BRANCH   4   5
ATOM      5  C   UNL     1       8.779   5.561  -0.090  1.00  0.00     0.357 C 
ATOM      6  O   UNL     1       8.059   6.419  -0.584  1.00  0.00    -0.244 OA
BRANCH   5   7
ATOM      7  C   UNL     1       8.305   4.584   0.947  1.00  0.00     0.156 A 
ATOM      8  C   UNL     1       6.549   3.369   1.752  1.00  0.00     0.141 A 
ATOM      9  N   UNL     1       6.996   4.167   0.843  1.00  0.00    -0.223 NA
ATOM     10  N   UNL     1       7.315   2.907   2.786  1.00  0.00    -0.306 N 
ATOM     11  C   UNL     1       8.632   3.237   2.907  1.00  0.00     0.251 A 
ATOM     12  H   UNL     1       6.904   2.320   3.461  1.00  0.00     0.171 HD
ATOM     13  C   UNL     1       9.154   4.168   1.896  1.00  0.00     0.107 A 
ATOM     14  O   UNL     1       9.344   2.785   3.795  1.00  0.00    -0.269 OA
BRANCH   8  15
ATOM     15  C   UNL     1       5.159   2.893   1.690  1.00  0.00     0.018 A 
ATOM     16  C   UNL     1       2.491   2.187   1.400  1.00  0.00     0.119 A 
ATOM     17  C   UNL     1       2.896   2.920   2.517  1.00  0.00     0.047 A 
ATOM     18  C   UNL     1       3.412   1.820   0.419  1.00  0.00     0.047 A 
ATOM     19  C   UNL     1       4.240   3.268   2.672  1.00  0.00     0.016 A 
ATOM     20  C   UNL     1       4.753   2.171   0.564  1.00  0.00     0.016 A 
BRANCH  16  21
ATOM     21  O   UNL     1       1.154   1.975   1.214  1.00  0.00    -0.494 OA
BRANCH  21  22
ATOM     22  C   UNL     1       0.765   0.615   1.437  1.00  0.00     0.226 C 
ATOM     23  C   UNL     1       0.733  -0.173   0.138  1.00  0.00     0.049 C 
ENDBRANCH  21  22
ENDBRANCH  16  21
ENDBRANCH   8  15
ENDBRANCH   5   7
ENDBRANCH   4   5
ENDBRANCH   3   4
ENDBRANCH   2   3
ENDBRANCH   1   2
BRANCH   1  24
ATOM     24  C   UNL     1       9.255   2.872  -2.285  1.00  0.00     0.202 C 
BRANCH  24  25
ATOM     25  C   UNL     1      10.108   1.600  -2.369  1.00  0.00     0.261 C 
BRANCH  25  26
ATOM     26  O   UNL     1      11.452   1.815  -1.901  1.00  0.00    -0.460 OA
BRANCH  26  27
ATOM     27  C   UNL     1      12.402   1.784  -2.866  1.00  0.00     0.338 C 
ATOM     28  O   UNL     1      12.240   1.521  -4.051  1.00  0.00    -0.246 OA
BRANCH  27  29
ATOM     29  C   UNL     1      13.680   2.296  -2.338  1.00  0.00     0.060 A 
ATOM     30  C   UNL     1      14.316   3.317  -3.056  1.00  0.00     0.016 A 
ATOM     31  C   UNL     1      14.283   1.749  -1.203  1.00  0.00     0.016 A 
ATOM     32  C   UNL     1      15.578   3.763  -2.669  1.00  0.00     0.010 A 
ATOM     33  C   UNL     1      15.555   2.192  -0.821  1.00  0.00     0.010 A 
ATOM     34  C   UNL     1      16.222   3.178  -1.571  1.00  0.00    -0.014 A 
BRANCH  34  35
ATOM     35  C   UNL     1      17.645   3.501  -1.296  1.00  0.00     0.031 A 
ATOM     36  C   UNL     1      18.712   2.543  -1.755  1.00  0.00     0.074 A 
ATOM     37  C   UNL     1      17.985   4.648  -0.680  1.00  0.00     0.049 A 
ATOM     38  N   UNL     1      20.007   2.599  -1.581  1.00  0.00    -0.248 NA
ATOM     39  C   UNL     1      18.257   1.365  -2.513  1.00  0.00     0.031 C 
ATOM     40  C   UNL     1      17.047   5.674  -0.226  1.00  0.00     0.029 A 
ATOM     41  N   UNL     1      19.216   5.138  -0.322  1.00  0.00    -0.354 N 
ATOM     42  C   UNL     1      20.523   1.473  -2.213  1.00  0.00     0.074 A 
ATOM     43  C   UNL     1      19.398   0.731  -2.740  1.00  0.00     0.031 C 
ATOM     44  C   UNL     1      17.736   6.666   0.364  1.00  0.00     0.029 A 
ATOM     45  C   UNL     1      19.159   6.332   0.357  1.00  0.00     0.049 A 
ATOM     46  H   UNL     1      20.061   4.678  -0.532  1.00  0.00     0.167 HD
ATOM     47  C   UNL     1      21.817   1.101  -2.357  1.00  0.00     0.037 A 
ATOM     48  C   UNL     1      20.141   7.058   0.928  1.00  0.00     0.037 A 
ATOM     49  C   UNL     1      22.934   1.837  -1.824  1.00  0.00     0.049 A 
ATOM     50  C   UNL     1      21.568   6.577   0.828  1.00  0.00     0.074 A 
ATOM     51  C   UNL     1      24.282   1.529  -1.895  1.00  0.00     0.029 A 
ATOM     52  N   UNL     1      22.834   3.030  -1.124  1.00  0.00    -0.354 N 
ATOM     53  N   UNL     1      22.040   5.510   0.228  1.00  0.00    -0.248 NA
ATOM     54  C   UNL     1      22.596   7.402   1.480  1.00  0.00     0.031 C 
ATOM     55  C   UNL     1      24.994   2.518  -1.209  1.00  0.00     0.029 A 
ATOM     56  C   UNL     1      24.094   3.466  -0.750  1.00  0.00     0.049 A 
ATOM     57  H   UNL     1      21.992   3.498  -0.923  1.00  0.00     0.167 HD
ATOM     58  C   UNL     1      23.420   5.554   0.403  1.00  0.00     0.074 A 
ATOM     59  C   UNL     1      23.708   6.758   1.155  1.00  0.00     0.031 C 
ATOM     60  C   UNL     1      24.365   4.678  -0.020  1.00  0.00     0.037 A 
BRANCH  47  61
ATOM     61  C   UNL     1      22.099  -0.164  -3.119  1.00  0.00     0.058 A 
ATOM     62  C   UNL     1      21.958  -0.222  -4.514  1.00  0.00     0.135 A 
ATOM     63  C   UNL     1      22.561  -1.313  -2.458  1.00  0.00     0.135 A 
ATOM     64  F   UNL     1      21.501   0.842  -5.193  1.00  0.00    -0.206 F 
ATOM     65  C   UNL     1      22.253  -1.380  -5.227  1.00  0.00     0.059 A 
ATOM     66  C   UNL     1      22.884  -2.475  -3.153  1.00  0.00     0.059 A 
ATOM     67  F   UNL     1      22.709  -1.312  -1.124  1.00  0.00    -0.206 F 
ATOM     68  C   UNL     1      22.718  -2.501  -4.537  1.00  0.00     0.060 A 
BRANCH  68  69
ATOM     69  S   UNL     1      23.115  -3.989  -5.480  1.00  0.00     0.124 S 
ATOM     70  O   UNL     1      21.785  -4.466  -5.846  1.00  0.00    -0.237 OA
ATOM     71  O   UNL     1      23.921  -3.458  -6.575  1.00  0.00    -0.237 OA
ATOM     72  O   UNL     1      23.836  -4.818  -4.520  1.00  0.00    -0.744 OA
ENDBRANCH  68  69
ENDBRANCH  47  61
BRANCH  48  73
ATOM     73  C   UNL     1      19.820   8.305   1.674  1.00  0.00     0.058 A 
ATOM     74  C   UNL     1      20.233   9.561   1.206  1.00  0.00     0.135 A 
ATOM     75  C   UNL     1      19.130   8.258   2.896  1.00  0.00     0.135 A 
ATOM     76  F   UNL     1      20.903   9.657   0.047  1.00  0.00    -0.206 F 
ATOM     77  C   UNL     1      20.006  10.723   1.937  1.00  0.00     0.059 A 
ATOM     78  C   UNL     1      18.866   9.409   3.632  1.00  0.00     0.059 A 
ATOM     79  F   UNL     1      18.701   7.084   3.383  1.00  0.00    -0.206 F 
ATOM     80  C   UNL     1      19.326  10.635   3.153  1.00  0.00     0.060 A 
BRANCH  80  81
ATOM     81  S   UNL     1      19.030  12.147   4.095  1.00  0.00     0.124 S 
ATOM     82  O   UNL     1      20.351  12.405   4.656  1.00  0.00    -0.237 OA
ATOM     83  O   UNL     1      18.582  13.073   3.060  1.00  0.00    -0.237 OA
ATOM     84  O   UNL     1      18.003  11.747   5.053  1.00  0.00    -0.744 OA
ENDBRANCH  80  81
ENDBRANCH  48  73
BRANCH  60  85
ATOM     85  C   UNL     1      25.802   5.010   0.275  1.00  0.00     0.058 A 
ATOM     86  C   UNL     1      26.338   4.896   1.566  1.00  0.00     0.135 A 
ATOM     87  C   UNL     1      26.667   5.398  -0.762  1.00  0.00     0.135 A 
ATOM     88  F   UNL     1      25.553   4.534   2.594  1.00  0.00    -0.206 F 
ATOM     89  C   UNL     1      27.676   5.178   1.825  1.00  0.00     0.059 A 
ATOM     90  C   UNL     1      28.014   5.659  -0.531  1.00  0.00     0.059 A 
ATOM     91  F   UNL     1      26.208   5.511  -2.019  1.00  0.00    -0.206 F 
ATOM     92  C   UNL     1      28.507   5.558   0.769  1.00  0.00     0.060 A 
BRANCH  92  93
ATOM     93  S   UNL     1      30.248   5.889   1.112  1.00  0.00     0.124 S 
ATOM     94  O   UNL     1      30.177   7.190   1.767  1.00  0.00    -0.237 OA
ATOM     95  O   UNL     1      30.618   4.766   1.969  1.00  0.00    -0.237 OA
ATOM     96  O   UNL     1      30.862   5.885  -0.213  1.00  0.00    -0.744 OA
ENDBRANCH  92  93
ENDBRANCH  60  85
ENDBRANCH  34  35
ENDBRANCH  27  29
ENDBRANCH  26  27
ENDBRANCH  25  26
ENDBRANCH  24  25
ENDBRANCH   1  24
TORSDOF 20
