REMARK SMILES CC(C)(C)C(=O)Nc1nc2c(s1)C[C@H]1[C@](C)(CO)[C@H](O)CC[C@]1(C)[C@@H]2CC(=O)OCCOCCOC(=O)c1ccc(-c2c3nc(c(-c4c(F)cc(S(=O)(=O)[O-])cc4F)c4ccc([nH]4)c(-c4c(F)cc(S(=O)(=O)[O-])cc4F)c4nc(c(-c5c(F)cc(S(=O)(=O)[O-])cc5F)c5ccc2[nH]5)C=C4)C=C3)cc1
REMARK SMILES IDX 32 1 31 2 30 3 29 4 27 5 28 6 26 7 25 8 8 9 9 10 12 11 10 12
REMARK SMILES IDX 11 13 13 14 23 15 14 16 22 17 24 18 15 19 21 20 19 21 16 22
REMARK SMILES IDX 7 23 5 24 6 25 2 27 1 28 3 29 4 30 17 31 18 32 20 34 33 36
REMARK SMILES IDX 34 37 35 38 36 39 37 40 38 41 39 42 103 43 40 44 102 45
REMARK SMILES IDX 41 46 42 47 43 48 96 49 44 50 101 51 95 52 97 53 45 54
REMARK SMILES IDX 100 55 94 56 93 57 46 59 80 60 59 61 79 62 60 63 63 64 78 65
REMARK SMILES IDX 98 66 61 67 62 68 77 70 99 71 64 72 47 73 48 74 57 75 49 76
REMARK SMILES IDX 50 77 56 78 58 79 51 80 52 81 53 82 54 83 55 84 81 85 82 86
REMARK SMILES IDX 91 87 83 88 84 89 90 90 92 91 85 92 86 93 87 94 88 95 89 96
REMARK SMILES IDX 65 97 66 98 75 99 67 100 68 101 74 102 76 103 69 104 70 105
REMARK SMILES IDX 71 106 72 107 73 108
REMARK H PARENT 7 26 18 33 20 35 97 58 63 69
REMARK Flexibility Score: inf
ROOT
ATOM      1  O   UNL     1      -7.597   3.058  -0.013  1.00  0.00    -0.374 OA
ENDROOT
BRANCH   1   2
ATOM      2  C   UNL     1      -7.821   4.427   0.319  1.00  0.00     0.202 C 
BRANCH   2   3
ATOM      3  C   UNL     1      -7.901   4.667   1.835  1.00  0.00     0.261 C 
BRANCH   3   4
ATOM      4  O   UNL     1      -6.628   4.851   2.503  1.00  0.00    -0.463 OA
BRANCH   4   5
ATOM      5  C   UNL     1      -5.874   3.804   2.936  1.00  0.00     0.306 C 
ATOM      6  O   UNL     1      -6.222   2.634   2.872  1.00  0.00    -0.252 OA
BRANCH   5   7
ATOM      7  C   UNL     1      -4.518   4.279   3.526  1.00  0.00     0.133 C 
BRANCH   7   8
ATOM      8  C   UNL     1      -3.303   4.266   2.566  1.00  0.00     0.057 C 
ATOM      9  C   UNL     1      -0.089   3.025   3.511  1.00  0.00     0.189 A 
ATOM     10  N   UNL     1      -1.386   2.921   3.387  1.00  0.00    -0.224 NA
ATOM     11  S   UNL     1       0.503   4.606   3.786  1.00  0.00    -0.101 S 
ATOM     12  C   UNL     1      -1.940   4.191   3.233  1.00  0.00     0.061 A 
ATOM     13  C   UNL     1      -0.985   5.206   3.156  1.00  0.00     0.030 A 
ATOM     14  C   UNL     1      -1.067   6.524   2.412  1.00  0.00     0.053 C 
ATOM     15  C   UNL     1      -3.101   5.264   1.345  1.00  0.00    -0.020 C 
ATOM     16  C   UNL     1      -2.311   6.601   1.494  1.00  0.00     0.012 C 
ATOM     17  C   UNL     1      -4.487   5.786   0.879  1.00  0.00     0.010 C 
ATOM     18  C   UNL     1      -2.188   4.340   0.417  1.00  0.00     0.012 C 
ATOM     19  C   UNL     1      -2.307   7.282  -0.013  1.00  0.00     0.020 C 
ATOM     20  C   UNL     1      -4.803   7.225   0.388  1.00  0.00     0.033 C 
ATOM     21  C   UNL     1      -3.635   8.091  -0.067  1.00  0.00     0.123 C 
ATOM     22  C   UNL     1      -2.467   6.318  -1.224  1.00  0.00     0.017 C 
BRANCH   9  23
ATOM     23  N   UNL     1       0.856   2.047   3.444  1.00  0.00    -0.302 N 
ATOM     24  C   UNL     1       0.926   0.992   2.577  1.00  0.00     0.231 C 
ATOM     25  O   UNL     1       1.539  -0.007   2.977  1.00  0.00    -0.274 OA
ATOM     26  H   UNL     1       1.583   2.107   4.105  1.00  0.00     0.172 HD
BRANCH  24  27
ATOM     27  C   UNL     1       0.457   1.078   1.088  1.00  0.00     0.041 C 
ATOM     28  C   UNL     1       1.116  -0.085   0.294  1.00  0.00     0.021 C 
ATOM     29  C   UNL     1       0.974   2.369   0.423  1.00  0.00     0.021 C 
ATOM     30  C   UNL     1      -1.050   0.896   0.902  1.00  0.00     0.021 C 
ENDBRANCH  24  27
ENDBRANCH   9  23
BRANCH  19  31
ATOM     31  C   UNL     1      -1.103   8.131  -0.469  1.00  0.00     0.165 C 
BRANCH  31  32
ATOM     32  O   UNL     1      -1.150   9.449   0.041  1.00  0.00    -0.396 OA
ATOM     33  H   UNL     1      -1.948   9.893  -0.285  1.00  0.00     0.210 HD
ENDBRANCH  31  32
ENDBRANCH  19  31
BRANCH  21  34
ATOM     34  O   UNL     1      -3.599   9.241   0.778  1.00  0.00    -0.392 OA
ATOM     35  H   UNL     1      -3.488   8.961   1.700  1.00  0.00     0.210 HD
ENDBRANCH  21  34
ENDBRANCH   7   8
ENDBRANCH   5   7
ENDBRANCH   4   5
ENDBRANCH   3   4
ENDBRANCH   2   3
ENDBRANCH   1   2
BRANCH   1  36
ATOM     36  C   UNL     1      -6.254   2.720  -0.340  1.00  0.00     0.202 C 
BRANCH  36  37
ATOM     37  C   UNL     1      -5.875   3.052  -1.781  1.00  0.00     0.261 C 
BRANCH  37  38
ATOM     38  O   UNL     1      -5.924   4.460  -2.052  1.00  0.00    -0.460 OA
BRANCH  38  39
ATOM     39  C   UNL     1      -6.689   4.875  -3.097  1.00  0.00     0.338 C 
ATOM     40  O   UNL     1      -7.819   4.485  -3.376  1.00  0.00    -0.246 OA
BRANCH  39  41
ATOM     41  C   UNL     1      -5.880   5.830  -3.884  1.00  0.00     0.060 A 
ATOM     42  C   UNL     1      -6.370   6.861  -4.704  1.00  0.00     0.016 A 
ATOM     43  C   UNL     1      -4.517   5.681  -3.758  1.00  0.00     0.016 A 
ATOM     44  C   UNL     1      -5.463   7.662  -5.445  1.00  0.00     0.010 A 
ATOM     45  C   UNL     1      -3.739   6.692  -4.226  1.00  0.00     0.010 A 
ATOM     46  C   UNL     1      -4.096   7.483  -5.272  1.00  0.00    -0.014 A 
BRANCH  46  47
ATOM     47  C   UNL     1      -2.944   8.281  -5.701  1.00  0.00     0.031 A 
ATOM     48  C   UNL     1      -3.076   9.727  -5.419  1.00  0.00     0.074 A 
ATOM     49  C   UNL     1      -1.723   7.755  -6.004  1.00  0.00     0.049 A 
ATOM     50  N   UNL     1      -3.624  10.584  -6.206  1.00  0.00    -0.248 NA
ATOM     51  C   UNL     1      -2.788  10.270  -4.078  1.00  0.00     0.031 C 
ATOM     52  C   UNL     1      -1.238   6.364  -5.914  1.00  0.00     0.029 A 
ATOM     53  N   UNL     1      -0.616   8.405  -6.473  1.00  0.00    -0.354 N 
ATOM     54  C   UNL     1      -3.417  11.820  -5.617  1.00  0.00     0.074 A 
ATOM     55  C   UNL     1      -3.166  11.546  -4.227  1.00  0.00     0.031 C 
ATOM     56  C   UNL     1       0.088   6.304  -6.197  1.00  0.00     0.029 A 
ATOM     57  C   UNL     1       0.522   7.611  -6.653  1.00  0.00     0.049 A 
ATOM     58  H   UNL     1      -0.619   9.370  -6.670  1.00  0.00     0.167 HD
ATOM     59  C   UNL     1      -3.175  12.909  -6.400  1.00  0.00     0.037 A 
ATOM     60  C   UNL     1       1.702   7.975  -7.232  1.00  0.00     0.037 A 
ATOM     61  C   UNL     1      -3.380  12.573  -7.796  1.00  0.00     0.049 A 
ATOM     62  C   UNL     1       1.388   9.136  -8.107  1.00  0.00     0.074 A 
ATOM     63  C   UNL     1      -4.440  12.065  -8.524  1.00  0.00     0.029 A 
ATOM     64  N   UNL     1      -2.253  12.314  -8.544  1.00  0.00    -0.354 N 
ATOM     65  N   UNL     1       0.616   9.060  -9.158  1.00  0.00    -0.248 NA
ATOM     66  C   UNL     1       1.527  10.460  -7.524  1.00  0.00     0.031 C 
ATOM     67  C   UNL     1      -3.854  11.105  -9.401  1.00  0.00     0.029 A 
ATOM     68  C   UNL     1      -2.466  11.158  -9.252  1.00  0.00     0.049 A 
ATOM     69  H   UNL     1      -1.436  12.863  -8.567  1.00  0.00     0.167 HD
ATOM     70  C   UNL     1      -0.166  10.205  -9.102  1.00  0.00     0.074 A 
ATOM     71  C   UNL     1       0.491  11.062  -8.114  1.00  0.00     0.031 C 
ATOM     72  C   UNL     1      -1.419  10.233  -9.642  1.00  0.00     0.037 A 
BRANCH  59  73
ATOM     73  C   UNL     1      -2.385  14.132  -6.003  1.00  0.00     0.058 A 
ATOM     74  C   UNL     1      -2.368  15.231  -6.889  1.00  0.00     0.135 A 
ATOM     75  C   UNL     1      -1.448  14.182  -4.950  1.00  0.00     0.135 A 
ATOM     76  F   UNL     1      -3.222  15.290  -7.923  1.00  0.00    -0.206 F 
ATOM     77  C   UNL     1      -1.434  16.258  -6.788  1.00  0.00     0.059 A 
ATOM     78  C   UNL     1      -0.539  15.225  -4.802  1.00  0.00     0.059 A 
ATOM     79  F   UNL     1      -1.303  13.186  -4.069  1.00  0.00    -0.206 F 
ATOM     80  C   UNL     1      -0.513  16.238  -5.747  1.00  0.00     0.060 A 
BRANCH  80  81
ATOM     81  S   UNL     1       0.742  17.526  -5.667  1.00  0.00     0.124 S 
ATOM     82  O   UNL     1       1.550  17.215  -6.840  1.00  0.00    -0.237 OA
ATOM     83  O   UNL     1      -0.067  18.737  -5.747  1.00  0.00    -0.237 OA
ATOM     84  O   UNL     1       1.381  17.288  -4.376  1.00  0.00    -0.744 OA
ENDBRANCH  80  81
ENDBRANCH  59  73
BRANCH  60  85
ATOM     85  C   UNL     1       3.108   7.636  -6.859  1.00  0.00     0.058 A 
ATOM     86  C   UNL     1       4.196   7.973  -7.694  1.00  0.00     0.135 A 
ATOM     87  C   UNL     1       3.439   7.278  -5.539  1.00  0.00     0.135 A 
ATOM     88  F   UNL     1       3.980   8.341  -8.966  1.00  0.00    -0.206 F 
ATOM     89  C   UNL     1       5.520   8.016  -7.230  1.00  0.00     0.059 A 
ATOM     90  C   UNL     1       4.751   7.313  -5.054  1.00  0.00     0.059 A 
ATOM     91  F   UNL     1       2.478   6.978  -4.652  1.00  0.00    -0.206 F 
ATOM     92  C   UNL     1       5.785   7.708  -5.897  1.00  0.00     0.060 A 
BRANCH  92  93
ATOM     93  S   UNL     1       7.460   7.939  -5.241  1.00  0.00     0.124 S 
ATOM     94  O   UNL     1       8.196   6.869  -5.905  1.00  0.00    -0.237 OA
ATOM     95  O   UNL     1       7.779   9.295  -5.673  1.00  0.00    -0.237 OA
ATOM     96  O   UNL     1       7.283   7.773  -3.800  1.00  0.00    -0.744 OA
ENDBRANCH  92  93
ENDBRANCH  60  85
BRANCH  72  97
ATOM     97  C   UNL     1      -1.830   9.134 -10.592  1.00  0.00     0.058 A 
ATOM     98  C   UNL     1      -2.030   7.786 -10.243  1.00  0.00     0.135 A 
ATOM     99  C   UNL     1      -2.233   9.525 -11.879  1.00  0.00     0.135 A 
ATOM    100  F   UNL     1      -1.740   7.339  -9.014  1.00  0.00    -0.206 F 
ATOM    101  C   UNL     1      -2.607   6.873 -11.133  1.00  0.00     0.059 A 
ATOM    102  C   UNL     1      -2.836   8.643 -12.769  1.00  0.00     0.059 A 
ATOM    103  F   UNL     1      -2.109  10.808 -12.258  1.00  0.00    -0.206 F 
ATOM    104  C   UNL     1      -3.020   7.316 -12.391  1.00  0.00     0.060 A 
BRANCH 104 105
ATOM    105  S   UNL     1      -3.875   6.174 -13.500  1.00  0.00     0.124 S 
ATOM    106  O   UNL     1      -2.800   5.273 -13.900  1.00  0.00    -0.237 OA
ATOM    107  O   UNL     1      -4.897   5.596 -12.632  1.00  0.00    -0.237 OA
ATOM    108  O   UNL     1      -4.388   7.043 -14.556  1.00  0.00    -0.744 OA
ENDBRANCH 104 105
ENDBRANCH  72  97
ENDBRANCH  46  47
ENDBRANCH  39  41
ENDBRANCH  38  39
ENDBRANCH  37  38
ENDBRANCH  36  37
ENDBRANCH   1  36
TORSDOF 23
