REMARK SMILES CC(=O)c1c[nH]c(C(=O)N[C@H]2C=C[C@H](C(=O)OCCOCCOC(=O)c3ccc(-c4c5nc(c(-c6c(F)cc(S(=O)(=O)[O-])cc6F)c6ccc([nH]6)c(-c6c(F)cc(S(=O)(=O)[O-])cc6F)c6nc(c(-c7c(F)cc(S(=O)(=O)[O-])cc7F)c7ccc4[nH]7)C=C6)C=C5)cc3)C2)c1
REMARK SMILES IDX 20 1 19 2 18 3 17 4 15 5 16 6 14 7 11 8 12 9 92 10 13 11
REMARK SMILES IDX 10 12 8 13 9 14 7 16 4 17 5 18 93 19 6 20 2 22 1 23 3 24
REMARK SMILES IDX 21 25 22 26 23 27 24 28 25 29 26 30 27 31 91 32 28 33 90 34
REMARK SMILES IDX 29 35 30 36 31 37 84 38 32 39 89 40 83 41 85 42 33 43 88 44
REMARK SMILES IDX 82 45 81 46 34 48 68 49 47 50 67 51 48 52 51 53 66 54 86 55
REMARK SMILES IDX 49 56 50 57 65 59 87 60 52 61 35 62 36 63 45 64 37 65 38 66
REMARK SMILES IDX 44 67 46 68 39 69 40 70 41 71 42 72 43 73 69 74 70 75 79 76
REMARK SMILES IDX 71 77 72 78 78 79 80 80 73 81 74 82 75 83 76 84 77 85 53 86
REMARK SMILES IDX 54 87 63 88 55 89 56 90 62 91 64 92 57 93 58 94 59 95 60 96
REMARK SMILES IDX 61 97
REMARK H PARENT 10 15 6 21 85 47 51 58
REMARK Flexibility Score: inf
ROOT
ATOM      1  O   UNL     1      -4.742  -1.896  -0.002  1.00  0.00    -0.374 OA
ENDROOT
BRANCH   1   2
ATOM      2  C   UNL     1      -5.750  -1.264  -0.790  1.00  0.00     0.202 C 
BRANCH   2   3
ATOM      3  C   UNL     1      -5.363   0.044  -1.472  1.00  0.00     0.261 C 
BRANCH   3   4
ATOM      4  O   UNL     1      -4.418  -0.211  -2.523  1.00  0.00    -0.463 OA
BRANCH   4   5
ATOM      5  C   UNL     1      -3.195   0.342  -2.349  1.00  0.00     0.312 C 
ATOM      6  O   UNL     1      -2.904   1.165  -1.487  1.00  0.00    -0.252 OA
BRANCH   5   7
ATOM      7  C   UNL     1      -2.169  -0.177  -3.340  1.00  0.00     0.124 C 
ATOM      8  C   UNL     1      -1.869  -0.077  -5.771  1.00  0.00     0.106 C 
ATOM      9  C   UNL     1      -2.158  -1.460  -5.318  1.00  0.00    -0.006 C 
ATOM     10  C   UNL     1      -1.990   0.791  -4.513  1.00  0.00     0.048 C 
ATOM     11  C   UNL     1      -2.385  -1.509  -4.002  1.00  0.00    -0.014 C 
BRANCH   8  12
ATOM     12  N   UNL     1      -0.637   0.005  -6.534  1.00  0.00    -0.345 N 
ATOM     13  C   UNL     1       0.696   0.090  -6.236  1.00  0.00     0.268 C 
ATOM     14  O   UNL     1       1.453   0.416  -7.151  1.00  0.00    -0.268 OA
ATOM     15  H   UNL     1      -0.801  -0.002  -7.504  1.00  0.00     0.164 HD
BRANCH  13  16
ATOM     16  C   UNL     1       1.187  -0.072  -4.892  1.00  0.00     0.105 A 
ATOM     17  C   UNL     1       1.449  -0.484  -2.674  1.00  0.00     0.035 A 
ATOM     18  C   UNL     1       2.289   0.553  -3.030  1.00  0.00     0.094 A 
ATOM     19  C   UNL     1       0.919  -0.993  -3.898  1.00  0.00     0.045 A 
ATOM     20  N   UNL     1       2.191   0.727  -4.388  1.00  0.00    -0.356 N 
ATOM     21  H   UNL     1       2.755   1.332  -4.922  1.00  0.00     0.166 HD
BRANCH  17  22
ATOM     22  C   UNL     1       1.103  -0.933  -1.325  1.00  0.00     0.161 C 
ATOM     23  C   UNL     1       1.373   0.005  -0.174  1.00  0.00     0.093 C 
ATOM     24  O   UNL     1       0.515  -1.999  -1.139  1.00  0.00    -0.294 OA
ENDBRANCH  17  22
ENDBRANCH  13  16
ENDBRANCH   8  12
ENDBRANCH   5   7
ENDBRANCH   4   5
ENDBRANCH   3   4
ENDBRANCH   2   3
ENDBRANCH   1   2
BRANCH   1  25
ATOM     25  C   UNL     1      -3.674  -2.574  -0.657  1.00  0.00     0.202 C 
BRANCH  25  26
ATOM     26  C   UNL     1      -3.978  -3.899  -1.355  1.00  0.00     0.261 C 
BRANCH  26  27
ATOM     27  O   UNL     1      -4.828  -3.789  -2.497  1.00  0.00    -0.460 OA
BRANCH  27  28
ATOM     28  C   UNL     1      -6.100  -4.163  -2.220  1.00  0.00     0.338 C 
ATOM     29  O   UNL     1      -6.641  -4.139  -1.129  1.00  0.00    -0.246 OA
BRANCH  28  30
ATOM     30  C   UNL     1      -6.728  -4.807  -3.377  1.00  0.00     0.060 A 
ATOM     31  C   UNL     1      -8.084  -5.104  -3.228  1.00  0.00     0.016 A 
ATOM     32  C   UNL     1      -5.953  -5.376  -4.397  1.00  0.00     0.016 A 
ATOM     33  C   UNL     1      -8.626  -6.111  -3.992  1.00  0.00     0.010 A 
ATOM     34  C   UNL     1      -6.495  -6.403  -5.153  1.00  0.00     0.010 A 
ATOM     35  C   UNL     1      -7.814  -6.795  -4.910  1.00  0.00    -0.014 A 
BRANCH  35  36
ATOM     36  C   UNL     1      -8.511  -7.764  -5.769  1.00  0.00     0.031 A 
ATOM     37  C   UNL     1      -9.243  -6.946  -6.865  1.00  0.00     0.074 A 
ATOM     38  C   UNL     1      -8.524  -9.072  -5.335  1.00  0.00     0.049 A 
ATOM     39  N   UNL     1     -10.479  -6.992  -7.248  1.00  0.00    -0.248 NA
ATOM     40  C   UNL     1      -8.553  -5.777  -7.495  1.00  0.00     0.031 C 
ATOM     41  C   UNL     1      -7.639  -9.645  -4.285  1.00  0.00     0.029 A 
ATOM     42  N   UNL     1      -9.262 -10.194  -5.665  1.00  0.00    -0.354 N 
ATOM     43  C   UNL     1     -10.620  -6.093  -8.333  1.00  0.00     0.074 A 
ATOM     44  C   UNL     1      -9.481  -5.236  -8.289  1.00  0.00     0.031 C 
ATOM     45  C   UNL     1      -7.956 -10.938  -4.013  1.00  0.00     0.029 A 
ATOM     46  C   UNL     1      -9.075 -11.354  -4.838  1.00  0.00     0.049 A 
ATOM     47  H   UNL     1      -9.885 -10.197  -6.428  1.00  0.00     0.167 HD
ATOM     48  C   UNL     1     -11.553  -6.274  -9.318  1.00  0.00     0.037 A 
ATOM     49  C   UNL     1      -9.815 -12.523  -4.804  1.00  0.00     0.037 A 
ATOM     50  C   UNL     1     -12.300  -7.450  -9.019  1.00  0.00     0.049 A 
ATOM     51  C   UNL     1     -10.743 -12.351  -5.926  1.00  0.00     0.074 A 
ATOM     52  C   UNL     1     -13.198  -7.738  -8.026  1.00  0.00     0.029 A 
ATOM     53  N   UNL     1     -11.790  -8.618  -9.538  1.00  0.00    -0.354 N 
ATOM     54  N   UNL     1     -10.419 -12.457  -7.178  1.00  0.00    -0.248 NA
ATOM     55  C   UNL     1     -12.110 -11.900  -5.628  1.00  0.00     0.031 C 
ATOM     56  C   UNL     1     -12.792  -9.024  -7.620  1.00  0.00     0.029 A 
ATOM     57  C   UNL     1     -11.933  -9.581  -8.577  1.00  0.00     0.049 A 
ATOM     58  H   UNL     1     -11.397  -8.738 -10.432  1.00  0.00     0.167 HD
ATOM     59  C   UNL     1     -11.425 -11.755  -7.787  1.00  0.00     0.074 A 
ATOM     60  C   UNL     1     -12.551 -11.760  -6.874  1.00  0.00     0.031 C 
ATOM     61  C   UNL     1     -11.113 -10.765  -8.662  1.00  0.00     0.037 A 
BRANCH  48  62
ATOM     62  C   UNL     1     -11.692  -5.744 -10.724  1.00  0.00     0.058 A 
ATOM     63  C   UNL     1     -12.899  -6.048 -11.410  1.00  0.00     0.135 A 
ATOM     64  C   UNL     1     -10.623  -5.320 -11.523  1.00  0.00     0.135 A 
ATOM     65  F   UNL     1     -14.011  -6.385 -10.734  1.00  0.00    -0.206 F 
ATOM     66  C   UNL     1     -12.980  -6.109 -12.794  1.00  0.00     0.059 A 
ATOM     67  C   UNL     1     -10.701  -5.320 -12.920  1.00  0.00     0.059 A 
ATOM     68  F   UNL     1      -9.448  -4.966 -10.987  1.00  0.00    -0.206 F 
ATOM     69  C   UNL     1     -11.862  -5.774 -13.543  1.00  0.00     0.060 A 
BRANCH  69  70
ATOM     70  S   UNL     1     -11.959  -5.954 -15.335  1.00  0.00     0.124 S 
ATOM     71  O   UNL     1     -11.955  -7.403 -15.490  1.00  0.00    -0.237 OA
ATOM     72  O   UNL     1     -13.224  -5.289 -15.639  1.00  0.00    -0.237 OA
ATOM     73  O   UNL     1     -10.767  -5.257 -15.806  1.00  0.00    -0.744 OA
ENDBRANCH  69  70
ENDBRANCH  48  62
BRANCH  49  74
ATOM     74  C   UNL     1     -10.052 -13.805  -3.990  1.00  0.00     0.058 A 
ATOM     75  C   UNL     1      -9.244 -14.346  -2.982  1.00  0.00     0.135 A 
ATOM     76  C   UNL     1     -11.264 -14.551  -4.187  1.00  0.00     0.135 A 
ATOM     77  F   UNL     1      -8.010 -13.865  -2.773  1.00  0.00    -0.206 F 
ATOM     78  C   UNL     1      -9.675 -15.417  -2.147  1.00  0.00     0.059 A 
ATOM     79  C   UNL     1     -11.736 -15.557  -3.348  1.00  0.00     0.059 A 
ATOM     80  F   UNL     1     -12.080 -14.326  -5.225  1.00  0.00    -0.206 F 
ATOM     81  C   UNL     1     -10.950 -15.971  -2.299  1.00  0.00     0.060 A 
BRANCH  81  82
ATOM     82  S   UNL     1     -11.658 -17.121  -1.089  1.00  0.00     0.124 S 
ATOM     83  O   UNL     1     -11.070 -18.395  -1.486  1.00  0.00    -0.237 OA
ATOM     84  O   UNL     1     -11.191 -16.568   0.178  1.00  0.00    -0.237 OA
ATOM     85  O   UNL     1     -13.098 -17.001  -1.311  1.00  0.00    -0.744 OA
ENDBRANCH  81  82
ENDBRANCH  49  74
BRANCH  61  86
ATOM     86  C   UNL     1      -9.762 -10.897  -9.355  1.00  0.00     0.058 A 
ATOM     87  C   UNL     1      -9.497 -12.019 -10.158  1.00  0.00     0.135 A 
ATOM     88  C   UNL     1      -8.689 -10.000  -9.200  1.00  0.00     0.135 A 
ATOM     89  F   UNL     1     -10.464 -12.925 -10.373  1.00  0.00    -0.206 F 
ATOM     90  C   UNL     1      -8.256 -12.234 -10.767  1.00  0.00     0.059 A 
ATOM     91  C   UNL     1      -7.433 -10.190  -9.792  1.00  0.00     0.059 A 
ATOM     92  F   UNL     1      -8.833  -8.898  -8.465  1.00  0.00    -0.206 F 
ATOM     93  C   UNL     1      -7.226 -11.312 -10.583  1.00  0.00     0.060 A 
BRANCH  93  94
ATOM     94  S   UNL     1      -5.645 -11.585 -11.419  1.00  0.00     0.124 S 
ATOM     95  O   UNL     1      -5.229 -12.882 -10.895  1.00  0.00    -0.237 OA
ATOM     96  O   UNL     1      -6.037 -11.569 -12.824  1.00  0.00    -0.237 OA
ATOM     97  O   UNL     1      -4.825 -10.454 -10.989  1.00  0.00    -0.744 OA
ENDBRANCH  93  94
ENDBRANCH  61  86
ENDBRANCH  35  36
ENDBRANCH  28  30
ENDBRANCH  27  28
ENDBRANCH  26  27
ENDBRANCH  25  26
ENDBRANCH   1  25
TORSDOF 20
