REMARK SMILES C/C(=N\NC(N)=O)c1nnn(-c2ccc(C(=O)OCCOCCOC(=O)c3ccc(-c4c5nc(c(-c6c(F)cc(S(=O)(=O)[O-])cc6F)c6ccc([nH]6)c(-c6c(F)cc(S(=O)(=O)[O-])cc6F)c6nc(c(-c7c(F)cc(S(=O)(=O)[O-])cc7F)c7ccc4[nH]7)C=C6)C=C5)cc3)cc2)c1C
REMARK SMILES IDX 21 1 20 2 19 3 18 4 16 5 17 6 15 7 12 8 13 9 94 10 14 11
REMARK SMILES IDX 93 12 11 13 8 14 9 15 95 16 10 17 96 18 2 19 1 20 3 21 4 22
REMARK SMILES IDX 5 23 6 25 7 26 22 29 23 30 24 31 25 32 26 33 27 34 28 35
REMARK SMILES IDX 92 36 29 37 91 38 30 39 31 40 32 41 85 42 33 43 90 44 84 45
REMARK SMILES IDX 86 46 34 47 89 48 83 49 82 50 35 52 69 53 48 54 68 55 49 56
REMARK SMILES IDX 52 57 67 58 87 59 50 60 51 61 66 63 88 64 53 65 36 66 37 67
REMARK SMILES IDX 46 68 38 69 39 70 45 71 47 72 40 73 41 74 42 75 43 76 44 77
REMARK SMILES IDX 70 78 71 79 80 80 72 81 73 82 79 83 81 84 74 85 75 86 76 87
REMARK SMILES IDX 77 88 78 89 54 90 55 91 64 92 56 93 57 94 63 95 65 96 58 97
REMARK SMILES IDX 59 98 60 99 61 100 62 101
REMARK H PARENT 4 24 6 27 6 28 86 51 52 62
REMARK Flexibility Score: inf
ROOT
ATOM      1  O   UNL     1       8.595  -4.070  -8.439  1.00  0.00    -0.374 OA
ENDROOT
BRANCH   1   2
ATOM      2  C   UNL     1       9.535  -4.046  -7.365  1.00  0.00     0.202 C 
BRANCH   2   3
ATOM      3  C   UNL     1       9.327  -3.063  -6.214  1.00  0.00     0.261 C 
BRANCH   3   4
ATOM      4  O   UNL     1       8.112  -3.310  -5.496  1.00  0.00    -0.460 OA
BRANCH   4   5
ATOM      5  C   UNL     1       7.138  -2.398  -5.719  1.00  0.00     0.338 C 
ATOM      6  O   UNL     1       7.212  -1.392  -6.407  1.00  0.00    -0.246 OA
BRANCH   5   7
ATOM      7  C   UNL     1       5.872  -2.843  -5.104  1.00  0.00     0.060 A 
ATOM      8  C   UNL     1       3.457  -3.162  -3.806  1.00  0.00     0.067 A 
ATOM      9  C   UNL     1       3.448  -2.715  -5.128  1.00  0.00     0.029 A 
ATOM     10  C   UNL     1       4.638  -3.612  -3.197  1.00  0.00     0.029 A 
ATOM     11  C   UNL     1       4.672  -2.530  -5.767  1.00  0.00     0.018 A 
ATOM     12  C   UNL     1       5.855  -3.459  -3.852  1.00  0.00     0.018 A 
BRANCH   8  13
ATOM     13  N   UNL     1       2.339  -2.892  -2.991  1.00  0.00    -0.217 N 
ATOM     14  C   UNL     1       1.021  -2.022  -1.493  1.00  0.00     0.132 A 
ATOM     15  N   UNL     1       0.262  -2.704  -2.409  1.00  0.00    -0.128 NA
ATOM     16  C   UNL     1       2.347  -2.070  -1.874  1.00  0.00     0.071 A 
ATOM     17  N   UNL     1       1.068  -3.135  -3.374  1.00  0.00    -0.061 NA
ATOM     18  C   UNL     1       3.534  -1.328  -1.381  1.00  0.00     0.069 C 
BRANCH  14  19
ATOM     19  C   UNL     1       0.453  -1.227  -0.417  1.00  0.00     0.087 C 
ATOM     20  C   UNL     1       0.548   0.269  -0.569  1.00  0.00     0.071 C 
ATOM     21  N   UNL     1      -0.088  -1.906   0.550  1.00  0.00    -0.174 NA
BRANCH  21  22
ATOM     22  N   UNL     1      -0.597  -1.325   1.677  1.00  0.00    -0.229 N 
ATOM     23  C   UNL     1      -0.036  -0.306   2.416  1.00  0.00     0.332 C 
ATOM     24  H   UNL     1      -1.461  -1.673   1.996  1.00  0.00     0.195 HD
ATOM     25  N   UNL     1      -0.781   0.011   3.512  1.00  0.00    -0.350 N 
ATOM     26  O   UNL     1       0.994   0.311   2.184  1.00  0.00    -0.247 OA
ATOM     27  H   UNL     1      -1.611  -0.482   3.704  1.00  0.00     0.161 HD
ATOM     28  H   UNL     1      -0.489   0.735   4.113  1.00  0.00     0.161 HD
ENDBRANCH  21  22
ENDBRANCH  14  19
ENDBRANCH   8  13
ENDBRANCH   5   7
ENDBRANCH   4   5
ENDBRANCH   3   4
ENDBRANCH   2   3
ENDBRANCH   1   2
BRANCH   1  29
ATOM     29  C   UNL     1       7.250  -4.494  -8.232  1.00  0.00     0.202 C 
BRANCH  29  30
ATOM     30  C   UNL     1       6.963  -5.955  -7.915  1.00  0.00     0.261 C 
BRANCH  30  31
ATOM     31  O   UNL     1       7.720  -6.408  -6.811  1.00  0.00    -0.460 OA
BRANCH  31  32
ATOM     32  C   UNL     1       8.848  -7.062  -7.159  1.00  0.00     0.338 C 
ATOM     33  O   UNL     1       9.346  -7.140  -8.277  1.00  0.00    -0.246 OA
BRANCH  32  34
ATOM     34  C   UNL     1       9.349  -7.780  -5.986  1.00  0.00     0.060 A 
ATOM     35  C   UNL     1      10.415  -8.649  -6.232  1.00  0.00     0.016 A 
ATOM     36  C   UNL     1       8.483  -7.928  -4.896  1.00  0.00     0.016 A 
ATOM     37  C   UNL     1      10.397  -9.866  -5.600  1.00  0.00     0.010 A 
ATOM     38  C   UNL     1       8.435  -9.158  -4.307  1.00  0.00     0.010 A 
ATOM     39  C   UNL     1       9.326 -10.136  -4.750  1.00  0.00    -0.014 A 
BRANCH  39  40
ATOM     40  C   UNL     1       9.153 -11.478  -4.250  1.00  0.00     0.031 A 
ATOM     41  C   UNL     1      10.014 -11.728  -3.074  1.00  0.00     0.074 A 
ATOM     42  C   UNL     1       8.172 -12.259  -4.745  1.00  0.00     0.049 A 
ATOM     43  N   UNL     1      11.027 -12.524  -2.978  1.00  0.00    -0.248 NA
ATOM     44  C   UNL     1       9.896 -10.781  -1.946  1.00  0.00     0.031 C 
ATOM     45  C   UNL     1       7.148 -11.910  -5.739  1.00  0.00     0.029 A 
ATOM     46  N   UNL     1       7.802 -13.507  -4.357  1.00  0.00    -0.354 N 
ATOM     47  C   UNL     1      11.482 -12.356  -1.674  1.00  0.00     0.074 A 
ATOM     48  C   UNL     1      10.970 -11.095  -1.226  1.00  0.00     0.031 C 
ATOM     49  C   UNL     1       6.152 -12.824  -5.696  1.00  0.00     0.029 A 
ATOM     50  C   UNL     1       6.517 -13.872  -4.763  1.00  0.00     0.049 A 
ATOM     51  H   UNL     1       8.388 -14.102  -3.836  1.00  0.00     0.167 HD
ATOM     52  C   UNL     1      11.922 -13.415  -0.944  1.00  0.00     0.037 A 
ATOM     53  C   UNL     1       5.802 -14.903  -4.239  1.00  0.00     0.037 A 
ATOM     54  C   UNL     1      12.294 -14.510  -1.806  1.00  0.00     0.049 A 
ATOM     55  C   UNL     1       6.792 -15.794  -3.563  1.00  0.00     0.074 A 
ATOM     56  C   UNL     1      13.214 -14.662  -2.825  1.00  0.00     0.029 A 
ATOM     57  N   UNL     1      11.394 -15.540  -1.952  1.00  0.00    -0.354 N 
ATOM     58  N   UNL     1       7.736 -16.438  -4.203  1.00  0.00    -0.248 NA
ATOM     59  C   UNL     1       7.059 -15.544  -2.153  1.00  0.00     0.031 C 
ATOM     60  C   UNL     1      12.564 -15.479  -3.794  1.00  0.00     0.029 A 
ATOM     61  C   UNL     1      11.316 -15.847  -3.287  1.00  0.00     0.049 A 
ATOM     62  H   UNL     1      10.895 -15.979  -1.226  1.00  0.00     0.167 HD
ATOM     63  C   UNL     1       8.866 -16.313  -3.402  1.00  0.00     0.074 A 
ATOM     64  C   UNL     1       8.372 -15.790  -2.129  1.00  0.00     0.031 C 
ATOM     65  C   UNL     1      10.125 -16.360  -3.933  1.00  0.00     0.037 A 
BRANCH  52  66
ATOM     66  C   UNL     1      11.612 -13.595   0.528  1.00  0.00     0.058 A 
ATOM     67  C   UNL     1      12.206 -14.671   1.214  1.00  0.00     0.135 A 
ATOM     68  C   UNL     1      10.565 -12.941   1.224  1.00  0.00     0.135 A 
ATOM     69  F   UNL     1      13.214 -15.362   0.659  1.00  0.00    -0.206 F 
ATOM     70  C   UNL     1      11.737 -15.119   2.450  1.00  0.00     0.059 A 
ATOM     71  C   UNL     1      10.121 -13.334   2.478  1.00  0.00     0.059 A 
ATOM     72  F   UNL     1       9.845 -11.943   0.701  1.00  0.00    -0.206 F 
ATOM     73  C   UNL     1      10.679 -14.453   3.063  1.00  0.00     0.060 A 
BRANCH  73  74
ATOM     74  S   UNL     1       9.988 -15.094   4.594  1.00  0.00     0.124 S 
ATOM     75  O   UNL     1       9.388 -16.342   4.139  1.00  0.00    -0.237 OA
ATOM     76  O   UNL     1      11.178 -15.218   5.429  1.00  0.00    -0.237 OA
ATOM     77  O   UNL     1       9.049 -14.052   5.000  1.00  0.00    -0.744 OA
ENDBRANCH  73  74
ENDBRANCH  52  66
BRANCH  53  78
ATOM     78  C   UNL     1       4.344 -14.914  -3.917  1.00  0.00     0.058 A 
ATOM     79  C   UNL     1       3.664 -16.102  -3.591  1.00  0.00     0.135 A 
ATOM     80  C   UNL     1       3.640 -13.717  -3.665  1.00  0.00     0.135 A 
ATOM     81  F   UNL     1       4.264 -17.290  -3.765  1.00  0.00    -0.206 F 
ATOM     82  C   UNL     1       2.380 -16.102  -3.025  1.00  0.00     0.059 A 
ATOM     83  C   UNL     1       2.360 -13.691  -3.113  1.00  0.00     0.059 A 
ATOM     84  F   UNL     1       4.212 -12.521  -3.866  1.00  0.00    -0.206 F 
ATOM     85  C   UNL     1       1.741 -14.887  -2.775  1.00  0.00     0.060 A 
BRANCH  85  86
ATOM     86  S   UNL     1       0.153 -14.863  -1.906  1.00  0.00     0.124 S 
ATOM     87  O   UNL     1      -0.743 -15.451  -2.897  1.00  0.00    -0.237 OA
ATOM     88  O   UNL     1       0.430 -15.682  -0.731  1.00  0.00    -0.237 OA
ATOM     89  O   UNL     1      -0.065 -13.444  -1.636  1.00  0.00    -0.744 OA
ENDBRANCH  85  86
ENDBRANCH  53  78
BRANCH  65  90
ATOM     90  C   UNL     1      10.281 -16.772  -5.378  1.00  0.00     0.058 A 
ATOM     91  C   UNL     1       9.852 -15.997  -6.472  1.00  0.00     0.135 A 
ATOM     92  C   UNL     1      11.080 -17.888  -5.664  1.00  0.00     0.135 A 
ATOM     93  F   UNL     1       9.167 -14.862  -6.280  1.00  0.00    -0.206 F 
ATOM     94  C   UNL     1      10.187 -16.326  -7.788  1.00  0.00     0.059 A 
ATOM     95  C   UNL     1      11.450 -18.219  -6.965  1.00  0.00     0.059 A 
ATOM     96  F   UNL     1      11.574 -18.633  -4.661  1.00  0.00    -0.206 F 
ATOM     97  C   UNL     1      10.996 -17.437  -8.024  1.00  0.00     0.060 A 
BRANCH  97  98
ATOM     98  S   UNL     1      11.521 -17.804  -9.714  1.00  0.00     0.124 S 
ATOM     99  O   UNL     1      10.280 -18.265 -10.328  1.00  0.00    -0.237 OA
ATOM    100  O   UNL     1      12.018 -16.513 -10.180  1.00  0.00    -0.237 OA
ATOM    101  O   UNL     1      12.548 -18.829  -9.537  1.00  0.00    -0.744 OA
ENDBRANCH  97  98
ENDBRANCH  65  90
ENDBRANCH  39  40
ENDBRANCH  32  34
ENDBRANCH  31  32
ENDBRANCH  30  31
ENDBRANCH  29  30
ENDBRANCH   1  29
TORSDOF 20
