REMARK SMILES CCCCCCOC(=O)Nc1cccc(-c2ccc([C@@H](C)C(=O)OCCOCCOC(=O)c3ccc(-c4c5nc(c(-c6c(F)cc(S(=O)(=O)[O-])cc6F)c6ccc([nH]6)c(-c6c(F)cc(S(=O)(=O)[O-])cc6F)c6nc(c(-c7c(F)cc(S(=O)(=O)[O-])cc7F)c7ccc4[nH]7)C=C6)C=C5)cc3)cc2F)c1
REMARK SMILES IDX 24 1 22 2 23 3 20 4 21 5 19 6 16 7 17 8 100 9 18 10 99 11
REMARK SMILES IDX 101 12 15 13 11 14 12 15 102 16 13 17 14 18 10 19 8 20 9 21
REMARK SMILES IDX 7 23 6 24 5 25 4 26 3 27 2 28 1 29 25 30 26 31 27 32 28 33
REMARK SMILES IDX 29 34 30 35 31 36 32 37 33 38 34 39 98 40 35 41 97 42 36 43
REMARK SMILES IDX 37 44 38 45 91 46 39 47 96 48 90 49 92 50 40 51 95 52 89 53
REMARK SMILES IDX 88 54 41 56 75 57 54 58 74 59 55 60 58 61 73 62 93 63 56 64
REMARK SMILES IDX 57 65 72 67 94 68 59 69 42 70 43 71 52 72 44 73 45 74 51 75
REMARK SMILES IDX 53 76 46 77 47 78 48 79 49 80 50 81 76 82 77 83 86 84 78 85
REMARK SMILES IDX 79 86 85 87 87 88 80 89 81 90 82 91 83 92 84 93 60 94 61 95
REMARK SMILES IDX 70 96 62 97 63 98 69 99 71 100 64 101 65 102 66 103 67 104
REMARK SMILES IDX 68 105
REMARK H PARENT 10 22 92 55 58 66
REMARK Flexibility Score: inf
ROOT
ATOM      1  O   UNL     1      -7.971  -8.346  -4.438  1.00  0.00    -0.463 OA
ENDROOT
BRANCH   1   2
ATOM      2  C   UNL     1      -7.618  -8.982  -5.584  1.00  0.00     0.313 C 
ATOM      3  O   UNL     1      -8.194  -8.849  -6.660  1.00  0.00    -0.252 OA
BRANCH   2   4
ATOM      4  C   UNL     1      -6.435  -9.923  -5.424  1.00  0.00     0.126 C 
ATOM      5  C   UNL     1      -6.942 -11.354  -5.267  1.00  0.00     0.025 C 
BRANCH   4   6
ATOM      6  C   UNL     1      -5.383  -9.578  -4.375  1.00  0.00    -0.031 A 
ATOM      7  C   UNL     1      -3.291  -9.168  -2.476  1.00  0.00     0.018 A 
ATOM      8  C   UNL     1      -4.605  -9.432  -2.062  1.00  0.00     0.012 A 
ATOM      9  C   UNL     1      -3.062  -9.069  -3.855  1.00  0.00     0.131 A 
ATOM     10  C   UNL     1      -5.635  -9.634  -2.996  1.00  0.00     0.005 A 
ATOM     11  C   UNL     1      -4.079  -9.267  -4.790  1.00  0.00     0.044 A 
ATOM     12  F   UNL     1      -1.827  -8.820  -4.321  1.00  0.00    -0.206 F 
BRANCH   7  13
ATOM     13  C   UNL     1      -2.184  -9.055  -1.512  1.00  0.00    -0.013 A 
ATOM     14  C   UNL     1      -0.213  -7.867  -0.688  1.00  0.00     0.045 A 
ATOM     15  C   UNL     1       0.108  -8.952   0.128  1.00  0.00     0.026 A 
ATOM     16  C   UNL     1      -1.355  -7.921  -1.496  1.00  0.00     0.035 A 
ATOM     17  C   UNL     1      -0.736 -10.060   0.173  1.00  0.00     0.003 A 
ATOM     18  C   UNL     1      -1.870 -10.112  -0.642  1.00  0.00     0.009 A 
BRANCH  14  19
ATOM     19  N   UNL     1       0.690  -6.797  -0.755  1.00  0.00    -0.291 N 
ATOM     20  C   UNL     1       0.435  -5.510  -1.145  1.00  0.00     0.411 C 
ATOM     21  O   UNL     1       1.332  -4.784  -1.556  1.00  0.00    -0.224 OA
ATOM     22  H   UNL     1       1.618  -6.994  -0.492  1.00  0.00     0.173 HD
BRANCH  20  23
ATOM     23  O   UNL     1      -0.844  -5.126  -0.910  1.00  0.00    -0.449 OA
BRANCH  23  24
ATOM     24  C   UNL     1      -1.191  -3.747  -1.112  1.00  0.00     0.235 C 
BRANCH  24  25
ATOM     25  C   UNL     1      -0.899  -2.887   0.123  1.00  0.00     0.042 C 
BRANCH  25  26
ATOM     26  C   UNL     1       0.573  -2.520   0.351  1.00  0.00     0.003 C 
BRANCH  26  27
ATOM     27  C   UNL     1       1.240  -1.749  -0.796  1.00  0.00    -0.000 C 
BRANCH  27  28
ATOM     28  C   UNL     1       0.703  -0.337  -1.028  1.00  0.00    -0.003 C 
ATOM     29  C   UNL     1       1.065   0.622   0.094  1.00  0.00     0.004 C 
ENDBRANCH  27  28
ENDBRANCH  26  27
ENDBRANCH  25  26
ENDBRANCH  24  25
ENDBRANCH  23  24
ENDBRANCH  20  23
ENDBRANCH  14  19
ENDBRANCH   7  13
ENDBRANCH   4   6
ENDBRANCH   2   4
ENDBRANCH   1   2
BRANCH   1  30
ATOM     30  C   UNL     1      -9.002  -7.348  -4.558  1.00  0.00     0.261 C 
BRANCH  30  31
ATOM     31  C   UNL     1      -8.467  -5.959  -4.203  1.00  0.00     0.202 C 
BRANCH  31  32
ATOM     32  O   UNL     1      -7.514  -5.407  -5.113  1.00  0.00    -0.374 OA
BRANCH  32  33
ATOM     33  C   UNL     1      -6.175  -5.895  -5.032  1.00  0.00     0.202 C 
BRANCH  33  34
ATOM     34  C   UNL     1      -5.316  -5.350  -3.885  1.00  0.00     0.261 C 
BRANCH  34  35
ATOM     35  O   UNL     1      -5.794  -5.776  -2.597  1.00  0.00    -0.460 OA
BRANCH  35  36
ATOM     36  C   UNL     1      -6.301  -4.783  -1.826  1.00  0.00     0.338 C 
ATOM     37  O   UNL     1      -6.318  -3.590  -2.080  1.00  0.00    -0.246 OA
BRANCH  36  38
ATOM     38  C   UNL     1      -7.018  -5.353  -0.668  1.00  0.00     0.060 A 
ATOM     39  C   UNL     1      -8.329  -4.913  -0.447  1.00  0.00     0.016 A 
ATOM     40  C   UNL     1      -6.400  -6.226   0.231  1.00  0.00     0.016 A 
ATOM     41  C   UNL     1      -9.008  -5.296   0.707  1.00  0.00     0.010 A 
ATOM     42  C   UNL     1      -7.083  -6.604   1.394  1.00  0.00     0.010 A 
ATOM     43  C   UNL     1      -8.374  -6.108   1.657  1.00  0.00    -0.014 A 
BRANCH  43  44
ATOM     44  C   UNL     1      -9.009  -6.301   2.984  1.00  0.00     0.031 A 
ATOM     45  C   UNL     1      -8.540  -5.468   4.147  1.00  0.00     0.074 A 
ATOM     46  C   UNL     1     -10.019  -7.175   3.145  1.00  0.00     0.049 A 
ATOM     47  N   UNL     1      -8.954  -5.469   5.388  1.00  0.00    -0.248 NA
ATOM     48  C   UNL     1      -7.459  -4.508   3.874  1.00  0.00     0.031 C 
ATOM     49  C   UNL     1     -10.581  -8.018   2.091  1.00  0.00     0.029 A 
ATOM     50  N   UNL     1     -10.748  -7.500   4.261  1.00  0.00    -0.354 N 
ATOM     51  C   UNL     1      -8.180  -4.521   6.046  1.00  0.00     0.074 A 
ATOM     52  C   UNL     1      -7.253  -3.983   5.073  1.00  0.00     0.031 C 
ATOM     53  C   UNL     1     -11.559  -8.777   2.615  1.00  0.00     0.029 A 
ATOM     54  C   UNL     1     -11.676  -8.490   4.044  1.00  0.00     0.049 A 
ATOM     55  H   UNL     1     -10.619  -7.065   5.135  1.00  0.00     0.167 HD
ATOM     56  C   UNL     1      -8.240  -4.128   7.341  1.00  0.00     0.037 A 
ATOM     57  C   UNL     1     -12.511  -9.108   4.904  1.00  0.00     0.037 A 
ATOM     58  C   UNL     1      -9.169  -4.658   8.305  1.00  0.00     0.049 A 
ATOM     59  C   UNL     1     -12.537  -8.682   6.348  1.00  0.00     0.074 A 
ATOM     60  C   UNL     1      -9.334  -4.296   9.630  1.00  0.00     0.029 A 
ATOM     61  N   UNL     1     -10.083  -5.670   8.050  1.00  0.00    -0.354 N 
ATOM     62  N   UNL     1     -11.827  -7.756   6.947  1.00  0.00    -0.248 NA
ATOM     63  C   UNL     1     -13.482  -9.379   7.232  1.00  0.00     0.031 C 
ATOM     64  C   UNL     1     -10.314  -5.123  10.191  1.00  0.00     0.029 A 
ATOM     65  C   UNL     1     -10.795  -5.966   9.201  1.00  0.00     0.049 A 
ATOM     66  H   UNL     1     -10.207  -6.113   7.180  1.00  0.00     0.167 HD
ATOM     67  C   UNL     1     -12.253  -7.744   8.271  1.00  0.00     0.074 A 
ATOM     68  C   UNL     1     -13.291  -8.748   8.383  1.00  0.00     0.031 C 
ATOM     69  C   UNL     1     -11.826  -6.970   9.300  1.00  0.00     0.037 A 
BRANCH  56  70
ATOM     70  C   UNL     1      -7.250  -3.092   7.799  1.00  0.00     0.058 A 
ATOM     71  C   UNL     1      -7.350  -1.747   7.409  1.00  0.00     0.135 A 
ATOM     72  C   UNL     1      -6.198  -3.450   8.657  1.00  0.00     0.135 A 
ATOM     73  F   UNL     1      -8.327  -1.355   6.577  1.00  0.00    -0.206 F 
ATOM     74  C   UNL     1      -6.423  -0.798   7.830  1.00  0.00     0.059 A 
ATOM     75  C   UNL     1      -5.274  -2.513   9.111  1.00  0.00     0.059 A 
ATOM     76  F   UNL     1      -6.056  -4.723   9.059  1.00  0.00    -0.206 F 
ATOM     77  C   UNL     1      -5.386  -1.192   8.678  1.00  0.00     0.060 A 
BRANCH  77  78
ATOM     78  S   UNL     1      -4.185   0.046   9.210  1.00  0.00     0.124 S 
ATOM     79  O   UNL     1      -3.397   0.227   7.994  1.00  0.00    -0.237 OA
ATOM     80  O   UNL     1      -5.038   1.170   9.584  1.00  0.00    -0.237 OA
ATOM     81  O   UNL     1      -3.492  -0.606  10.316  1.00  0.00    -0.744 OA
ENDBRANCH  77  78
ENDBRANCH  56  70
BRANCH  57  82
ATOM     82  C   UNL     1     -13.383 -10.209   4.416  1.00  0.00     0.058 A 
ATOM     83  C   UNL     1     -14.769 -10.041   4.292  1.00  0.00     0.135 A 
ATOM     84  C   UNL     1     -12.837 -11.448   4.043  1.00  0.00     0.135 A 
ATOM     85  F   UNL     1     -15.339  -8.880   4.647  1.00  0.00    -0.206 F 
ATOM     86  C   UNL     1     -15.586 -11.063   3.817  1.00  0.00     0.059 A 
ATOM     87  C   UNL     1     -13.629 -12.476   3.544  1.00  0.00     0.059 A 
ATOM     88  F   UNL     1     -11.514 -11.654   4.134  1.00  0.00    -0.206 F 
ATOM     89  C   UNL     1     -15.005 -12.276   3.440  1.00  0.00     0.060 A 
BRANCH  89  90
ATOM     90  S   UNL     1     -16.062 -13.570   2.755  1.00  0.00     0.124 S 
ATOM     91  O   UNL     1     -16.743 -14.056   3.949  1.00  0.00    -0.237 OA
ATOM     92  O   UNL     1     -16.885 -12.825   1.808  1.00  0.00    -0.237 OA
ATOM     93  O   UNL     1     -15.108 -14.495   2.150  1.00  0.00    -0.744 OA
ENDBRANCH  89  90
ENDBRANCH  57  82
BRANCH  69  94
ATOM     94  C   UNL     1     -12.494  -7.157  10.635  1.00  0.00     0.058 A 
ATOM     95  C   UNL     1     -12.242  -8.282  11.435  1.00  0.00     0.135 A 
ATOM     96  C   UNL     1     -13.355  -6.170  11.144  1.00  0.00     0.135 A 
ATOM     97  F   UNL     1     -11.431  -9.256  10.994  1.00  0.00    -0.206 F 
ATOM     98  C   UNL     1     -12.838  -8.434  12.683  1.00  0.00     0.059 A 
ATOM     99  C   UNL     1     -13.942  -6.290  12.400  1.00  0.00     0.059 A 
ATOM    100  F   UNL     1     -13.621  -5.068  10.424  1.00  0.00    -0.206 F 
ATOM    101  C   UNL     1     -13.687  -7.432  13.157  1.00  0.00     0.060 A 
BRANCH 101 102
ATOM    102  S   UNL     1     -14.431  -7.626  14.791  1.00  0.00     0.124 S 
ATOM    103  O   UNL     1     -15.465  -8.620  14.526  1.00  0.00    -0.237 OA
ATOM    104  O   UNL     1     -13.303  -8.083  15.597  1.00  0.00    -0.237 OA
ATOM    105  O   UNL     1     -14.914  -6.285  15.106  1.00  0.00    -0.744 OA
ENDBRANCH 101 102
ENDBRANCH  69  94
ENDBRANCH  43  44
ENDBRANCH  36  38
ENDBRANCH  35  36
ENDBRANCH  34  35
ENDBRANCH  33  34
ENDBRANCH  32  33
ENDBRANCH  31  32
ENDBRANCH  30  31
ENDBRANCH   1  30
TORSDOF 26
