REMARK SMILES CC[NH2+][C@@]1(C(=O)OCCOCCOC(=O)c2ccc(-c3c4nc(c(-c5c(F)cc(S(=O)(=O)[O-])cc5F)c5ccc([nH]5)c(-c5c(F)cc(S(=O)(=O)[O-])cc5F)c5nc(c(-c6c(F)cc(S(=O)(=O)[O-])cc6F)c6ccc3[nH]6)C=C5)C=C4)cc2)CC[C@@H](OCCOC)C1
REMARK SMILES IDX 9 1 8 2 7 3 5 4 6 5 4 6 82 7 90 8 83 9 84 10 3 11 2 14 1 15
REMARK SMILES IDX 85 16 86 17 87 18 88 19 89 20 10 21 11 22 12 23 13 24 14 25
REMARK SMILES IDX 15 26 16 27 17 28 81 29 18 30 80 31 19 32 20 33 21 34 74 35
REMARK SMILES IDX 22 36 79 37 73 38 75 39 23 40 78 41 72 42 71 43 24 45 58 46
REMARK SMILES IDX 37 47 57 48 38 49 41 50 56 51 76 52 39 53 40 54 55 56 77 57
REMARK SMILES IDX 42 58 25 59 26 60 35 61 27 62 28 63 34 64 36 65 29 66 30 67
REMARK SMILES IDX 31 68 32 69 33 70 59 71 60 72 69 73 61 74 62 75 68 76 70 77
REMARK SMILES IDX 63 78 64 79 65 80 66 81 67 82 43 83 44 84 53 85 45 86 46 87
REMARK SMILES IDX 52 88 54 89 47 90 48 91 49 92 50 93 51 94
REMARK H PARENT 3 12 3 13 75 44 41 55
REMARK Flexibility Score: inf
ROOT
ATOM      1  C   UNL     1      -3.603   1.369  -4.062  1.00  0.00     0.202 C 
ENDROOT
BRANCH   1   2
ATOM      2  C   UNL     1      -3.123   2.443  -3.080  1.00  0.00     0.261 C 
BRANCH   2   3
ATOM      3  O   UNL     1      -1.695   2.560  -3.023  1.00  0.00    -0.459 OA
BRANCH   3   4
ATOM      4  C   UNL     1      -1.126   2.181  -1.844  1.00  0.00     0.368 C 
ATOM      5  O   UNL     1      -1.771   1.868  -0.847  1.00  0.00    -0.245 OA
BRANCH   4   6
ATOM      6  C   UNL     1       0.437   2.262  -1.873  1.00  0.00     0.196 C 
ATOM      7  C   UNL     1       0.857   3.467  -1.020  1.00  0.00     0.084 C 
ATOM      8  C   UNL     1       1.052   2.642  -3.238  1.00  0.00     0.113 C 
ATOM      9  C   UNL     1       0.616   4.670  -1.934  1.00  0.00     0.039 C 
ATOM     10  C   UNL     1       0.862   4.158  -3.362  1.00  0.00     0.125 C 
BRANCH   6  11
ATOM     11  N   UNL     1       1.026   0.960  -1.444  1.00  0.00    -0.332 N 
ATOM     12  H   UNL     1       0.591   0.219  -1.994  1.00  0.00     0.347 HD
ATOM     13  H   UNL     1       2.031   1.035  -1.596  1.00  0.00     0.347 HD
BRANCH  11  14
ATOM     14  C   UNL     1       0.844   0.642  -0.024  1.00  0.00     0.257 C 
ATOM     15  C   UNL     1       1.460  -0.716   0.282  1.00  0.00     0.071 C 
ENDBRANCH  11  14
ENDBRANCH   6  11
BRANCH  10  16
ATOM     16  O   UNL     1       1.924   4.769  -4.096  1.00  0.00    -0.376 OA
BRANCH  16  17
ATOM     17  C   UNL     1       3.157   4.950  -3.409  1.00  0.00     0.189 C 
BRANCH  17  18
ATOM     18  C   UNL     1       3.509   6.429  -3.181  1.00  0.00     0.188 C 
BRANCH  18  19
ATOM     19  O   UNL     1       2.425   7.267  -2.786  1.00  0.00    -0.382 OA
ATOM     20  C   UNL     1       1.569   7.632  -3.867  1.00  0.00     0.195 C 
ENDBRANCH  18  19
ENDBRANCH  17  18
ENDBRANCH  16  17
ENDBRANCH  10  16
ENDBRANCH   4   6
ENDBRANCH   3   4
ENDBRANCH   2   3
ENDBRANCH   1   2
BRANCH   1  21
ATOM     21  O   UNL     1      -2.930   0.114  -4.060  1.00  0.00    -0.374 OA
BRANCH  21  22
ATOM     22  C   UNL     1      -1.615   0.064  -4.617  1.00  0.00     0.202 C 
BRANCH  22  23
ATOM     23  C   UNL     1      -1.466   0.344  -6.120  1.00  0.00     0.261 C 
BRANCH  23  24
ATOM     24  O   UNL     1      -1.826   1.691  -6.484  1.00  0.00    -0.460 OA
BRANCH  24  25
ATOM     25  C   UNL     1      -2.774   1.780  -7.454  1.00  0.00     0.338 C 
ATOM     26  O   UNL     1      -3.281   0.861  -8.075  1.00  0.00    -0.246 OA
BRANCH  25  27
ATOM     27  C   UNL     1      -3.266   3.165  -7.566  1.00  0.00     0.060 A 
ATOM     28  C   UNL     1      -4.600   3.416  -7.223  1.00  0.00     0.016 A 
ATOM     29  C   UNL     1      -2.472   4.175  -8.112  1.00  0.00     0.016 A 
ATOM     30  C   UNL     1      -5.154   4.677  -7.448  1.00  0.00     0.010 A 
ATOM     31  C   UNL     1      -3.034   5.435  -8.350  1.00  0.00     0.010 A 
ATOM     32  C   UNL     1      -4.384   5.686  -8.041  1.00  0.00    -0.014 A 
BRANCH  32  33
ATOM     33  C   UNL     1      -5.022   6.970  -8.423  1.00  0.00     0.031 A 
ATOM     34  C   UNL     1      -5.490   7.175  -9.839  1.00  0.00     0.074 A 
ATOM     35  C   UNL     1      -5.203   7.937  -7.505  1.00  0.00     0.049 A 
ATOM     36  N   UNL     1      -6.044   8.227 -10.382  1.00  0.00    -0.248 NA
ATOM     37  C   UNL     1      -5.314   6.043 -10.763  1.00  0.00     0.031 C 
ATOM     38  C   UNL     1      -4.825   7.843  -6.095  1.00  0.00     0.029 A 
ATOM     39  N   UNL     1      -5.744   9.193  -7.624  1.00  0.00    -0.354 N 
ATOM     40  C   UNL     1      -6.279   7.891 -11.710  1.00  0.00     0.074 A 
ATOM     41  C   UNL     1      -5.792   6.541 -11.896  1.00  0.00     0.031 C 
ATOM     42  C   UNL     1      -5.133   8.999  -5.482  1.00  0.00     0.029 A 
ATOM     43  C   UNL     1      -5.700   9.925  -6.461  1.00  0.00     0.049 A 
ATOM     44  H   UNL     1      -6.126   9.537  -8.463  1.00  0.00     0.167 HD
ATOM     45  C   UNL     1      -6.854   8.638 -12.682  1.00  0.00     0.037 A 
ATOM     46  C   UNL     1      -6.054  11.203  -6.221  1.00  0.00     0.037 A 
ATOM     47  C   UNL     1      -7.345   9.979 -12.492  1.00  0.00     0.049 A 
ATOM     48  C   UNL     1      -6.622  12.036  -7.340  1.00  0.00     0.074 A 
ATOM     49  C   UNL     1      -7.982  10.799 -13.408  1.00  0.00     0.029 A 
ATOM     50  N   UNL     1      -7.243  10.701 -11.313  1.00  0.00    -0.354 N 
ATOM     51  N   UNL     1      -6.874  11.691  -8.580  1.00  0.00    -0.248 NA
ATOM     52  C   UNL     1      -6.950  13.436  -7.028  1.00  0.00     0.031 C 
ATOM     53  C   UNL     1      -8.223  12.034 -12.796  1.00  0.00     0.029 A 
ATOM     54  C   UNL     1      -7.774  11.968 -11.486  1.00  0.00     0.049 A 
ATOM     55  H   UNL     1      -6.852  10.362 -10.475  1.00  0.00     0.167 HD
ATOM     56  C   UNL     1      -7.404  12.823  -9.190  1.00  0.00     0.074 A 
ATOM     57  C   UNL     1      -7.452  13.860  -8.180  1.00  0.00     0.031 C 
ATOM     58  C   UNL     1      -7.813  12.991 -10.472  1.00  0.00     0.037 A 
BRANCH  45  59
ATOM     59  C   UNL     1      -6.974   8.037 -14.053  1.00  0.00     0.058 A 
ATOM     60  C   UNL     1      -7.944   7.067 -14.350  1.00  0.00     0.135 A 
ATOM     61  C   UNL     1      -6.157   8.491 -15.101  1.00  0.00     0.135 A 
ATOM     62  F   UNL     1      -8.740   6.588 -13.381  1.00  0.00    -0.206 F 
ATOM     63  C   UNL     1      -8.095   6.562 -15.638  1.00  0.00     0.059 A 
ATOM     64  C   UNL     1      -6.303   8.014 -16.400  1.00  0.00     0.059 A 
ATOM     65  F   UNL     1      -5.211   9.415 -14.868  1.00  0.00    -0.206 F 
ATOM     66  C   UNL     1      -7.271   7.045 -16.657  1.00  0.00     0.060 A 
BRANCH  66  67
ATOM     67  S   UNL     1      -7.502   6.405 -18.330  1.00  0.00     0.124 S 
ATOM     68  O   UNL     1      -6.931   5.067 -18.212  1.00  0.00    -0.237 OA
ATOM     69  O   UNL     1      -8.951   6.463 -18.491  1.00  0.00    -0.237 OA
ATOM     70  O   UNL     1      -6.745   7.339 -19.159  1.00  0.00    -0.744 OA
ENDBRANCH  66  67
ENDBRANCH  45  59
BRANCH  46  71
ATOM     71  C   UNL     1      -5.852  11.793  -4.871  1.00  0.00     0.058 A 
ATOM     72  C   UNL     1      -6.942  12.127  -4.054  1.00  0.00     0.135 A 
ATOM     73  C   UNL     1      -4.563  12.061  -4.385  1.00  0.00     0.135 A 
ATOM     74  F   UNL     1      -8.194  11.901  -4.481  1.00  0.00    -0.206 F 
ATOM     75  C   UNL     1      -6.763  12.725  -2.811  1.00  0.00     0.059 A 
ATOM     76  C   UNL     1      -4.357  12.636  -3.136  1.00  0.00     0.059 A 
ATOM     77  F   UNL     1      -3.487  11.752  -5.126  1.00  0.00    -0.206 F 
ATOM     78  C   UNL     1      -5.465  12.979  -2.362  1.00  0.00     0.060 A 
BRANCH  78  79
ATOM     79  S   UNL     1      -5.238  13.732  -0.736  1.00  0.00     0.124 S 
ATOM     80  O   UNL     1      -5.570  15.125  -1.010  1.00  0.00    -0.237 OA
ATOM     81  O   UNL     1      -6.196  12.995   0.083  1.00  0.00    -0.237 OA
ATOM     82  O   UNL     1      -3.834  13.462  -0.438  1.00  0.00    -0.744 OA
ENDBRANCH  78  79
ENDBRANCH  46  71
BRANCH  58  83
ATOM     83  C   UNL     1      -8.362  14.337 -10.853  1.00  0.00     0.058 A 
ATOM     84  C   UNL     1      -7.521  15.445 -11.037  1.00  0.00     0.135 A 
ATOM     85  C   UNL     1      -9.736  14.510 -11.085  1.00  0.00     0.135 A 
ATOM     86  F   UNL     1      -6.200  15.334 -10.821  1.00  0.00    -0.206 F 
ATOM     87  C   UNL     1      -8.025  16.684 -11.418  1.00  0.00     0.059 A 
ATOM     88  C   UNL     1     -10.259  15.734 -11.489  1.00  0.00     0.059 A 
ATOM     89  F   UNL     1     -10.582  13.479 -10.932  1.00  0.00    -0.206 F 
ATOM     90  C   UNL     1      -9.396  16.819 -11.642  1.00  0.00     0.060 A 
BRANCH  90  91
ATOM     91  S   UNL     1     -10.036  18.424 -12.168  1.00  0.00     0.124 S 
ATOM     92  O   UNL     1     -10.009  19.175 -10.918  1.00  0.00    -0.237 OA
ATOM     93  O   UNL     1      -9.064  18.835 -13.176  1.00  0.00    -0.237 OA
ATOM     94  O   UNL     1     -11.365  18.106 -12.683  1.00  0.00    -0.744 OA
ENDBRANCH  90  91
ENDBRANCH  58  83
ENDBRANCH  32  33
ENDBRANCH  25  27
ENDBRANCH  24  25
ENDBRANCH  23  24
ENDBRANCH  22  23
ENDBRANCH  21  22
ENDBRANCH   1  21
TORSDOF 23
