REMARK SMILES CCc1ccc2c(CC(=O)OCCOCCOC(=O)c3ccc(-c4c5nc(c(-c6c(F)cc(S(=O)(=O)[O-])cc6F)c6ccc([nH]6)c(-c6c(F)cc(S(=O)(=O)[O-])cc6F)c6nc(c(-c7c(F)cc(S(=O)(=O)[O-])cc7F)c7ccc4[nH]7)C=C6)C=C5)cc3)c(C(=O)c3cc(C)ccn3)[nH]c2c1
REMARK SMILES IDX 14 1 13 2 12 3 11 4 9 5 10 6 8 7 7 8 3 9 4 10 98 11 5 12
REMARK SMILES IDX 97 13 6 14 96 15 86 16 2 18 1 19 87 20 88 21 89 22 90 23
REMARK SMILES IDX 95 24 91 25 94 26 92 27 93 28 15 29 16 30 17 31 18 32 19 33
REMARK SMILES IDX 20 34 21 35 85 36 22 37 84 38 23 39 24 40 25 41 78 42 26 43
REMARK SMILES IDX 83 44 77 45 79 46 27 47 82 48 76 49 75 50 28 52 62 53 41 54
REMARK SMILES IDX 61 55 42 56 45 57 60 58 80 59 43 60 44 61 59 63 81 64 46 65
REMARK SMILES IDX 29 66 30 67 39 68 31 69 32 70 38 71 40 72 33 73 34 74 35 75
REMARK SMILES IDX 36 76 37 77 63 78 64 79 73 80 65 81 66 82 72 83 74 84 67 85
REMARK SMILES IDX 68 86 69 87 70 88 71 89 47 90 48 91 57 92 49 93 50 94 56 95
REMARK SMILES IDX 58 96 51 97 52 98 53 99 54 100 55 101
REMARK H PARENT 96 17 79 51 45 62
REMARK Flexibility Score: inf
ROOT
ATOM      1  O   UNL     1       4.585  -9.913  -1.202  1.00  0.00    -0.374 OA
ENDROOT
BRANCH   1   2
ATOM      2  C   UNL     1       5.406  -8.823  -0.782  1.00  0.00     0.202 C 
BRANCH   2   3
ATOM      3  C   UNL     1       5.527  -7.625  -1.737  1.00  0.00     0.261 C 
BRANCH   3   4
ATOM      4  O   UNL     1       4.257  -7.051  -2.114  1.00  0.00    -0.463 OA
BRANCH   4   5
ATOM      5  C   UNL     1       4.131  -6.750  -3.436  1.00  0.00     0.310 C 
ATOM      6  O   UNL     1       5.053  -6.823  -4.247  1.00  0.00    -0.252 OA
BRANCH   5   7
ATOM      7  C   UNL     1       2.724  -6.432  -3.898  1.00  0.00     0.161 C 
BRANCH   7   8
ATOM      8  C   UNL     1       1.751  -5.856  -2.904  1.00  0.00     0.000 A 
ATOM      9  C   UNL     1       0.944  -1.907  -1.640  1.00  0.00    -0.046 A 
ATOM     10  C   UNL     1       2.106  -2.077  -2.401  1.00  0.00     0.004 A 
ATOM     11  C   UNL     1       0.207  -3.031  -1.233  1.00  0.00     0.030 A 
ATOM     12  C   UNL     1       2.511  -3.348  -2.831  1.00  0.00     0.011 A 
ATOM     13  C   UNL     1       0.614  -4.290  -1.697  1.00  0.00     0.046 A 
ATOM     14  C   UNL     1       1.726  -4.474  -2.509  1.00  0.00     0.004 A 
ATOM     15  N   UNL     1       0.058  -5.531  -1.499  1.00  0.00    -0.352 N 
ATOM     16  C   UNL     1       0.608  -6.461  -2.359  1.00  0.00     0.093 A 
ATOM     17  H   UNL     1      -0.639  -5.730  -0.833  1.00  0.00     0.167 HD
BRANCH   9  18
ATOM     18  C   UNL     1       0.476  -0.520  -1.272  1.00  0.00     0.032 C 
ATOM     19  C   UNL     1       1.006  -0.058   0.074  1.00  0.00     0.009 C 
ENDBRANCH   9  18
BRANCH  16  20
ATOM     20  C   UNL     1       0.051  -7.792  -2.617  1.00  0.00     0.227 C 
ATOM     21  O   UNL     1       0.453  -8.528  -3.516  1.00  0.00    -0.285 OA
BRANCH  20  22
ATOM     22  C   UNL     1      -1.039  -8.320  -1.740  1.00  0.00     0.113 A 
ATOM     23  C   UNL     1      -2.326  -7.800  -1.780  1.00  0.00     0.036 A 
ATOM     24  N   UNL     1      -0.668  -9.323  -0.906  1.00  0.00    -0.253 NA
ATOM     25  C   UNL     1      -3.272  -8.319  -0.887  1.00  0.00    -0.047 A 
ATOM     26  C   UNL     1      -1.585  -9.791  -0.041  1.00  0.00     0.112 A 
ATOM     27  C   UNL     1      -4.691  -7.838  -0.873  1.00  0.00     0.044 C 
ATOM     28  C   UNL     1      -2.883  -9.324   0.007  1.00  0.00     0.023 A 
ENDBRANCH  20  22
ENDBRANCH  16  20
ENDBRANCH   7   8
ENDBRANCH   5   7
ENDBRANCH   4   5
ENDBRANCH   3   4
ENDBRANCH   2   3
ENDBRANCH   1   2
BRANCH   1  29
ATOM     29  C   UNL     1       3.203  -9.639  -1.416  1.00  0.00     0.202 C 
BRANCH  29  30
ATOM     30  C   UNL     1       2.379  -9.220  -0.198  1.00  0.00     0.261 C 
BRANCH  30  31
ATOM     31  O   UNL     1       2.988  -8.240   0.643  1.00  0.00    -0.460 OA
BRANCH  31  32
ATOM     32  C   UNL     1       2.900  -8.514   1.957  1.00  0.00     0.338 C 
ATOM     33  O   UNL     1       2.304  -9.441   2.501  1.00  0.00    -0.246 OA
BRANCH  32  34
ATOM     34  C   UNL     1       3.728  -7.569   2.702  1.00  0.00     0.060 A 
ATOM     35  C   UNL     1       4.891  -8.057   3.302  1.00  0.00     0.016 A 
ATOM     36  C   UNL     1       3.285  -6.262   2.924  1.00  0.00     0.016 A 
ATOM     37  C   UNL     1       5.579  -7.253   4.202  1.00  0.00     0.010 A 
ATOM     38  C   UNL     1       3.981  -5.456   3.825  1.00  0.00     0.010 A 
ATOM     39  C   UNL     1       5.095  -5.972   4.508  1.00  0.00    -0.014 A 
BRANCH  39  40
ATOM     40  C   UNL     1       5.669  -5.267   5.675  1.00  0.00     0.031 A 
ATOM     41  C   UNL     1       4.956  -5.354   6.997  1.00  0.00     0.074 A 
ATOM     42  C   UNL     1       6.854  -4.643   5.567  1.00  0.00     0.049 A 
ATOM     43  N   UNL     1       5.336  -4.928   8.172  1.00  0.00    -0.248 NA
ATOM     44  C   UNL     1       3.637  -6.011   6.993  1.00  0.00     0.031 C 
ATOM     45  C   UNL     1       7.626  -4.510   4.332  1.00  0.00     0.029 A 
ATOM     46  N   UNL     1       7.623  -4.022   6.516  1.00  0.00    -0.354 N 
ATOM     47  C   UNL     1       4.312  -5.271   9.048  1.00  0.00     0.074 A 
ATOM     48  C   UNL     1       3.274  -5.901   8.263  1.00  0.00     0.031 C 
ATOM     49  C   UNL     1       8.770  -3.859   4.602  1.00  0.00     0.029 A 
ATOM     50  C   UNL     1       8.805  -3.525   6.024  1.00  0.00     0.049 A 
ATOM     51  H   UNL     1       7.354  -3.940   7.459  1.00  0.00     0.167 HD
ATOM     52  C   UNL     1       4.251  -5.089  10.389  1.00  0.00     0.037 A 
ATOM     53  C   UNL     1       9.804  -2.882   6.658  1.00  0.00     0.037 A 
ATOM     54  C   UNL     1       5.293  -4.461  11.157  1.00  0.00     0.049 A 
ATOM     55  C   UNL     1       9.714  -2.688   8.147  1.00  0.00     0.074 A 
ATOM     56  C   UNL     1       5.345  -4.233  12.520  1.00  0.00     0.029 A 
ATOM     57  N   UNL     1       6.471  -3.958  10.622  1.00  0.00    -0.354 N 
ATOM     58  N   UNL     1       8.756  -3.049   8.969  1.00  0.00    -0.248 NA
ATOM     59  C   UNL     1      10.847  -2.018   8.799  1.00  0.00     0.031 C 
ATOM     60  C   UNL     1       6.539  -3.560  12.805  1.00  0.00     0.029 A 
ATOM     61  C   UNL     1       7.250  -3.407  11.624  1.00  0.00     0.049 A 
ATOM     62  H   UNL     1       6.716  -3.988   9.669  1.00  0.00     0.167 HD
ATOM     63  C   UNL     1       9.179  -2.669  10.238  1.00  0.00     0.074 A 
ATOM     64  C   UNL     1      10.487  -2.064  10.074  1.00  0.00     0.031 C 
ATOM     65  C   UNL     1       8.548  -2.809  11.431  1.00  0.00     0.037 A 
BRANCH  52  66
ATOM     66  C   UNL     1       3.010  -5.560  11.095  1.00  0.00     0.058 A 
ATOM     67  C   UNL     1       2.738  -6.925  11.283  1.00  0.00     0.135 A 
ATOM     68  C   UNL     1       2.078  -4.634  11.593  1.00  0.00     0.135 A 
ATOM     69  F   UNL     1       3.585  -7.853  10.810  1.00  0.00    -0.206 F 
ATOM     70  C   UNL     1       1.573  -7.357  11.909  1.00  0.00     0.059 A 
ATOM     71  C   UNL     1       0.917  -5.043  12.243  1.00  0.00     0.059 A 
ATOM     72  F   UNL     1       2.285  -3.317  11.438  1.00  0.00    -0.206 F 
ATOM     73  C   UNL     1       0.664  -6.407  12.381  1.00  0.00     0.060 A 
BRANCH  73  74
ATOM     74  S   UNL     1      -0.853  -6.978  13.176  1.00  0.00     0.124 S 
ATOM     75  O   UNL     1      -1.637  -7.418  12.026  1.00  0.00    -0.237 OA
ATOM     76  O   UNL     1      -0.369  -8.039  14.055  1.00  0.00    -0.237 OA
ATOM     77  O   UNL     1      -1.350  -5.785  13.855  1.00  0.00    -0.744 OA
ENDBRANCH  73  74
ENDBRANCH  52  66
BRANCH  53  78
ATOM     78  C   UNL     1      10.980  -2.407   5.883  1.00  0.00     0.058 A 
ATOM     79  C   UNL     1      12.230  -3.032   5.998  1.00  0.00     0.135 A 
ATOM     80  C   UNL     1      10.864  -1.335   4.984  1.00  0.00     0.135 A 
ATOM     81  F   UNL     1      12.391  -4.058   6.847  1.00  0.00    -0.206 F 
ATOM     82  C   UNL     1      13.327  -2.607   5.256  1.00  0.00     0.059 A 
ATOM     83  C   UNL     1      11.941  -0.906   4.215  1.00  0.00     0.059 A 
ATOM     84  F   UNL     1       9.685  -0.714   4.828  1.00  0.00    -0.206 F 
ATOM     85  C   UNL     1      13.171  -1.544   4.363  1.00  0.00     0.060 A 
BRANCH  85  86
ATOM     86  S   UNL     1      14.583  -1.039   3.356  1.00  0.00     0.124 S 
ATOM     87  O   UNL     1      15.393  -0.314   4.327  1.00  0.00    -0.237 OA
ATOM     88  O   UNL     1      15.118  -2.322   2.909  1.00  0.00    -0.237 OA
ATOM     89  O   UNL     1      13.972  -0.226   2.308  1.00  0.00    -0.744 OA
ENDBRANCH  85  86
ENDBRANCH  53  78
BRANCH  65  90
ATOM     90  C   UNL     1       9.277  -2.317  12.649  1.00  0.00     0.058 A 
ATOM     91  C   UNL     1       9.407  -0.948  12.925  1.00  0.00     0.135 A 
ATOM     92  C   UNL     1       9.824  -3.229  13.566  1.00  0.00     0.135 A 
ATOM     93  F   UNL     1       8.903  -0.037  12.077  1.00  0.00    -0.206 F 
ATOM     94  C   UNL     1      10.085  -0.497  14.052  1.00  0.00     0.059 A 
ATOM     95  C   UNL     1      10.484  -2.801  14.712  1.00  0.00     0.059 A 
ATOM     96  F   UNL     1       9.713  -4.550  13.354  1.00  0.00    -0.206 F 
ATOM     97  C   UNL     1      10.624  -1.432  14.938  1.00  0.00     0.060 A 
BRANCH  97  98
ATOM     98  S   UNL     1      11.494  -0.839  16.404  1.00  0.00     0.124 S 
ATOM     99  O   UNL     1      12.782  -0.446  15.841  1.00  0.00    -0.237 OA
ATOM    100  O   UNL     1      10.640   0.255  16.857  1.00  0.00    -0.237 OA
ATOM    101  O   UNL     1      11.520  -2.007  17.278  1.00  0.00    -0.744 OA
ENDBRANCH  97  98
ENDBRANCH  65  90
ENDBRANCH  39  40
ENDBRANCH  32  34
ENDBRANCH  31  32
ENDBRANCH  30  31
ENDBRANCH  29  30
ENDBRANCH   1  29
TORSDOF 21
