REMARK SMILES CCOc1cc2c(cc1OCC)[C@@H](C(=O)OCCOCCOC(=O)c1ccc(-c3c4nc(c(-c5c(F)cc(S(=O)(=O)[O-])cc5F)c5ccc([nH]5)c(-c5c(F)cc(S(=O)(=O)[O-])cc5F)c5nc(c(-c6c(F)cc(S(=O)(=O)[O-])cc6F)c6ccc3[nH]6)C=C5)C=C4)cc1)[C@H](c1ccc(F)cc1Cl)N(C)C2=O
REMARK SMILES IDX 20 1 19 2 18 3 17 4 16 5 14 6 15 7 13 8 4 9 5 10 9 11 6 12
REMARK SMILES IDX 8 13 7 14 102 15 100 16 103 17 91 18 101 19 3 20 2 21 1 22
REMARK SMILES IDX 10 23 11 24 12 25 92 26 93 27 98 28 94 29 97 30 99 31 95 32
REMARK SMILES IDX 96 33 21 34 22 35 23 36 24 37 25 38 26 39 90 40 27 41 89 42
REMARK SMILES IDX 28 43 29 44 30 45 83 46 31 47 88 48 82 49 84 50 32 51 87 52
REMARK SMILES IDX 81 53 80 54 33 56 67 57 46 58 66 59 47 60 50 61 65 62 85 63
REMARK SMILES IDX 48 64 49 65 64 67 86 68 51 69 34 70 35 71 44 72 36 73 37 74
REMARK SMILES IDX 43 75 45 76 38 77 39 78 40 79 41 80 42 81 68 82 69 83 78 84
REMARK SMILES IDX 70 85 71 86 77 87 79 88 72 89 73 90 74 91 75 92 76 93 52 94
REMARK SMILES IDX 53 95 62 96 54 97 55 98 61 99 63 100 56 101 57 102 58 103
REMARK SMILES IDX 59 104 60 105
REMARK H PARENT 84 55 50 66
REMARK Flexibility Score: inf
ROOT
ATOM      1  C   UNL     1      10.090  -2.946  -0.338  1.00  0.00     0.202 C 
ENDROOT
BRANCH   1   2
ATOM      2  O   UNL     1      10.018  -3.066  -1.756  1.00  0.00    -0.374 OA
BRANCH   2   3
ATOM      3  C   UNL     1       9.195  -2.134  -2.456  1.00  0.00     0.202 C 
BRANCH   3   4
ATOM      4  C   UNL     1       7.690  -2.404  -2.447  1.00  0.00     0.261 C 
BRANCH   4   5
ATOM      5  O   UNL     1       7.126  -2.276  -1.132  1.00  0.00    -0.463 OA
BRANCH   5   6
ATOM      6  C   UNL     1       6.886  -3.435  -0.470  1.00  0.00     0.316 C 
ATOM      7  O   UNL     1       7.165  -4.554  -0.891  1.00  0.00    -0.251 OA
BRANCH   6   8
ATOM      8  C   UNL     1       6.166  -3.233   0.852  1.00  0.00     0.157 C 
ATOM      9  C   UNL     1       2.052  -2.230   0.185  1.00  0.00     0.161 A 
ATOM     10  C   UNL     1       3.010  -1.226   0.397  1.00  0.00     0.064 A 
ATOM     11  C   UNL     1       2.442  -3.578   0.167  1.00  0.00     0.161 A 
ATOM     12  C   UNL     1       4.349  -1.548   0.564  1.00  0.00     0.048 A 
ATOM     13  C   UNL     1       3.788  -3.891   0.372  1.00  0.00     0.056 A 
ATOM     14  C   UNL     1       4.731  -2.888   0.593  1.00  0.00    -0.015 A 
ATOM     15  C   UNL     1       5.365  -0.470   0.725  1.00  0.00     0.254 C 
ATOM     16  N   UNL     1       6.564  -0.837   1.337  1.00  0.00    -0.333 N 
ATOM     17  O   UNL     1       5.124   0.664   0.327  1.00  0.00    -0.269 OA
ATOM     18  C   UNL     1       6.771  -2.192   1.847  1.00  0.00     0.135 C 
ATOM     19  C   UNL     1       7.591   0.176   1.507  1.00  0.00     0.147 C 
BRANCH   9  20
ATOM     20  O   UNL     1       0.733  -1.871   0.117  1.00  0.00    -0.490 OA
BRANCH  20  21
ATOM     21  C   UNL     1       0.425  -0.951  -0.942  1.00  0.00     0.226 C 
ATOM     22  C   UNL     1       0.405   0.492  -0.460  1.00  0.00     0.049 C 
ENDBRANCH  20  21
ENDBRANCH   9  20
BRANCH  11  23
ATOM     23  O   UNL     1       1.706  -4.712  -0.021  1.00  0.00    -0.490 OA
BRANCH  23  24
ATOM     24  C   UNL     1       0.306  -4.638  -0.241  1.00  0.00     0.226 C 
ATOM     25  C   UNL     1      -0.429  -4.608   1.086  1.00  0.00     0.049 C 
ENDBRANCH  23  24
ENDBRANCH  11  23
BRANCH  18  26
ATOM     26  C   UNL     1       6.239  -2.456   3.286  1.00  0.00    -0.005 A 
ATOM     27  C   UNL     1       6.538  -3.740   3.818  1.00  0.00     0.010 A 
ATOM     28  C   UNL     1       5.435  -1.617   4.094  1.00  0.00     0.049 A 
ATOM     29  C   UNL     1       5.981  -4.199   5.014  1.00  0.00     0.040 A 
ATOM     30  C   UNL     1       4.885  -2.085   5.298  1.00  0.00     0.060 A 
ATOM     31  Cl  UNL     1       5.043   0.032   3.775  1.00  0.00    -0.084 Cl
ATOM     32  C   UNL     1       5.142  -3.371   5.734  1.00  0.00     0.124 A 
ATOM     33  F   UNL     1       4.585  -3.811   6.869  1.00  0.00    -0.207 F 
ENDBRANCH  18  26
ENDBRANCH   6   8
ENDBRANCH   5   6
ENDBRANCH   4   5
ENDBRANCH   3   4
ENDBRANCH   2   3
ENDBRANCH   1   2
BRANCH   1  34
ATOM     34  C   UNL     1      10.976  -1.829   0.224  1.00  0.00     0.261 C 
BRANCH  34  35
ATOM     35  O   UNL     1      10.455  -0.521  -0.074  1.00  0.00    -0.460 OA
BRANCH  35  36
ATOM     36  C   UNL     1      11.178   0.183  -0.977  1.00  0.00     0.338 C 
ATOM     37  O   UNL     1      12.242  -0.152  -1.484  1.00  0.00    -0.246 OA
BRANCH  36  38
ATOM     38  C   UNL     1      10.418   1.358  -1.439  1.00  0.00     0.060 A 
ATOM     39  C   UNL     1      10.231   1.504  -2.820  1.00  0.00     0.016 A 
ATOM     40  C   UNL     1       9.948   2.332  -0.555  1.00  0.00     0.016 A 
ATOM     41  C   UNL     1       9.613   2.645  -3.325  1.00  0.00     0.010 A 
ATOM     42  C   UNL     1       9.327   3.477  -1.065  1.00  0.00     0.010 A 
ATOM     43  C   UNL     1       9.186   3.655  -2.454  1.00  0.00    -0.014 A 
BRANCH  43  44
ATOM     44  C   UNL     1       8.706   4.947  -3.005  1.00  0.00     0.031 A 
ATOM     45  C   UNL     1       9.623   6.140  -2.989  1.00  0.00     0.074 A 
ATOM     46  C   UNL     1       7.475   5.049  -3.540  1.00  0.00     0.049 A 
ATOM     47  N   UNL     1       9.393   7.369  -3.372  1.00  0.00    -0.248 NA
ATOM     48  C   UNL     1      10.983   5.917  -2.471  1.00  0.00     0.031 C 
ATOM     49  C   UNL     1       6.509   3.956  -3.646  1.00  0.00     0.029 A 
ATOM     50  N   UNL     1       6.824   6.127  -4.085  1.00  0.00    -0.354 N 
ATOM     51  C   UNL     1      10.570   8.069  -3.131  1.00  0.00     0.074 A 
ATOM     52  C   UNL     1      11.505   7.133  -2.546  1.00  0.00     0.031 C 
ATOM     53  C   UNL     1       5.383   4.423  -4.211  1.00  0.00     0.029 A 
ATOM     54  C   UNL     1       5.532   5.854  -4.468  1.00  0.00     0.049 A 
ATOM     55  H   UNL     1       7.243   7.012  -4.192  1.00  0.00     0.167 HD
ATOM     56  C   UNL     1      10.846   9.371  -3.382  1.00  0.00     0.037 A 
ATOM     57  C   UNL     1       4.570   6.672  -4.939  1.00  0.00     0.037 A 
ATOM     58  C   UNL     1       9.909  10.296  -3.968  1.00  0.00     0.049 A 
ATOM     59  C   UNL     1       4.876   8.134  -5.138  1.00  0.00     0.074 A 
ATOM     60  C   UNL     1      10.104  11.628  -4.291  1.00  0.00     0.029 A 
ATOM     61  N   UNL     1       8.599   9.992  -4.306  1.00  0.00    -0.354 N 
ATOM     62  N   UNL     1       6.002   8.777  -4.936  1.00  0.00    -0.248 NA
ATOM     63  C   UNL     1       3.780   8.983  -5.626  1.00  0.00     0.031 C 
ATOM     64  C   UNL     1       8.895  12.143  -4.770  1.00  0.00     0.029 A 
ATOM     65  C   UNL     1       7.962  11.120  -4.800  1.00  0.00     0.049 A 
ATOM     66  H   UNL     1       8.182   9.105  -4.210  1.00  0.00     0.167 HD
ATOM     67  C   UNL     1       5.753  10.101  -5.285  1.00  0.00     0.074 A 
ATOM     68  C   UNL     1       4.377  10.162  -5.732  1.00  0.00     0.031 C 
ATOM     69  C   UNL     1       6.588  11.169  -5.236  1.00  0.00     0.037 A 
BRANCH  56  70
ATOM     70  C   UNL     1      12.207   9.885  -2.996  1.00  0.00     0.058 A 
ATOM     71  C   UNL     1      13.366   9.516  -3.696  1.00  0.00     0.135 A 
ATOM     72  C   UNL     1      12.347  10.794  -1.934  1.00  0.00     0.135 A 
ATOM     73  F   UNL     1      13.293   8.638  -4.710  1.00  0.00    -0.206 F 
ATOM     74  C   UNL     1      14.618  10.009  -3.342  1.00  0.00     0.059 A 
ATOM     75  C   UNL     1      13.585  11.322  -1.580  1.00  0.00     0.059 A 
ATOM     76  F   UNL     1      11.272  11.180  -1.229  1.00  0.00    -0.206 F 
ATOM     77  C   UNL     1      14.717  10.913  -2.283  1.00  0.00     0.060 A 
BRANCH  77  78
ATOM     78  S   UNL     1      16.348  11.549  -1.841  1.00  0.00     0.124 S 
ATOM     79  O   UNL     1      16.966  10.371  -1.237  1.00  0.00    -0.237 OA
ATOM     80  O   UNL     1      16.886  11.953  -3.135  1.00  0.00    -0.237 OA
ATOM     81  O   UNL     1      16.051  12.641  -0.919  1.00  0.00    -0.744 OA
ENDBRANCH  77  78
ENDBRANCH  56  70
BRANCH  57  82
ATOM     82  C   UNL     1       3.214   6.131  -5.227  1.00  0.00     0.058 A 
ATOM     83  C   UNL     1       2.728   6.042  -6.539  1.00  0.00     0.135 A 
ATOM     84  C   UNL     1       2.377   5.686  -4.190  1.00  0.00     0.135 A 
ATOM     85  F   UNL     1       3.482   6.469  -7.564  1.00  0.00    -0.206 F 
ATOM     86  C   UNL     1       1.461   5.537  -6.815  1.00  0.00     0.059 A 
ATOM     87  C   UNL     1       1.118   5.152  -4.443  1.00  0.00     0.059 A 
ATOM     88  F   UNL     1       2.794   5.747  -2.916  1.00  0.00    -0.206 F 
ATOM     89  C   UNL     1       0.665   5.088  -5.759  1.00  0.00     0.060 A 
BRANCH  89  90
ATOM     90  S   UNL     1      -0.952   4.376  -6.133  1.00  0.00     0.124 S 
ATOM     91  O   UNL     1      -1.719   5.561  -6.498  1.00  0.00    -0.237 OA
ATOM     92  O   UNL     1      -0.637   3.458  -7.223  1.00  0.00    -0.237 OA
ATOM     93  O   UNL     1      -1.336   3.736  -4.878  1.00  0.00    -0.744 OA
ENDBRANCH  89  90
ENDBRANCH  57  82
BRANCH  69  94
ATOM     94  C   UNL     1       6.044  12.498  -5.690  1.00  0.00     0.058 A 
ATOM     95  C   UNL     1       5.111  13.212  -4.921  1.00  0.00     0.135 A 
ATOM     96  C   UNL     1       6.500  13.089  -6.880  1.00  0.00     0.135 A 
ATOM     97  F   UNL     1       4.636  12.691  -3.779  1.00  0.00    -0.206 F 
ATOM     98  C   UNL     1       4.633  14.454  -5.327  1.00  0.00     0.059 A 
ATOM     99  C   UNL     1       6.058  14.344  -7.290  1.00  0.00     0.059 A 
ATOM    100  F   UNL     1       7.400  12.455  -7.648  1.00  0.00    -0.206 F 
ATOM    101  C   UNL     1       5.115  15.014  -6.512  1.00  0.00     0.060 A 
BRANCH 101 102
ATOM    102  S   UNL     1       4.512  16.642  -7.008  1.00  0.00     0.124 S 
ATOM    103  O   UNL     1       3.150  16.335  -7.432  1.00  0.00    -0.237 OA
ATOM    104  O   UNL     1       4.633  17.409  -5.772  1.00  0.00    -0.237 OA
ATOM    105  O   UNL     1       5.428  17.034  -8.075  1.00  0.00    -0.744 OA
ENDBRANCH 101 102
ENDBRANCH  69  94
ENDBRANCH  43  44
ENDBRANCH  36  38
ENDBRANCH  35  36
ENDBRANCH  34  35
ENDBRANCH   1  34
TORSDOF 22
