REMARK SMILES Cc1ccc(C2=NN(C(=O)CCC(=O)OCCOCCOC(=O)c3ccc(-c4c5nc(c(-c6c(F)cc(S(=O)(=O)[O-])cc6F)c6ccc([nH]6)c(-c6c(F)cc(S(=O)(=O)[O-])cc6F)c6nc(c(-c7c(F)cc(S(=O)(=O)[O-])cc7F)c7ccc4[nH]7)C=C6)C=C5)cc3)[C@H](C[C@H]3C=c4cccc(C)c4=NC3=O)C2)cc1
REMARK SMILES IDX 17 1 16 2 15 3 13 4 14 5 12 6 11 7 9 8 10 9 8 10 6 11 7 12
REMARK SMILES IDX 104 13 90 14 5 15 1 16 2 17 3 18 106 19 4 20 105 21 91 22
REMARK SMILES IDX 92 23 93 24 102 25 94 26 101 27 103 28 95 29 100 30 96 31
REMARK SMILES IDX 98 32 97 33 99 34 18 35 19 36 20 37 21 38 22 39 23 40 24 41
REMARK SMILES IDX 25 42 89 43 26 44 88 45 27 46 28 47 29 48 82 49 30 50 87 51
REMARK SMILES IDX 81 52 83 53 31 54 86 55 80 56 79 57 32 59 66 60 45 61 65 62
REMARK SMILES IDX 46 63 49 64 64 65 84 66 47 67 48 68 63 70 85 71 50 72 33 73
REMARK SMILES IDX 34 74 43 75 35 76 36 77 42 78 44 79 37 80 38 81 39 82 40 83
REMARK SMILES IDX 41 84 67 85 68 86 77 87 69 88 70 89 76 90 78 91 71 92 72 93
REMARK SMILES IDX 73 94 74 95 75 96 51 97 52 98 61 99 53 100 54 101 60 102
REMARK SMILES IDX 62 103 55 104 56 105 57 106 58 107 59 108
REMARK H PARENT 83 58 49 69
REMARK Flexibility Score: inf
ROOT
ATOM      1  C   UNL     1      -8.041   1.929  -1.935  1.00  0.00     0.202 C 
ENDROOT
BRANCH   1   2
ATOM      2  C   UNL     1      -7.731   2.552  -0.644  1.00  0.00     0.261 C 
BRANCH   2   3
ATOM      3  O   UNL     1      -7.552   1.655   0.418  1.00  0.00    -0.463 OA
BRANCH   3   4
ATOM      4  C   UNL     1      -8.585   1.689   1.269  1.00  0.00     0.306 C 
ATOM      5  O   UNL     1      -9.516   2.480   1.233  1.00  0.00    -0.252 OA
BRANCH   4   6
ATOM      6  C   UNL     1      -8.432   0.607   2.283  1.00  0.00     0.132 C 
BRANCH   6   7
ATOM      7  C   UNL     1      -7.756  -0.700   1.853  1.00  0.00     0.114 C 
BRANCH   7   8
ATOM      8  C   UNL     1      -6.205  -1.057   1.831  1.00  0.00     0.243 C 
ATOM      9  O   UNL     1      -5.858  -1.625   2.888  1.00  0.00    -0.273 OA
BRANCH   8  10
ATOM     10  N   UNL     1      -5.204  -0.852   0.752  1.00  0.00    -0.230 N 
ATOM     11  C   UNL     1      -2.241  -0.694   0.453  1.00  0.00     0.070 C 
ATOM     12  N   UNL     1      -3.412  -1.184   1.504  1.00  0.00    -0.174 NA
ATOM     13  C   UNL     1      -3.095  -0.165  -1.266  1.00  0.00     0.086 C 
ATOM     14  C   UNL     1      -5.106  -0.148  -1.134  1.00  0.00     0.118 C 
BRANCH  11  15
ATOM     15  C   UNL     1      -0.766  -0.502   0.517  1.00  0.00    -0.002 A 
ATOM     16  C   UNL     1       3.469   0.014  -0.060  1.00  0.00     0.044 C 
ATOM     17  C   UNL     1       2.007  -0.144   0.210  1.00  0.00    -0.051 A 
ATOM     18  C   UNL     1       1.472  -1.357   0.679  1.00  0.00     0.004 A 
ATOM     19  C   UNL     1       1.148   0.894  -0.110  1.00  0.00     0.004 A 
ATOM     20  C   UNL     1       0.093  -1.525   0.870  1.00  0.00     0.010 A 
ATOM     21  C   UNL     1      -0.219   0.689  -0.005  1.00  0.00     0.010 A 
ENDBRANCH  11  15
BRANCH  14  22
ATOM     22  C   UNL     1      -6.570  -0.547  -2.652  1.00  0.00     0.045 C 
BRANCH  22  23
ATOM     23  C   UNL     1      -7.381  -2.393  -2.838  1.00  0.00     0.106 C 
ATOM     24  C   UNL     1      -7.189  -3.548  -1.646  1.00  0.00    -0.003 C 
ATOM     25  C   UNL     1      -8.896  -2.712  -3.267  1.00  0.00     0.253 C 
ATOM     26  C   UNL     1      -8.158  -3.881  -0.778  1.00  0.00    -0.003 A 
ATOM     27  N   UNL     1      -9.614  -3.819  -2.717  1.00  0.00    -0.212 NA
ATOM     28  O   UNL     1      -9.428  -2.013  -4.130  1.00  0.00    -0.272 OA
ATOM     29  C   UNL     1      -8.069  -4.146   0.655  1.00  0.00     0.010 A 
ATOM     30  C   UNL     1      -9.295  -4.336  -1.567  1.00  0.00     0.077 A 
ATOM     31  C   UNL     1      -8.910  -4.996   1.254  1.00  0.00     0.001 A 
ATOM     32  C   UNL     1      -9.876  -5.598  -0.910  1.00  0.00    -0.025 A 
ATOM     33  C   UNL     1      -9.698  -5.853   0.409  1.00  0.00     0.005 A 
ATOM     34  C   UNL     1     -10.291  -6.696  -1.822  1.00  0.00     0.047 C 
ENDBRANCH  22  23
ENDBRANCH  14  22
ENDBRANCH   8  10
ENDBRANCH   7   8
ENDBRANCH   6   7
ENDBRANCH   4   6
ENDBRANCH   3   4
ENDBRANCH   2   3
ENDBRANCH   1   2
BRANCH   1  35
ATOM     35  O   UNL     1      -8.940   0.858  -1.916  1.00  0.00    -0.374 OA
BRANCH  35  36
ATOM     36  C   UNL     1      -8.656  -0.440  -1.315  1.00  0.00     0.202 C 
BRANCH  36  37
ATOM     37  C   UNL     1      -7.056  -1.195  -0.867  1.00  0.00     0.261 C 
BRANCH  37  38
ATOM     38  O   UNL     1      -5.572  -1.833  -1.951  1.00  0.00    -0.460 OA
BRANCH  38  39
ATOM     39  C   UNL     1      -4.601  -1.210  -3.288  1.00  0.00     0.338 C 
ATOM     40  O   UNL     1      -4.298  -2.012  -4.178  1.00  0.00    -0.246 OA
BRANCH  39  41
ATOM     41  C   UNL     1      -4.394   0.561  -3.689  1.00  0.00     0.060 A 
ATOM     42  C   UNL     1      -3.273   1.376  -3.462  1.00  0.00     0.016 A 
ATOM     43  C   UNL     1      -5.402   1.414  -4.150  1.00  0.00     0.016 A 
ATOM     44  C   UNL     1      -3.409   2.721  -2.881  1.00  0.00     0.010 A 
ATOM     45  C   UNL     1      -5.544   2.748  -3.640  1.00  0.00     0.010 A 
ATOM     46  C   UNL     1      -4.656   3.309  -2.717  1.00  0.00    -0.014 A 
BRANCH  46  47
ATOM     47  C   UNL     1      -5.150   4.406  -1.729  1.00  0.00     0.031 A 
ATOM     48  C   UNL     1      -5.855   5.603  -2.295  1.00  0.00     0.074 A 
ATOM     49  C   UNL     1      -5.365   4.261  -0.358  1.00  0.00     0.049 A 
ATOM     50  N   UNL     1      -6.348   6.554  -1.578  1.00  0.00    -0.248 NA
ATOM     51  C   UNL     1      -6.082   5.839  -3.716  1.00  0.00     0.031 C 
ATOM     52  C   UNL     1      -6.409   4.888   0.524  1.00  0.00     0.029 A 
ATOM     53  N   UNL     1      -4.954   3.284   0.537  1.00  0.00    -0.354 N 
ATOM     54  C   UNL     1      -7.239   7.266  -2.343  1.00  0.00     0.074 A 
ATOM     55  C   UNL     1      -6.902   6.899  -3.692  1.00  0.00     0.031 C 
ATOM     56  C   UNL     1      -6.345   4.438   1.796  1.00  0.00     0.029 A 
ATOM     57  C   UNL     1      -5.141   3.670   1.883  1.00  0.00     0.049 A 
ATOM     58  H   UNL     1      -4.574   2.417   0.264  1.00  0.00     0.167 HD
ATOM     59  C   UNL     1      -8.223   7.987  -1.724  1.00  0.00     0.037 A 
ATOM     60  C   UNL     1      -4.030   3.924   2.644  1.00  0.00     0.037 A 
ATOM     61  C   UNL     1      -8.034   7.986  -0.259  1.00  0.00     0.049 A 
ATOM     62  C   UNL     1      -3.836   5.390   2.800  1.00  0.00     0.074 A 
ATOM     63  C   UNL     1      -8.715   7.491   0.841  1.00  0.00     0.029 A 
ATOM     64  N   UNL     1      -6.793   8.371   0.230  1.00  0.00    -0.354 N 
ATOM     65  N   UNL     1      -4.762   6.189   2.368  1.00  0.00    -0.248 NA
ATOM     66  C   UNL     1      -2.691   6.112   3.327  1.00  0.00     0.031 C 
ATOM     67  C   UNL     1      -7.817   7.531   1.972  1.00  0.00     0.029 A 
ATOM     68  C   UNL     1      -6.612   8.093   1.571  1.00  0.00     0.049 A 
ATOM     69  H   UNL     1      -6.105   8.801  -0.327  1.00  0.00     0.167 HD
ATOM     70  C   UNL     1      -4.416   7.469   2.501  1.00  0.00     0.074 A 
ATOM     71  C   UNL     1      -3.058   7.381   3.045  1.00  0.00     0.031 C 
ATOM     72  C   UNL     1      -5.315   8.442   2.172  1.00  0.00     0.037 A 
BRANCH  59  73
ATOM     73  C   UNL     1      -9.411   8.646  -2.418  1.00  0.00     0.058 A 
ATOM     74  C   UNL     1     -10.217   9.570  -1.714  1.00  0.00     0.135 A 
ATOM     75  C   UNL     1      -9.846   8.393  -3.741  1.00  0.00     0.135 A 
ATOM     76  F   UNL     1      -9.953   9.883  -0.438  1.00  0.00    -0.206 F 
ATOM     77  C   UNL     1     -11.329  10.207  -2.280  1.00  0.00     0.059 A 
ATOM     78  C   UNL     1     -10.924   9.056  -4.345  1.00  0.00     0.059 A 
ATOM     79  F   UNL     1      -9.285   7.447  -4.503  1.00  0.00    -0.206 F 
ATOM     80  C   UNL     1     -11.666   9.960  -3.605  1.00  0.00     0.060 A 
BRANCH  80  81
ATOM     81  S   UNL     1     -13.076  10.824  -4.331  1.00  0.00     0.124 S 
ATOM     82  O   UNL     1     -14.191  10.289  -3.558  1.00  0.00    -0.237 OA
ATOM     83  O   UNL     1     -12.742  12.222  -4.083  1.00  0.00    -0.237 OA
ATOM     84  O   UNL     1     -13.039  10.418  -5.734  1.00  0.00    -0.744 OA
ENDBRANCH  80  81
ENDBRANCH  59  73
BRANCH  60  85
ATOM     85  C   UNL     1      -3.012   2.832   2.477  1.00  0.00     0.058 A 
ATOM     86  C   UNL     1      -3.505   1.688   3.058  1.00  0.00     0.135 A 
ATOM     87  C   UNL     1      -2.557   2.667   1.169  1.00  0.00     0.135 A 
ATOM     88  F   UNL     1      -3.738   1.626   4.378  1.00  0.00    -0.206 F 
ATOM     89  C   UNL     1      -3.988   0.660   2.235  1.00  0.00     0.059 A 
ATOM     90  C   UNL     1      -3.059   1.600   0.294  1.00  0.00     0.059 A 
ATOM     91  F   UNL     1      -2.028   3.736   0.543  1.00  0.00    -0.206 F 
ATOM     92  C   UNL     1      -3.819   0.370   0.620  1.00  0.00     0.060 A 
BRANCH  92  93
ATOM     93  S   UNL     1      -3.721  -2.077  -0.198  1.00  0.00     0.124 S 
ATOM     94  O   UNL     1      -2.546  -2.832   0.383  1.00  0.00    -0.237 OA
ATOM     95  O   UNL     1      -4.919  -2.870   0.196  1.00  0.00    -0.237 OA
ATOM     96  O   UNL     1      -3.417  -2.258  -1.627  1.00  0.00    -0.744 OA
ENDBRANCH  92  93
ENDBRANCH  60  85
BRANCH  72  97
ATOM     97  C   UNL     1      -4.933   9.859   2.356  1.00  0.00     0.058 A 
ATOM     98  C   UNL     1      -4.156  10.258   3.449  1.00  0.00     0.135 A 
ATOM     99  C   UNL     1      -5.317  10.857   1.444  1.00  0.00     0.135 A 
ATOM    100  F   UNL     1      -3.922   9.430   4.481  1.00  0.00    -0.206 F 
ATOM    101  C   UNL     1      -3.586  11.511   3.503  1.00  0.00     0.059 A 
ATOM    102  C   UNL     1      -4.841  12.146   1.533  1.00  0.00     0.059 A 
ATOM    103  F   UNL     1      -6.136  10.627   0.411  1.00  0.00    -0.206 F 
ATOM    104  C   UNL     1      -3.928  12.443   2.529  1.00  0.00     0.060 A 
BRANCH 104 105
ATOM    105  S   UNL     1      -3.203  14.072   2.616  1.00  0.00     0.124 S 
ATOM    106  O   UNL     1      -3.321  14.376   4.038  1.00  0.00    -0.237 OA
ATOM    107  O   UNL     1      -1.853  13.809   2.129  1.00  0.00    -0.237 OA
ATOM    108  O   UNL     1      -4.052  14.864   1.733  1.00  0.00    -0.744 OA
ENDBRANCH 104 105
ENDBRANCH  72  97
ENDBRANCH  46  47
ENDBRANCH  39  41
ENDBRANCH  38  39
ENDBRANCH  37  38
ENDBRANCH  36  37
ENDBRANCH  35  36
ENDBRANCH   1  35
TORSDOF 23
