REMARK SMILES O=C(OCCOCCOC(=O)c1ccc(-c2c3nc(c(-c4c(F)cc(S(=O)(=O)[O-])cc4F)c4ccc([nH]4)c(-c4c(F)cc(S(=O)(=O)[O-])cc4F)c4nc(c(-c5c(F)cc(S(=O)(=O)[O-])cc5F)c5ccc2[nH]5)C=C4)C=C3)cc1)c1ccc(NC(=O)[C@@H]2CC=CC[C@H]2C(=O)Nc2cccc([N+](=O)[O-])c2)cc1
REMARK SMILES IDX 5 1 4 2 3 3 2 4 1 5 78 6 79 7 104 8 80 9 103 10 81 11 82 12
REMARK SMILES IDX 83 13 84 15 85 16 86 17 90 18 87 19 89 20 88 21 91 22 92 23
REMARK SMILES IDX 93 24 94 26 95 27 102 28 96 29 98 30 97 31 99 32 100 33
REMARK SMILES IDX 101 34 6 35 7 36 8 37 9 38 10 39 11 40 12 41 13 42 77 43
REMARK SMILES IDX 14 44 76 45 15 46 16 47 17 48 70 49 18 50 75 51 69 52 71 53
REMARK SMILES IDX 19 54 74 55 68 56 67 57 20 59 54 60 33 61 53 62 34 63 37 64
REMARK SMILES IDX 52 65 72 66 35 67 36 68 51 70 73 71 38 72 21 73 22 74 31 75
REMARK SMILES IDX 23 76 24 77 30 78 32 79 25 80 26 81 27 82 28 83 29 84 55 85
REMARK SMILES IDX 56 86 65 87 57 88 58 89 64 90 66 91 59 92 60 93 61 94 62 95
REMARK SMILES IDX 63 96 39 97 40 98 49 99 41 100 42 101 48 102 50 103 43 104
REMARK SMILES IDX 44 105 45 106 46 107 47 108
REMARK H PARENT 82 14 93 25 71 58 37 69
REMARK Flexibility Score: inf
ROOT
ATOM      1  C   UNL     1       9.877  -1.352  -1.690  1.00  0.00     0.202 C 
ENDROOT
BRANCH   1   2
ATOM      2  C   UNL     1       9.160  -0.012  -1.829  1.00  0.00     0.261 C 
BRANCH   2   3
ATOM      3  O   UNL     1      10.112   1.066  -2.006  1.00  0.00    -0.460 OA
BRANCH   3   4
ATOM      4  C   UNL     1      10.250   2.109  -1.145  1.00  0.00     0.338 C 
ATOM      5  O   UNL     1      10.910   3.105  -1.409  1.00  0.00    -0.246 OA
BRANCH   4   6
ATOM      6  C   UNL     1       9.577   1.998   0.158  1.00  0.00     0.060 A 
ATOM      7  C   UNL     1      10.088   1.135   1.123  1.00  0.00     0.018 A 
ATOM      8  C   UNL     1       8.408   2.716   0.406  1.00  0.00     0.018 A 
ATOM      9  C   UNL     1       9.344   0.852   2.262  1.00  0.00     0.027 A 
ATOM     10  C   UNL     1       7.686   2.455   1.575  1.00  0.00     0.027 A 
ATOM     11  C   UNL     1       8.105   1.448   2.454  1.00  0.00     0.041 A 
BRANCH  11  12
ATOM     12  N   UNL     1       7.269   1.109   3.520  1.00  0.00    -0.326 N 
ATOM     13  C   UNL     1       6.947  -0.087   4.090  1.00  0.00     0.228 C 
ATOM     14  H   UNL     1       6.827   1.882   3.941  1.00  0.00     0.169 HD
ATOM     15  O   UNL     1       6.315  -0.038   5.154  1.00  0.00    -0.274 OA
BRANCH  13  16
ATOM     16  C   UNL     1       7.187  -1.459   3.445  1.00  0.00     0.095 C 
ATOM     17  C   UNL     1       8.494  -2.151   3.852  1.00  0.00     0.041 C 
ATOM     18  C   UNL     1       6.829  -1.577   1.954  1.00  0.00     0.095 C 
ATOM     19  C   UNL     1       8.772  -3.401   3.071  1.00  0.00    -0.030 C 
ATOM     20  C   UNL     1       6.920  -3.021   1.427  1.00  0.00     0.041 C 
ATOM     21  C   UNL     1       8.067  -3.794   2.001  1.00  0.00    -0.030 C 
BRANCH  18  22
ATOM     22  C   UNL     1       5.532  -0.867   1.526  1.00  0.00     0.228 C 
ATOM     23  O   UNL     1       5.607   0.200   0.901  1.00  0.00    -0.274 OA
ATOM     24  N   UNL     1       4.267  -1.357   1.690  1.00  0.00    -0.326 N 
ATOM     25  H   UNL     1       3.556  -0.773   1.339  1.00  0.00     0.169 HD
BRANCH  24  26
ATOM     26  C   UNL     1       3.808  -2.542   2.269  1.00  0.00     0.048 A 
ATOM     27  C   UNL     1       3.008  -3.378   1.485  1.00  0.00     0.026 A 
ATOM     28  C   UNL     1       4.124  -2.915   3.570  1.00  0.00     0.111 A 
ATOM     29  C   UNL     1       2.662  -4.652   1.942  1.00  0.00     0.009 A 
ATOM     30  C   UNL     1       3.813  -4.206   4.013  1.00  0.00     0.271 A 
ATOM     31  C   UNL     1       3.093  -5.085   3.196  1.00  0.00     0.086 A 
BRANCH  30  32
ATOM     32  N   UNL     1       4.282  -4.651   5.331  1.00  0.00     0.062 N 
ATOM     33  O   UNL     1       3.973  -5.795   5.696  1.00  0.00    -0.258 OA
ATOM     34  O   UNL     1       4.961  -3.861   6.000  1.00  0.00    -0.258 OA
ENDBRANCH  30  32
ENDBRANCH  24  26
ENDBRANCH  18  22
ENDBRANCH  13  16
ENDBRANCH  11  12
ENDBRANCH   4   6
ENDBRANCH   3   4
ENDBRANCH   2   3
ENDBRANCH   1   2
BRANCH   1  35
ATOM     35  O   UNL     1      10.730  -1.382  -0.548  1.00  0.00    -0.374 OA
BRANCH  35  36
ATOM     36  C   UNL     1      12.113  -1.137  -0.827  1.00  0.00     0.202 C 
BRANCH  36  37
ATOM     37  C   UNL     1      12.950  -2.052   0.074  1.00  0.00     0.261 C 
BRANCH  37  38
ATOM     38  O   UNL     1      13.026  -3.338  -0.558  1.00  0.00    -0.460 OA
BRANCH  38  39
ATOM     39  C   UNL     1      11.913  -4.104  -0.447  1.00  0.00     0.338 C 
ATOM     40  O   UNL     1      11.131  -4.128   0.487  1.00  0.00    -0.246 OA
BRANCH  39  41
ATOM     41  C   UNL     1      11.692  -4.786  -1.745  1.00  0.00     0.060 A 
ATOM     42  C   UNL     1      10.401  -5.235  -2.062  1.00  0.00     0.016 A 
ATOM     43  C   UNL     1      12.734  -4.939  -2.667  1.00  0.00     0.016 A 
ATOM     44  C   UNL     1      10.163  -5.881  -3.278  1.00  0.00     0.010 A 
ATOM     45  C   UNL     1      12.495  -5.568  -3.882  1.00  0.00     0.010 A 
ATOM     46  C   UNL     1      11.220  -6.076  -4.175  1.00  0.00    -0.014 A 
BRANCH  46  47
ATOM     47  C   UNL     1      11.103  -6.971  -5.345  1.00  0.00     0.031 A 
ATOM     48  C   UNL     1      11.686  -8.349  -5.222  1.00  0.00     0.074 A 
ATOM     49  C   UNL     1      10.630  -6.519  -6.517  1.00  0.00     0.049 A 
ATOM     50  N   UNL     1      11.951  -9.226  -6.151  1.00  0.00    -0.248 NA
ATOM     51  C   UNL     1      12.055  -8.775  -3.861  1.00  0.00     0.031 C 
ATOM     52  C   UNL     1      10.050  -5.196  -6.740  1.00  0.00     0.029 A 
ATOM     53  N   UNL     1      10.616  -7.111  -7.753  1.00  0.00    -0.354 N 
ATOM     54  C   UNL     1      12.557 -10.291  -5.495  1.00  0.00     0.074 A 
ATOM     55  C   UNL     1      12.631  -9.944  -4.093  1.00  0.00     0.031 C 
ATOM     56  C   UNL     1       9.775  -5.059  -8.049  1.00  0.00     0.029 A 
ATOM     57  C   UNL     1      10.197  -6.269  -8.755  1.00  0.00     0.049 A 
ATOM     58  H   UNL     1      10.880  -8.046  -7.908  1.00  0.00     0.167 HD
ATOM     59  C   UNL     1      13.016 -11.450  -6.020  1.00  0.00     0.037 A 
ATOM     60  C   UNL     1      10.197  -6.443 -10.091  1.00  0.00     0.037 A 
ATOM     61  C   UNL     1      12.931 -11.777  -7.417  1.00  0.00     0.049 A 
ATOM     62  C   UNL     1      10.700  -7.742 -10.660  1.00  0.00     0.074 A 
ATOM     63  C   UNL     1      13.320 -12.939  -8.057  1.00  0.00     0.029 A 
ATOM     64  N   UNL     1      12.427 -10.928  -8.392  1.00  0.00    -0.354 N 
ATOM     65  N   UNL     1      11.232  -8.764 -10.031  1.00  0.00    -0.248 NA
ATOM     66  C   UNL     1      10.602  -7.916 -12.115  1.00  0.00     0.031 C 
ATOM     67  C   UNL     1      13.079 -12.779  -9.427  1.00  0.00     0.029 A 
ATOM     68  C   UNL     1      12.503 -11.534  -9.633  1.00  0.00     0.049 A 
ATOM     69  H   UNL     1      12.067 -10.027  -8.225  1.00  0.00     0.167 HD
ATOM     70  C   UNL     1      11.511  -9.712 -11.009  1.00  0.00     0.074 A 
ATOM     71  C   UNL     1      11.088  -9.141 -12.273  1.00  0.00     0.031 C 
ATOM     72  C   UNL     1      12.060 -10.945 -10.874  1.00  0.00     0.037 A 
BRANCH  59  73
ATOM     73  C   UNL     1      13.677 -12.413  -5.075  1.00  0.00     0.058 A 
ATOM     74  C   UNL     1      12.945 -13.116  -4.103  1.00  0.00     0.135 A 
ATOM     75  C   UNL     1      15.067 -12.602  -5.111  1.00  0.00     0.135 A 
ATOM     76  F   UNL     1      11.615 -12.954  -4.011  1.00  0.00    -0.206 F 
ATOM     77  C   UNL     1      13.574 -13.930  -3.167  1.00  0.00     0.059 A 
ATOM     78  C   UNL     1      15.715 -13.434  -4.202  1.00  0.00     0.059 A 
ATOM     79  F   UNL     1      15.815 -11.953  -6.017  1.00  0.00    -0.206 F 
ATOM     80  C   UNL     1      14.962 -14.072  -3.217  1.00  0.00     0.060 A 
BRANCH  80  81
ATOM     81  S   UNL     1      15.775 -15.091  -1.968  1.00  0.00     0.124 S 
ATOM     82  O   UNL     1      15.778 -14.191  -0.820  1.00  0.00    -0.237 OA
ATOM     83  O   UNL     1      14.882 -16.241  -1.868  1.00  0.00    -0.237 OA
ATOM     84  O   UNL     1      17.082 -15.367  -2.556  1.00  0.00    -0.744 OA
ENDBRANCH  80  81
ENDBRANCH  59  73
BRANCH  60  85
ATOM     85  C   UNL     1       9.702  -5.349 -10.965  1.00  0.00     0.058 A 
ATOM     86  C   UNL     1       8.435  -5.423 -11.560  1.00  0.00     0.135 A 
ATOM     87  C   UNL     1      10.449  -4.176 -11.155  1.00  0.00     0.135 A 
ATOM     88  F   UNL     1       7.689  -6.528 -11.413  1.00  0.00    -0.206 F 
ATOM     89  C   UNL     1       7.918  -4.366 -12.303  1.00  0.00     0.059 A 
ATOM     90  C   UNL     1       9.946  -3.098 -11.879  1.00  0.00     0.059 A 
ATOM     91  F   UNL     1      11.662  -4.053 -10.594  1.00  0.00    -0.206 F 
ATOM     92  C   UNL     1       8.676  -3.202 -12.446  1.00  0.00     0.060 A 
BRANCH  92  93
ATOM     93  S   UNL     1       7.945  -1.796 -13.313  1.00  0.00     0.124 S 
ATOM     94  O   UNL     1       8.018  -2.235 -14.701  1.00  0.00    -0.237 OA
ATOM     95  O   UNL     1       6.608  -1.739 -12.730  1.00  0.00    -0.237 OA
ATOM     96  O   UNL     1       8.824  -0.687 -12.953  1.00  0.00    -0.744 OA
ENDBRANCH  92  93
ENDBRANCH  60  85
BRANCH  72  97
ATOM     97  C   UNL     1      12.200 -11.784 -12.111  1.00  0.00     0.058 A 
ATOM     98  C   UNL     1      13.229 -11.563 -13.038  1.00  0.00     0.135 A 
ATOM     99  C   UNL     1      11.351 -12.883 -12.316  1.00  0.00     0.135 A 
ATOM    100  F   UNL     1      14.063 -10.522 -12.887  1.00  0.00    -0.206 F 
ATOM    101  C   UNL     1      13.410 -12.404 -14.131  1.00  0.00     0.059 A 
ATOM    102  C   UNL     1      11.526 -13.748 -13.390  1.00  0.00     0.059 A 
ATOM    103  F   UNL     1      10.358 -13.140 -11.450  1.00  0.00    -0.206 F 
ATOM    104  C   UNL     1      12.557 -13.498 -14.295  1.00  0.00     0.060 A 
BRANCH 104 105
ATOM    105  S   UNL     1      12.842 -14.623 -15.678  1.00  0.00     0.124 S 
ATOM    106  O   UNL     1      12.306 -13.854 -16.797  1.00  0.00    -0.237 OA
ATOM    107  O   UNL     1      14.292 -14.786 -15.658  1.00  0.00    -0.237 OA
ATOM    108  O   UNL     1      12.079 -15.812 -15.310  1.00  0.00    -0.744 OA
ENDBRANCH 104 105
ENDBRANCH  72  97
ENDBRANCH  46  47
ENDBRANCH  39  41
ENDBRANCH  38  39
ENDBRANCH  37  38
ENDBRANCH  36  37
ENDBRANCH  35  36
ENDBRANCH   1  35
TORSDOF 22
