REMARK SMILES C[NH2+][C@]1(C(=O)OCCOCCOC(=O)c2ccc(-c3c4nc(c(-c5c(F)cc(S(=O)(=O)[O-])cc5F)c5ccc([nH]5)c(-c5c(F)cc(S(=O)(=O)[O-])cc5F)c5nc(c(-c6c(F)cc(S(=O)(=O)[O-])cc6F)c6ccc3[nH]6)C=C5)C=C4)cc2)CCC[C@@H]1CC[N@H+]1CCC[C@H]([NH+](C)C)C1
REMARK SMILES IDX 8 1 7 2 6 3 4 4 5 5 3 6 81 7 84 8 82 9 83 10 2 11 1 12 85 15
REMARK SMILES IDX 86 16 87 17 88 18 95 19 89 21 91 22 90 23 92 24 93 25 94 26
REMARK SMILES IDX 9 28 10 29 11 30 12 31 13 32 14 33 15 34 16 35 80 36 17 37
REMARK SMILES IDX 79 38 18 39 19 40 20 41 73 42 21 43 78 44 72 45 74 46 22 47
REMARK SMILES IDX 77 48 71 49 70 50 23 52 57 53 36 54 56 55 37 56 40 57 55 58
REMARK SMILES IDX 75 59 38 60 39 61 54 63 76 64 41 65 24 66 25 67 34 68 26 69
REMARK SMILES IDX 27 70 33 71 35 72 28 73 29 74 30 75 31 76 32 77 58 78 59 79
REMARK SMILES IDX 68 80 60 81 61 82 67 83 69 84 62 85 63 86 64 87 65 88 66 89
REMARK SMILES IDX 42 90 43 91 52 92 44 93 45 94 51 95 53 96 46 97 47 98 48 99
REMARK SMILES IDX 49 100 50 101
REMARK H PARENT 2 13 2 14 87 20 92 27 74 51 40 62
REMARK Flexibility Score: inf
ROOT
ATOM      1  C   UNL     1       3.453   1.068  -1.471  1.00  0.00     0.202 C 
ENDROOT
BRANCH   1   2
ATOM      2  C   UNL     1       2.632  -0.130  -1.970  1.00  0.00     0.261 C 
BRANCH   2   3
ATOM      3  O   UNL     1       1.219   0.095  -2.029  1.00  0.00    -0.459 OA
BRANCH   3   4
ATOM      4  C   UNL     1       0.523  -0.355  -0.943  1.00  0.00     0.368 C 
ATOM      5  O   UNL     1       1.051  -0.946  -0.004  1.00  0.00    -0.245 OA
BRANCH   4   6
ATOM      6  C   UNL     1      -1.013  -0.128  -1.087  1.00  0.00     0.197 C 
ATOM      7  C   UNL     1      -1.415   0.981  -2.085  1.00  0.00     0.081 C 
ATOM      8  C   UNL     1      -1.625  -1.361  -1.818  1.00  0.00     0.068 C 
ATOM      9  C   UNL     1      -2.849   0.643  -2.500  1.00  0.00     0.008 C 
ATOM     10  C   UNL     1      -2.996  -0.871  -2.314  1.00  0.00     0.011 C 
BRANCH   6  11
ATOM     11  N   UNL     1      -1.734   0.197   0.188  1.00  0.00    -0.334 N 
ATOM     12  C   UNL     1      -0.937   0.300   1.400  1.00  0.00     0.331 C 
ATOM     13  H   UNL     1      -2.204   1.092   0.054  1.00  0.00     0.347 HD
ATOM     14  H   UNL     1      -2.350  -0.600   0.348  1.00  0.00     0.347 HD
ENDBRANCH   6  11
BRANCH   8  15
ATOM     15  C   UNL     1      -1.675  -2.635  -0.957  1.00  0.00     0.072 C 
BRANCH  15  16
ATOM     16  C   UNL     1      -1.553  -3.964  -1.724  1.00  0.00     0.262 C 
BRANCH  16  17
ATOM     17  N   UNL     1      -0.410  -4.136  -2.634  1.00  0.00    -0.330 N 
ATOM     18  C   UNL     1       0.882  -3.674  -2.126  1.00  0.00     0.262 C 
ATOM     19  C   UNL     1      -0.281  -5.559  -3.015  1.00  0.00     0.327 C 
ATOM     20  H   UNL     1      -0.628  -3.539  -3.432  1.00  0.00     0.348 HD
ATOM     21  C   UNL     1       1.956  -3.734  -3.211  1.00  0.00     0.068 C 
ATOM     22  C   UNL     1       0.762  -5.820  -4.139  1.00  0.00     0.239 C 
ATOM     23  C   UNL     1       2.102  -5.130  -3.803  1.00  0.00     0.077 C 
BRANCH  22  24
ATOM     24  N   UNL     1       0.308  -5.591  -5.529  1.00  0.00    -0.333 N 
ATOM     25  C   UNL     1      -0.772  -6.501  -5.910  1.00  0.00     0.332 C 
ATOM     26  C   UNL     1      -0.050  -4.219  -5.866  1.00  0.00     0.332 C 
ATOM     27  H   UNL     1       1.142  -5.793  -6.080  1.00  0.00     0.348 HD
ENDBRANCH  22  24
ENDBRANCH  16  17
ENDBRANCH  15  16
ENDBRANCH   8  15
ENDBRANCH   4   6
ENDBRANCH   3   4
ENDBRANCH   2   3
ENDBRANCH   1   2
BRANCH   1  28
ATOM     28  O   UNL     1       2.893   1.919  -0.480  1.00  0.00    -0.374 OA
BRANCH  28  29
ATOM     29  C   UNL     1       1.753   2.708  -0.816  1.00  0.00     0.202 C 
BRANCH  29  30
ATOM     30  C   UNL     1       1.818   3.641  -2.030  1.00  0.00     0.261 C 
BRANCH  30  31
ATOM     31  O   UNL     1       2.023   2.952  -3.278  1.00  0.00    -0.460 OA
BRANCH  31  32
ATOM     32  C   UNL     1       3.113   3.363  -3.968  1.00  0.00     0.338 C 
ATOM     33  O   UNL     1       3.903   4.243  -3.642  1.00  0.00    -0.246 OA
BRANCH  32  34
ATOM     34  C   UNL     1       3.359   2.505  -5.136  1.00  0.00     0.060 A 
ATOM     35  C   UNL     1       4.585   1.829  -5.201  1.00  0.00     0.016 A 
ATOM     36  C   UNL     1       2.484   2.498  -6.224  1.00  0.00     0.016 A 
ATOM     37  C   UNL     1       4.966   1.190  -6.379  1.00  0.00     0.010 A 
ATOM     38  C   UNL     1       2.873   1.863  -7.409  1.00  0.00     0.010 A 
ATOM     39  C   UNL     1       4.133   1.245  -7.505  1.00  0.00    -0.014 A 
BRANCH  39  40
ATOM     40  C   UNL     1       4.655   0.793  -8.818  1.00  0.00     0.031 A 
ATOM     41  C   UNL     1       5.203   1.816  -9.778  1.00  0.00     0.074 A 
ATOM     42  C   UNL     1       4.673  -0.514  -9.135  1.00  0.00     0.049 A 
ATOM     43  N   UNL     1       5.687   1.648 -10.982  1.00  0.00    -0.248 NA
ATOM     44  C   UNL     1       5.205   3.215  -9.319  1.00  0.00     0.031 C 
ATOM     45  C   UNL     1       4.205  -1.597  -8.272  1.00  0.00     0.029 A 
ATOM     46  N   UNL     1       5.099  -1.149 -10.274  1.00  0.00    -0.354 N 
ATOM     47  C   UNL     1       6.047   2.915 -11.426  1.00  0.00     0.074 A 
ATOM     48  C   UNL     1       5.701   3.846 -10.374  1.00  0.00     0.031 C 
ATOM     49  C   UNL     1       4.359  -2.766  -8.918  1.00  0.00     0.029 A 
ATOM     50  C   UNL     1       4.910  -2.510 -10.248  1.00  0.00     0.049 A 
ATOM     51  H   UNL     1       5.502  -0.675 -11.037  1.00  0.00     0.167 HD
ATOM     52  C   UNL     1       6.619   3.270 -12.602  1.00  0.00     0.037 A 
ATOM     53  C   UNL     1       5.139  -3.439 -11.197  1.00  0.00     0.037 A 
ATOM     54  C   UNL     1       6.962   2.339 -13.646  1.00  0.00     0.049 A 
ATOM     55  C   UNL     1       5.725  -3.014 -12.519  1.00  0.00     0.074 A 
ATOM     56  C   UNL     1       7.557   2.596 -14.868  1.00  0.00     0.029 A 
ATOM     57  N   UNL     1       6.734   0.972 -13.592  1.00  0.00    -0.354 N 
ATOM     58  N   UNL     1       6.076  -1.815 -12.919  1.00  0.00    -0.248 NA
ATOM     59  C   UNL     1       5.947  -4.069 -13.518  1.00  0.00     0.031 C 
ATOM     60  C   UNL     1       7.652   1.389 -15.570  1.00  0.00     0.029 A 
ATOM     61  C   UNL     1       7.157   0.374 -14.767  1.00  0.00     0.049 A 
ATOM     62  H   UNL     1       6.330   0.496 -12.830  1.00  0.00     0.167 HD
ATOM     63  C   UNL     1       6.582  -1.974 -14.206  1.00  0.00     0.074 A 
ATOM     64  C   UNL     1       6.500  -3.387 -14.513  1.00  0.00     0.031 C 
ATOM     65  C   UNL     1       7.072  -1.037 -15.055  1.00  0.00     0.037 A 
BRANCH  52  66
ATOM     66  C   UNL     1       6.889   4.731 -12.831  1.00  0.00     0.058 A 
ATOM     67  C   UNL     1       7.927   5.403 -12.166  1.00  0.00     0.135 A 
ATOM     68  C   UNL     1       6.117   5.463 -13.748  1.00  0.00     0.135 A 
ATOM     69  F   UNL     1       8.685   4.755 -11.267  1.00  0.00    -0.206 F 
ATOM     70  C   UNL     1       8.174   6.755 -12.382  1.00  0.00     0.059 A 
ATOM     71  C   UNL     1       6.361   6.810 -13.997  1.00  0.00     0.059 A 
ATOM     72  F   UNL     1       5.112   4.869 -14.409  1.00  0.00    -0.206 F 
ATOM     73  C   UNL     1       7.383   7.452 -13.298  1.00  0.00     0.060 A 
BRANCH  73  74
ATOM     74  S   UNL     1       7.712   9.206 -13.568  1.00  0.00     0.124 S 
ATOM     75  O   UNL     1       7.166   9.795 -12.349  1.00  0.00    -0.237 OA
ATOM     76  O   UNL     1       9.166   9.238 -13.690  1.00  0.00    -0.237 OA
ATOM     77  O   UNL     1       6.977   9.505 -14.793  1.00  0.00    -0.744 OA
ENDBRANCH  73  74
ENDBRANCH  52  66
BRANCH  53  78
ATOM     78  C   UNL     1       4.803  -4.863 -10.934  1.00  0.00     0.058 A 
ATOM     79  C   UNL     1       5.806  -5.827 -10.765  1.00  0.00     0.135 A 
ATOM     80  C   UNL     1       3.467  -5.286 -10.840  1.00  0.00     0.135 A 
ATOM     81  F   UNL     1       7.098  -5.473 -10.857  1.00  0.00    -0.206 F 
ATOM     82  C   UNL     1       5.501  -7.163 -10.525  1.00  0.00     0.059 A 
ATOM     83  C   UNL     1       3.136  -6.612 -10.576  1.00  0.00     0.059 A 
ATOM     84  F   UNL     1       2.469  -4.401 -10.988  1.00  0.00    -0.206 F 
ATOM     85  C   UNL     1       4.161  -7.545 -10.431  1.00  0.00     0.060 A 
BRANCH  85  86
ATOM     86  S   UNL     1       3.776  -9.275 -10.081  1.00  0.00     0.124 S 
ATOM     87  O   UNL     1       4.081  -9.908 -11.360  1.00  0.00    -0.237 OA
ATOM     88  O   UNL     1       4.692  -9.580  -8.986  1.00  0.00    -0.237 OA
ATOM     89  O   UNL     1       2.363  -9.241  -9.716  1.00  0.00    -0.744 OA
ENDBRANCH  85  86
ENDBRANCH  53  78
BRANCH  65  90
ATOM     90  C   UNL     1       7.586  -1.508 -16.387  1.00  0.00     0.058 A 
ATOM     91  C   UNL     1       6.716  -1.897 -17.416  1.00  0.00     0.135 A 
ATOM     92  C   UNL     1       8.965  -1.517 -16.654  1.00  0.00     0.135 A 
ATOM     93  F   UNL     1       5.389  -1.911 -17.210  1.00  0.00    -0.206 F 
ATOM     94  C   UNL     1       7.195  -2.298 -18.659  1.00  0.00     0.059 A 
ATOM     95  C   UNL     1       9.465  -1.892 -17.897  1.00  0.00     0.059 A 
ATOM     96  F   UNL     1       9.840  -1.143 -15.707  1.00  0.00    -0.206 F 
ATOM     97  C   UNL     1       8.572  -2.292 -18.890  1.00  0.00     0.060 A 
BRANCH  97  98
ATOM     98  S   UNL     1       9.182  -2.781 -20.518  1.00  0.00     0.124 S 
ATOM     99  O   UNL     1       9.040  -4.232 -20.462  1.00  0.00    -0.237 OA
ATOM    100  O   UNL     1       8.265  -2.089 -21.419  1.00  0.00    -0.237 OA
ATOM    101  O   UNL     1      10.555  -2.284 -20.529  1.00  0.00    -0.744 OA
ENDBRANCH  97  98
ENDBRANCH  65  90
ENDBRANCH  39  40
ENDBRANCH  32  34
ENDBRANCH  31  32
ENDBRANCH  30  31
ENDBRANCH  29  30
ENDBRANCH  28  29
ENDBRANCH   1  28
TORSDOF 22
