REMARK SMILES O=C(OCCOCCOC(=O)c1ccc(-c2c3nc(c(-c4c(F)cc(S(=O)(=O)[O-])cc4F)c4ccc([nH]4)c(-c4c(F)cc(S(=O)(=O)[O-])cc4F)c4nc(c(-c5c(F)cc(S(=O)(=O)[O-])cc5F)c5ccc2[nH]5)C=C4)C=C3)cc1)C1=Cc2cc(C(F)(F)F)ccc2O[C@@H]1C(F)(F)F
REMARK SMILES IDX 7 1 6 2 5 3 4 4 3 5 2 6 1 7 78 8 79 9 91 10 80 11 90 12
REMARK SMILES IDX 81 13 89 14 82 15 88 16 87 17 92 18 93 19 94 20 95 21 83 22
REMARK SMILES IDX 84 23 85 24 86 25 8 26 9 27 10 28 11 29 12 30 13 31 77 32
REMARK SMILES IDX 14 33 76 34 15 35 16 36 17 37 70 38 18 39 75 40 69 41 71 42
REMARK SMILES IDX 19 43 74 44 68 45 67 46 20 48 54 49 33 50 53 51 34 52 37 53
REMARK SMILES IDX 52 54 72 55 35 56 36 57 51 59 73 60 38 61 21 62 22 63 31 64
REMARK SMILES IDX 23 65 24 66 30 67 32 68 25 69 26 70 27 71 28 72 29 73 55 74
REMARK SMILES IDX 56 75 65 76 57 77 58 78 64 79 66 80 59 81 60 82 61 83 62 84
REMARK SMILES IDX 63 85 39 86 40 87 49 88 41 89 42 90 48 91 50 92 43 93 44 94
REMARK SMILES IDX 45 95 46 96 47 97
REMARK H PARENT 71 47 37 58
REMARK Flexibility Score: inf
ROOT
ATOM      1  C   UNL     1       2.820  -1.566   2.572  1.00  0.00     0.202 C 
ENDROOT
BRANCH   1   2
ATOM      2  O   UNL     1       4.037  -1.492   1.805  1.00  0.00    -0.374 OA
BRANCH   2   3
ATOM      3  C   UNL     1       4.275  -1.272   0.225  1.00  0.00     0.202 C 
BRANCH   3   4
ATOM      4  C   UNL     1       3.423   0.213  -1.129  1.00  0.00     0.261 C 
BRANCH   4   5
ATOM      5  O   UNL     1       2.458  -0.080  -2.308  1.00  0.00    -0.460 OA
BRANCH   5   6
ATOM      6  C   UNL     1       2.594  -1.312  -2.803  1.00  0.00     0.338 C 
ATOM      7  O   UNL     1       1.980  -1.884  -3.666  1.00  0.00    -0.246 OA
BRANCH   6   8
ATOM      8  C   UNL     1       3.461  -1.782  -1.754  1.00  0.00     0.087 C 
ATOM      9  C   UNL     1       4.851  -1.300  -1.976  1.00  0.00     0.027 C 
ATOM     10  C   UNL     1       2.337  -1.266  -0.257  1.00  0.00     0.316 C 
ATOM     11  C   UNL     1       5.629   0.001  -0.979  1.00  0.00     0.018 A 
ATOM     12  O   UNL     1       3.126   0.159   0.772  1.00  0.00    -0.475 OA
ATOM     13  C   UNL     1       6.873   0.459  -1.313  1.00  0.00     0.025 A 
ATOM     14  C   UNL     1       4.785   0.768   0.323  1.00  0.00     0.128 A 
ATOM     15  C   UNL     1       7.348   1.558  -0.556  1.00  0.00     0.056 A 
ATOM     16  C   UNL     1       5.244   1.907   0.909  1.00  0.00     0.048 A 
ATOM     17  C   UNL     1       6.546   2.263   0.456  1.00  0.00     0.017 A 
BRANCH  10  18
ATOM     18  C   UNL     1       1.819  -2.686   0.207  1.00  0.00     0.430 C 
ATOM     19  F   UNL     1       0.903  -2.666   1.193  1.00  0.00    -0.167 F 
ATOM     20  F   UNL     1       1.179  -3.253  -0.859  1.00  0.00    -0.167 F 
ATOM     21  F   UNL     1       2.786  -3.570   0.537  1.00  0.00    -0.167 F 
ENDBRANCH  10  18
BRANCH  15  22
ATOM     22  C   UNL     1       8.784   1.989  -0.838  1.00  0.00     0.416 C 
ATOM     23  F   UNL     1       9.656   0.948  -0.700  1.00  0.00    -0.166 F 
ATOM     24  F   UNL     1       8.949   2.433  -2.114  1.00  0.00    -0.166 F 
ATOM     25  F   UNL     1       9.244   2.972  -0.022  1.00  0.00    -0.166 F 
ENDBRANCH  15  22
ENDBRANCH   6   8
ENDBRANCH   5   6
ENDBRANCH   4   5
ENDBRANCH   3   4
ENDBRANCH   2   3
ENDBRANCH   1   2
BRANCH   1  26
ATOM     26  C   UNL     1       2.924  -0.968   3.974  1.00  0.00     0.261 C 
BRANCH  26  27
ATOM     27  O   UNL     1       3.405   0.371   3.939  1.00  0.00    -0.460 OA
BRANCH  27  28
ATOM     28  C   UNL     1       4.740   0.471   4.128  1.00  0.00     0.338 C 
ATOM     29  O   UNL     1       5.546  -0.438   4.233  1.00  0.00    -0.246 OA
BRANCH  28  30
ATOM     30  C   UNL     1       5.103   1.896   4.203  1.00  0.00     0.060 A 
ATOM     31  C   UNL     1       6.420   2.243   3.885  1.00  0.00     0.016 A 
ATOM     32  C   UNL     1       4.169   2.878   4.567  1.00  0.00     0.016 A 
ATOM     33  C   UNL     1       6.811   3.573   3.931  1.00  0.00     0.010 A 
ATOM     34  C   UNL     1       4.564   4.209   4.635  1.00  0.00     0.010 A 
ATOM     35  C   UNL     1       5.893   4.547   4.345  1.00  0.00    -0.014 A 
BRANCH  35  36
ATOM     36  C   UNL     1       6.413   5.864   4.741  1.00  0.00     0.031 A 
ATOM     37  C   UNL     1       6.864   6.015   6.163  1.00  0.00     0.074 A 
ATOM     38  C   UNL     1       6.527   6.858   3.848  1.00  0.00     0.049 A 
ATOM     39  N   UNL     1       7.435   7.031   6.747  1.00  0.00    -0.248 NA
ATOM     40  C   UNL     1       6.645   4.853   7.043  1.00  0.00     0.031 C 
ATOM     41  C   UNL     1       6.144   6.778   2.439  1.00  0.00     0.029 A 
ATOM     42  N   UNL     1       7.009   8.129   3.998  1.00  0.00    -0.354 N 
ATOM     43  C   UNL     1       7.658   6.627   8.057  1.00  0.00     0.074 A 
ATOM     44  C   UNL     1       7.122   5.293   8.195  1.00  0.00     0.031 C 
ATOM     45  C   UNL     1       6.416   7.956   1.849  1.00  0.00     0.029 A 
ATOM     46  C   UNL     1       6.968   8.872   2.845  1.00  0.00     0.049 A 
ATOM     47  H   UNL     1       7.354   8.477   4.853  1.00  0.00     0.167 HD
ATOM     48  C   UNL     1       8.264   7.311   9.052  1.00  0.00     0.037 A 
ATOM     49  C   UNL     1       7.337  10.151   2.635  1.00  0.00     0.037 A 
ATOM     50  C   UNL     1       8.745   8.657   8.899  1.00  0.00     0.049 A 
ATOM     51  C   UNL     1       7.929  10.926   3.785  1.00  0.00     0.074 A 
ATOM     52  C   UNL     1       9.361   9.463   9.835  1.00  0.00     0.029 A 
ATOM     53  N   UNL     1       8.635   9.403   7.732  1.00  0.00    -0.354 N 
ATOM     54  N   UNL     1       8.168  10.530   5.015  1.00  0.00    -0.248 NA
ATOM     55  C   UNL     1       8.310  12.318   3.518  1.00  0.00     0.031 C 
ATOM     56  C   UNL     1       9.559  10.722   9.257  1.00  0.00     0.029 A 
ATOM     57  C   UNL     1       9.143  10.674   7.934  1.00  0.00     0.049 A 
ATOM     58  H   UNL     1       8.252   9.076   6.886  1.00  0.00     0.167 HD
ATOM     59  C   UNL     1       8.768  11.609   5.655  1.00  0.00     0.074 A 
ATOM     60  C   UNL     1       8.853  12.673   4.674  1.00  0.00     0.031 C 
ATOM     61  C   UNL     1       9.219  11.712   6.932  1.00  0.00     0.037 A 
BRANCH  48  62
ATOM     62  C   UNL     1       8.365   6.630  10.388  1.00  0.00     0.058 A 
ATOM     63  C   UNL     1       9.172   5.497  10.590  1.00  0.00     0.135 A 
ATOM     64  C   UNL     1       7.608   7.094  11.475  1.00  0.00     0.135 A 
ATOM     65  F   UNL     1       9.895   4.991   9.578  1.00  0.00    -0.206 F 
ATOM     66  C   UNL     1       9.191   4.824  11.808  1.00  0.00     0.059 A 
ATOM     67  C   UNL     1       7.639   6.458  12.712  1.00  0.00     0.059 A 
ATOM     68  F   UNL     1       6.810   8.164  11.336  1.00  0.00    -0.206 F 
ATOM     69  C   UNL     1       8.416   5.311  12.862  1.00  0.00     0.060 A 
BRANCH  69  70
ATOM     70  S   UNL     1       8.427   4.414  14.427  1.00  0.00     0.124 S 
ATOM     71  O   UNL     1       7.686   3.207  14.076  1.00  0.00    -0.237 OA
ATOM     72  O   UNL     1       9.854   4.233  14.671  1.00  0.00    -0.237 OA
ATOM     73  O   UNL     1       7.747   5.322  15.345  1.00  0.00    -0.744 OA
ENDBRANCH  69  70
ENDBRANCH  48  62
BRANCH  49  74
ATOM     74  C   UNL     1       7.179  10.760   1.288  1.00  0.00     0.058 A 
ATOM     75  C   UNL     1       8.295  11.100   0.509  1.00  0.00     0.135 A 
ATOM     76  C   UNL     1       5.907  10.999   0.743  1.00  0.00     0.135 A 
ATOM     77  F   UNL     1       9.532  10.900   0.987  1.00  0.00    -0.206 F 
ATOM     78  C   UNL     1       8.158  11.663  -0.756  1.00  0.00     0.059 A 
ATOM     79  C   UNL     1       5.744  11.535  -0.531  1.00  0.00     0.059 A 
ATOM     80  F   UNL     1       4.806  10.682   1.441  1.00  0.00    -0.206 F 
ATOM     81  C   UNL     1       6.877  11.869  -1.271  1.00  0.00     0.060 A 
BRANCH  81  82
ATOM     82  S   UNL     1       6.714  12.539  -2.940  1.00  0.00     0.124 S 
ATOM     83  O   UNL     1       7.188  13.905  -2.759  1.00  0.00    -0.237 OA
ATOM     84  O   UNL     1       7.587  11.655  -3.707  1.00  0.00    -0.237 OA
ATOM     85  O   UNL     1       5.288  12.398  -3.221  1.00  0.00    -0.744 OA
ENDBRANCH  81  82
ENDBRANCH  49  74
BRANCH  61  86
ATOM     86  C   UNL     1       9.899  12.996   7.326  1.00  0.00     0.058 A 
ATOM     87  C   UNL     1       9.199  14.203   7.467  1.00  0.00     0.135 A 
ATOM     88  C   UNL     1      11.274  12.998   7.620  1.00  0.00     0.135 A 
ATOM     89  F   UNL     1       7.884  14.258   7.198  1.00  0.00    -0.206 F 
ATOM     90  C   UNL     1       9.843  15.375   7.851  1.00  0.00     0.059 A 
ATOM     91  C   UNL     1      11.930  14.148   8.043  1.00  0.00     0.059 A 
ATOM     92  F   UNL     1      11.990  11.867   7.518  1.00  0.00    -0.206 F 
ATOM     93  C   UNL     1      11.209  15.336   8.138  1.00  0.00     0.060 A 
BRANCH  93  94
ATOM     94  S   UNL     1      12.028  16.859   8.654  1.00  0.00     0.124 S 
ATOM     95  O   UNL     1      12.055  17.615   7.406  1.00  0.00    -0.237 OA
ATOM     96  O   UNL     1      11.125  17.364   9.683  1.00  0.00    -0.237 OA
ATOM     97  O   UNL     1      13.327  16.400   9.138  1.00  0.00    -0.744 OA
ENDBRANCH  93  94
ENDBRANCH  61  86
ENDBRANCH  35  36
ENDBRANCH  28  30
ENDBRANCH  27  28
ENDBRANCH  26  27
ENDBRANCH   1  26
TORSDOF 19
