REMARK SMILES O=C(COc1ccccc1[C@@H]1[NH2+]CCc2cc(O)c(O)cc21)OCCOCCOC(=O)c1ccc(-c2c3nc(c(-c4c(F)cc(S(=O)(=O)[O-])cc4F)c4ccc([nH]4)c(-c4c(F)cc(S(=O)(=O)[O-])cc4F)c4nc(c(-c5c(F)cc(S(=O)(=O)[O-])cc5F)c5ccc2[nH]5)C=C4)C=C3)cc1
REMARK SMILES IDX 25 1 24 2 23 3 2 4 1 5 3 6 4 7 5 8 6 9 10 10 7 11 9 12 8 13
REMARK SMILES IDX 11 14 12 15 22 16 13 17 15 20 21 21 14 22 16 23 19 24 17 25
REMARK SMILES IDX 20 26 18 28 26 30 27 31 28 32 29 33 30 34 31 35 32 36 33 37
REMARK SMILES IDX 97 38 34 39 96 40 35 41 36 42 37 43 90 44 38 45 95 46 89 47
REMARK SMILES IDX 91 48 39 49 94 50 88 51 87 52 40 54 74 55 53 56 73 57 54 58
REMARK SMILES IDX 57 59 72 60 92 61 55 62 56 63 71 65 93 66 58 67 41 68 42 69
REMARK SMILES IDX 51 70 43 71 44 72 50 73 52 74 45 75 46 76 47 77 48 78 49 79
REMARK SMILES IDX 75 80 76 81 85 82 77 83 78 84 84 85 86 86 79 87 80 88 81 89
REMARK SMILES IDX 82 90 83 91 59 92 60 93 69 94 61 95 62 96 68 97 70 98 63 99
REMARK SMILES IDX 64 100 65 101 66 102 67 103
REMARK H PARENT 12 18 12 19 20 27 18 29 91 53 57 64
REMARK Flexibility Score: inf
ROOT
ATOM      1  C   UNL     1       5.639  -0.452  -1.553  1.00  0.00     0.202 C 
ENDROOT
BRANCH   1   2
ATOM      2  C   UNL     1       5.754  -0.425  -0.019  1.00  0.00     0.261 C 
BRANCH   2   3
ATOM      3  O   UNL     1       4.502  -0.729   0.618  1.00  0.00    -0.461 OA
BRANCH   3   4
ATOM      4  C   UNL     1       3.466   0.044   0.215  1.00  0.00     0.344 C 
ATOM      5  O   UNL     1       2.512  -0.448  -0.381  1.00  0.00    -0.248 OA
BRANCH   4   6
ATOM      6  C   UNL     1       3.647   1.534   0.534  1.00  0.00     0.351 C 
BRANCH   6   7
ATOM      7  O   UNL     1       3.817   1.962   1.857  1.00  0.00    -0.481 OA
BRANCH   7   8
ATOM      8  C   UNL     1       3.002   1.650   2.902  1.00  0.00     0.129 A 
ATOM      9  C   UNL     1       3.699   1.959   4.091  1.00  0.00     0.047 A 
ATOM     10  C   UNL     1       1.687   1.131   2.977  1.00  0.00     0.056 A 
ATOM     11  C   UNL     1       3.165   1.721   5.349  1.00  0.00     0.004 A 
ATOM     12  C   UNL     1       1.190   0.858   4.279  1.00  0.00     0.014 A 
ATOM     13  C   UNL     1       1.910   1.151   5.443  1.00  0.00     0.001 A 
BRANCH  10  14
ATOM     14  C   UNL     1       0.791   0.751   1.793  1.00  0.00     0.249 C 
ATOM     15  N   UNL     1       0.875   1.682   0.655  1.00  0.00    -0.336 N 
ATOM     16  C   UNL     1      -0.714   0.525   2.001  1.00  0.00     0.021 A 
ATOM     17  C   UNL     1       0.227   2.978   0.878  1.00  0.00     0.266 C 
ATOM     18  H   UNL     1       0.433   1.240  -0.151  1.00  0.00     0.347 HD
ATOM     19  H   UNL     1       1.867   1.875   0.511  1.00  0.00     0.347 HD
ATOM     20  C   UNL     1      -1.550   1.668   1.996  1.00  0.00    -0.029 A 
ATOM     21  C   UNL     1      -1.282  -0.756   1.919  1.00  0.00     0.060 A 
ATOM     22  C   UNL     1      -0.864   3.007   1.956  1.00  0.00     0.097 C 
ATOM     23  C   UNL     1      -2.934   1.537   1.885  1.00  0.00     0.054 A 
ATOM     24  C   UNL     1      -2.659  -0.870   1.773  1.00  0.00     0.157 A 
ATOM     25  C   UNL     1      -3.470   0.267   1.744  1.00  0.00     0.157 A 
BRANCH  24  26
ATOM     26  O   UNL     1      -3.268  -2.081   1.583  1.00  0.00    -0.504 OA
ATOM     27  H   UNL     1      -4.199  -2.128   1.487  1.00  0.00     0.293 HD
ENDBRANCH  24  26
BRANCH  25  28
ATOM     28  O   UNL     1      -4.810   0.137   1.507  1.00  0.00    -0.504 OA
ATOM     29  H   UNL     1      -5.358   0.897   1.487  1.00  0.00     0.293 HD
ENDBRANCH  25  28
ENDBRANCH  10  14
ENDBRANCH   7   8
ENDBRANCH   6   7
ENDBRANCH   4   6
ENDBRANCH   3   4
ENDBRANCH   2   3
ENDBRANCH   1   2
BRANCH   1  30
ATOM     30  O   UNL     1       5.349   0.799  -2.181  1.00  0.00    -0.374 OA
BRANCH  30  31
ATOM     31  C   UNL     1       4.071   1.010  -2.790  1.00  0.00     0.202 C 
BRANCH  31  32
ATOM     32  C   UNL     1       3.557   0.136  -3.948  1.00  0.00     0.261 C 
BRANCH  32  33
ATOM     33  O   UNL     1       3.741  -1.268  -3.775  1.00  0.00    -0.460 OA
BRANCH  33  34
ATOM     34  C   UNL     1       4.884  -1.736  -4.334  1.00  0.00     0.338 C 
ATOM     35  O   UNL     1       5.690  -1.109  -4.997  1.00  0.00    -0.246 OA
BRANCH  34  36
ATOM     36  C   UNL     1       5.136  -3.093  -3.824  1.00  0.00     0.060 A 
ATOM     37  C   UNL     1       6.384  -3.333  -3.236  1.00  0.00     0.016 A 
ATOM     38  C   UNL     1       4.188  -4.112  -3.943  1.00  0.00     0.016 A 
ATOM     39  C   UNL     1       6.710  -4.606  -2.794  1.00  0.00     0.010 A 
ATOM     40  C   UNL     1       4.530  -5.401  -3.538  1.00  0.00     0.010 A 
ATOM     41  C   UNL     1       5.806  -5.653  -3.003  1.00  0.00    -0.014 A 
BRANCH  41  42
ATOM     42  C   UNL     1       6.309  -7.036  -2.906  1.00  0.00     0.031 A 
ATOM     43  C   UNL     1       6.855  -7.663  -4.159  1.00  0.00     0.074 A 
ATOM     44  C   UNL     1       6.325  -7.684  -1.731  1.00  0.00     0.049 A 
ATOM     45  N   UNL     1       7.329  -8.864  -4.346  1.00  0.00    -0.248 NA
ATOM     46  C   UNL     1       6.868  -6.815  -5.365  1.00  0.00     0.031 C 
ATOM     47  C   UNL     1       5.870  -7.133  -0.455  1.00  0.00     0.029 A 
ATOM     48  N   UNL     1       6.738  -8.953  -1.425  1.00  0.00    -0.354 N 
ATOM     49  C   UNL     1       7.691  -8.919  -5.687  1.00  0.00     0.074 A 
ATOM     50  C   UNL     1       7.363  -7.641  -6.274  1.00  0.00     0.031 C 
ATOM     51  C   UNL     1       6.011  -8.072   0.497  1.00  0.00     0.029 A 
ATOM     52  C   UNL     1       6.539  -9.292  -0.109  1.00  0.00     0.049 A 
ATOM     53  H   UNL     1       7.139  -9.564  -2.085  1.00  0.00     0.167 HD
ATOM     54  C   UNL     1       8.252  -9.947  -6.363  1.00  0.00     0.037 A 
ATOM     55  C   UNL     1       6.741 -10.467   0.518  1.00  0.00     0.037 A 
ATOM     56  C   UNL     1       8.562 -11.214  -5.761  1.00  0.00     0.049 A 
ATOM     57  C   UNL     1       7.305 -11.620  -0.272  1.00  0.00     0.074 A 
ATOM     58  C   UNL     1       9.127 -12.332  -6.346  1.00  0.00     0.029 A 
ATOM     59  N   UNL     1       8.325 -11.531  -4.430  1.00  0.00    -0.354 N 
ATOM     60  N   UNL     1       7.651 -11.662  -1.538  1.00  0.00    -0.248 NA
ATOM     61  C   UNL     1       7.511 -12.883   0.449  1.00  0.00     0.031 C 
ATOM     62  C   UNL     1       9.192 -13.340  -5.378  1.00  0.00     0.029 A 
ATOM     63  C   UNL     1       8.714 -12.834  -4.178  1.00  0.00     0.049 A 
ATOM     64  H   UNL     1       7.936 -10.918  -3.764  1.00  0.00     0.167 HD
ATOM     65  C   UNL     1       8.140 -12.944  -1.759  1.00  0.00     0.074 A 
ATOM     66  C   UNL     1       8.052 -13.644  -0.492  1.00  0.00     0.031 C 
ATOM     67  C   UNL     1       8.622 -13.496  -2.901  1.00  0.00     0.037 A 
BRANCH  54  68
ATOM     68  C   UNL     1       8.526  -9.747  -7.826  1.00  0.00     0.058 A 
ATOM     69  C   UNL     1       9.560  -8.912  -8.279  1.00  0.00     0.135 A 
ATOM     70  C   UNL     1       7.750 -10.409  -8.791  1.00  0.00     0.135 A 
ATOM     71  F   UNL     1      10.315  -8.233  -7.399  1.00  0.00    -0.206 F 
ATOM     72  C   UNL     1       9.803  -8.725  -9.636  1.00  0.00     0.059 A 
ATOM     73  C   UNL     1       7.990 -10.256 -10.153  1.00  0.00     0.059 A 
ATOM     74  F   UNL     1       6.740 -11.209  -8.413  1.00  0.00    -0.206 F 
ATOM     75  C   UNL     1       9.011  -9.402 -10.566  1.00  0.00     0.060 A 
BRANCH  75  76
ATOM     76  S   UNL     1       9.344  -9.158 -12.323  1.00  0.00     0.124 S 
ATOM     77  O   UNL     1       8.825  -7.810 -12.534  1.00  0.00    -0.237 OA
ATOM     78  O   UNL     1      10.796  -9.294 -12.389  1.00  0.00    -0.237 OA
ATOM     79  O   UNL     1       8.587 -10.229 -12.964  1.00  0.00    -0.744 OA
ENDBRANCH  75  76
ENDBRANCH  54  68
BRANCH  55  80
ATOM     80  C   UNL     1       6.394 -10.612   1.956  1.00  0.00     0.058 A 
ATOM     81  C   UNL     1       7.387 -10.762   2.934  1.00  0.00     0.135 A 
ATOM     82  C   UNL     1       5.056 -10.594   2.383  1.00  0.00     0.135 A 
ATOM     83  F   UNL     1       8.680 -10.794   2.576  1.00  0.00    -0.206 F 
ATOM     84  C   UNL     1       7.069 -10.901   4.282  1.00  0.00     0.059 A 
ATOM     85  C   UNL     1       4.713 -10.707   3.726  1.00  0.00     0.059 A 
ATOM     86  F   UNL     1       4.066 -10.441   1.488  1.00  0.00    -0.206 F 
ATOM     87  C   UNL     1       5.728 -10.870   4.668  1.00  0.00     0.060 A 
BRANCH  87  88
ATOM     88  S   UNL     1       5.327 -11.002   6.425  1.00  0.00     0.124 S 
ATOM     89  O   UNL     1       5.572 -12.416   6.677  1.00  0.00    -0.237 OA
ATOM     90  O   UNL     1       6.276 -10.071   7.027  1.00  0.00    -0.237 OA
ATOM     91  O   UNL     1       3.929 -10.582   6.481  1.00  0.00    -0.744 OA
ENDBRANCH  87  88
ENDBRANCH  55  80
BRANCH  67  92
ATOM     92  C   UNL     1       9.127 -14.909  -2.825  1.00  0.00     0.058 A 
ATOM     93  C   UNL     1       8.251 -16.000  -2.737  1.00  0.00     0.135 A 
ATOM     94  C   UNL     1      10.503 -15.172  -2.909  1.00  0.00     0.135 A 
ATOM     95  F   UNL     1       6.926 -15.799  -2.650  1.00  0.00    -0.206 F 
ATOM     96  C   UNL     1       8.724 -17.307  -2.715  1.00  0.00     0.059 A 
ATOM     97  C   UNL     1      10.997 -16.471  -2.915  1.00  0.00     0.059 A 
ATOM     98  F   UNL     1      11.381 -14.160  -3.007  1.00  0.00    -0.206 F 
ATOM     99  C   UNL     1      10.099 -17.533  -2.807  1.00  0.00     0.060 A 
BRANCH  99 100
ATOM    100  S   UNL     1      10.699 -19.235  -2.817  1.00  0.00     0.124 S 
ATOM    101  O   UNL     1      10.552 -19.605  -1.413  1.00  0.00    -0.237 OA
ATOM    102  O   UNL     1       9.780 -19.886  -3.744  1.00  0.00    -0.237 OA
ATOM    103  O   UNL     1      12.074 -19.107  -3.293  1.00  0.00    -0.744 OA
ENDBRANCH  99 100
ENDBRANCH  67  92
ENDBRANCH  41  42
ENDBRANCH  34  36
ENDBRANCH  33  34
ENDBRANCH  32  33
ENDBRANCH  31  32
ENDBRANCH  30  31
ENDBRANCH   1  30
TORSDOF 22
