REMARK SMILES COC[C@@H](C)N(C)c1nc(C(C)C)c(C(=O)OCCOCCOC(=O)c2ccc(-c3c4nc(c(-c5c(F)cc(S(=O)(=O)[O-])cc5F)c5ccc([nH]5)c(-c5c(F)cc(S(=O)(=O)[O-])cc5F)c5nc(c(-c6c(F)cc(S(=O)(=O)[O-])cc6F)c6ccc3[nH]6)C=C5)C=C4)cc2)s1
REMARK SMILES IDX 19 1 18 2 17 3 15 4 16 5 14 6 8 7 9 8 92 9 10 10 6 11 7 12
REMARK SMILES IDX 4 13 5 14 3 15 2 16 1 17 11 18 12 19 13 20 20 21 21 22 22 23
REMARK SMILES IDX 23 24 24 25 25 26 26 27 27 28 91 29 28 30 90 31 29 32 30 33
REMARK SMILES IDX 31 34 84 35 32 36 89 37 83 38 85 39 33 40 88 41 82 42 81 43
REMARK SMILES IDX 34 45 68 46 47 47 67 48 48 49 51 50 66 51 86 52 49 53 50 54
REMARK SMILES IDX 65 56 87 57 52 58 35 59 36 60 45 61 37 62 38 63 44 64 46 65
REMARK SMILES IDX 39 66 40 67 41 68 42 69 43 70 69 71 70 72 79 73 71 74 72 75
REMARK SMILES IDX 78 76 80 77 73 78 74 79 75 80 76 81 77 82 53 83 54 84 63 85
REMARK SMILES IDX 55 86 56 87 62 88 64 89 57 90 58 91 59 92 60 93 61 94
REMARK H PARENT 85 44 51 55
REMARK Flexibility Score: inf
ROOT
ATOM      1  C   UNL     1       8.297  -7.220  -1.099  1.00  0.00     0.202 C 
ENDROOT
BRANCH   1   2
ATOM      2  C   UNL     1       8.066  -5.938  -1.898  1.00  0.00     0.261 C 
BRANCH   2   3
ATOM      3  O   UNL     1       7.014  -5.189  -1.266  1.00  0.00    -0.459 OA
BRANCH   3   4
ATOM      4  C   UNL     1       5.880  -5.011  -1.988  1.00  0.00     0.350 C 
ATOM      5  O   UNL     1       5.788  -5.235  -3.191  1.00  0.00    -0.245 OA
BRANCH   4   6
ATOM      6  C   UNL     1       4.787  -4.637  -1.121  1.00  0.00     0.137 A 
ATOM      7  C   UNL     1       2.506  -4.324  -0.287  1.00  0.00     0.186 A 
ATOM      8  N   UNL     1       3.380  -3.796   0.533  1.00  0.00    -0.224 NA
ATOM      9  S   UNL     1       3.215  -5.128  -1.628  1.00  0.00    -0.089 S 
ATOM     10  C   UNL     1       4.694  -4.001   0.111  1.00  0.00     0.071 A 
BRANCH   7  11
ATOM     11  N   UNL     1       1.159  -4.176  -0.150  1.00  0.00    -0.346 N 
ATOM     12  C   UNL     1       0.279  -5.307  -0.379  1.00  0.00     0.146 C 
BRANCH  11  13
ATOM     13  C   UNL     1       0.585  -2.818  -0.249  1.00  0.00     0.107 C 
ATOM     14  C   UNL     1       0.879  -2.224  -1.633  1.00  0.00     0.033 C 
BRANCH  13  15
ATOM     15  C   UNL     1       1.039  -1.906   0.912  1.00  0.00     0.184 C 
BRANCH  15  16
ATOM     16  O   UNL     1       0.293  -0.682   0.982  1.00  0.00    -0.383 OA
ATOM     17  C   UNL     1       0.942   0.415   0.350  1.00  0.00     0.194 C 
ENDBRANCH  15  16
ENDBRANCH  13  15
ENDBRANCH  11  13
ENDBRANCH   7  11
BRANCH  10  18
ATOM     18  C   UNL     1       5.749  -3.458   1.051  1.00  0.00     0.034 C 
ATOM     19  C   UNL     1       6.451  -4.556   1.851  1.00  0.00     0.014 C 
ATOM     20  C   UNL     1       6.737  -2.497   0.398  1.00  0.00     0.014 C 
ENDBRANCH  10  18
ENDBRANCH   4   6
ENDBRANCH   3   4
ENDBRANCH   2   3
ENDBRANCH   1   2
BRANCH   1  21
ATOM     21  O   UNL     1       7.249  -8.180  -1.271  1.00  0.00    -0.374 OA
BRANCH  21  22
ATOM     22  C   UNL     1       6.149  -8.075  -0.364  1.00  0.00     0.202 C 
BRANCH  22  23
ATOM     23  C   UNL     1       6.333  -8.857   0.939  1.00  0.00     0.261 C 
BRANCH  23  24
ATOM     24  O   UNL     1       7.278  -8.195   1.798  1.00  0.00    -0.460 OA
BRANCH  24  25
ATOM     25  C   UNL     1       8.508  -8.759   1.836  1.00  0.00     0.338 C 
ATOM     26  O   UNL     1       8.850  -9.802   1.303  1.00  0.00    -0.246 OA
BRANCH  25  27
ATOM     27  C   UNL     1       9.467  -7.842   2.492  1.00  0.00     0.060 A 
ATOM     28  C   UNL     1      10.767  -7.799   1.972  1.00  0.00     0.016 A 
ATOM     29  C   UNL     1       9.130  -7.072   3.610  1.00  0.00     0.016 A 
ATOM     30  C   UNL     1      11.748  -7.040   2.604  1.00  0.00     0.010 A 
ATOM     31  C   UNL     1      10.118  -6.312   4.247  1.00  0.00     0.010 A 
ATOM     32  C   UNL     1      11.440  -6.327   3.770  1.00  0.00    -0.014 A 
BRANCH  32  33
ATOM     33  C   UNL     1      12.546  -5.747   4.570  1.00  0.00     0.031 A 
ATOM     34  C   UNL     1      13.088  -6.532   5.734  1.00  0.00     0.074 A 
ATOM     35  C   UNL     1      13.099  -4.569   4.233  1.00  0.00     0.049 A 
ATOM     36  N   UNL     1      14.071  -6.240   6.545  1.00  0.00    -0.248 NA
ATOM     37  C   UNL     1      12.434  -7.820   6.019  1.00  0.00     0.031 C 
ATOM     38  C   UNL     1      12.679  -3.726   3.115  1.00  0.00     0.029 A 
ATOM     39  N   UNL     1      14.140  -3.880   4.803  1.00  0.00    -0.354 N 
ATOM     40  C   UNL     1      14.160  -7.307   7.430  1.00  0.00     0.074 A 
ATOM     41  C   UNL     1      13.107  -8.237   7.081  1.00  0.00     0.031 C 
ATOM     42  C   UNL     1      13.450  -2.625   3.087  1.00  0.00     0.029 A 
ATOM     43  C   UNL     1      14.408  -2.680   4.190  1.00  0.00     0.049 A 
ATOM     44  H   UNL     1      14.646  -4.213   5.579  1.00  0.00     0.167 HD
ATOM     45  C   UNL     1      15.046  -7.505   8.435  1.00  0.00     0.037 A 
ATOM     46  C   UNL     1      15.318  -1.732   4.491  1.00  0.00     0.037 A 
ATOM     47  C   UNL     1      16.088  -6.579   8.789  1.00  0.00     0.049 A 
ATOM     48  C   UNL     1      16.268  -1.953   5.638  1.00  0.00     0.074 A 
ATOM     49  C   UNL     1      17.035  -6.689   9.793  1.00  0.00     0.029 A 
ATOM     50  N   UNL     1      16.320  -5.369   8.152  1.00  0.00    -0.354 N 
ATOM     51  N   UNL     1      16.354  -2.978   6.452  1.00  0.00    -0.248 NA
ATOM     52  C   UNL     1      17.252  -0.893   5.901  1.00  0.00     0.031 C 
ATOM     53  C   UNL     1      17.821  -5.530   9.781  1.00  0.00     0.029 A 
ATOM     54  C   UNL     1      17.386  -4.716   8.748  1.00  0.00     0.049 A 
ATOM     55  H   UNL     1      15.802  -5.025   7.389  1.00  0.00     0.167 HD
ATOM     56  C   UNL     1      17.413  -2.696   7.309  1.00  0.00     0.074 A 
ATOM     57  C   UNL     1      17.943  -1.409   6.909  1.00  0.00     0.031 C 
ATOM     58  C   UNL     1      17.904  -3.437   8.334  1.00  0.00     0.037 A 
BRANCH  45  59
ATOM     59  C   UNL     1      14.908  -8.771   9.231  1.00  0.00     0.058 A 
ATOM     60  C   UNL     1      15.291 -10.013   8.703  1.00  0.00     0.135 A 
ATOM     61  C   UNL     1      14.390  -8.742  10.535  1.00  0.00     0.135 A 
ATOM     62  F   UNL     1      15.773 -10.096   7.452  1.00  0.00    -0.206 F 
ATOM     63  C   UNL     1      15.139 -11.189   9.429  1.00  0.00     0.059 A 
ATOM     64  C   UNL     1      14.249  -9.904  11.288  1.00  0.00     0.059 A 
ATOM     65  F   UNL     1      14.005  -7.580  11.084  1.00  0.00    -0.206 F 
ATOM     66  C   UNL     1      14.610 -11.125  10.720  1.00  0.00     0.060 A 
BRANCH  66  67
ATOM     67  S   UNL     1      14.402 -12.659  11.649  1.00  0.00     0.124 S 
ATOM     68  O   UNL     1      13.206 -13.215  11.024  1.00  0.00    -0.237 OA
ATOM     69  O   UNL     1      15.649 -13.366  11.373  1.00  0.00    -0.237 OA
ATOM     70  O   UNL     1      14.237 -12.201  13.025  1.00  0.00    -0.744 OA
ENDBRANCH  66  67
ENDBRANCH  45  59
BRANCH  46  71
ATOM     71  C   UNL     1      15.371  -0.483   3.689  1.00  0.00     0.058 A 
ATOM     72  C   UNL     1      16.416  -0.241   2.787  1.00  0.00     0.135 A 
ATOM     73  C   UNL     1      14.364   0.488   3.803  1.00  0.00     0.135 A 
ATOM     74  F   UNL     1      17.406  -1.136   2.652  1.00  0.00    -0.206 F 
ATOM     75  C   UNL     1      16.467   0.924   2.029  1.00  0.00     0.059 A 
ATOM     76  C   UNL     1      14.382   1.651   3.042  1.00  0.00     0.059 A 
ATOM     77  F   UNL     1      13.337   0.296   4.646  1.00  0.00    -0.206 F 
ATOM     78  C   UNL     1      15.442   1.864   2.161  1.00  0.00     0.060 A 
BRANCH  78  79
ATOM     79  S   UNL     1      15.477   3.344   1.126  1.00  0.00     0.124 S 
ATOM     80  O   UNL     1      16.478   4.155   1.808  1.00  0.00    -0.237 OA
ATOM     81  O   UNL     1      15.869   2.803  -0.172  1.00  0.00    -0.237 OA
ATOM     82  O   UNL     1      14.104   3.834   1.202  1.00  0.00    -0.744 OA
ENDBRANCH  78  79
ENDBRANCH  46  71
BRANCH  58  83
ATOM     83  C   UNL     1      19.088  -2.889   9.079  1.00  0.00     0.058 A 
ATOM     84  C   UNL     1      18.955  -1.842  10.003  1.00  0.00     0.135 A 
ATOM     85  C   UNL     1      20.361  -3.454   8.905  1.00  0.00     0.135 A 
ATOM     86  F   UNL     1      17.759  -1.265  10.203  1.00  0.00    -0.206 F 
ATOM     87  C   UNL     1      20.048  -1.359  10.715  1.00  0.00     0.059 A 
ATOM     88  C   UNL     1      21.465  -3.001   9.621  1.00  0.00     0.059 A 
ATOM     89  F   UNL     1      20.539  -4.466   8.040  1.00  0.00    -0.206 F 
ATOM     90  C   UNL     1      21.300  -1.944  10.515  1.00  0.00     0.060 A 
BRANCH  90  91
ATOM     91  S   UNL     1      22.709  -1.331  11.465  1.00  0.00     0.124 S 
ATOM     92  O   UNL     1      23.039  -0.107  10.744  1.00  0.00    -0.237 OA
ATOM     93  O   UNL     1      22.137  -1.148  12.796  1.00  0.00    -0.237 OA
ATOM     94  O   UNL     1      23.686  -2.410  11.354  1.00  0.00    -0.744 OA
ENDBRANCH  90  91
ENDBRANCH  58  83
ENDBRANCH  32  33
ENDBRANCH  25  27
ENDBRANCH  24  25
ENDBRANCH  23  24
ENDBRANCH  22  23
ENDBRANCH  21  22
ENDBRANCH   1  21
TORSDOF 22
