REMARK SMILES COc1ccc(-n2ccnc2C[N@@H+]2CCn3nc(C(=O)OCCOCCOC(=O)c4ccc(-c5c6nc(c(-c7c(F)cc(S(=O)(=O)[O-])cc7F)c7ccc([nH]7)c(-c7c(F)cc(S(=O)(=O)[O-])cc7F)c7nc(c(-c8c(F)cc(S(=O)(=O)[O-])cc8F)c8ccc5[nH]8)C=C7)C=C6)cc4)cc3C2)cc1
REMARK SMILES IDX 23 1 22 2 21 3 19 4 20 5 18 6 13 7 14 8 98 9 15 11 97 12
REMARK SMILES IDX 16 13 96 14 17 15 12 16 11 17 7 18 8 19 9 20 10 21 6 22 3 23
REMARK SMILES IDX 4 24 100 25 5 26 99 27 2 28 1 29 24 30 25 31 26 32 27 33
REMARK SMILES IDX 28 34 29 35 30 36 31 37 95 38 32 39 94 40 33 41 34 42 35 43
REMARK SMILES IDX 88 44 36 45 93 46 87 47 89 48 37 49 92 50 86 51 85 52 38 54
REMARK SMILES IDX 72 55 51 56 71 57 52 58 55 59 70 60 90 61 53 62 54 63 69 65
REMARK SMILES IDX 91 66 56 67 39 68 40 69 49 70 41 71 42 72 48 73 50 74 43 75
REMARK SMILES IDX 44 76 45 77 46 78 47 79 73 80 74 81 83 82 75 83 76 84 82 85
REMARK SMILES IDX 84 86 77 87 78 88 79 89 80 90 81 91 57 92 58 93 67 94 59 95
REMARK SMILES IDX 60 96 66 97 68 98 61 99 62 100 63 101 64 102 65 103
REMARK H PARENT 13 10 89 53 55 64
REMARK Flexibility Score: inf
ROOT
ATOM      1  C   UNL     1       0.473  -7.646  -3.164  1.00  0.00     0.202 C 
ENDROOT
BRANCH   1   2
ATOM      2  C   UNL     1       0.219  -6.584  -2.063  1.00  0.00     0.261 C 
BRANCH   2   3
ATOM      3  O   UNL     1      -0.664  -5.467  -2.353  1.00  0.00    -0.458 OA
BRANCH   3   4
ATOM      4  C   UNL     1      -0.168  -4.565  -3.241  1.00  0.00     0.358 C 
ATOM      5  O   UNL     1       0.849  -4.769  -3.897  1.00  0.00    -0.244 OA
BRANCH   4   6
ATOM      6  C   UNL     1      -0.875  -3.279  -3.426  1.00  0.00     0.170 A 
ATOM      7  N   UNL     1       1.066  -1.444  -6.444  1.00  0.00    -0.322 N 
ATOM      8  C   UNL     1       1.523  -0.456  -5.459  1.00  0.00     0.286 C 
ATOM      9  C   UNL     1      -0.436  -1.448  -6.454  1.00  0.00     0.319 C 
ATOM     10  H   UNL     1       1.471  -1.147  -7.332  1.00  0.00     0.348 HD
ATOM     11  C   UNL     1       0.702  -0.281  -4.158  1.00  0.00     0.206 C 
ATOM     12  C   UNL     1      -0.924  -1.857  -5.098  1.00  0.00     0.094 A 
ATOM     13  N   UNL     1      -0.299  -1.322  -4.007  1.00  0.00    -0.257 N 
ATOM     14  C   UNL     1      -1.591  -2.979  -4.639  1.00  0.00     0.067 A 
ATOM     15  N   UNL     1      -0.317  -2.142  -2.937  1.00  0.00    -0.165 NA
BRANCH   7  16
ATOM     16  C   UNL     1       1.553  -2.838  -6.251  1.00  0.00     0.339 C 
BRANCH  16  17
ATOM     17  C   UNL     1       2.988  -3.228  -5.885  1.00  0.00     0.168 A 
ATOM     18  N   UNL     1       3.402  -3.579  -4.583  1.00  0.00    -0.299 N 
ATOM     19  C   UNL     1       4.108  -4.757  -4.711  1.00  0.00     0.113 A 
ATOM     20  C   UNL     1       4.345  -4.898  -6.052  1.00  0.00     0.132 A 
ATOM     21  N   UNL     1       3.739  -3.896  -6.762  1.00  0.00    -0.236 NA
BRANCH  18  22
ATOM     22  C   UNL     1       3.265  -2.906  -3.341  1.00  0.00     0.047 A 
ATOM     23  C   UNL     1       2.919  -1.579  -0.907  1.00  0.00     0.119 A 
ATOM     24  C   UNL     1       2.587  -2.924  -1.009  1.00  0.00     0.048 A 
ATOM     25  C   UNL     1       3.561  -0.938  -1.969  1.00  0.00     0.048 A 
ATOM     26  C   UNL     1       2.814  -3.598  -2.210  1.00  0.00     0.030 A 
ATOM     27  C   UNL     1       3.720  -1.598  -3.195  1.00  0.00     0.030 A 
BRANCH  23  28
ATOM     28  O   UNL     1       2.640  -0.951   0.275  1.00  0.00    -0.497 OA
ATOM     29  C   UNL     1       1.845   0.220   0.077  1.00  0.00     0.278 C 
ENDBRANCH  23  28
ENDBRANCH  18  22
ENDBRANCH  16  17
ENDBRANCH   7  16
ENDBRANCH   4   6
ENDBRANCH   3   4
ENDBRANCH   2   3
ENDBRANCH   1   2
BRANCH   1  30
ATOM     30  O   UNL     1       1.157  -7.133  -4.301  1.00  0.00    -0.374 OA
BRANCH  30  31
ATOM     31  C   UNL     1       0.630  -7.401  -5.603  1.00  0.00     0.202 C 
BRANCH  31  32
ATOM     32  C   UNL     1      -0.666  -6.688  -6.011  1.00  0.00     0.261 C 
BRANCH  32  33
ATOM     33  O   UNL     1      -1.661  -6.678  -4.999  1.00  0.00    -0.460 OA
BRANCH  33  34
ATOM     34  C   UNL     1      -2.245  -7.858  -4.726  1.00  0.00     0.338 C 
ATOM     35  O   UNL     1      -1.991  -8.942  -5.249  1.00  0.00    -0.246 OA
BRANCH  34  36
ATOM     36  C   UNL     1      -3.241  -7.638  -3.671  1.00  0.00     0.060 A 
ATOM     37  C   UNL     1      -4.072  -8.707  -3.346  1.00  0.00     0.016 A 
ATOM     38  C   UNL     1      -3.501  -6.335  -3.207  1.00  0.00     0.016 A 
ATOM     39  C   UNL     1      -5.315  -8.412  -2.839  1.00  0.00     0.010 A 
ATOM     40  C   UNL     1      -4.723  -6.041  -2.664  1.00  0.00     0.010 A 
ATOM     41  C   UNL     1      -5.653  -7.066  -2.653  1.00  0.00    -0.014 A 
BRANCH  41  42
ATOM     42  C   UNL     1      -7.056  -6.737  -2.734  1.00  0.00     0.031 A 
ATOM     43  C   UNL     1      -7.837  -6.988  -1.519  1.00  0.00     0.074 A 
ATOM     44  C   UNL     1      -7.571  -6.215  -3.863  1.00  0.00     0.049 A 
ATOM     45  N   UNL     1      -8.769  -7.862  -1.344  1.00  0.00    -0.248 NA
ATOM     46  C   UNL     1      -7.445  -6.249  -0.313  1.00  0.00     0.031 C 
ATOM     47  C   UNL     1      -6.858  -5.636  -5.010  1.00  0.00     0.029 A 
ATOM     48  N   UNL     1      -8.873  -5.987  -4.163  1.00  0.00    -0.354 N 
ATOM     49  C   UNL     1      -9.220  -7.658  -0.050  1.00  0.00     0.074 A 
ATOM     50  C   UNL     1      -8.278  -6.771   0.586  1.00  0.00     0.031 C 
ATOM     51  C   UNL     1      -7.731  -4.918  -5.750  1.00  0.00     0.029 A 
ATOM     52  C   UNL     1      -9.064  -5.092  -5.200  1.00  0.00     0.049 A 
ATOM     53  H   UNL     1      -9.617  -6.420  -3.685  1.00  0.00     0.167 HD
ATOM     54  C   UNL     1     -10.452  -8.063   0.354  1.00  0.00     0.037 A 
ATOM     55  C   UNL     1     -10.222  -4.446  -5.478  1.00  0.00     0.037 A 
ATOM     56  C   UNL     1     -11.041  -9.015  -0.548  1.00  0.00     0.049 A 
ATOM     57  C   UNL     1     -11.326  -5.223  -4.846  1.00  0.00     0.074 A 
ATOM     58  C   UNL     1     -10.673 -10.271  -0.993  1.00  0.00     0.029 A 
ATOM     59  N   UNL     1     -12.011  -8.578  -1.420  1.00  0.00    -0.354 N 
ATOM     60  N   UNL     1     -11.691  -6.423  -5.215  1.00  0.00    -0.248 NA
ATOM     61  C   UNL     1     -11.750  -4.838  -3.506  1.00  0.00     0.031 C 
ATOM     62  C   UNL     1     -11.103 -10.332  -2.350  1.00  0.00     0.029 A 
ATOM     63  C   UNL     1     -11.722  -9.117  -2.650  1.00  0.00     0.049 A 
ATOM     64  H   UNL     1     -12.769  -7.990  -1.202  1.00  0.00     0.167 HD
ATOM     65  C   UNL     1     -12.034  -7.079  -4.039  1.00  0.00     0.074 A 
ATOM     66  C   UNL     1     -12.145  -6.024  -3.037  1.00  0.00     0.031 C 
ATOM     67  C   UNL     1     -11.927  -8.436  -3.913  1.00  0.00     0.037 A 
BRANCH  54  68
ATOM     68  C   UNL     1     -11.226  -7.348   1.418  1.00  0.00     0.058 A 
ATOM     69  C   UNL     1     -12.285  -7.996   2.074  1.00  0.00     0.135 A 
ATOM     70  C   UNL     1     -11.108  -5.958   1.642  1.00  0.00     0.135 A 
ATOM     71  F   UNL     1     -12.493  -9.310   1.900  1.00  0.00    -0.206 F 
ATOM     72  C   UNL     1     -13.193  -7.300   2.870  1.00  0.00     0.059 A 
ATOM     73  C   UNL     1     -11.962  -5.256   2.479  1.00  0.00     0.059 A 
ATOM     74  F   UNL     1     -10.216  -5.207   0.980  1.00  0.00    -0.206 F 
ATOM     75  C   UNL     1     -13.030  -5.928   3.052  1.00  0.00     0.060 A 
BRANCH  75  76
ATOM     76  S   UNL     1     -14.268  -4.998   3.970  1.00  0.00     0.124 S 
ATOM     77  O   UNL     1     -15.339  -4.902   2.985  1.00  0.00    -0.237 OA
ATOM     78  O   UNL     1     -14.524  -5.867   5.113  1.00  0.00    -0.237 OA
ATOM     79  O   UNL     1     -13.580  -3.748   4.282  1.00  0.00    -0.744 OA
ENDBRANCH  75  76
ENDBRANCH  54  68
BRANCH  55  80
ATOM     80  C   UNL     1     -10.341  -3.023  -5.890  1.00  0.00     0.058 A 
ATOM     81  C   UNL     1     -11.547  -2.509  -6.391  1.00  0.00     0.135 A 
ATOM     82  C   UNL     1      -9.342  -2.072  -5.581  1.00  0.00     0.135 A 
ATOM     83  F   UNL     1     -12.566  -3.335  -6.671  1.00  0.00    -0.206 F 
ATOM     84  C   UNL     1     -11.758  -1.135  -6.559  1.00  0.00     0.059 A 
ATOM     85  C   UNL     1      -9.520  -0.704  -5.762  1.00  0.00     0.059 A 
ATOM     86  F   UNL     1      -8.185  -2.433  -5.008  1.00  0.00    -0.206 F 
ATOM     87  C   UNL     1     -10.739  -0.240  -6.233  1.00  0.00     0.060 A 
BRANCH  87  88
ATOM     88  S   UNL     1     -11.047   1.538  -6.320  1.00  0.00     0.124 S 
ATOM     89  O   UNL     1     -11.175   1.751  -7.758  1.00  0.00    -0.237 OA
ATOM     90  O   UNL     1     -12.273   1.674  -5.541  1.00  0.00    -0.237 OA
ATOM     91  O   UNL     1      -9.855   2.120  -5.708  1.00  0.00    -0.744 OA
ENDBRANCH  87  88
ENDBRANCH  55  80
BRANCH  67  92
ATOM     92  C   UNL     1     -11.712  -9.258  -5.159  1.00  0.00     0.058 A 
ATOM     93  C   UNL     1     -10.549  -9.185  -5.946  1.00  0.00     0.135 A 
ATOM     94  C   UNL     1     -12.622 -10.285  -5.457  1.00  0.00     0.135 A 
ATOM     95  F   UNL     1      -9.579  -8.307  -5.657  1.00  0.00    -0.206 F 
ATOM     96  C   UNL     1     -10.317 -10.069  -7.001  1.00  0.00     0.059 A 
ATOM     97  C   UNL     1     -12.397 -11.197  -6.487  1.00  0.00     0.059 A 
ATOM     98  F   UNL     1     -13.720 -10.451  -4.701  1.00  0.00    -0.206 F 
ATOM     99  C   UNL     1     -11.244 -11.077  -7.262  1.00  0.00     0.060 A 
BRANCH  99 100
ATOM    100  S   UNL     1     -10.881 -12.291  -8.550  1.00  0.00     0.124 S 
ATOM    101  O   UNL     1     -11.162 -11.538  -9.768  1.00  0.00    -0.237 OA
ATOM    102  O   UNL     1      -9.475 -12.603  -8.309  1.00  0.00    -0.237 OA
ATOM    103  O   UNL     1     -11.809 -13.382  -8.261  1.00  0.00    -0.744 OA
ENDBRANCH  99 100
ENDBRANCH  67  92
ENDBRANCH  41  42
ENDBRANCH  34  36
ENDBRANCH  33  34
ENDBRANCH  32  33
ENDBRANCH  31  32
ENDBRANCH  30  31
ENDBRANCH   1  30
TORSDOF 21
