REMARK SMILES CC(=O)[C@@H]1CCCC[N@H+]1CC(C)(C)C(=O)OCCOCCOC(=O)c1ccc(-c2c3nc(c(-c4c(F)cc(S(=O)(=O)[O-])cc4F)c4ccc([nH]4)c(-c4c(F)cc(S(=O)(=O)[O-])cc4F)c4nc(c(-c5c(F)cc(S(=O)(=O)[O-])cc5F)c5ccc2[nH]5)C=C4)C=C3)cc1
REMARK SMILES IDX 19 1 18 2 17 3 16 4 14 5 15 6 11 7 12 8 13 9 10 10 9 11 4 12
REMARK SMILES IDX 5 13 6 14 8 15 7 17 2 18 1 19 3 20 20 21 21 22 22 23 23 24
REMARK SMILES IDX 24 25 25 26 26 27 90 28 27 29 89 30 28 31 29 32 30 33 83 34
REMARK SMILES IDX 31 35 88 36 82 37 84 38 32 39 87 40 81 41 80 42 33 44 67 45
REMARK SMILES IDX 46 46 66 47 47 48 50 49 65 50 85 51 48 52 49 53 64 55 86 56
REMARK SMILES IDX 51 57 34 58 35 59 44 60 36 61 37 62 43 63 45 64 38 65 39 66
REMARK SMILES IDX 40 67 41 68 42 69 68 70 69 71 78 72 70 73 71 74 77 75 79 76
REMARK SMILES IDX 72 77 73 78 74 79 75 80 76 81 52 82 53 83 62 84 54 85 55 86
REMARK SMILES IDX 61 87 63 88 56 89 57 90 58 91 59 92 60 93
REMARK H PARENT 9 16 84 43 50 54
REMARK Flexibility Score: inf
ROOT
ATOM      1  O   UNL     1      -1.506   6.707  -3.685  1.00  0.00    -0.374 OA
ENDROOT
BRANCH   1   2
ATOM      2  C   UNL     1      -1.007   6.773  -5.016  1.00  0.00     0.202 C 
BRANCH   2   3
ATOM      3  C   UNL     1      -0.382   5.518  -5.644  1.00  0.00     0.261 C 
BRANCH   3   4
ATOM      4  O   UNL     1      -0.950   4.296  -5.158  1.00  0.00    -0.463 OA
BRANCH   4   5
ATOM      5  C   UNL     1      -0.139   3.533  -4.378  1.00  0.00     0.317 C 
ATOM      6  O   UNL     1       1.049   3.773  -4.188  1.00  0.00    -0.251 OA
BRANCH   5   7
ATOM      7  C   UNL     1      -0.849   2.306  -3.799  1.00  0.00     0.111 C 
ATOM      8  C   UNL     1      -0.108   1.109  -4.416  1.00  0.00     0.029 C 
ATOM      9  C   UNL     1      -2.317   2.159  -4.291  1.00  0.00     0.029 C 
BRANCH   7  10
ATOM     10  C   UNL     1      -0.919   2.343  -2.219  1.00  0.00     0.281 C 
BRANCH  10  11
ATOM     11  N   UNL     1       0.200   2.578  -1.266  1.00  0.00    -0.325 N 
ATOM     12  C   UNL     1       1.360   1.680  -1.430  1.00  0.00     0.251 C 
ATOM     13  C   UNL     1       2.596   2.071  -0.600  1.00  0.00     0.074 C 
ATOM     14  C   UNL     1       2.933   3.542  -0.754  1.00  0.00     0.012 C 
ATOM     15  C   UNL     1       0.498   4.012  -1.114  1.00  0.00     0.262 C 
ATOM     16  H   UNL     1      -0.135   2.285  -0.348  1.00  0.00     0.348 HD
ATOM     17  C   UNL     1       1.736   4.344  -0.281  1.00  0.00     0.062 C 
BRANCH  12  18
ATOM     18  C   UNL     1       0.934   0.228  -1.087  1.00  0.00     0.186 C 
ATOM     19  C   UNL     1       1.112  -0.276   0.324  1.00  0.00     0.094 C 
ATOM     20  O   UNL     1       0.413  -0.518  -1.922  1.00  0.00    -0.293 OA
ENDBRANCH  12  18
ENDBRANCH  10  11
ENDBRANCH   7  10
ENDBRANCH   5   7
ENDBRANCH   4   5
ENDBRANCH   3   4
ENDBRANCH   2   3
ENDBRANCH   1   2
BRANCH   1  21
ATOM     21  C   UNL     1      -2.607   5.843  -3.409  1.00  0.00     0.202 C 
BRANCH  21  22
ATOM     22  C   UNL     1      -3.892   5.937  -4.247  1.00  0.00     0.261 C 
BRANCH  22  23
ATOM     23  O   UNL     1      -3.688   5.660  -5.643  1.00  0.00    -0.460 OA
BRANCH  23  24
ATOM     24  C   UNL     1      -4.036   6.676  -6.476  1.00  0.00     0.338 C 
ATOM     25  O   UNL     1      -4.537   7.741  -6.168  1.00  0.00    -0.246 OA
BRANCH  24  26
ATOM     26  C   UNL     1      -3.518   6.409  -7.829  1.00  0.00     0.060 A 
ATOM     27  C   UNL     1      -2.579   7.308  -8.351  1.00  0.00     0.016 A 
ATOM     28  C   UNL     1      -4.014   5.361  -8.605  1.00  0.00     0.016 A 
ATOM     29  C   UNL     1      -2.154   7.183  -9.669  1.00  0.00     0.010 A 
ATOM     30  C   UNL     1      -3.601   5.250  -9.936  1.00  0.00     0.010 A 
ATOM     31  C   UNL     1      -2.698   6.181 -10.481  1.00  0.00    -0.014 A 
BRANCH  31  32
ATOM     32  C   UNL     1      -2.458   6.233 -11.941  1.00  0.00     0.031 A 
ATOM     33  C   UNL     1      -3.513   6.847 -12.820  1.00  0.00     0.074 A 
ATOM     34  C   UNL     1      -1.305   5.784 -12.465  1.00  0.00     0.049 A 
ATOM     35  N   UNL     1      -3.541   6.969 -14.121  1.00  0.00    -0.248 NA
ATOM     36  C   UNL     1      -4.697   7.397 -12.138  1.00  0.00     0.031 C 
ATOM     37  C   UNL     1      -0.193   5.221 -11.699  1.00  0.00     0.029 A 
ATOM     38  N   UNL     1      -0.880   5.728 -13.767  1.00  0.00    -0.354 N 
ATOM     39  C   UNL     1      -4.745   7.599 -14.415  1.00  0.00     0.074 A 
ATOM     40  C   UNL     1      -5.432   7.810 -13.160  1.00  0.00     0.031 C 
ATOM     41  C   UNL     1       0.783   4.861 -12.550  1.00  0.00     0.029 A 
ATOM     42  C   UNL     1       0.351   5.137 -13.919  1.00  0.00     0.049 A 
ATOM     43  H   UNL     1      -1.407   6.077 -14.522  1.00  0.00     0.167 HD
ATOM     44  C   UNL     1      -5.227   7.974 -15.623  1.00  0.00     0.037 A 
ATOM     45  C   UNL     1       1.036   4.830 -15.039  1.00  0.00     0.037 A 
ATOM     46  C   UNL     1      -4.530   7.759 -16.864  1.00  0.00     0.049 A 
ATOM     47  C   UNL     1       0.446   5.191 -16.378  1.00  0.00     0.074 A 
ATOM     48  C   UNL     1      -4.923   8.110 -18.143  1.00  0.00     0.029 A 
ATOM     49  N   UNL     1      -3.300   7.128 -16.982  1.00  0.00    -0.354 N 
ATOM     50  N   UNL     1      -0.687   5.800 -16.644  1.00  0.00    -0.248 NA
ATOM     51  C   UNL     1       1.226   4.829 -17.568  1.00  0.00     0.031 C 
ATOM     52  C   UNL     1      -3.956   7.642 -19.039  1.00  0.00     0.029 A 
ATOM     53  C   UNL     1      -2.931   7.054 -18.314  1.00  0.00     0.049 A 
ATOM     54  H   UNL     1      -2.768   6.783 -16.229  1.00  0.00     0.167 HD
ATOM     55  C   UNL     1      -0.740   5.918 -18.029  1.00  0.00     0.074 A 
ATOM     56  C   UNL     1       0.479   5.328 -18.543  1.00  0.00     0.031 C 
ATOM     57  C   UNL     1      -1.707   6.468 -18.806  1.00  0.00     0.037 A 
BRANCH  44  58
ATOM     58  C   UNL     1      -6.584   8.623 -15.663  1.00  0.00     0.058 A 
ATOM     59  C   UNL     1      -6.803   9.920 -15.174  1.00  0.00     0.135 A 
ATOM     60  C   UNL     1      -7.677   7.944 -16.227  1.00  0.00     0.135 A 
ATOM     61  F   UNL     1      -5.799  10.607 -14.605  1.00  0.00    -0.206 F 
ATOM     62  C   UNL     1      -8.061  10.513 -15.220  1.00  0.00     0.059 A 
ATOM     63  C   UNL     1      -8.937   8.528 -16.311  1.00  0.00     0.059 A 
ATOM     64  F   UNL     1      -7.526   6.699 -16.705  1.00  0.00    -0.206 F 
ATOM     65  C   UNL     1      -9.122   9.809 -15.792  1.00  0.00     0.060 A 
BRANCH  65  66
ATOM     66  S   UNL     1     -10.746  10.595 -15.852  1.00  0.00     0.124 S 
ATOM     67  O   UNL     1     -11.139  10.560 -14.447  1.00  0.00    -0.237 OA
ATOM     68  O   UNL     1     -10.433  11.915 -16.390  1.00  0.00    -0.237 OA
ATOM     69  O   UNL     1     -11.513   9.726 -16.739  1.00  0.00    -0.744 OA
ENDBRANCH  65  66
ENDBRANCH  44  58
BRANCH  45  70
ATOM     70  C   UNL     1       2.345   4.130 -14.941  1.00  0.00     0.058 A 
ATOM     71  C   UNL     1       3.541   4.771 -15.295  1.00  0.00     0.135 A 
ATOM     72  C   UNL     1       2.425   2.804 -14.488  1.00  0.00     0.135 A 
ATOM     73  F   UNL     1       3.517   6.035 -15.744  1.00  0.00    -0.206 F 
ATOM     74  C   UNL     1       4.768   4.120 -15.216  1.00  0.00     0.059 A 
ATOM     75  C   UNL     1       3.643   2.140 -14.373  1.00  0.00     0.059 A 
ATOM     76  F   UNL     1       1.311   2.147 -14.127  1.00  0.00    -0.206 F 
ATOM     77  C   UNL     1       4.809   2.805 -14.749  1.00  0.00     0.060 A 
BRANCH  77  78
ATOM     78  S   UNL     1       6.412   1.987 -14.604  1.00  0.00     0.124 S 
ATOM     79  O   UNL     1       6.754   1.760 -16.003  1.00  0.00    -0.237 OA
ATOM     80  O   UNL     1       7.206   2.994 -13.907  1.00  0.00    -0.237 OA
ATOM     81  O   UNL     1       6.109   0.789 -13.826  1.00  0.00    -0.744 OA
ENDBRANCH  77  78
ENDBRANCH  45  70
BRANCH  57  82
ATOM     82  C   UNL     1      -1.473   6.497 -20.292  1.00  0.00     0.058 A 
ATOM     83  C   UNL     1      -1.536   5.334 -21.075  1.00  0.00     0.135 A 
ATOM     84  C   UNL     1      -1.240   7.717 -20.949  1.00  0.00     0.135 A 
ATOM     85  F   UNL     1      -1.750   4.141 -20.497  1.00  0.00    -0.206 F 
ATOM     86  C   UNL     1      -1.352   5.375 -22.453  1.00  0.00     0.059 A 
ATOM     87  C   UNL     1      -1.085   7.786 -22.330  1.00  0.00     0.059 A 
ATOM     88  F   UNL     1      -1.183   8.861 -20.250  1.00  0.00    -0.206 F 
ATOM     89  C   UNL     1      -1.130   6.608 -23.072  1.00  0.00     0.060 A 
BRANCH  89  90
ATOM     90  S   UNL     1      -0.929   6.651 -24.866  1.00  0.00     0.124 S 
ATOM     91  O   UNL     1       0.401   6.073 -25.026  1.00  0.00    -0.237 OA
ATOM     92  O   UNL     1      -2.040   5.823 -25.325  1.00  0.00    -0.237 OA
ATOM     93  O   UNL     1      -1.039   8.071 -25.186  1.00  0.00    -0.744 OA
ENDBRANCH  89  90
ENDBRANCH  57  82
ENDBRANCH  31  32
ENDBRANCH  24  26
ENDBRANCH  23  24
ENDBRANCH  22  23
ENDBRANCH  21  22
ENDBRANCH   1  21
TORSDOF 20
