REMARK SMILES NS(=O)(=O)c1ccc(-c2coc(=O)n2-c2ccc(C(=O)OCCOCCOC(=O)c3ccc(-c4c5nc(c(-c6c(F)cc(S(=O)(=O)[O-])cc6F)c6ccc([nH]6)c(-c6c(F)cc(S(=O)(=O)[O-])cc6F)c6nc(c(-c7c(F)cc(S(=O)(=O)[O-])cc7F)c7ccc4[nH]7)C=C6)C=C5)cc3)cc2)cc1
REMARK SMILES IDX 23 1 22 2 21 3 19 4 20 5 18 6 15 7 16 8 97 9 17 10 96 11
REMARK SMILES IDX 14 12 9 13 10 14 11 15 12 16 13 17 8 18 5 19 6 20 99 21 7 22
REMARK SMILES IDX 98 23 2 24 3 25 4 26 1 27 24 30 25 31 26 32 27 33 28 34
REMARK SMILES IDX 29 35 30 36 31 37 95 38 32 39 94 40 33 41 34 42 35 43 88 44
REMARK SMILES IDX 36 45 93 46 87 47 89 48 37 49 92 50 86 51 85 52 38 54 72 55
REMARK SMILES IDX 51 56 71 57 52 58 55 59 70 60 90 61 53 62 54 63 69 65 91 66
REMARK SMILES IDX 56 67 39 68 40 69 49 70 41 71 42 72 48 73 50 74 43 75 44 76
REMARK SMILES IDX 45 77 46 78 47 79 73 80 74 81 83 82 75 83 76 84 82 85 84 86
REMARK SMILES IDX 77 87 78 88 79 89 80 90 81 91 57 92 58 93 67 94 59 95 60 96
REMARK SMILES IDX 66 97 68 98 61 99 62 100 63 101 64 102 65 103
REMARK H PARENT 1 28 1 29 89 53 55 64
REMARK Flexibility Score: inf
ROOT
ATOM      1  C   UNL     1       7.000  -5.790  -3.393  1.00  0.00     0.202 C 
ENDROOT
BRANCH   1   2
ATOM      2  C   UNL     1       6.077  -4.664  -2.927  1.00  0.00     0.261 C 
BRANCH   2   3
ATOM      3  O   UNL     1       5.694  -4.795  -1.551  1.00  0.00    -0.460 OA
BRANCH   3   4
ATOM      4  C   UNL     1       4.407  -5.170  -1.364  1.00  0.00     0.338 C 
ATOM      5  O   UNL     1       3.551  -5.331  -2.218  1.00  0.00    -0.246 OA
BRANCH   4   6
ATOM      6  C   UNL     1       4.184  -5.525   0.050  1.00  0.00     0.060 A 
ATOM      7  C   UNL     1       3.359  -6.070   2.648  1.00  0.00     0.053 A 
ATOM      8  C   UNL     1       3.052  -6.974   1.630  1.00  0.00     0.028 A 
ATOM      9  C   UNL     1       4.190  -4.968   2.381  1.00  0.00     0.028 A 
ATOM     10  C   UNL     1       3.433  -6.678   0.323  1.00  0.00     0.018 A 
ATOM     11  C   UNL     1       4.625  -4.703   1.084  1.00  0.00     0.018 A 
BRANCH   7  12
ATOM     12  N   UNL     1       2.674  -6.143   3.875  1.00  0.00    -0.242 N 
ATOM     13  C   UNL     1       1.940  -5.149   4.463  1.00  0.00     0.095 A 
ATOM     14  C   UNL     1       1.468  -5.662   5.592  1.00  0.00     0.228 A 
ATOM     15  O   UNL     1       1.824  -6.992   5.810  1.00  0.00    -0.415 OA
ATOM     16  C   UNL     1       2.558  -7.287   4.659  1.00  0.00     0.424 A 
ATOM     17  O   UNL     1       3.006  -8.402   4.430  1.00  0.00    -0.223 OA
BRANCH  13  18
ATOM     18  C   UNL     1       1.575  -3.880   3.830  1.00  0.00     0.002 A 
ATOM     19  C   UNL     1       0.938  -1.478   2.533  1.00  0.00     0.082 A 
ATOM     20  C   UNL     1       0.646  -2.690   1.910  1.00  0.00     0.022 A 
ATOM     21  C   UNL     1       1.530  -1.453   3.800  1.00  0.00     0.022 A 
ATOM     22  C   UNL     1       0.958  -3.884   2.563  1.00  0.00     0.012 A 
ATOM     23  C   UNL     1       1.844  -2.654   4.447  1.00  0.00     0.012 A 
BRANCH  19  24
ATOM     24  S   UNL     1       0.559   0.038   1.706  1.00  0.00     0.238 S 
ATOM     25  O   UNL     1       1.242   1.124   2.357  1.00  0.00    -0.207 OA
ATOM     26  O   UNL     1      -0.863   0.064   1.428  1.00  0.00    -0.207 OA
BRANCH  24  27
ATOM     27  N   UNL     1       1.323  -0.143   0.220  1.00  0.00    -0.225 NA
ATOM     28  H   UNL     1       1.165   0.691  -0.347  1.00  0.00     0.137 HD
ATOM     29  H   UNL     1       0.942  -0.958  -0.261  1.00  0.00     0.137 HD
ENDBRANCH  24  27
ENDBRANCH  19  24
ENDBRANCH  13  18
ENDBRANCH   7  12
ENDBRANCH   4   6
ENDBRANCH   3   4
ENDBRANCH   2   3
ENDBRANCH   1   2
BRANCH   1  30
ATOM     30  O   UNL     1       6.511  -7.131  -3.372  1.00  0.00    -0.374 OA
BRANCH  30  31
ATOM     31  C   UNL     1       6.268  -7.791  -2.134  1.00  0.00     0.202 C 
BRANCH  31  32
ATOM     32  C   UNL     1       7.443  -8.163  -1.243  1.00  0.00     0.261 C 
BRANCH  32  33
ATOM     33  O   UNL     1       8.216  -7.031  -0.887  1.00  0.00    -0.460 OA
BRANCH  33  34
ATOM     34  C   UNL     1       9.352  -6.902  -1.609  1.00  0.00     0.338 C 
ATOM     35  O   UNL     1       9.634  -7.471  -2.650  1.00  0.00    -0.246 OA
BRANCH  34  36
ATOM     36  C   UNL     1      10.280  -6.055  -0.858  1.00  0.00     0.060 A 
ATOM     37  C   UNL     1      11.569  -5.960  -1.382  1.00  0.00     0.016 A 
ATOM     38  C   UNL     1       9.977  -5.719   0.470  1.00  0.00     0.016 A 
ATOM     39  C   UNL     1      12.607  -5.822  -0.496  1.00  0.00     0.010 A 
ATOM     40  C   UNL     1      11.015  -5.598   1.354  1.00  0.00     0.010 A 
ATOM     41  C   UNL     1      12.308  -5.766   0.869  1.00  0.00    -0.014 A 
BRANCH  41  42
ATOM     42  C   UNL     1      13.403  -5.774   1.808  1.00  0.00     0.031 A 
ATOM     43  C   UNL     1      14.082  -4.464   1.834  1.00  0.00     0.074 A 
ATOM     44  C   UNL     1      13.648  -6.822   2.616  1.00  0.00     0.049 A 
ATOM     45  N   UNL     1      15.206  -4.151   1.282  1.00  0.00    -0.248 NA
ATOM     46  C   UNL     1      13.285  -3.304   2.273  1.00  0.00     0.031 C 
ATOM     47  C   UNL     1      12.854  -8.040   2.800  1.00  0.00     0.029 A 
ATOM     48  N   UNL     1      14.648  -6.974   3.522  1.00  0.00    -0.354 N 
ATOM     49  C   UNL     1      15.380  -2.807   1.583  1.00  0.00     0.074 A 
ATOM     50  C   UNL     1      14.074  -2.298   1.896  1.00  0.00     0.031 C 
ATOM     51  C   UNL     1      13.281  -8.691   3.909  1.00  0.00     0.029 A 
ATOM     52  C   UNL     1      14.455  -8.013   4.428  1.00  0.00     0.049 A 
ATOM     53  H   UNL     1      15.446  -6.396   3.536  1.00  0.00     0.167 HD
ATOM     54  C   UNL     1      16.610  -2.338   1.928  1.00  0.00     0.037 A 
ATOM     55  C   UNL     1      15.188  -8.229   5.553  1.00  0.00     0.037 A 
ATOM     56  C   UNL     1      17.643  -3.241   1.470  1.00  0.00     0.049 A 
ATOM     57  C   UNL     1      16.483  -7.520   5.352  1.00  0.00     0.074 A 
ATOM     58  C   UNL     1      18.032  -3.740   0.241  1.00  0.00     0.029 A 
ATOM     59  N   UNL     1      18.202  -4.077   2.407  1.00  0.00    -0.354 N 
ATOM     60  N   UNL     1      17.350  -7.853   4.431  1.00  0.00    -0.248 NA
ATOM     61  C   UNL     1      16.586  -6.151   5.834  1.00  0.00     0.031 C 
ATOM     62  C   UNL     1      18.428  -5.089   0.490  1.00  0.00     0.029 A 
ATOM     63  C   UNL     1      18.327  -5.328   1.861  1.00  0.00     0.049 A 
ATOM     64  H   UNL     1      18.468  -3.820   3.319  1.00  0.00     0.167 HD
ATOM     65  C   UNL     1      17.815  -6.647   3.921  1.00  0.00     0.074 A 
ATOM     66  C   UNL     1      17.365  -5.636   4.878  1.00  0.00     0.031 C 
ATOM     67  C   UNL     1      18.260  -6.554   2.631  1.00  0.00     0.037 A 
BRANCH  54  68
ATOM     68  C   UNL     1      16.832  -1.359   3.067  1.00  0.00     0.058 A 
ATOM     69  C   UNL     1      18.148  -0.921   3.323  1.00  0.00     0.135 A 
ATOM     70  C   UNL     1      15.894  -1.064   4.087  1.00  0.00     0.135 A 
ATOM     71  F   UNL     1      19.122  -1.123   2.422  1.00  0.00    -0.206 F 
ATOM     72  C   UNL     1      18.522  -0.346   4.538  1.00  0.00     0.059 A 
ATOM     73  C   UNL     1      16.237  -0.450   5.283  1.00  0.00     0.059 A 
ATOM     74  F   UNL     1      14.609  -1.423   4.036  1.00  0.00    -0.206 F 
ATOM     75  C   UNL     1      17.560  -0.137   5.521  1.00  0.00     0.060 A 
BRANCH  75  76
ATOM     76  S   UNL     1      18.049   0.495   7.130  1.00  0.00     0.124 S 
ATOM     77  O   UNL     1      18.836  -0.618   7.649  1.00  0.00    -0.237 OA
ATOM     78  O   UNL     1      18.793   1.695   6.764  1.00  0.00    -0.237 OA
ATOM     79  O   UNL     1      16.773   0.734   7.798  1.00  0.00    -0.744 OA
ENDBRANCH  75  76
ENDBRANCH  54  68
BRANCH  55  80
ATOM     80  C   UNL     1      14.686  -8.622   6.901  1.00  0.00     0.058 A 
ATOM     81  C   UNL     1      15.563  -9.009   7.932  1.00  0.00     0.135 A 
ATOM     82  C   UNL     1      13.358  -8.355   7.293  1.00  0.00     0.135 A 
ATOM     83  F   UNL     1      16.854  -9.254   7.660  1.00  0.00    -0.206 F 
ATOM     84  C   UNL     1      15.158  -9.091   9.273  1.00  0.00     0.059 A 
ATOM     85  C   UNL     1      12.930  -8.436   8.618  1.00  0.00     0.059 A 
ATOM     86  F   UNL     1      12.452  -7.916   6.407  1.00  0.00    -0.206 F 
ATOM     87  C   UNL     1      13.839  -8.785   9.608  1.00  0.00     0.060 A 
BRANCH  87  88
ATOM     88  S   UNL     1      13.340  -8.744  11.349  1.00  0.00     0.124 S 
ATOM     89  O   UNL     1      13.398 -10.155  11.714  1.00  0.00    -0.237 OA
ATOM     90  O   UNL     1      14.361  -7.890  11.945  1.00  0.00    -0.237 OA
ATOM     91  O   UNL     1      11.998  -8.167  11.304  1.00  0.00    -0.744 OA
ENDBRANCH  87  88
ENDBRANCH  55  80
BRANCH  67  92
ATOM     92  C   UNL     1      18.514  -7.839   1.878  1.00  0.00     0.058 A 
ATOM     93  C   UNL     1      17.512  -8.741   1.474  1.00  0.00     0.135 A 
ATOM     94  C   UNL     1      19.814  -8.082   1.413  1.00  0.00     0.135 A 
ATOM     95  F   UNL     1      16.228  -8.531   1.796  1.00  0.00    -0.206 F 
ATOM     96  C   UNL     1      17.796  -9.849   0.670  1.00  0.00     0.059 A 
ATOM     97  C   UNL     1      20.115  -9.163   0.588  1.00  0.00     0.059 A 
ATOM     98  F   UNL     1      20.804  -7.226   1.713  1.00  0.00    -0.206 F 
ATOM     99  C   UNL     1      19.103 -10.049   0.228  1.00  0.00     0.060 A 
BRANCH  99 100
ATOM    100  S   UNL     1      19.461 -11.431  -0.881  1.00  0.00     0.124 S 
ATOM    101  O   UNL     1      19.312 -12.582   0.003  1.00  0.00    -0.237 OA
ATOM    102  O   UNL     1      18.436 -11.285  -1.911  1.00  0.00    -0.237 OA
ATOM    103  O   UNL     1      20.825 -11.163  -1.331  1.00  0.00    -0.744 OA
ENDBRANCH  99 100
ENDBRANCH  67  92
ENDBRANCH  41  42
ENDBRANCH  34  36
ENDBRANCH  33  34
ENDBRANCH  32  33
ENDBRANCH  31  32
ENDBRANCH  30  31
ENDBRANCH   1  30
TORSDOF 21
