REMARK SMILES O=C(OCCOCCOC(=O)[C@H]1CCCN(c2cc(-c3ccccn3)nc(-c3ccccc3F)n2)C1)c1ccc(-c2c3nc(c(-c4c(F)cc(S(=O)(=O)[O-])cc4F)c4ccc([nH]4)c(-c4c(F)cc(S(=O)(=O)[O-])cc4F)c4nc(c(-c5c(F)cc(S(=O)(=O)[O-])cc5F)c5ccc2[nH]5)C=C4)C=C3)cc1
REMARK SMILES IDX 5 1 4 2 3 3 2 4 1 5 37 6 38 7 102 8 39 9 101 10 40 11 41 12
REMARK SMILES IDX 42 13 95 14 43 15 100 16 94 17 96 18 44 19 99 20 93 21 92 22
REMARK SMILES IDX 45 24 79 25 58 26 78 27 59 28 62 29 77 30 97 31 60 32 61 33
REMARK SMILES IDX 76 35 98 36 63 37 46 38 47 39 56 40 48 41 49 42 55 43 57 44
REMARK SMILES IDX 50 45 51 46 52 47 53 48 54 49 80 50 81 51 90 52 82 53 83 54
REMARK SMILES IDX 89 55 91 56 84 57 85 58 86 59 87 60 88 61 64 62 65 63 74 64
REMARK SMILES IDX 66 65 67 66 73 67 75 68 68 69 69 70 70 71 71 72 72 73 6 74
REMARK SMILES IDX 7 75 8 76 9 77 10 78 11 79 12 80 13 81 36 82 14 83 16 84
REMARK SMILES IDX 15 85 17 86 18 87 35 88 19 89 27 90 26 91 20 92 21 93 25 94
REMARK SMILES IDX 22 95 24 96 23 97 28 98 29 99 33 100 30 101 32 102 34 103
REMARK SMILES IDX 31 104
REMARK H PARENT 96 23 62 34
REMARK Flexibility Score: inf
ROOT
ATOM      1  C   UNL     1       3.551  -2.650   0.888  1.00  0.00     0.202 C 
ENDROOT
BRANCH   1   2
ATOM      2  C   UNL     1       2.637  -2.083   1.974  1.00  0.00     0.261 C 
BRANCH   2   3
ATOM      3  O   UNL     1       2.934  -0.703   2.250  1.00  0.00    -0.460 OA
BRANCH   3   4
ATOM      4  C   UNL     1       3.342  -0.236   3.458  1.00  0.00     0.338 C 
ATOM      5  O   UNL     1       3.289   0.961   3.718  1.00  0.00    -0.246 OA
BRANCH   4   6
ATOM      6  C   UNL     1       3.851  -1.183   4.479  1.00  0.00     0.060 A 
ATOM      7  C   UNL     1       4.747  -2.198   4.146  1.00  0.00     0.016 A 
ATOM      8  C   UNL     1       3.469  -1.024   5.813  1.00  0.00     0.016 A 
ATOM      9  C   UNL     1       5.143  -3.137   5.080  1.00  0.00     0.010 A 
ATOM     10  C   UNL     1       3.969  -1.895   6.786  1.00  0.00     0.010 A 
ATOM     11  C   UNL     1       4.800  -2.966   6.418  1.00  0.00    -0.014 A 
BRANCH  11  12
ATOM     12  C   UNL     1       5.336  -3.916   7.416  1.00  0.00     0.031 A 
ATOM     13  C   UNL     1       4.385  -4.774   8.190  1.00  0.00     0.074 A 
ATOM     14  C   UNL     1       6.671  -4.034   7.565  1.00  0.00     0.049 A 
ATOM     15  N   UNL     1       4.614  -5.519   9.235  1.00  0.00    -0.248 NA
ATOM     16  C   UNL     1       2.986  -4.792   7.729  1.00  0.00     0.031 C 
ATOM     17  C   UNL     1       7.677  -3.318   6.771  1.00  0.00     0.029 A 
ATOM     18  N   UNL     1       7.417  -4.813   8.408  1.00  0.00    -0.354 N 
ATOM     19  C   UNL     1       3.381  -6.047   9.595  1.00  0.00     0.074 A 
ATOM     20  C   UNL     1       2.408  -5.550   8.649  1.00  0.00     0.031 C 
ATOM     21  C   UNL     1       8.901  -3.734   7.126  1.00  0.00     0.029 A 
ATOM     22  C   UNL     1       8.775  -4.650   8.249  1.00  0.00     0.049 A 
ATOM     23  H   UNL     1       7.021  -5.431   9.064  1.00  0.00     0.167 HD
ATOM     24  C   UNL     1       3.103  -6.860  10.640  1.00  0.00     0.037 A 
ATOM     25  C   UNL     1       9.800  -5.141   8.970  1.00  0.00     0.037 A 
ATOM     26  C   UNL     1       4.114  -7.345  11.542  1.00  0.00     0.049 A 
ATOM     27  C   UNL     1       9.464  -5.988  10.164  1.00  0.00     0.074 A 
ATOM     28  C   UNL     1       3.964  -8.110  12.682  1.00  0.00     0.029 A 
ATOM     29  N   UNL     1       5.477  -7.116  11.385  1.00  0.00    -0.354 N 
ATOM     30  N   UNL     1       8.282  -6.381  10.582  1.00  0.00    -0.248 NA
ATOM     31  C   UNL     1      10.581  -6.426  11.007  1.00  0.00     0.031 C 
ATOM     32  C   UNL     1       5.235  -8.319  13.231  1.00  0.00     0.029 A 
ATOM     33  C   UNL     1       6.181  -7.722  12.408  1.00  0.00     0.049 A 
ATOM     34  H   UNL     1       5.881  -6.598  10.652  1.00  0.00     0.167 HD
ATOM     35  C   UNL     1       8.510  -7.115  11.736  1.00  0.00     0.074 A 
ATOM     36  C   UNL     1       9.947  -7.127  11.940  1.00  0.00     0.031 C 
ATOM     37  C   UNL     1       7.617  -7.716  12.560  1.00  0.00     0.037 A 
BRANCH  24  38
ATOM     38  C   UNL     1       1.661  -7.201  10.888  1.00  0.00     0.058 A 
ATOM     39  C   UNL     1       0.971  -6.612  11.961  1.00  0.00     0.135 A 
ATOM     40  C   UNL     1       0.948  -8.083  10.060  1.00  0.00     0.135 A 
ATOM     41  F   UNL     1       1.598  -5.750  12.776  1.00  0.00    -0.206 F 
ATOM     42  C   UNL     1      -0.372  -6.883  12.203  1.00  0.00     0.059 A 
ATOM     43  C   UNL     1      -0.404  -8.351  10.270  1.00  0.00     0.059 A 
ATOM     44  F   UNL     1       1.548  -8.648   9.001  1.00  0.00    -0.206 F 
ATOM     45  C   UNL     1      -1.053  -7.750  11.349  1.00  0.00     0.060 A 
BRANCH  45  46
ATOM     46  S   UNL     1      -2.816  -8.028  11.630  1.00  0.00     0.124 S 
ATOM     47  O   UNL     1      -2.802  -8.854  12.832  1.00  0.00    -0.237 OA
ATOM     48  O   UNL     1      -3.320  -6.668  11.797  1.00  0.00    -0.237 OA
ATOM     49  O   UNL     1      -3.251  -8.700  10.408  1.00  0.00    -0.744 OA
ENDBRANCH  45  46
ENDBRANCH  24  38
BRANCH  25  50
ATOM     50  C   UNL     1      11.202  -4.793   8.609  1.00  0.00     0.058 A 
ATOM     51  C   UNL     1      11.673  -3.472   8.696  1.00  0.00     0.135 A 
ATOM     52  C   UNL     1      12.083  -5.763   8.108  1.00  0.00     0.135 A 
ATOM     53  F   UNL     1      10.874  -2.501   9.163  1.00  0.00    -0.206 F 
ATOM     54  C   UNL     1      12.946  -3.117   8.261  1.00  0.00     0.059 A 
ATOM     55  C   UNL     1      13.373  -5.437   7.692  1.00  0.00     0.059 A 
ATOM     56  F   UNL     1      11.689  -7.042   8.017  1.00  0.00    -0.206 F 
ATOM     57  C   UNL     1      13.787  -4.107   7.753  1.00  0.00     0.060 A 
BRANCH  57  58
ATOM     58  S   UNL     1      15.429  -3.621   7.176  1.00  0.00     0.124 S 
ATOM     59  O   UNL     1      15.104  -2.867   5.970  1.00  0.00    -0.237 OA
ATOM     60  O   UNL     1      15.929  -2.837   8.300  1.00  0.00    -0.237 OA
ATOM     61  O   UNL     1      16.101  -4.898   6.957  1.00  0.00    -0.744 OA
ENDBRANCH  57  58
ENDBRANCH  25  50
BRANCH  37  62
ATOM     62  C   UNL     1       8.169  -8.457  13.739  1.00  0.00     0.058 A 
ATOM     63  C   UNL     1       8.160  -9.860  13.755  1.00  0.00     0.135 A 
ATOM     64  C   UNL     1       8.600  -7.780  14.889  1.00  0.00     0.135 A 
ATOM     65  F   UNL     1       7.753 -10.547  12.675  1.00  0.00    -0.206 F 
ATOM     66  C   UNL     1       8.531 -10.570  14.888  1.00  0.00     0.059 A 
ATOM     67  C   UNL     1       8.997  -8.472  16.028  1.00  0.00     0.059 A 
ATOM     68  F   UNL     1       8.638  -6.439  14.910  1.00  0.00    -0.206 F 
ATOM     69  C   UNL     1       8.936  -9.866  16.024  1.00  0.00     0.060 A 
BRANCH  69  70
ATOM     70  S   UNL     1       9.385 -10.805  17.497  1.00  0.00     0.124 S 
ATOM     71  O   UNL     1       8.084 -11.279  17.955  1.00  0.00    -0.237 OA
ATOM     72  O   UNL     1      10.278 -11.824  16.954  1.00  0.00    -0.237 OA
ATOM     73  O   UNL     1      10.028  -9.809  18.350  1.00  0.00    -0.744 OA
ENDBRANCH  69  70
ENDBRANCH  37  62
ENDBRANCH  11  12
ENDBRANCH   4   6
ENDBRANCH   3   4
ENDBRANCH   2   3
ENDBRANCH   1   2
BRANCH   1  74
ATOM     74  O   UNL     1       4.951  -2.415   1.049  1.00  0.00    -0.374 OA
BRANCH  74  75
ATOM     75  C   UNL     1       5.402  -1.109   0.660  1.00  0.00     0.202 C 
BRANCH  75  76
ATOM     76  C   UNL     1       6.568  -1.249  -0.321  1.00  0.00     0.261 C 
BRANCH  76  77
ATOM     77  O   UNL     1       6.074  -1.932  -1.486  1.00  0.00    -0.463 OA
BRANCH  77  78
ATOM     78  C   UNL     1       6.211  -3.288  -1.451  1.00  0.00     0.310 C 
ATOM     79  O   UNL     1       7.088  -3.903  -0.861  1.00  0.00    -0.252 OA
BRANCH  78  80
ATOM     80  C   UNL     1       5.073  -3.924  -2.203  1.00  0.00     0.118 C 
ATOM     81  C   UNL     1       5.481  -4.372  -3.606  1.00  0.00     0.019 C 
ATOM     82  C   UNL     1       4.558  -5.124  -1.417  1.00  0.00     0.133 C 
ATOM     83  C   UNL     1       4.309  -5.070  -4.314  1.00  0.00     0.022 C 
ATOM     84  N   UNL     1       3.405  -5.651  -2.131  1.00  0.00    -0.356 N 
ATOM     85  C   UNL     1       3.649  -6.170  -3.464  1.00  0.00     0.118 C 
BRANCH  84  86
ATOM     86  C   UNL     1       2.216  -5.829  -1.465  1.00  0.00     0.133 A 
ATOM     87  C   UNL     1       1.775  -7.100  -1.163  1.00  0.00     0.077 A 
ATOM     88  N   UNL     1       1.514  -4.736  -1.104  1.00  0.00    -0.211 NA
ATOM     89  C   UNL     1       0.594  -7.211  -0.459  1.00  0.00     0.095 A 
ATOM     90  C   UNL     1       0.351  -4.939  -0.447  1.00  0.00     0.165 A 
ATOM     91  N   UNL     1      -0.134  -6.137  -0.100  1.00  0.00    -0.226 NA
BRANCH  89  92
ATOM     92  C   UNL     1       0.074  -8.514  -0.035  1.00  0.00     0.089 A 
ATOM     93  C   UNL     1       0.651  -9.211   1.026  1.00  0.00     0.030 A 
ATOM     94  N   UNL     1      -0.982  -9.001  -0.739  1.00  0.00    -0.255 NA
ATOM     95  C   UNL     1       0.119 -10.445   1.391  1.00  0.00     0.004 A 
ATOM     96  C   UNL     1      -1.490 -10.189  -0.345  1.00  0.00     0.112 A 
ATOM     97  C   UNL     1      -0.976 -10.943   0.697  1.00  0.00     0.020 A 
ENDBRANCH  89  92
BRANCH  90  98
ATOM     98  C   UNL     1      -0.509  -3.787  -0.168  1.00  0.00     0.055 A 
ATOM     99  C   UNL     1      -0.881  -2.889  -1.185  1.00  0.00     0.015 A 
ATOM    100  C   UNL     1      -1.052  -3.577   1.107  1.00  0.00     0.134 A 
ATOM    101  C   UNL     1      -1.779  -1.843  -0.935  1.00  0.00     0.001 A 
ATOM    102  C   UNL     1      -1.942  -2.532   1.365  1.00  0.00     0.040 A 
ATOM    103  F   UNL     1      -0.703  -4.369   2.132  1.00  0.00    -0.206 F 
ATOM    104  C   UNL     1      -2.313  -1.667   0.340  1.00  0.00     0.003 A 
ENDBRANCH  90  98
ENDBRANCH  84  86
ENDBRANCH  78  80
ENDBRANCH  77  78
ENDBRANCH  76  77
ENDBRANCH  75  76
ENDBRANCH  74  75
ENDBRANCH   1  74
TORSDOF 20
