REMARK SMILES C[C@@H]1[C@@H](C(=O)OCCOCCOC(=O)c2ccc(-c3c4nc(c(-c5c(F)cc(S(=O)(=O)[O-])cc5F)c5ccc([nH]5)c(-c5c(F)cc(S(=O)(=O)[O-])cc5F)c5nc(c(-c6c(F)cc(S(=O)(=O)[O-])cc6F)c6ccc3[nH]6)C=C5)C=C4)cc2)CC[N@@H+]1CCCOCC(F)(F)F
REMARK SMILES IDX 7 1 6 2 4 3 5 4 3 5 1 6 2 7 83 8 81 9 82 10 84 12 85 13
REMARK SMILES IDX 86 14 87 15 88 16 89 17 90 18 91 19 92 20 8 21 9 22 10 23
REMARK SMILES IDX 11 24 12 25 13 26 14 27 15 28 16 29 80 30 17 31 79 32 18 33
REMARK SMILES IDX 19 34 20 35 73 36 21 37 78 38 72 39 74 40 22 41 77 42 71 43
REMARK SMILES IDX 70 44 23 46 57 47 36 48 56 49 37 50 40 51 55 52 75 53 38 54
REMARK SMILES IDX 39 55 54 57 76 58 41 59 24 60 25 61 34 62 26 63 27 64 33 65
REMARK SMILES IDX 35 66 28 67 29 68 30 69 31 70 32 71 58 72 59 73 68 74 60 75
REMARK SMILES IDX 61 76 67 77 69 78 62 79 63 80 64 81 65 82 66 83 42 84 43 85
REMARK SMILES IDX 52 86 44 87 45 88 51 89 53 90 46 91 47 92 48 93 49 94 50 95
REMARK H PARENT 83 11 74 45 40 56
REMARK Flexibility Score: inf
ROOT
ATOM      1  C   UNL     1      -1.792   1.312  -4.013  1.00  0.00     0.261 C 
ENDROOT
BRANCH   1   2
ATOM      2  O   UNL     1      -1.379   1.304  -2.642  1.00  0.00    -0.463 OA
BRANCH   2   3
ATOM      3  C   UNL     1      -0.268   0.569  -2.349  1.00  0.00     0.315 C 
ATOM      4  O   UNL     1       0.367  -0.094  -3.157  1.00  0.00    -0.252 OA
BRANCH   3   5
ATOM      5  C   UNL     1       0.138   0.820  -0.902  1.00  0.00     0.162 C 
ATOM      6  C   UNL     1       2.133   0.337   0.563  1.00  0.00     0.076 C 
ATOM      7  C   UNL     1       1.110  -0.266  -0.402  1.00  0.00     0.195 C 
ATOM      8  N   UNL     1       0.214  -1.262   0.183  1.00  0.00    -0.332 N 
ATOM      9  C   UNL     1      -1.063   0.649   0.015  1.00  0.00     0.083 C 
ATOM     10  C   UNL     1      -1.165  -0.856   0.055  1.00  0.00     0.263 C 
ATOM     11  H   UNL     1       0.379  -2.105  -0.368  1.00  0.00     0.348 HD
BRANCH   8  12
ATOM     12  C   UNL     1       0.628  -2.244   1.153  1.00  0.00     0.264 C 
BRANCH  12  13
ATOM     13  C   UNL     1       0.497  -1.889   2.644  1.00  0.00     0.090 C 
BRANCH  13  14
ATOM     14  C   UNL     1      -0.890  -1.614   3.242  1.00  0.00     0.166 C 
BRANCH  14  15
ATOM     15  O   UNL     1      -1.709  -2.772   3.411  1.00  0.00    -0.372 OA
BRANCH  15  16
ATOM     16  C   UNL     1      -2.528  -3.172   2.302  1.00  0.00     0.275 C 
BRANCH  16  17
ATOM     17  C   UNL     1      -3.757  -2.317   1.954  1.00  0.00     0.411 C 
ATOM     18  F   UNL     1      -3.595  -1.007   2.239  1.00  0.00    -0.168 F 
ATOM     19  F   UNL     1      -4.005  -2.402   0.621  1.00  0.00    -0.168 F 
ATOM     20  F   UNL     1      -4.863  -2.745   2.597  1.00  0.00    -0.168 F 
ENDBRANCH  16  17
ENDBRANCH  15  16
ENDBRANCH  14  15
ENDBRANCH  13  14
ENDBRANCH  12  13
ENDBRANCH   8  12
ENDBRANCH   3   5
ENDBRANCH   2   3
ENDBRANCH   1   2
BRANCH   1  21
ATOM     21  C   UNL     1      -1.385   2.621  -4.692  1.00  0.00     0.202 C 
BRANCH  21  22
ATOM     22  O   UNL     1       0.013   2.838  -4.889  1.00  0.00    -0.374 OA
BRANCH  22  23
ATOM     23  C   UNL     1       0.787   3.264  -3.770  1.00  0.00     0.202 C 
BRANCH  23  24
ATOM     24  C   UNL     1       0.724   4.743  -3.381  1.00  0.00     0.261 C 
BRANCH  24  25
ATOM     25  O   UNL     1      -0.596   5.153  -2.991  1.00  0.00    -0.460 OA
BRANCH  25  26
ATOM     26  C   UNL     1      -1.246   5.874  -3.933  1.00  0.00     0.338 C 
ATOM     27  O   UNL     1      -0.800   6.246  -5.013  1.00  0.00    -0.246 OA
BRANCH  26  28
ATOM     28  C   UNL     1      -2.666   6.027  -3.578  1.00  0.00     0.060 A 
ATOM     29  C   UNL     1      -3.608   5.678  -4.553  1.00  0.00     0.016 A 
ATOM     30  C   UNL     1      -3.068   6.591  -2.365  1.00  0.00     0.016 A 
ATOM     31  C   UNL     1      -4.955   5.959  -4.351  1.00  0.00     0.010 A 
ATOM     32  C   UNL     1      -4.422   6.882  -2.167  1.00  0.00     0.010 A 
ATOM     33  C   UNL     1      -5.360   6.611  -3.180  1.00  0.00    -0.014 A 
BRANCH  33  34
ATOM     34  C   UNL     1      -6.731   7.169  -3.108  1.00  0.00     0.031 A 
ATOM     35  C   UNL     1      -6.933   8.627  -3.420  1.00  0.00     0.074 A 
ATOM     36  C   UNL     1      -7.780   6.378  -2.827  1.00  0.00     0.049 A 
ATOM     37  N   UNL     1      -8.035   9.331  -3.413  1.00  0.00    -0.248 NA
ATOM     38  C   UNL     1      -5.732   9.394  -3.790  1.00  0.00     0.031 C 
ATOM     39  C   UNL     1      -7.707   4.943  -2.554  1.00  0.00     0.029 A 
ATOM     40  N   UNL     1      -9.115   6.673  -2.723  1.00  0.00    -0.354 N 
ATOM     41  C   UNL     1      -7.661  10.622  -3.771  1.00  0.00     0.074 A 
ATOM     42  C   UNL     1      -6.227  10.611  -3.959  1.00  0.00     0.031 C 
ATOM     43  C   UNL     1      -8.945   4.484  -2.304  1.00  0.00     0.029 A 
ATOM     44  C   UNL     1      -9.891   5.595  -2.370  1.00  0.00     0.049 A 
ATOM     45  H   UNL     1      -9.483   7.572  -2.885  1.00  0.00     0.167 HD
ATOM     46  C   UNL     1      -8.444  11.713  -3.937  1.00  0.00     0.037 A 
ATOM     47  C   UNL     1     -11.212   5.523  -2.113  1.00  0.00     0.037 A 
ATOM     48  C   UNL     1      -9.871  11.713  -3.751  1.00  0.00     0.049 A 
ATOM     49  C   UNL     1     -12.055   6.765  -2.243  1.00  0.00     0.074 A 
ATOM     50  C   UNL     1     -10.760  12.762  -3.906  1.00  0.00     0.029 A 
ATOM     51  N   UNL     1     -10.618  10.610  -3.364  1.00  0.00    -0.354 N 
ATOM     52  N   UNL     1     -11.691   7.976  -2.597  1.00  0.00    -0.248 NA
ATOM     53  C   UNL     1     -13.487   6.631  -1.943  1.00  0.00     0.031 C 
ATOM     54  C   UNL     1     -12.039  12.304  -3.568  1.00  0.00     0.029 A 
ATOM     55  C   UNL     1     -11.954  10.957  -3.252  1.00  0.00     0.049 A 
ATOM     56  H   UNL     1     -10.252   9.711  -3.194  1.00  0.00     0.167 HD
ATOM     57  C   UNL     1     -12.853   8.741  -2.587  1.00  0.00     0.074 A 
ATOM     58  C   UNL     1     -13.932   7.854  -2.202  1.00  0.00     0.031 C 
ATOM     59  C   UNL     1     -13.014  10.057  -2.873  1.00  0.00     0.037 A 
BRANCH  46  60
ATOM     60  C   UNL     1      -7.771  13.004  -4.314  1.00  0.00     0.058 A 
ATOM     61  C   UNL     1      -7.242  13.216  -5.597  1.00  0.00     0.135 A 
ATOM     62  C   UNL     1      -7.677  14.053  -3.385  1.00  0.00     0.135 A 
ATOM     63  F   UNL     1      -7.287  12.239  -6.517  1.00  0.00    -0.206 F 
ATOM     64  C   UNL     1      -6.624  14.414  -5.940  1.00  0.00     0.059 A 
ATOM     65  C   UNL     1      -7.085  15.269  -3.714  1.00  0.00     0.059 A 
ATOM     66  F   UNL     1      -8.161  13.902  -2.143  1.00  0.00    -0.206 F 
ATOM     67  C   UNL     1      -6.550  15.435  -4.990  1.00  0.00     0.060 A 
BRANCH  67  68
ATOM     68  S   UNL     1      -5.749  16.987  -5.451  1.00  0.00     0.124 S 
ATOM     69  O   UNL     1      -4.343  16.595  -5.465  1.00  0.00    -0.237 OA
ATOM     70  O   UNL     1      -6.341  17.270  -6.754  1.00  0.00    -0.237 OA
ATOM     71  O   UNL     1      -6.134  17.899  -4.379  1.00  0.00    -0.744 OA
ENDBRANCH  67  68
ENDBRANCH  46  60
BRANCH  47  72
ATOM     72  C   UNL     1     -11.816   4.231  -1.694  1.00  0.00     0.058 A 
ATOM     73  C   UNL     1     -12.690   3.529  -2.537  1.00  0.00     0.135 A 
ATOM     74  C   UNL     1     -11.527   3.670  -0.440  1.00  0.00     0.135 A 
ATOM     75  F   UNL     1     -13.005   4.029  -3.742  1.00  0.00    -0.206 F 
ATOM     76  C   UNL     1     -13.267   2.325  -2.148  1.00  0.00     0.059 A 
ATOM     77  C   UNL     1     -12.071   2.455  -0.038  1.00  0.00     0.059 A 
ATOM     78  F   UNL     1     -10.688   4.296   0.400  1.00  0.00    -0.206 F 
ATOM     79  C   UNL     1     -12.949   1.794  -0.896  1.00  0.00     0.060 A 
BRANCH  79  80
ATOM     80  S   UNL     1     -13.667   0.207  -0.419  1.00  0.00     0.124 S 
ATOM     81  O   UNL     1     -15.047   0.582  -0.136  1.00  0.00    -0.237 OA
ATOM     82  O   UNL     1     -13.457  -0.598  -1.619  1.00  0.00    -0.237 OA
ATOM     83  O   UNL     1     -12.869  -0.187   0.738  1.00  0.00    -0.744 OA
ENDBRANCH  79  80
ENDBRANCH  47  72
BRANCH  59  84
ATOM     84  C   UNL     1     -14.411  10.612  -2.816  1.00  0.00     0.058 A 
ATOM     85  C   UNL     1     -15.064  10.841  -1.595  1.00  0.00     0.135 A 
ATOM     86  C   UNL     1     -15.081  10.971  -3.997  1.00  0.00     0.135 A 
ATOM     87  F   UNL     1     -14.469  10.511  -0.438  1.00  0.00    -0.206 F 
ATOM     88  C   UNL     1     -16.344  11.385  -1.548  1.00  0.00     0.059 A 
ATOM     89  C   UNL     1     -16.350  11.541  -3.972  1.00  0.00     0.059 A 
ATOM     90  F   UNL     1     -14.495  10.784  -5.190  1.00  0.00    -0.206 F 
ATOM     91  C   UNL     1     -16.978  11.732  -2.742  1.00  0.00     0.060 A 
BRANCH  91  92
ATOM     92  S   UNL     1     -18.626  12.467  -2.666  1.00  0.00     0.124 S 
ATOM     93  O   UNL     1     -19.451  11.306  -2.351  1.00  0.00    -0.237 OA
ATOM     94  O   UNL     1     -18.481  13.451  -1.598  1.00  0.00    -0.237 OA
ATOM     95  O   UNL     1     -18.811  13.025  -4.003  1.00  0.00    -0.744 OA
ENDBRANCH  91  92
ENDBRANCH  59  84
ENDBRANCH  33  34
ENDBRANCH  26  28
ENDBRANCH  25  26
ENDBRANCH  24  25
ENDBRANCH  23  24
ENDBRANCH  22  23
ENDBRANCH  21  22
ENDBRANCH   1  21
TORSDOF 23
