REMARK SMILES C[C@H]1N=N[C@H](S/C(=C/c2ccc(-c3cccc(Cl)c3)o2)C(=O)OCCOCCOC(=O)c2ccc(-c3c4nc(c(-c5c(F)cc(S(=O)(=O)[O-])cc5F)c5ccc([nH]5)c(-c5c(F)cc(S(=O)(=O)[O-])cc5F)c5nc(c(-c6c(F)cc(S(=O)(=O)[O-])cc6F)c6ccc3[nH]6)C=C5)C=C4)cc2)[NH2+]1
REMARK SMILES IDX 27 1 26 2 25 3 24 4 23 5 21 6 22 7 7 8 8 9 6 10 5 11 1 12
REMARK SMILES IDX 2 13 3 14 98 15 4 16 9 19 10 20 20 21 11 22 12 23 13 24
REMARK SMILES IDX 14 25 19 26 15 27 17 28 16 29 18 30 28 31 29 32 30 33 31 34
REMARK SMILES IDX 32 35 33 36 97 37 34 38 96 39 35 40 36 41 37 42 90 43 38 44
REMARK SMILES IDX 95 45 89 46 91 47 39 48 94 49 88 50 87 51 40 53 74 54 53 55
REMARK SMILES IDX 73 56 54 57 57 58 72 59 92 60 55 61 56 62 71 64 93 65 58 66
REMARK SMILES IDX 41 67 42 68 51 69 43 70 44 71 50 72 52 73 45 74 46 75 47 76
REMARK SMILES IDX 48 77 49 78 75 79 76 80 85 81 77 82 78 83 84 84 86 85 79 86
REMARK SMILES IDX 80 87 81 88 82 89 83 90 59 91 60 92 69 93 61 94 62 95 68 96
REMARK SMILES IDX 70 97 63 98 64 99 65 100 66 101 67 102
REMARK H PARENT 98 17 98 18 91 52 57 63
REMARK Flexibility Score: inf
ROOT
ATOM      1  C   UNL     1      -2.053   7.223  -4.438  1.00  0.00     0.202 C 
ENDROOT
BRANCH   1   2
ATOM      2  O   UNL     1      -3.436   7.562  -4.528  1.00  0.00    -0.374 OA
BRANCH   2   3
ATOM      3  C   UNL     1      -4.034   8.200  -3.393  1.00  0.00     0.202 C 
BRANCH   3   4
ATOM      4  C   UNL     1      -4.178   7.321  -2.146  1.00  0.00     0.261 C 
BRANCH   4   5
ATOM      5  O   UNL     1      -2.880   7.152  -1.557  1.00  0.00    -0.459 OA
BRANCH   5   6
ATOM      6  C   UNL     1      -2.616   5.949  -0.991  1.00  0.00     0.345 C 
ATOM      7  O   UNL     1      -3.431   5.074  -0.737  1.00  0.00    -0.246 OA
BRANCH   6   8
ATOM      8  C   UNL     1      -1.132   5.792  -0.892  1.00  0.00     0.104 C 
ATOM      9  C   UNL     1      -0.326   6.688  -0.292  1.00  0.00     0.070 C 
BRANCH   8  10
ATOM     10  S   UNL     1      -0.537   4.461  -1.854  1.00  0.00    -0.028 SA
BRANCH  10  11
ATOM     11  C   UNL     1       0.770   3.727  -0.829  1.00  0.00     0.393 C 
ATOM     12  C   UNL     1       1.132   0.266  -0.097  1.00  0.00     0.106 C 
ATOM     13  C   UNL     1       0.404   1.578  -0.348  1.00  0.00     0.324 C 
ATOM     14  N   UNL     1       0.352   2.364   0.895  1.00  0.00    -0.126 NA
ATOM     15  N   UNL     1       1.082   2.393  -1.356  1.00  0.00    -0.293 N 
ATOM     16  N   UNL     1       0.519   3.577   0.617  1.00  0.00    -0.115 NA
ATOM     17  H   UNL     1       0.693   2.250  -2.287  1.00  0.00     0.350 HD
ATOM     18  H   UNL     1       2.075   2.194  -1.482  1.00  0.00     0.350 HD
ENDBRANCH  10  11
ENDBRANCH   8  10
BRANCH   9  19
ATOM     19  C   UNL     1      -0.764   7.830   0.442  1.00  0.00     0.128 A 
ATOM     20  C   UNL     1      -1.920   8.065   1.180  1.00  0.00     0.051 A 
ATOM     21  O   UNL     1       0.015   8.967   0.539  1.00  0.00    -0.457 OA
ATOM     22  C   UNL     1      -1.858   9.379   1.692  1.00  0.00     0.051 A 
ATOM     23  C   UNL     1      -0.647   9.892   1.290  1.00  0.00     0.134 A 
BRANCH  23  24
ATOM     24  C   UNL     1       0.027  11.160   1.532  1.00  0.00     0.019 A 
ATOM     25  C   UNL     1      -0.216  11.861   2.724  1.00  0.00     0.012 A 
ATOM     26  C   UNL     1       0.895  11.721   0.588  1.00  0.00     0.032 A 
ATOM     27  C   UNL     1       0.381  13.100   2.963  1.00  0.00     0.002 A 
ATOM     28  C   UNL     1       1.480  12.966   0.826  1.00  0.00     0.041 A 
ATOM     29  C   UNL     1       1.225  13.659   2.007  1.00  0.00     0.020 A 
ATOM     30  Cl  UNL     1       2.511  13.663  -0.364  1.00  0.00    -0.084 Cl
ENDBRANCH  23  24
ENDBRANCH   9  19
ENDBRANCH   6   8
ENDBRANCH   5   6
ENDBRANCH   4   5
ENDBRANCH   3   4
ENDBRANCH   2   3
ENDBRANCH   1   2
BRANCH   1  31
ATOM     31  C   UNL     1      -1.043   8.347  -4.700  1.00  0.00     0.261 C 
BRANCH  31  32
ATOM     32  O   UNL     1      -1.205   9.483  -3.837  1.00  0.00    -0.460 OA
BRANCH  32  33
ATOM     33  C   UNL     1      -1.780  10.556  -4.431  1.00  0.00     0.338 C 
ATOM     34  O   UNL     1      -2.145  10.647  -5.597  1.00  0.00    -0.246 OA
BRANCH  33  35
ATOM     35  C   UNL     1      -2.047  11.614  -3.442  1.00  0.00     0.060 A 
ATOM     36  C   UNL     1      -3.358  12.092  -3.338  1.00  0.00     0.016 A 
ATOM     37  C   UNL     1      -1.016  12.208  -2.710  1.00  0.00     0.016 A 
ATOM     38  C   UNL     1      -3.639  13.190  -2.525  1.00  0.00     0.010 A 
ATOM     39  C   UNL     1      -1.301  13.314  -1.901  1.00  0.00     0.010 A 
ATOM     40  C   UNL     1      -2.607  13.828  -1.823  1.00  0.00    -0.014 A 
BRANCH  40  41
ATOM     41  C   UNL     1      -2.879  15.100  -1.106  1.00  0.00     0.031 A 
ATOM     42  C   UNL     1      -2.470  16.406  -1.734  1.00  0.00     0.074 A 
ATOM     43  C   UNL     1      -3.520  15.092   0.078  1.00  0.00     0.049 A 
ATOM     44  N   UNL     1      -2.614  17.625  -1.280  1.00  0.00    -0.248 NA
ATOM     45  C   UNL     1      -1.810  16.329  -3.049  1.00  0.00     0.031 C 
ATOM     46  C   UNL     1      -3.982  13.896   0.782  1.00  0.00     0.029 A 
ATOM     47  N   UNL     1      -3.896  16.128   0.896  1.00  0.00    -0.354 N 
ATOM     48  C   UNL     1      -2.072  18.459  -2.251  1.00  0.00     0.074 A 
ATOM     49  C   UNL     1      -1.560  17.606  -3.303  1.00  0.00     0.031 C 
ATOM     50  C   UNL     1      -4.583  14.267   1.926  1.00  0.00     0.029 A 
ATOM     51  C   UNL     1      -4.525  15.723   2.049  1.00  0.00     0.049 A 
ATOM     52  H   UNL     1      -3.731  17.074   0.677  1.00  0.00     0.167 HD
ATOM     53  C   UNL     1      -2.019  19.812  -2.275  1.00  0.00     0.037 A 
ATOM     54  C   UNL     1      -4.990  16.443   3.089  1.00  0.00     0.037 A 
ATOM     55  C   UNL     1      -2.531  20.663  -1.231  1.00  0.00     0.049 A 
ATOM     56  C   UNL     1      -4.873  17.946   3.061  1.00  0.00     0.074 A 
ATOM     57  C   UNL     1      -2.523  22.046  -1.166  1.00  0.00     0.029 A 
ATOM     58  N   UNL     1      -3.145  20.213  -0.073  1.00  0.00    -0.354 N 
ATOM     59  N   UNL     1      -4.372  18.718   2.127  1.00  0.00    -0.248 NA
ATOM     60  C   UNL     1      -5.390  18.676   4.229  1.00  0.00     0.031 C 
ATOM     61  C   UNL     1      -3.102  22.431   0.048  1.00  0.00     0.029 A 
ATOM     62  C   UNL     1      -3.508  21.290   0.719  1.00  0.00     0.049 A 
ATOM     63  H   UNL     1      -3.299  19.267   0.154  1.00  0.00     0.167 HD
ATOM     64  C   UNL     1      -4.539  20.023   2.582  1.00  0.00     0.074 A 
ATOM     65  C   UNL     1      -5.199  19.937   3.868  1.00  0.00     0.031 C 
ATOM     66  C   UNL     1      -4.177  21.188   1.990  1.00  0.00     0.037 A 
BRANCH  53  67
ATOM     67  C   UNL     1      -1.389  20.467  -3.471  1.00  0.00     0.058 A 
ATOM     68  C   UNL     1      -2.052  20.524  -4.707  1.00  0.00     0.135 A 
ATOM     69  C   UNL     1      -0.140  21.100  -3.367  1.00  0.00     0.135 A 
ATOM     70  F   UNL     1      -3.241  19.921  -4.864  1.00  0.00    -0.206 F 
ATOM     71  C   UNL     1      -1.495  21.178  -5.801  1.00  0.00     0.059 A 
ATOM     72  C   UNL     1       0.427  21.778  -4.442  1.00  0.00     0.059 A 
ATOM     73  F   UNL     1       0.537  21.072  -2.208  1.00  0.00    -0.206 F 
ATOM     74  C   UNL     1      -0.257  21.806  -5.658  1.00  0.00     0.060 A 
BRANCH  74  75
ATOM     75  S   UNL     1       0.436  22.680  -7.078  1.00  0.00     0.124 S 
ATOM     76  O   UNL     1       0.849  21.570  -7.931  1.00  0.00    -0.237 OA
ATOM     77  O   UNL     1      -0.705  23.455  -7.555  1.00  0.00    -0.237 OA
ATOM     78  O   UNL     1       1.523  23.463  -6.498  1.00  0.00    -0.744 OA
ENDBRANCH  74  75
ENDBRANCH  53  67
BRANCH  54  79
ATOM     79  C   UNL     1      -5.600  15.762   4.262  1.00  0.00     0.058 A 
ATOM     80  C   UNL     1      -6.968  15.891   4.546  1.00  0.00     0.135 A 
ATOM     81  C   UNL     1      -4.817  15.005   5.147  1.00  0.00     0.135 A 
ATOM     82  F   UNL     1      -7.757  16.612   3.734  1.00  0.00    -0.206 F 
ATOM     83  C   UNL     1      -7.533  15.323   5.684  1.00  0.00     0.059 A 
ATOM     84  C   UNL     1      -5.363  14.406   6.277  1.00  0.00     0.059 A 
ATOM     85  F   UNL     1      -3.506  14.838   4.912  1.00  0.00    -0.206 F 
ATOM     86  C   UNL     1      -6.719  14.587   6.547  1.00  0.00     0.060 A 
BRANCH  86  87
ATOM     87  S   UNL     1      -7.456  13.842   8.018  1.00  0.00     0.124 S 
ATOM     88  O   UNL     1      -7.574  14.996   8.901  1.00  0.00    -0.237 OA
ATOM     89  O   UNL     1      -8.708  13.302   7.497  1.00  0.00    -0.237 OA
ATOM     90  O   UNL     1      -6.467  12.842   8.412  1.00  0.00    -0.744 OA
ENDBRANCH  86  87
ENDBRANCH  54  79
BRANCH  66  91
ATOM     91  C   UNL     1      -4.519  22.465   2.708  1.00  0.00     0.058 A 
ATOM     92  C   UNL     1      -3.818  22.878   3.851  1.00  0.00     0.135 A 
ATOM     93  C   UNL     1      -5.536  23.303   2.222  1.00  0.00     0.135 A 
ATOM     94  F   UNL     1      -2.841  22.111   4.358  1.00  0.00    -0.206 F 
ATOM     95  C   UNL     1      -4.132  24.065   4.505  1.00  0.00     0.059 A 
ATOM     96  C   UNL     1      -5.850  24.507   2.846  1.00  0.00     0.059 A 
ATOM     97  F   UNL     1      -6.230  22.960   1.125  1.00  0.00    -0.206 F 
ATOM     98  C   UNL     1      -5.152  24.872   3.996  1.00  0.00     0.060 A 
BRANCH  98  99
ATOM     99  S   UNL     1      -5.537  26.421   4.841  1.00  0.00     0.124 S 
ATOM    100  O   UNL     1      -6.286  25.944   6.000  1.00  0.00    -0.237 OA
ATOM    101  O   UNL     1      -4.212  26.964   5.123  1.00  0.00    -0.237 OA
ATOM    102  O   UNL     1      -6.314  27.162   3.852  1.00  0.00    -0.744 OA
ENDBRANCH  98  99
ENDBRANCH  66  91
ENDBRANCH  40  41
ENDBRANCH  33  35
ENDBRANCH  32  33
ENDBRANCH  31  32
ENDBRANCH   1  31
TORSDOF 21
