REMARK SMILES CCc1sc(NC(=O)[C@H]2CC(C)=C(C)C[C@H]2C(=O)OCCOCCOC(=O)c2ccc(-c3c4nc(c(-c5c(F)cc(S(=O)(=O)[O-])cc5F)c5ccc([nH]5)c(-c5c(F)cc(S(=O)(=O)[O-])cc5F)c5nc(c(-c6c(F)cc(S(=O)(=O)[O-])cc6F)c6ccc3[nH]6)C=C5)C=C4)cc2)nc1-c1ccccc1
REMARK SMILES IDX 22 1 21 2 20 3 19 4 17 5 18 6 16 7 9 8 10 9 11 10 15 11
REMARK SMILES IDX 12 12 13 13 14 14 7 15 6 16 8 18 5 19 3 20 4 21 95 22 94 23
REMARK SMILES IDX 2 24 1 25 96 26 97 27 101 28 98 29 100 30 99 31 23 32 24 33
REMARK SMILES IDX 25 34 26 35 27 36 28 37 29 38 93 39 30 40 92 41 31 42 32 43
REMARK SMILES IDX 33 44 86 45 34 46 91 47 85 48 87 49 35 50 90 51 84 52 83 53
REMARK SMILES IDX 36 55 70 56 49 57 69 58 50 59 53 60 68 61 88 62 51 63 52 64
REMARK SMILES IDX 67 66 89 67 54 68 37 69 38 70 47 71 39 72 40 73 46 74 48 75
REMARK SMILES IDX 41 76 42 77 43 78 44 79 45 80 71 81 72 82 81 83 73 84 74 85
REMARK SMILES IDX 80 86 82 87 75 88 76 89 77 90 78 91 79 92 55 93 56 94 65 95
REMARK SMILES IDX 57 96 58 97 64 98 66 99 59 100 60 101 61 102 62 103 63 104
REMARK H PARENT 6 17 87 54 53 65
REMARK Flexibility Score: inf
ROOT
ATOM      1  O   UNL     1       3.220   7.484   1.749  1.00  0.00    -0.374 OA
ENDROOT
BRANCH   1   2
ATOM      2  C   UNL     1       2.867   6.410   0.872  1.00  0.00     0.202 C 
BRANCH   2   3
ATOM      3  C   UNL     1       4.065   5.545   0.436  1.00  0.00     0.261 C 
BRANCH   3   4
ATOM      4  O   UNL     1       4.396   4.494   1.379  1.00  0.00    -0.463 OA
BRANCH   4   5
ATOM      5  C   UNL     1       5.631   4.436   1.923  1.00  0.00     0.310 C 
ATOM      6  O   UNL     1       6.493   5.294   1.781  1.00  0.00    -0.252 OA
BRANCH   5   7
ATOM      7  C   UNL     1       5.880   3.127   2.684  1.00  0.00     0.116 C 
ATOM      8  C   UNL     1       5.198   2.960   4.053  1.00  0.00     0.097 C 
ATOM      9  C   UNL     1       4.999   1.530   4.570  1.00  0.00     0.045 C 
ATOM     10  C   UNL     1       4.957   0.422   3.550  1.00  0.00    -0.074 C 
ATOM     11  C   UNL     1       5.816   1.928   1.726  1.00  0.00     0.046 C 
ATOM     12  C   UNL     1       4.394  -0.875   4.092  1.00  0.00     0.039 C 
ATOM     13  C   UNL     1       5.340   0.603   2.271  1.00  0.00    -0.073 C 
ATOM     14  C   UNL     1       5.325  -0.506   1.246  1.00  0.00     0.039 C 
BRANCH   8  15
ATOM     15  C   UNL     1       4.027   3.869   4.418  1.00  0.00     0.230 C 
ATOM     16  N   UNL     1       2.759   3.731   3.957  1.00  0.00    -0.302 N 
ATOM     17  H   UNL     1       2.050   4.204   4.449  1.00  0.00     0.172 HD
ATOM     18  O   UNL     1       4.235   4.805   5.206  1.00  0.00    -0.274 OA
BRANCH  16  19
ATOM     19  C   UNL     1       2.377   2.999   2.877  1.00  0.00     0.190 A 
ATOM     20  C   UNL     1       1.398   1.294   1.480  1.00  0.00     0.034 A 
ATOM     21  S   UNL     1       1.869   1.411   3.139  1.00  0.00    -0.101 S 
ATOM     22  C   UNL     1       1.476   2.564   0.917  1.00  0.00     0.087 A 
ATOM     23  N   UNL     1       1.977   3.533   1.759  1.00  0.00    -0.220 NA
BRANCH  20  24
ATOM     24  C   UNL     1       0.836  -0.013   1.012  1.00  0.00     0.046 C 
ATOM     25  C   UNL     1       1.179  -0.366  -0.421  1.00  0.00     0.010 C 
ENDBRANCH  20  24
BRANCH  22  26
ATOM     26  C   UNL     1       0.745   3.005  -0.257  1.00  0.00     0.001 A 
ATOM     27  C   UNL     1      -0.628   3.073  -0.107  1.00  0.00     0.010 A 
ATOM     28  C   UNL     1       1.297   3.505  -1.433  1.00  0.00     0.010 A 
ATOM     29  C   UNL     1      -1.460   3.547  -1.118  1.00  0.00     0.001 A 
ATOM     30  C   UNL     1       0.458   4.017  -2.443  1.00  0.00     0.001 A 
ATOM     31  C   UNL     1      -0.923   4.025  -2.290  1.00  0.00     0.000 A 
ENDBRANCH  22  26
ENDBRANCH  16  19
ENDBRANCH   8  15
ENDBRANCH   5   7
ENDBRANCH   4   5
ENDBRANCH   3   4
ENDBRANCH   2   3
ENDBRANCH   1   2
BRANCH   1  32
ATOM     32  C   UNL     1       3.392   7.094   3.108  1.00  0.00     0.202 C 
BRANCH  32  33
ATOM     33  C   UNL     1       2.117   7.175   3.966  1.00  0.00     0.261 C 
BRANCH  33  34
ATOM     34  O   UNL     1       1.089   6.213   3.601  1.00  0.00    -0.460 OA
BRANCH  34  35
ATOM     35  C   UNL     1      -0.018   6.749   3.019  1.00  0.00     0.338 C 
ATOM     36  O   UNL     1      -0.175   7.945   2.772  1.00  0.00    -0.246 OA
BRANCH  35  37
ATOM     37  C   UNL     1      -1.060   5.748   2.634  1.00  0.00     0.060 A 
ATOM     38  C   UNL     1      -1.842   6.052   1.514  1.00  0.00     0.016 A 
ATOM     39  C   UNL     1      -1.372   4.592   3.366  1.00  0.00     0.016 A 
ATOM     40  C   UNL     1      -2.895   5.210   1.121  1.00  0.00     0.010 A 
ATOM     41  C   UNL     1      -2.430   3.733   2.958  1.00  0.00     0.010 A 
ATOM     42  C   UNL     1      -3.190   4.013   1.809  1.00  0.00    -0.014 A 
BRANCH  42  43
ATOM     43  C   UNL     1      -4.401   3.227   1.362  1.00  0.00     0.031 A 
ATOM     44  C   UNL     1      -5.726   3.749   1.810  1.00  0.00     0.074 A 
ATOM     45  C   UNL     1      -4.390   2.164   0.519  1.00  0.00     0.049 A 
ATOM     46  N   UNL     1      -6.920   3.326   1.502  1.00  0.00    -0.248 NA
ATOM     47  C   UNL     1      -5.690   4.818   2.818  1.00  0.00     0.031 C 
ATOM     48  C   UNL     1      -3.225   1.374   0.174  1.00  0.00     0.029 A 
ATOM     49  N   UNL     1      -5.367   1.608  -0.288  1.00  0.00    -0.354 N 
ATOM     50  C   UNL     1      -7.779   4.021   2.337  1.00  0.00     0.074 A 
ATOM     51  C   UNL     1      -6.966   4.895   3.155  1.00  0.00     0.031 C 
ATOM     52  C   UNL     1      -3.450   0.678  -0.951  1.00  0.00     0.029 A 
ATOM     53  C   UNL     1      -4.865   0.766  -1.276  1.00  0.00     0.049 A 
ATOM     54  H   UNL     1      -6.328   1.792  -0.175  1.00  0.00     0.167 HD
ATOM     55  C   UNL     1      -9.122   3.902   2.434  1.00  0.00     0.037 A 
ATOM     56  C   UNL     1      -5.471   0.091  -2.283  1.00  0.00     0.037 A 
ATOM     57  C   UNL     1      -9.895   2.986   1.639  1.00  0.00     0.049 A 
ATOM     58  C   UNL     1      -6.974   0.034  -2.222  1.00  0.00     0.074 A 
ATOM     59  C   UNL     1     -11.257   2.757   1.665  1.00  0.00     0.029 A 
ATOM     60  N   UNL     1      -9.364   2.137   0.671  1.00  0.00    -0.354 N 
ATOM     61  N   UNL     1      -7.776   0.667  -1.397  1.00  0.00    -0.248 NA
ATOM     62  C   UNL     1      -7.653  -0.910  -3.119  1.00  0.00     0.031 C 
ATOM     63  C   UNL     1     -11.546   1.753   0.733  1.00  0.00     0.029 A 
ATOM     64  C   UNL     1     -10.374   1.395   0.082  1.00  0.00     0.049 A 
ATOM     65  H   UNL     1      -8.409   2.074   0.439  1.00  0.00     0.167 HD
ATOM     66  C   UNL     1      -9.045   0.168  -1.639  1.00  0.00     0.074 A 
ATOM     67  C   UNL     1      -8.915  -0.788  -2.725  1.00  0.00     0.031 C 
ATOM     68  C   UNL     1     -10.206   0.453  -1.000  1.00  0.00     0.037 A 
BRANCH  55  69
ATOM     69  C   UNL     1      -9.773   4.740   3.497  1.00  0.00     0.058 A 
ATOM     70  C   UNL     1      -9.780   6.144   3.423  1.00  0.00     0.135 A 
ATOM     71  C   UNL     1     -10.270   4.144   4.667  1.00  0.00     0.135 A 
ATOM     72  F   UNL     1      -9.278   6.766   2.343  1.00  0.00    -0.206 F 
ATOM     73  C   UNL     1     -10.183   6.926   4.498  1.00  0.00     0.059 A 
ATOM     74  C   UNL     1     -10.718   4.908   5.740  1.00  0.00     0.059 A 
ATOM     75  F   UNL     1     -10.276   2.808   4.798  1.00  0.00    -0.206 F 
ATOM     76  C   UNL     1     -10.639   6.298   5.658  1.00  0.00     0.060 A 
BRANCH  76  77
ATOM     77  S   UNL     1     -11.104   7.326   7.066  1.00  0.00     0.124 S 
ATOM     78  O   UNL     1      -9.798   7.745   7.564  1.00  0.00    -0.237 OA
ATOM     79  O   UNL     1     -11.907   8.370   6.437  1.00  0.00    -0.237 OA
ATOM     80  O   UNL     1     -11.840   6.406   7.927  1.00  0.00    -0.744 OA
ENDBRANCH  76  77
ENDBRANCH  55  69
BRANCH  56  81
ATOM     81  C   UNL     1      -4.708  -0.689  -3.322  1.00  0.00     0.058 A 
ATOM     82  C   UNL     1      -4.815  -0.399  -4.698  1.00  0.00     0.135 A 
ATOM     83  C   UNL     1      -3.842  -1.740  -2.975  1.00  0.00     0.135 A 
ATOM     84  F   UNL     1      -5.668   0.547  -5.119  1.00  0.00    -0.206 F 
ATOM     85  C   UNL     1      -4.065  -1.079  -5.666  1.00  0.00     0.059 A 
ATOM     86  C   UNL     1      -3.052  -2.402  -3.915  1.00  0.00     0.059 A 
ATOM     87  F   UNL     1      -3.728  -2.121  -1.694  1.00  0.00    -0.206 F 
ATOM     88  C   UNL     1      -3.164  -2.063  -5.260  1.00  0.00     0.060 A 
BRANCH  88  89
ATOM     89  S   UNL     1      -2.089  -2.850  -6.488  1.00  0.00     0.124 S 
ATOM     90  O   UNL     1      -3.023  -3.725  -7.187  1.00  0.00    -0.237 OA
ATOM     91  O   UNL     1      -1.596  -1.705  -7.246  1.00  0.00    -0.237 OA
ATOM     92  O   UNL     1      -1.086  -3.525  -5.669  1.00  0.00    -0.744 OA
ENDBRANCH  88  89
ENDBRANCH  56  81
BRANCH  68  93
ATOM     93  C   UNL     1     -11.437  -0.228  -1.519  1.00  0.00     0.058 A 
ATOM     94  C   UNL     1     -11.721  -1.574  -1.247  1.00  0.00     0.135 A 
ATOM     95  C   UNL     1     -12.360   0.507  -2.278  1.00  0.00     0.135 A 
ATOM     96  F   UNL     1     -10.859  -2.319  -0.537  1.00  0.00    -0.206 F 
ATOM     97  C   UNL     1     -12.878  -2.176  -1.729  1.00  0.00     0.059 A 
ATOM     98  C   UNL     1     -13.532  -0.067  -2.748  1.00  0.00     0.059 A 
ATOM     99  F   UNL     1     -12.127   1.799  -2.559  1.00  0.00    -0.206 F 
ATOM    100  C   UNL     1     -13.777  -1.413  -2.478  1.00  0.00     0.060 A 
BRANCH 100 101
ATOM    101  S   UNL     1     -15.288  -2.192  -3.080  1.00  0.00     0.124 S 
ATOM    102  O   UNL     1     -14.776  -3.021  -4.166  1.00  0.00    -0.237 OA
ATOM    103  O   UNL     1     -15.760  -2.910  -1.900  1.00  0.00    -0.237 OA
ATOM    104  O   UNL     1     -16.114  -1.060  -3.488  1.00  0.00    -0.744 OA
ENDBRANCH 100 101
ENDBRANCH  68  93
ENDBRANCH  42  43
ENDBRANCH  35  37
ENDBRANCH  34  35
ENDBRANCH  33  34
ENDBRANCH  32  33
ENDBRANCH   1  32
TORSDOF 21
