REMARK SMILES Cc1cc(=O)n2nc(C)c(C(=O)OCCOCCOC(=O)c3ccc(-c4c5nc(c(-c6c(F)cc(S(=O)(=O)[O-])cc6F)c6ccc([nH]6)c(-c6c(F)cc(S(=O)(=O)[O-])cc6F)c6nc(c(-c7c(F)cc(S(=O)(=O)[O-])cc7F)c7ccc4[nH]7)C=C6)C=C5)cc3)c2[nH]1
REMARK SMILES IDX 17 1 16 2 15 3 14 4 13 5 11 6 12 7 10 8 1 9 2 10 3 11 89 12
REMARK SMILES IDX 4 13 88 14 5 16 6 17 7 18 8 19 9 20 18 21 19 22 20 23 21 24
REMARK SMILES IDX 22 25 23 26 87 27 24 28 86 29 25 30 26 31 27 32 80 33 28 34
REMARK SMILES IDX 85 35 79 36 81 37 29 38 84 39 78 40 77 41 30 43 64 44 43 45
REMARK SMILES IDX 63 46 44 47 47 48 62 49 82 50 45 51 46 52 61 54 83 55 48 56
REMARK SMILES IDX 31 57 32 58 41 59 33 60 34 61 40 62 42 63 35 64 36 65 37 66
REMARK SMILES IDX 38 67 39 68 65 69 66 70 75 71 67 72 68 73 74 74 76 75 69 76
REMARK SMILES IDX 70 77 71 78 72 79 73 80 49 81 50 82 59 83 51 84 52 85 58 86
REMARK SMILES IDX 60 87 53 88 54 89 55 90 56 91 57 92
REMARK H PARENT 89 15 81 42 47 53
REMARK Flexibility Score: inf
ROOT
ATOM      1  C   UNL     1      -0.734   5.033  -1.527  1.00  0.00     0.202 C 
ENDROOT
BRANCH   1   2
ATOM      2  O   UNL     1       0.052   6.219  -1.586  1.00  0.00    -0.374 OA
BRANCH   2   3
ATOM      3  C   UNL     1       0.188   6.944  -2.808  1.00  0.00     0.202 C 
BRANCH   3   4
ATOM      4  C   UNL     1       1.081   6.362  -3.906  1.00  0.00     0.261 C 
BRANCH   4   5
ATOM      5  O   UNL     1       0.566   5.132  -4.439  1.00  0.00    -0.459 OA
BRANCH   5   6
ATOM      6  C   UNL     1       1.172   4.010  -3.958  1.00  0.00     0.343 C 
ATOM      7  O   UNL     1       2.147   4.011  -3.217  1.00  0.00    -0.246 OA
BRANCH   6   8
ATOM      8  C   UNL     1       0.447   2.799  -4.274  1.00  0.00     0.125 A 
ATOM      9  C   UNL     1       0.981   0.101  -0.125  1.00  0.00     0.064 C 
ATOM     10  C   UNL     1       0.553   0.240  -1.560  1.00  0.00     0.019 A 
ATOM     11  C   UNL     1      -0.069  -0.763  -2.210  1.00  0.00     0.095 A 
ATOM     12  N   UNL     1       0.806   1.450  -2.182  1.00  0.00    -0.343 N 
ATOM     13  C   UNL     1      -0.550  -0.567  -3.608  1.00  0.00     0.274 A 
ATOM     14  C   UNL     1       0.373   1.705  -3.441  1.00  0.00     0.152 A 
ATOM     15  H   UNL     1       1.313   2.143  -1.698  1.00  0.00     0.168 HD
ATOM     16  O   UNL     1      -1.091  -1.447  -4.264  1.00  0.00    -0.267 OA
ATOM     17  N   UNL     1      -0.331   0.728  -4.109  1.00  0.00    -0.179 N 
ATOM     18  N   UNL     1      -0.815   1.177  -5.296  1.00  0.00    -0.168 NA
ATOM     19  C   UNL     1      -0.397   2.451  -5.364  1.00  0.00     0.077 A 
ATOM     20  C   UNL     1      -0.839   3.306  -6.497  1.00  0.00     0.070 C 
ENDBRANCH   6   8
ENDBRANCH   5   6
ENDBRANCH   4   5
ENDBRANCH   3   4
ENDBRANCH   2   3
ENDBRANCH   1   2
BRANCH   1  21
ATOM     21  C   UNL     1      -2.244   5.123  -1.682  1.00  0.00     0.261 C 
BRANCH  21  22
ATOM     22  O   UNL     1      -2.605   5.691  -2.927  1.00  0.00    -0.460 OA
BRANCH  22  23
ATOM     23  C   UNL     1      -2.951   6.998  -2.841  1.00  0.00     0.338 C 
ATOM     24  O   UNL     1      -2.742   7.754  -1.916  1.00  0.00    -0.246 OA
BRANCH  23  25
ATOM     25  C   UNL     1      -3.771   7.325  -4.012  1.00  0.00     0.060 A 
ATOM     26  C   UNL     1      -4.434   8.548  -3.935  1.00  0.00     0.016 A 
ATOM     27  C   UNL     1      -4.173   6.296  -4.877  1.00  0.00     0.016 A 
ATOM     28  C   UNL     1      -5.690   8.616  -4.480  1.00  0.00     0.010 A 
ATOM     29  C   UNL     1      -5.431   6.363  -5.412  1.00  0.00     0.010 A 
ATOM     30  C   UNL     1      -6.207   7.475  -5.105  1.00  0.00    -0.014 A 
BRANCH  30  31
ATOM     31  C   UNL     1      -7.579   7.515  -5.543  1.00  0.00     0.031 A 
ATOM     32  C   UNL     1      -7.727   8.380  -6.729  1.00  0.00     0.074 A 
ATOM     33  C   UNL     1      -8.550   6.791  -4.957  1.00  0.00     0.049 A 
ATOM     34  N   UNL     1      -8.217   9.572  -6.763  1.00  0.00    -0.248 NA
ATOM     35  C   UNL     1      -6.999   7.993  -7.950  1.00  0.00     0.031 C 
ATOM     36  C   UNL     1      -8.438   5.751  -3.932  1.00  0.00     0.029 A 
ATOM     37  N   UNL     1      -9.879   6.798  -5.237  1.00  0.00    -0.354 N 
ATOM     38  C   UNL     1      -8.090   9.977  -8.083  1.00  0.00     0.074 A 
ATOM     39  C   UNL     1      -7.127   9.096  -8.686  1.00  0.00     0.031 C 
ATOM     40  C   UNL     1      -9.609   5.076  -3.850  1.00  0.00     0.029 A 
ATOM     41  C   UNL     1     -10.586   5.720  -4.711  1.00  0.00     0.049 A 
ATOM     42  H   UNL     1     -10.307   7.507  -5.769  1.00  0.00     0.167 HD
ATOM     43  C   UNL     1      -9.003  10.813  -8.644  1.00  0.00     0.037 A 
ATOM     44  C   UNL     1     -11.858   5.378  -5.052  1.00  0.00     0.037 A 
ATOM     45  C   UNL     1      -9.785  11.477  -7.632  1.00  0.00     0.049 A 
ATOM     46  C   UNL     1     -12.479   6.605  -5.634  1.00  0.00     0.074 A 
ATOM     47  C   UNL     1      -9.483  12.346  -6.601  1.00  0.00     0.029 A 
ATOM     48  N   UNL     1     -11.020  10.948  -7.338  1.00  0.00    -0.354 N 
ATOM     49  N   UNL     1     -12.719   7.685  -4.936  1.00  0.00    -0.248 NA
ATOM     50  C   UNL     1     -12.342   6.813  -7.071  1.00  0.00     0.031 C 
ATOM     51  C   UNL     1     -10.327  11.949  -5.524  1.00  0.00     0.029 A 
ATOM     52  C   UNL     1     -11.152  10.916  -5.973  1.00  0.00     0.049 A 
ATOM     53  H   UNL     1     -11.691  10.645  -7.992  1.00  0.00     0.167 HD
ATOM     54  C   UNL     1     -12.357   8.739  -5.766  1.00  0.00     0.074 A 
ATOM     55  C   UNL     1     -12.183   8.140  -7.089  1.00  0.00     0.031 C 
ATOM     56  C   UNL     1     -11.939   9.935  -5.254  1.00  0.00     0.037 A 
BRANCH  43  57
ATOM     57  C   UNL     1      -9.444  10.718 -10.081  1.00  0.00     0.058 A 
ATOM     58  C   UNL     1     -10.272  11.727 -10.607  1.00  0.00     0.135 A 
ATOM     59  C   UNL     1      -9.320   9.553 -10.873  1.00  0.00     0.135 A 
ATOM     60  F   UNL     1     -10.467  12.872  -9.933  1.00  0.00    -0.206 F 
ATOM     61  C   UNL     1     -10.981  11.561 -11.795  1.00  0.00     0.059 A 
ATOM     62  C   UNL     1      -9.970   9.392 -12.087  1.00  0.00     0.059 A 
ATOM     63  F   UNL     1      -8.646   8.470 -10.470  1.00  0.00    -0.206 F 
ATOM     64  C   UNL     1     -10.832  10.383 -12.521  1.00  0.00     0.060 A 
BRANCH  64  65
ATOM     65  S   UNL     1     -11.822  10.121 -13.998  1.00  0.00     0.124 S 
ATOM     66  O   UNL     1     -13.166  10.045 -13.438  1.00  0.00    -0.237 OA
ATOM     67  O   UNL     1     -11.517  11.317 -14.777  1.00  0.00    -0.237 OA
ATOM     68  O   UNL     1     -11.292   8.874 -14.542  1.00  0.00    -0.744 OA
ENDBRANCH  64  65
ENDBRANCH  43  57
BRANCH  44  69
ATOM     69  C   UNL     1     -12.420   4.013  -5.254  1.00  0.00     0.058 A 
ATOM     70  C   UNL     1     -13.804   3.797  -5.404  1.00  0.00     0.135 A 
ATOM     71  C   UNL     1     -11.591   2.919  -5.579  1.00  0.00     0.135 A 
ATOM     72  F   UNL     1     -14.671   4.787  -5.145  1.00  0.00    -0.206 F 
ATOM     73  C   UNL     1     -14.329   2.587  -5.883  1.00  0.00     0.059 A 
ATOM     74  C   UNL     1     -12.090   1.704  -6.051  1.00  0.00     0.059 A 
ATOM     75  F   UNL     1     -10.255   3.028  -5.532  1.00  0.00    -0.206 F 
ATOM     76  C   UNL     1     -13.460   1.551  -6.223  1.00  0.00     0.060 A 
BRANCH  76  77
ATOM     77  S   UNL     1     -14.115   0.046  -6.987  1.00  0.00     0.124 S 
ATOM     78  O   UNL     1     -14.908  -0.524  -5.904  1.00  0.00    -0.237 OA
ATOM     79  O   UNL     1     -14.868   0.577  -8.117  1.00  0.00    -0.237 OA
ATOM     80  O   UNL     1     -12.914  -0.706  -7.341  1.00  0.00    -0.744 OA
ENDBRANCH  76  77
ENDBRANCH  44  69
BRANCH  56  81
ATOM     81  C   UNL     1     -12.106  10.186  -3.775  1.00  0.00     0.058 A 
ATOM     82  C   UNL     1     -11.377   9.519  -2.773  1.00  0.00     0.135 A 
ATOM     83  C   UNL     1     -12.863  11.299  -3.383  1.00  0.00     0.135 A 
ATOM     84  F   UNL     1     -10.558   8.503  -3.080  1.00  0.00    -0.206 F 
ATOM     85  C   UNL     1     -11.408   9.937  -1.440  1.00  0.00     0.059 A 
ATOM     86  C   UNL     1     -12.886  11.750  -2.067  1.00  0.00     0.059 A 
ATOM     87  F   UNL     1     -13.533  12.012  -4.303  1.00  0.00    -0.206 F 
ATOM     88  C   UNL     1     -12.157  11.064  -1.098  1.00  0.00     0.060 A 
BRANCH  88  89
ATOM     89  S   UNL     1     -12.105  11.678   0.601  1.00  0.00     0.124 S 
ATOM     90  O   UNL     1     -12.825  10.637   1.326  1.00  0.00    -0.237 OA
ATOM     91  O   UNL     1     -10.671  11.758   0.864  1.00  0.00    -0.237 OA
ATOM     92  O   UNL     1     -12.787  12.967   0.519  1.00  0.00    -0.744 OA
ENDBRANCH  88  89
ENDBRANCH  56  81
ENDBRANCH  30  31
ENDBRANCH  23  25
ENDBRANCH  22  23
ENDBRANCH  21  22
ENDBRANCH   1  21
TORSDOF 17
