REMARK SMILES Nc1ccc(O)c(C(=O)OCCOCCOC(=O)c2ccc(-c3c4nc(c(-c5c(F)cc(S(=O)(=O)[O-])cc5F)c5ccc([nH]5)c(-c5c(F)cc(S(=O)(=O)[O-])cc5F)c5nc(c(-c6c(F)cc(S(=O)(=O)[O-])cc6F)c6ccc3[nH]6)C=C5)C=C4)cc2)c1
REMARK SMILES IDX 14 1 13 2 12 3 11 4 10 5 8 6 9 7 7 8 2 9 3 10 85 11 4 12
REMARK SMILES IDX 5 13 1 14 6 17 15 19 16 20 17 21 18 22 19 23 20 24 84 25
REMARK SMILES IDX 21 26 83 27 22 28 23 29 24 30 77 31 25 32 82 33 76 34 78 35
REMARK SMILES IDX 26 36 81 37 75 38 74 39 27 41 61 42 40 43 60 44 41 45 44 46
REMARK SMILES IDX 59 47 79 48 42 49 43 50 58 52 80 53 45 54 28 55 29 56 38 57
REMARK SMILES IDX 30 58 31 59 37 60 39 61 32 62 33 63 34 64 35 65 36 66 62 67
REMARK SMILES IDX 63 68 72 69 64 70 65 71 71 72 73 73 66 74 67 75 68 76 69 77
REMARK SMILES IDX 70 78 46 79 47 80 56 81 48 82 49 83 55 84 57 85 50 86 51 87
REMARK SMILES IDX 52 88 53 89 54 90
REMARK H PARENT 1 15 1 16 6 18 78 40 44 51
REMARK Flexibility Score: inf
ROOT
ATOM      1  C   UNL     1       2.471  -2.912  -1.820  1.00  0.00     0.202 C 
ENDROOT
BRANCH   1   2
ATOM      2  O   UNL     1       3.137  -3.927  -1.064  1.00  0.00    -0.374 OA
BRANCH   2   3
ATOM      3  C   UNL     1       2.303  -4.894  -0.422  1.00  0.00     0.202 C 
BRANCH   3   4
ATOM      4  C   UNL     1       1.773  -4.495   0.959  1.00  0.00     0.261 C 
BRANCH   4   5
ATOM      5  O   UNL     1       0.890  -3.363   0.874  1.00  0.00    -0.460 OA
BRANCH   5   6
ATOM      6  C   UNL     1       1.419  -2.189   1.290  1.00  0.00     0.342 C 
ATOM      7  O   UNL     1       2.508  -2.023   1.824  1.00  0.00    -0.246 OA
BRANCH   6   8
ATOM      8  C   UNL     1       0.606  -1.040   0.836  1.00  0.00     0.103 A 
ATOM      9  C   UNL     1      -1.511  -0.033   0.187  1.00  0.00     0.032 A 
ATOM     10  C   UNL     1      -0.834   1.156  -0.103  1.00  0.00     0.029 A 
ATOM     11  C   UNL     1      -0.777  -1.142   0.625  1.00  0.00     0.045 A 
ATOM     12  C   UNL     1       0.544   1.262   0.088  1.00  0.00     0.049 A 
ATOM     13  C   UNL     1       1.258   0.171   0.565  1.00  0.00     0.130 A 
BRANCH   9  14
ATOM     14  N   UNL     1      -2.866  -0.141  -0.074  1.00  0.00    -0.399 N 
ATOM     15  H   UNL     1      -3.372   0.646  -0.382  1.00  0.00     0.156 HD
ATOM     16  H   UNL     1      -3.325  -1.003   0.048  1.00  0.00     0.156 HD
ENDBRANCH   9  14
BRANCH  13  17
ATOM     17  O   UNL     1       2.609   0.349   0.712  1.00  0.00    -0.507 OA
ATOM     18  H   UNL     1       2.996   1.180   0.517  1.00  0.00     0.293 HD
ENDBRANCH  13  17
ENDBRANCH   6   8
ENDBRANCH   5   6
ENDBRANCH   4   5
ENDBRANCH   3   4
ENDBRANCH   2   3
ENDBRANCH   1   2
BRANCH   1  19
ATOM     19  C   UNL     1       2.025  -3.308  -3.232  1.00  0.00     0.261 C 
BRANCH  19  20
ATOM     20  O   UNL     1       0.945  -4.260  -3.197  1.00  0.00    -0.460 OA
BRANCH  20  21
ATOM     21  C   UNL     1       1.276  -5.513  -3.584  1.00  0.00     0.338 C 
ATOM     22  O   UNL     1       2.351  -5.884  -4.039  1.00  0.00    -0.246 OA
BRANCH  21  23
ATOM     23  C   UNL     1       0.205  -6.457  -3.211  1.00  0.00     0.060 A 
ATOM     24  C   UNL     1       0.582  -7.627  -2.539  1.00  0.00     0.016 A 
ATOM     25  C   UNL     1      -1.132  -6.237  -3.554  1.00  0.00     0.016 A 
ATOM     26  C   UNL     1      -0.367  -8.606  -2.254  1.00  0.00     0.010 A 
ATOM     27  C   UNL     1      -2.083  -7.226  -3.273  1.00  0.00     0.010 A 
ATOM     28  C   UNL     1      -1.698  -8.429  -2.653  1.00  0.00    -0.014 A 
BRANCH  28  29
ATOM     29  C   UNL     1      -2.651  -9.561  -2.547  1.00  0.00     0.031 A 
ATOM     30  C   UNL     1      -2.945 -10.383  -3.774  1.00  0.00     0.074 A 
ATOM     31  C   UNL     1      -3.221  -9.874  -1.369  1.00  0.00     0.049 A 
ATOM     32  N   UNL     1      -3.764 -11.391  -3.919  1.00  0.00    -0.248 NA
ATOM     33  C   UNL     1      -2.216 -10.019  -5.000  1.00  0.00     0.031 C 
ATOM     34  C   UNL     1      -2.988  -9.175  -0.106  1.00  0.00     0.029 A 
ATOM     35  N   UNL     1      -4.121 -10.859  -1.047  1.00  0.00    -0.354 N 
ATOM     36  C   UNL     1      -3.654 -11.781  -5.249  1.00  0.00     0.074 A 
ATOM     37  C   UNL     1      -2.711 -10.882  -5.877  1.00  0.00     0.031 C 
ATOM     38  C   UNL     1      -3.737  -9.746   0.853  1.00  0.00     0.029 A 
ATOM     39  C   UNL     1      -4.523 -10.830   0.267  1.00  0.00     0.049 A 
ATOM     40  H   UNL     1      -4.448 -11.523  -1.696  1.00  0.00     0.167 HD
ATOM     41  C   UNL     1      -4.274 -12.803  -5.885  1.00  0.00     0.037 A 
ATOM     42  C   UNL     1      -5.437 -11.579   0.915  1.00  0.00     0.037 A 
ATOM     43  C   UNL     1      -5.210 -13.698  -5.256  1.00  0.00     0.049 A 
ATOM     44  C   UNL     1      -6.161 -12.671   0.169  1.00  0.00     0.074 A 
ATOM     45  C   UNL     1      -5.882 -14.771  -5.814  1.00  0.00     0.029 A 
ATOM     46  N   UNL     1      -5.607 -13.624  -3.929  1.00  0.00    -0.354 N 
ATOM     47  N   UNL     1      -6.033 -13.039  -1.084  1.00  0.00    -0.248 NA
ATOM     48  C   UNL     1      -7.151 -13.452   0.925  1.00  0.00     0.031 C 
ATOM     49  C   UNL     1      -6.718 -15.320  -4.836  1.00  0.00     0.029 A 
ATOM     50  C   UNL     1      -6.530 -14.619  -3.655  1.00  0.00     0.049 A 
ATOM     51  H   UNL     1      -5.280 -12.961  -3.278  1.00  0.00     0.167 HD
ATOM     52  C   UNL     1      -6.904 -14.110  -1.258  1.00  0.00     0.074 A 
ATOM     53  C   UNL     1      -7.546 -14.337   0.021  1.00  0.00     0.031 C 
ATOM     54  C   UNL     1      -7.151 -14.839  -2.374  1.00  0.00     0.037 A 
BRANCH  41  55
ATOM     55  C   UNL     1      -3.975 -13.001  -7.345  1.00  0.00     0.058 A 
ATOM     56  C   UNL     1      -2.748 -13.527  -7.780  1.00  0.00     0.135 A 
ATOM     57  C   UNL     1      -4.944 -12.709  -8.318  1.00  0.00     0.135 A 
ATOM     58  F   UNL     1      -1.780 -13.806  -6.893  1.00  0.00    -0.206 F 
ATOM     59  C   UNL     1      -2.487 -13.741  -9.129  1.00  0.00     0.059 A 
ATOM     60  C   UNL     1      -4.714 -12.938  -9.671  1.00  0.00     0.059 A 
ATOM     61  F   UNL     1      -6.133 -12.200  -7.955  1.00  0.00    -0.206 F 
ATOM     62  C   UNL     1      -3.477 -13.445 -10.067  1.00  0.00     0.060 A 
BRANCH  62  63
ATOM     63  S   UNL     1      -3.131 -13.748 -11.813  1.00  0.00     0.124 S 
ATOM     64  O   UNL     1      -2.200 -12.666 -12.117  1.00  0.00    -0.237 OA
ATOM     65  O   UNL     1      -2.557 -15.090 -11.789  1.00  0.00    -0.237 OA
ATOM     66  O   UNL     1      -4.443 -13.643 -12.444  1.00  0.00    -0.744 OA
ENDBRANCH  62  63
ENDBRANCH  41  55
BRANCH  42  67
ATOM     67  C   UNL     1      -5.739 -11.314   2.348  1.00  0.00     0.058 A 
ATOM     68  C   UNL     1      -5.383 -12.230   3.348  1.00  0.00     0.135 A 
ATOM     69  C   UNL     1      -6.410 -10.145   2.740  1.00  0.00     0.135 A 
ATOM     70  F   UNL     1      -4.750 -13.367   3.022  1.00  0.00    -0.206 F 
ATOM     71  C   UNL     1      -5.698 -12.008   4.685  1.00  0.00     0.059 A 
ATOM     72  C   UNL     1      -6.714  -9.888   4.073  1.00  0.00     0.059 A 
ATOM     73  F   UNL     1      -6.763  -9.231   1.823  1.00  0.00    -0.206 F 
ATOM     74  C   UNL     1      -6.365 -10.833   5.037  1.00  0.00     0.060 A 
BRANCH  74  75
ATOM     75  S   UNL     1      -6.742 -10.535   6.778  1.00  0.00     0.124 S 
ATOM     76  O   UNL     1      -7.858 -11.447   6.997  1.00  0.00    -0.237 OA
ATOM     77  O   UNL     1      -5.486 -10.893   7.430  1.00  0.00    -0.237 OA
ATOM     78  O   UNL     1      -7.071  -9.113   6.810  1.00  0.00    -0.744 OA
ENDBRANCH  74  75
ENDBRANCH  42  67
BRANCH  54  79
ATOM     79  C   UNL     1      -8.128 -15.977  -2.258  1.00  0.00     0.058 A 
ATOM     80  C   UNL     1      -9.510 -15.755  -2.154  1.00  0.00     0.135 A 
ATOM     81  C   UNL     1      -7.679 -17.307  -2.308  1.00  0.00     0.135 A 
ATOM     82  F   UNL     1      -9.991 -14.503  -2.097  1.00  0.00    -0.206 F 
ATOM     83  C   UNL     1     -10.412 -16.812  -2.080  1.00  0.00     0.059 A 
ATOM     84  C   UNL     1      -8.565 -18.379  -2.262  1.00  0.00     0.059 A 
ATOM     85  F   UNL     1      -6.368 -17.574  -2.419  1.00  0.00    -0.206 F 
ATOM     86  C   UNL     1      -9.929 -18.122  -2.136  1.00  0.00     0.060 A 
BRANCH  86  87
ATOM     87  S   UNL     1     -11.111 -19.485  -2.073  1.00  0.00     0.124 S 
ATOM     88  O   UNL     1     -11.479 -19.489  -0.661  1.00  0.00    -0.237 OA
ATOM     89  O   UNL     1     -12.150 -19.042  -2.998  1.00  0.00    -0.237 OA
ATOM     90  O   UNL     1     -10.330 -20.633  -2.522  1.00  0.00    -0.744 OA
ENDBRANCH  86  87
ENDBRANCH  54  79
ENDBRANCH  28  29
ENDBRANCH  21  23
ENDBRANCH  20  21
ENDBRANCH  19  20
ENDBRANCH   1  19
TORSDOF 19
