REMARK SMILES CC(C)(C)c1cc2c(cc1Cl)C=C(C(=O)OCCOCCOC(=O)c1ccc(-c3c4nc(c(-c5c(F)cc(S(=O)(=O)[O-])cc5F)c5ccc([nH]5)c(-c5c(F)cc(S(=O)(=O)[O-])cc5F)c5nc(c(-c6c(F)cc(S(=O)(=O)[O-])cc6F)c6ccc3[nH]6)C=C5)C=C4)cc1)[C@@H](C(F)(F)F)O2
REMARK SMILES IDX 20 1 19 2 18 3 17 4 16 5 14 6 15 7 13 8 5 9 6 10 10 11 7 12
REMARK SMILES IDX 9 13 11 14 8 15 96 16 12 17 91 18 2 19 1 20 3 21 4 22 92 23
REMARK SMILES IDX 93 24 94 25 95 26 21 27 22 28 23 29 24 30 25 31 26 32 90 33
REMARK SMILES IDX 27 34 89 35 28 36 29 37 30 38 83 39 31 40 88 41 82 42 84 43
REMARK SMILES IDX 32 44 87 45 81 46 80 47 33 49 67 50 46 51 66 52 47 53 50 54
REMARK SMILES IDX 65 55 85 56 48 57 49 58 64 60 86 61 51 62 34 63 35 64 44 65
REMARK SMILES IDX 36 66 37 67 43 68 45 69 38 70 39 71 40 72 41 73 42 74 68 75
REMARK SMILES IDX 69 76 78 77 70 78 71 79 77 80 79 81 72 82 73 83 74 84 75 85
REMARK SMILES IDX 76 86 52 87 53 88 62 89 54 90 55 91 61 92 63 93 56 94 57 95
REMARK SMILES IDX 58 96 59 97 60 98
REMARK H PARENT 84 48 50 59
REMARK Flexibility Score: inf
ROOT
ATOM      1  C   UNL     1       0.994  -6.589   7.590  1.00  0.00     0.202 C 
ENDROOT
BRANCH   1   2
ATOM      2  O   UNL     1       1.823  -7.708   7.897  1.00  0.00    -0.374 OA
BRANCH   2   3
ATOM      3  C   UNL     1       3.025  -7.486   8.630  1.00  0.00     0.202 C 
BRANCH   3   4
ATOM      4  C   UNL     1       4.208  -6.844   7.897  1.00  0.00     0.261 C 
BRANCH   4   5
ATOM      5  O   UNL     1       3.856  -5.594   7.285  1.00  0.00    -0.460 OA
BRANCH   5   6
ATOM      6  C   UNL     1       3.814  -5.632   5.933  1.00  0.00     0.338 C 
ATOM      7  O   UNL     1       4.129  -6.568   5.215  1.00  0.00    -0.246 OA
BRANCH   6   8
ATOM      8  C   UNL     1       3.173  -4.409   5.415  1.00  0.00     0.087 C 
ATOM      9  C   UNL     1       0.847  -1.153   2.327  1.00  0.00    -0.020 A 
ATOM     10  C   UNL     1       1.625  -1.050   3.509  1.00  0.00     0.053 A 
ATOM     11  C   UNL     1       0.489  -2.464   1.933  1.00  0.00     0.045 A 
ATOM     12  C   UNL     1       2.074  -2.173   4.216  1.00  0.00     0.128 A 
ATOM     13  C   UNL     1       0.933  -3.586   2.648  1.00  0.00     0.032 A 
ATOM     14  Cl  UNL     1      -0.491  -2.849   0.558  1.00  0.00    -0.084 Cl
ATOM     15  C   UNL     1       1.747  -3.442   3.768  1.00  0.00     0.019 A 
ATOM     16  O   UNL     1       2.829  -1.937   5.330  1.00  0.00    -0.475 OA
ATOM     17  C   UNL     1       2.305  -4.609   4.416  1.00  0.00     0.027 C 
ATOM     18  C   UNL     1       3.519  -3.054   5.969  1.00  0.00     0.316 C 
BRANCH   9  19
ATOM     19  C   UNL     1       0.463   0.125   1.539  1.00  0.00    -0.012 C 
ATOM     20  C   UNL     1       1.044   0.083   0.107  1.00  0.00     0.016 C 
ATOM     21  C   UNL     1       1.022   1.434   2.163  1.00  0.00     0.016 C 
ATOM     22  C   UNL     1      -1.069   0.308   1.499  1.00  0.00     0.016 C 
ENDBRANCH   9  19
BRANCH  18  23
ATOM     23  C   UNL     1       5.029  -2.776   5.936  1.00  0.00     0.430 C 
ATOM     24  F   UNL     1       5.307  -1.532   6.392  1.00  0.00    -0.167 F 
ATOM     25  F   UNL     1       5.715  -3.643   6.714  1.00  0.00    -0.167 F 
ATOM     26  F   UNL     1       5.527  -2.871   4.681  1.00  0.00    -0.167 F 
ENDBRANCH  18  23
ENDBRANCH   6   8
ENDBRANCH   5   6
ENDBRANCH   4   5
ENDBRANCH   3   4
ENDBRANCH   2   3
ENDBRANCH   1   2
BRANCH   1  27
ATOM     27  C   UNL     1       0.225  -5.903   8.727  1.00  0.00     0.261 C 
BRANCH  27  28
ATOM     28  O   UNL     1       1.082  -5.309   9.715  1.00  0.00    -0.460 OA
BRANCH  28  29
ATOM     29  C   UNL     1       1.108  -5.956  10.908  1.00  0.00     0.338 C 
ATOM     30  O   UNL     1       0.475  -6.954  11.218  1.00  0.00    -0.246 OA
BRANCH  29  31
ATOM     31  C   UNL     1       2.183  -5.392  11.745  1.00  0.00     0.060 A 
ATOM     32  C   UNL     1       2.238  -4.028  12.026  1.00  0.00     0.016 A 
ATOM     33  C   UNL     1       3.134  -6.270  12.283  1.00  0.00     0.016 A 
ATOM     34  C   UNL     1       3.240  -3.546  12.872  1.00  0.00     0.010 A 
ATOM     35  C   UNL     1       4.131  -5.787  13.130  1.00  0.00     0.010 A 
ATOM     36  C   UNL     1       4.181  -4.422  13.446  1.00  0.00    -0.014 A 
BRANCH  36  37
ATOM     37  C   UNL     1       5.138  -3.915  14.461  1.00  0.00     0.031 A 
ATOM     38  C   UNL     1       6.598  -3.760  14.154  1.00  0.00     0.074 A 
ATOM     39  C   UNL     1       4.664  -3.585  15.679  1.00  0.00     0.049 A 
ATOM     40  N   UNL     1       7.539  -3.232  14.894  1.00  0.00    -0.248 NA
ATOM     41  C   UNL     1       7.066  -4.268  12.856  1.00  0.00     0.031 C 
ATOM     42  C   UNL     1       3.272  -3.740  16.106  1.00  0.00     0.029 A 
ATOM     43  N   UNL     1       5.288  -3.039  16.772  1.00  0.00    -0.354 N 
ATOM     44  C   UNL     1       8.706  -3.316  14.145  1.00  0.00     0.074 A 
ATOM     45  C   UNL     1       8.366  -4.003  12.916  1.00  0.00     0.031 C 
ATOM     46  C   UNL     1       3.137  -3.256  17.349  1.00  0.00     0.029 A 
ATOM     47  C   UNL     1       4.436  -2.786  17.822  1.00  0.00     0.049 A 
ATOM     48  H   UNL     1       6.253  -2.846  16.802  1.00  0.00     0.167 HD
ATOM     49  C   UNL     1       9.937  -2.839  14.447  1.00  0.00     0.037 A 
ATOM     50  C   UNL     1       4.671  -2.230  19.027  1.00  0.00     0.037 A 
ATOM     51  C   UNL     1      10.266  -2.169  15.680  1.00  0.00     0.049 A 
ATOM     52  C   UNL     1       6.060  -1.754  19.356  1.00  0.00     0.074 A 
ATOM     53  C   UNL     1      11.476  -1.615  16.060  1.00  0.00     0.029 A 
ATOM     54  N   UNL     1       9.391  -1.974  16.739  1.00  0.00    -0.354 N 
ATOM     55  N   UNL     1       7.132  -1.758  18.600  1.00  0.00    -0.248 NA
ATOM     56  C   UNL     1       6.273  -1.198  20.699  1.00  0.00     0.031 C 
ATOM     57  C   UNL     1      11.350  -1.138  17.368  1.00  0.00     0.029 A 
ATOM     58  C   UNL     1      10.045  -1.343  17.785  1.00  0.00     0.049 A 
ATOM     59  H   UNL     1       8.444  -2.245  16.747  1.00  0.00     0.167 HD
ATOM     60  C   UNL     1       8.143  -1.195  19.370  1.00  0.00     0.074 A 
ATOM     61  C   UNL     1       7.549  -0.840  20.643  1.00  0.00     0.031 C 
ATOM     62  C   UNL     1       9.446  -0.997  19.052  1.00  0.00     0.037 A 
BRANCH  49  63
ATOM     63  C   UNL     1      11.028  -3.006  13.422  1.00  0.00     0.058 A 
ATOM     64  C   UNL     1      11.022  -2.271  12.226  1.00  0.00     0.135 A 
ATOM     65  C   UNL     1      12.127  -3.845  13.669  1.00  0.00     0.135 A 
ATOM     66  F   UNL     1       9.992  -1.460  11.935  1.00  0.00    -0.206 F 
ATOM     67  C   UNL     1      12.056  -2.377  11.301  1.00  0.00     0.059 A 
ATOM     68  C   UNL     1      13.186  -3.946  12.770  1.00  0.00     0.059 A 
ATOM     69  F   UNL     1      12.186  -4.568  14.798  1.00  0.00    -0.206 F 
ATOM     70  C   UNL     1      13.136  -3.215  11.584  1.00  0.00     0.060 A 
BRANCH  70  71
ATOM     71  S   UNL     1      14.471  -3.328  10.375  1.00  0.00     0.124 S 
ATOM     72  O   UNL     1      13.804  -4.002   9.266  1.00  0.00    -0.237 OA
ATOM     73  O   UNL     1      14.807  -1.925  10.154  1.00  0.00    -0.237 OA
ATOM     74  O   UNL     1      15.490  -4.114  11.063  1.00  0.00    -0.744 OA
ENDBRANCH  70  71
ENDBRANCH  49  63
BRANCH  50  75
ATOM     75  C   UNL     1       3.553  -2.065  19.994  1.00  0.00     0.058 A 
ATOM     76  C   UNL     1       3.058  -0.793  20.314  1.00  0.00     0.135 A 
ATOM     77  C   UNL     1       2.937  -3.176  20.592  1.00  0.00     0.135 A 
ATOM     78  F   UNL     1       3.617   0.300  19.773  1.00  0.00    -0.206 F 
ATOM     79  C   UNL     1       1.997  -0.625  21.198  1.00  0.00     0.059 A 
ATOM     80  C   UNL     1       1.857  -3.036  21.457  1.00  0.00     0.059 A 
ATOM     81  F   UNL     1       3.364  -4.416  20.308  1.00  0.00    -0.206 F 
ATOM     82  C   UNL     1       1.398  -1.755  21.759  1.00  0.00     0.060 A 
BRANCH  82  83
ATOM     83  S   UNL     1      -0.013  -1.524  22.862  1.00  0.00     0.124 S 
ATOM     84  O   UNL     1       0.615  -0.890  24.015  1.00  0.00    -0.237 OA
ATOM     85  O   UNL     1      -0.886  -0.672  22.061  1.00  0.00    -0.237 OA
ATOM     86  O   UNL     1      -0.499  -2.884  23.076  1.00  0.00    -0.744 OA
ENDBRANCH  82  83
ENDBRANCH  50  75
BRANCH  62  87
ATOM     87  C   UNL     1      10.336  -0.373  20.093  1.00  0.00     0.058 A 
ATOM     88  C   UNL     1      10.749  -1.092  21.225  1.00  0.00     0.135 A 
ATOM     89  C   UNL     1      10.859   0.918  19.911  1.00  0.00     0.135 A 
ATOM     90  F   UNL     1      10.273  -2.326  21.454  1.00  0.00    -0.206 F 
ATOM     91  C   UNL     1      11.647  -0.553  22.141  1.00  0.00     0.059 A 
ATOM     92  C   UNL     1      11.780   1.466  20.798  1.00  0.00     0.059 A 
ATOM     93  F   UNL     1      10.502   1.647  18.841  1.00  0.00    -0.206 F 
ATOM     94  C   UNL     1      12.167   0.722  21.912  1.00  0.00     0.060 A 
BRANCH  94  95
ATOM     95  S   UNL     1      13.385   1.375  23.075  1.00  0.00     0.124 S 
ATOM     96  O   UNL     1      12.574   1.575  24.271  1.00  0.00    -0.237 OA
ATOM     97  O   UNL     1      14.359   0.291  23.142  1.00  0.00    -0.237 OA
ATOM     98  O   UNL     1      13.856   2.596  22.427  1.00  0.00    -0.744 OA
ENDBRANCH  94  95
ENDBRANCH  62  87
ENDBRANCH  36  37
ENDBRANCH  29  31
ENDBRANCH  28  29
ENDBRANCH  27  28
ENDBRANCH   1  27
TORSDOF 19
