REMARK SMILES O=C(OCCOCCOC(=O)[C@@H]1CCCCC[C@@H]1NC(=O)c1cc(F)ccc1Br)c1ccc(-c2c3nc(c(-c4c(F)cc(S(=O)(=O)[O-])cc4F)c4ccc([nH]4)c(-c4c(F)cc(S(=O)(=O)[O-])cc4F)c4nc(c(-c5c(F)cc(S(=O)(=O)[O-])cc5F)c5ccc2[nH]5)C=C4)C=C3)cc1
REMARK SMILES IDX 6 1 5 2 4 3 3 4 2 5 1 6 30 7 31 8 95 9 32 10 94 11 33 12
REMARK SMILES IDX 34 13 35 14 88 15 36 16 93 17 87 18 89 19 37 20 92 21 86 22
REMARK SMILES IDX 85 23 38 25 72 26 51 27 71 28 52 29 55 30 70 31 90 32 53 33
REMARK SMILES IDX 54 34 69 36 91 37 56 38 39 39 40 40 49 41 41 42 42 43 48 44
REMARK SMILES IDX 50 45 43 46 44 47 45 48 46 49 47 50 73 51 74 52 83 53 75 54
REMARK SMILES IDX 76 55 82 56 84 57 77 58 78 59 79 60 80 61 81 62 57 63 58 64
REMARK SMILES IDX 67 65 59 66 60 67 66 68 68 69 61 70 62 71 63 72 64 73 65 74
REMARK SMILES IDX 7 75 8 76 9 77 10 78 11 79 12 80 13 81 14 82 15 83 18 85
REMARK SMILES IDX 17 86 16 87 19 89 20 90 21 92 22 93 23 94 28 95 24 96 27 97
REMARK SMILES IDX 29 98 25 99 26 100
REMARK H PARENT 89 24 55 35 19 91
REMARK Flexibility Score: 100.00
ROOT
ATOM      1  O   UNL     1       2.114  -0.270  -1.335  1.00  0.00    -0.374 OA
ENDROOT
BRANCH   1   2
ATOM      2  C   UNL     1       2.827  -1.218  -0.544  1.00  0.00     0.202 C 
BRANCH   2   3
ATOM      3  C   UNL     1       3.035  -0.738   0.895  1.00  0.00     0.261 C 
BRANCH   3   4
ATOM      4  O   UNL     1       1.824  -0.175   1.418  1.00  0.00    -0.460 OA
BRANCH   4   5
ATOM      5  C   UNL     1       1.374   1.065   1.079  1.00  0.00     0.338 C 
ATOM      6  O   UNL     1       0.174   1.321   1.113  1.00  0.00    -0.246 OA
BRANCH   5   7
ATOM      7  C   UNL     1       2.355   2.176   0.928  1.00  0.00     0.060 A 
ATOM      8  C   UNL     1       3.447   2.155   0.054  1.00  0.00     0.016 A 
ATOM      9  C   UNL     1       2.121   3.329   1.689  1.00  0.00     0.016 A 
ATOM     10  C   UNL     1       4.360   3.203   0.030  1.00  0.00     0.010 A 
ATOM     11  C   UNL     1       2.985   4.422   1.599  1.00  0.00     0.010 A 
ATOM     12  C   UNL     1       4.121   4.356   0.781  1.00  0.00    -0.014 A 
BRANCH  12  13
ATOM     13  C   UNL     1       5.061   5.494   0.694  1.00  0.00     0.031 A 
ATOM     14  C   UNL     1       5.856   5.885   1.902  1.00  0.00     0.074 A 
ATOM     15  C   UNL     1       5.201   6.141  -0.479  1.00  0.00     0.049 A 
ATOM     16  N   UNL     1       6.590   6.946   2.100  1.00  0.00    -0.248 NA
ATOM     17  C   UNL     1       5.809   4.961   3.047  1.00  0.00     0.031 C 
ATOM     18  C   UNL     1       4.519   5.781  -1.726  1.00  0.00     0.029 A 
ATOM     19  N   UNL     1       5.968   7.221  -0.824  1.00  0.00    -0.354 N 
ATOM     20  C   UNL     1       7.049   6.847   3.409  1.00  0.00     0.074 A 
ATOM     21  C   UNL     1       6.519   5.617   3.954  1.00  0.00     0.031 C 
ATOM     22  C   UNL     1       4.933   6.596  -2.708  1.00  0.00     0.029 A 
ATOM     23  C   UNL     1       5.832   7.593  -2.142  1.00  0.00     0.049 A 
ATOM     24  H   UNL     1       6.559   7.688  -0.191  1.00  0.00     0.167 HD
ATOM     25  C   UNL     1       7.830   7.722   4.086  1.00  0.00     0.037 A 
ATOM     26  C   UNL     1       6.343   8.648  -2.803  1.00  0.00     0.037 A 
ATOM     27  C   UNL     1       8.353   8.926   3.495  1.00  0.00     0.049 A 
ATOM     28  C   UNL     1       7.184   9.619  -2.024  1.00  0.00     0.074 A 
ATOM     29  C   UNL     1       9.107   9.926   4.081  1.00  0.00     0.029 A 
ATOM     30  N   UNL     1       8.180   9.282   2.162  1.00  0.00    -0.354 N 
ATOM     31  N   UNL     1       7.536   9.570  -0.759  1.00  0.00    -0.248 NA
ATOM     32  C   UNL     1       7.673  10.801  -2.742  1.00  0.00     0.031 C 
ATOM     33  C   UNL     1       9.367  10.899   3.107  1.00  0.00     0.029 A 
ATOM     34  C   UNL     1       8.807  10.488   1.905  1.00  0.00     0.049 A 
ATOM     35  H   UNL     1       7.683   8.753   1.497  1.00  0.00     0.167 HD
ATOM     36  C   UNL     1       8.285  10.715  -0.527  1.00  0.00     0.074 A 
ATOM     37  C   UNL     1       8.357  11.424  -1.792  1.00  0.00     0.031 C 
ATOM     38  C   UNL     1       8.852  11.152   0.625  1.00  0.00     0.037 A 
BRANCH  25  39
ATOM     39  C   UNL     1       8.086   7.431   5.540  1.00  0.00     0.058 A 
ATOM     40  C   UNL     1       8.935   6.393   5.957  1.00  0.00     0.135 A 
ATOM     41  C   UNL     1       7.428   8.174   6.535  1.00  0.00     0.135 A 
ATOM     42  F   UNL     1       9.573   5.636   5.050  1.00  0.00    -0.206 F 
ATOM     43  C   UNL     1       9.087   6.073   7.304  1.00  0.00     0.059 A 
ATOM     44  C   UNL     1       7.583   7.886   7.888  1.00  0.00     0.059 A 
ATOM     45  F   UNL     1       6.602   9.175   6.195  1.00  0.00    -0.206 F 
ATOM     46  C   UNL     1       8.396   6.816   8.262  1.00  0.00     0.060 A 
BRANCH  46  47
ATOM     47  S   UNL     1       8.556   6.358  10.002  1.00  0.00     0.124 S 
ATOM     48  O   UNL     1       7.715   5.167  10.068  1.00  0.00    -0.237 OA
ATOM     49  O   UNL     1       9.991   6.128  10.138  1.00  0.00    -0.237 OA
ATOM     50  O   UNL     1       8.043   7.527  10.710  1.00  0.00    -0.744 OA
ENDBRANCH  46  47
ENDBRANCH  25  39
BRANCH  26  51
ATOM     51  C   UNL     1       6.028   8.853  -4.243  1.00  0.00     0.058 A 
ATOM     52  C   UNL     1       7.016   8.722  -5.229  1.00  0.00     0.135 A 
ATOM     53  C   UNL     1       4.721   9.142  -4.670  1.00  0.00     0.135 A 
ATOM     54  F   UNL     1       8.283   8.456  -4.876  1.00  0.00    -0.206 F 
ATOM     55  C   UNL     1       6.724   8.871  -6.583  1.00  0.00     0.059 A 
ATOM     56  C   UNL     1       4.398   9.268  -6.018  1.00  0.00     0.059 A 
ATOM     57  F   UNL     1       3.731   9.267  -3.772  1.00  0.00    -0.206 F 
ATOM     58  C   UNL     1       5.409   9.139  -6.968  1.00  0.00     0.060 A 
BRANCH  58  59
ATOM     59  S   UNL     1       5.024   9.272  -8.729  1.00  0.00     0.124 S 
ATOM     60  O   UNL     1       5.555  10.592  -9.047  1.00  0.00    -0.237 OA
ATOM     61  O   UNL     1       5.751   8.139  -9.292  1.00  0.00    -0.237 OA
ATOM     62  O   UNL     1       3.569   9.152  -8.764  1.00  0.00    -0.744 OA
ENDBRANCH  58  59
ENDBRANCH  26  51
BRANCH  38  63
ATOM     63  C   UNL     1       9.608  12.445   0.551  1.00  0.00     0.058 A 
ATOM     64  C   UNL     1       8.941  13.678   0.512  1.00  0.00     0.135 A 
ATOM     65  C   UNL     1      11.010  12.448   0.574  1.00  0.00     0.135 A 
ATOM     66  F   UNL     1       7.599  13.722   0.479  1.00  0.00    -0.206 F 
ATOM     67  C   UNL     1       9.643  14.877   0.483  1.00  0.00     0.059 A 
ATOM     68  C   UNL     1      11.732  13.636   0.567  1.00  0.00     0.059 A 
ATOM     69  F   UNL     1      11.689  11.291   0.618  1.00  0.00    -0.206 F 
ATOM     70  C   UNL     1      11.039  14.845   0.513  1.00  0.00     0.060 A 
BRANCH  70  71
ATOM     71  S   UNL     1      11.941  16.407   0.522  1.00  0.00     0.124 S 
ATOM     72  O   UNL     1      11.850  16.807  -0.878  1.00  0.00    -0.237 OA
ATOM     73  O   UNL     1      11.168  17.212   1.464  1.00  0.00    -0.237 OA
ATOM     74  O   UNL     1      13.273  16.026   0.983  1.00  0.00    -0.744 OA
ENDBRANCH  70  71
ENDBRANCH  38  63
ENDBRANCH  12  13
ENDBRANCH   5   7
ENDBRANCH   4   5
ENDBRANCH   3   4
ENDBRANCH   2   3
ENDBRANCH   1   2
BRANCH   1  75
ATOM     75  C   UNL     1       1.555  -0.802  -2.539  1.00  0.00     0.202 C 
BRANCH  75  76
ATOM     76  C   UNL     1       2.608  -1.037  -3.622  1.00  0.00     0.261 C 
BRANCH  76  77
ATOM     77  O   UNL     1       3.423  -2.162  -3.238  1.00  0.00    -0.463 OA
BRANCH  77  78
ATOM     78  C   UNL     1       4.770  -2.034  -3.379  1.00  0.00     0.311 C 
ATOM     79  O   UNL     1       5.327  -1.064  -3.873  1.00  0.00    -0.252 OA
BRANCH  78  80
ATOM     80  C   UNL     1       5.523  -3.243  -2.819  1.00  0.00     0.121 C 
BRANCH  80  81
ATOM     81  C   UNL     1       4.608  -4.480  -2.787  1.00  0.00     0.017 C 
BRANCH  81  82
ATOM     82  C   UNL     1       5.315  -5.777  -2.420  1.00  0.00     0.001 C 
BRANCH  82  83
ATOM     83  C   UNL     1       5.306  -6.048  -0.921  1.00  0.00     0.000 CG0
ATOM     84  G   UNL     1       6.151  -5.090  -0.092  1.00  0.00     0.000 G0
ENDBRANCH  82  83
ENDBRANCH  81  82
ENDBRANCH  80  81
BRANCH  80  85
ATOM     85  C   UNL     1       6.322  -2.956  -1.512  1.00  0.00     0.096 C 
BRANCH  85  86
ATOM     86  C   UNL     1       5.781  -3.609  -0.224  1.00  0.00     0.026 C 
BRANCH  86  87
ATOM     87  C   UNL     1       6.151  -5.090  -0.092  1.00  0.00     0.002 CG0
ATOM     88  G   UNL     1       5.306  -6.048  -0.921  1.00  0.00     0.000 G0
ENDBRANCH  86  87
ENDBRANCH  85  86
BRANCH  85  89
ATOM     89  N   UNL     1       6.543  -1.524  -1.271  1.00  0.00    -0.348 N 
ATOM     90  C   UNL     1       7.688  -0.775  -1.166  1.00  0.00     0.252 C 
ATOM     91  H   UNL     1       5.715  -1.004  -1.165  1.00  0.00     0.164 HD
ATOM     92  O   UNL     1       7.596   0.422  -0.942  1.00  0.00    -0.269 OA
BRANCH  90  93
ATOM     93  C   UNL     1       9.010  -1.408  -1.321  1.00  0.00     0.056 A 
ATOM     94  C   UNL     1       9.306  -2.052  -2.529  1.00  0.00     0.054 A 
ATOM     95  C   UNL     1       9.974  -1.341  -0.306  1.00  0.00     0.030 A 
ATOM     96  C   UNL     1      10.532  -2.685  -2.680  1.00  0.00     0.124 A 
ATOM     97  C   UNL     1      11.216  -1.960  -0.488  1.00  0.00     0.019 A 
ATOM     98  Br  UNL     1       9.667  -0.492   1.364  1.00  0.00    -0.050 Br
ATOM     99  F   UNL     1      10.791  -3.358  -3.809  1.00  0.00    -0.207 F 
ATOM    100  C   UNL     1      11.488  -2.647  -1.672  1.00  0.00     0.040 A 
ENDBRANCH  90  93
ENDBRANCH  85  89
ENDBRANCH  80  85
ENDBRANCH  78  80
ENDBRANCH  77  78
ENDBRANCH  76  77
ENDBRANCH  75  76
ENDBRANCH   1  75
TORSDOF 19
