REMARK SMILES O=C(OCCOCCOC(=O)c1nccnc1C(=O)Nc1ccc(-n2cncn2)c(Cl)c1)c1ccc(-c2c3nc(c(-c4c(F)cc(S(=O)(=O)[O-])cc4F)c4ccc([nH]4)c(-c4c(F)cc(S(=O)(=O)[O-])cc4F)c4nc(c(-c5c(F)cc(S(=O)(=O)[O-])cc5F)c5ccc2[nH]5)C=C4)C=C3)cc1
REMARK SMILES IDX 6 1 5 2 4 3 3 4 2 5 1 6 33 7 34 8 98 9 35 10 97 11 36 12
REMARK SMILES IDX 37 13 38 14 91 15 39 16 96 17 90 18 92 19 40 20 95 21 89 22
REMARK SMILES IDX 88 23 41 25 75 26 54 27 74 28 55 29 58 30 73 31 93 32 56 33
REMARK SMILES IDX 57 34 72 36 94 37 59 38 42 39 43 40 52 41 44 42 45 43 51 44
REMARK SMILES IDX 53 45 46 46 47 47 48 48 49 49 50 50 76 51 77 52 86 53 78 54
REMARK SMILES IDX 79 55 85 56 87 57 80 58 81 59 82 60 83 61 84 62 60 63 61 64
REMARK SMILES IDX 70 65 62 66 63 67 69 68 71 69 64 70 65 71 66 72 67 73 68 74
REMARK SMILES IDX 7 75 8 76 9 77 10 78 11 79 12 80 13 81 17 82 14 83 16 84
REMARK SMILES IDX 15 85 18 86 19 87 20 88 21 90 22 91 32 92 23 93 30 94 24 95
REMARK SMILES IDX 31 96 25 97 26 98 29 99 27 100 28 101
REMARK H PARENT 92 24 58 35 20 89
REMARK Flexibility Score: inf
ROOT
ATOM      1  O   UNL     1       3.605   0.552  -0.404  1.00  0.00    -0.374 OA
ENDROOT
BRANCH   1   2
ATOM      2  C   UNL     1       4.549  -0.301   0.219  1.00  0.00     0.202 C 
BRANCH   2   3
ATOM      3  C   UNL     1       4.096  -0.908   1.553  1.00  0.00     0.261 C 
BRANCH   3   4
ATOM      4  O   UNL     1       2.694  -1.200   1.595  1.00  0.00    -0.460 OA
BRANCH   4   5
ATOM      5  C   UNL     1       1.678  -0.308   1.504  1.00  0.00     0.338 C 
ATOM      6  O   UNL     1       0.559  -0.729   1.210  1.00  0.00    -0.246 OA
BRANCH   5   7
ATOM      7  C   UNL     1       1.820   1.142   1.815  1.00  0.00     0.060 A 
ATOM      8  C   UNL     1       3.012   1.806   2.119  1.00  0.00     0.016 A 
ATOM      9  C   UNL     1       0.611   1.854   1.883  1.00  0.00     0.016 A 
ATOM     10  C   UNL     1       2.992   3.027   2.736  1.00  0.00     0.010 A 
ATOM     11  C   UNL     1       0.578   3.099   2.470  1.00  0.00     0.010 A 
ATOM     12  C   UNL     1       1.762   3.605   2.990  1.00  0.00    -0.014 A 
BRANCH  12  13
ATOM     13  C   UNL     1       1.780   4.787   3.813  1.00  0.00     0.031 A 
ATOM     14  C   UNL     1       2.401   5.949   3.140  1.00  0.00     0.074 A 
ATOM     15  C   UNL     1       1.228   4.734   5.038  1.00  0.00     0.049 A 
ATOM     16  N   UNL     1       3.468   6.593   3.478  1.00  0.00    -0.248 NA
ATOM     17  C   UNL     1       1.887   6.303   1.805  1.00  0.00     0.031 C 
ATOM     18  C   UNL     1       0.436   3.638   5.608  1.00  0.00     0.029 A 
ATOM     19  N   UNL     1       1.135   5.696   5.987  1.00  0.00    -0.354 N 
ATOM     20  C   UNL     1       3.577   7.619   2.545  1.00  0.00     0.074 A 
ATOM     21  C   UNL     1       2.749   7.247   1.431  1.00  0.00     0.031 C 
ATOM     22  C   UNL     1      -0.268   4.104   6.660  1.00  0.00     0.029 A 
ATOM     23  C   UNL     1       0.110   5.484   6.900  1.00  0.00     0.049 A 
ATOM     24  H   UNL     1       1.738   6.473   6.026  1.00  0.00     0.167 HD
ATOM     25  C   UNL     1       4.043   8.840   2.923  1.00  0.00     0.037 A 
ATOM     26  C   UNL     1      -0.460   6.436   7.681  1.00  0.00     0.037 A 
ATOM     27  C   UNL     1       4.887   8.730   4.089  1.00  0.00     0.049 A 
ATOM     28  C   UNL     1       0.494   7.582   7.729  1.00  0.00     0.074 A 
ATOM     29  C   UNL     1       6.013   7.986   4.394  1.00  0.00     0.029 A 
ATOM     30  N   UNL     1       4.388   9.161   5.295  1.00  0.00    -0.354 N 
ATOM     31  N   UNL     1       1.666   7.527   8.304  1.00  0.00    -0.248 NA
ATOM     32  C   UNL     1       0.349   8.627   6.724  1.00  0.00     0.031 C 
ATOM     33  C   UNL     1       5.853   7.611   5.760  1.00  0.00     0.029 A 
ATOM     34  C   UNL     1       4.683   8.206   6.234  1.00  0.00     0.049 A 
ATOM     35  H   UNL     1       3.904  10.004   5.457  1.00  0.00     0.167 HD
ATOM     36  C   UNL     1       2.517   8.223   7.455  1.00  0.00     0.074 A 
ATOM     37  C   UNL     1       1.634   8.948   6.544  1.00  0.00     0.031 C 
ATOM     38  C   UNL     1       3.847   7.918   7.379  1.00  0.00     0.037 A 
BRANCH  25  39
ATOM     39  C   UNL     1       3.359  10.130   2.515  1.00  0.00     0.058 A 
ATOM     40  C   UNL     1       3.933  11.356   2.906  1.00  0.00     0.135 A 
ATOM     41  C   UNL     1       2.032  10.215   2.027  1.00  0.00     0.135 A 
ATOM     42  F   UNL     1       5.188  11.401   3.381  1.00  0.00    -0.206 F 
ATOM     43  C   UNL     1       3.212  12.550   2.909  1.00  0.00     0.059 A 
ATOM     44  C   UNL     1       1.316  11.401   1.972  1.00  0.00     0.059 A 
ATOM     45  F   UNL     1       1.315   9.147   1.663  1.00  0.00    -0.206 F 
ATOM     46  C   UNL     1       1.896  12.556   2.459  1.00  0.00     0.060 A 
BRANCH  46  47
ATOM     47  S   UNL     1       0.922  14.064   2.564  1.00  0.00     0.124 S 
ATOM     48  O   UNL     1       0.749  14.193   4.006  1.00  0.00    -0.237 OA
ATOM     49  O   UNL     1       1.808  15.036   1.933  1.00  0.00    -0.237 OA
ATOM     50  O   UNL     1      -0.283  13.738   1.807  1.00  0.00    -0.744 OA
ENDBRANCH  46  47
ENDBRANCH  25  39
BRANCH  26  51
ATOM     51  C   UNL     1      -1.901   6.558   8.034  1.00  0.00     0.058 A 
ATOM     52  C   UNL     1      -2.330   7.481   9.004  1.00  0.00     0.135 A 
ATOM     53  C   UNL     1      -2.920   5.962   7.259  1.00  0.00     0.135 A 
ATOM     54  F   UNL     1      -1.432   8.115   9.774  1.00  0.00    -0.206 F 
ATOM     55  C   UNL     1      -3.678   7.825   9.164  1.00  0.00     0.059 A 
ATOM     56  C   UNL     1      -4.269   6.273   7.414  1.00  0.00     0.059 A 
ATOM     57  F   UNL     1      -2.636   5.120   6.256  1.00  0.00    -0.206 F 
ATOM     58  C   UNL     1      -4.640   7.227   8.351  1.00  0.00     0.060 A 
BRANCH  58  59
ATOM     59  S   UNL     1      -6.356   7.788   8.432  1.00  0.00     0.124 S 
ATOM     60  O   UNL     1      -6.775   7.290   9.738  1.00  0.00    -0.237 OA
ATOM     61  O   UNL     1      -6.214   9.235   8.317  1.00  0.00    -0.237 OA
ATOM     62  O   UNL     1      -6.983   7.133   7.286  1.00  0.00    -0.744 OA
ENDBRANCH  58  59
ENDBRANCH  26  51
BRANCH  38  63
ATOM     63  C   UNL     1       4.441   7.035   8.446  1.00  0.00     0.058 A 
ATOM     64  C   UNL     1       4.061   5.702   8.684  1.00  0.00     0.135 A 
ATOM     65  C   UNL     1       5.544   7.523   9.163  1.00  0.00     0.135 A 
ATOM     66  F   UNL     1       3.096   5.120   7.959  1.00  0.00    -0.206 F 
ATOM     67  C   UNL     1       4.712   4.910   9.634  1.00  0.00     0.059 A 
ATOM     68  C   UNL     1       6.229   6.741  10.088  1.00  0.00     0.059 A 
ATOM     69  F   UNL     1       6.002   8.764   8.932  1.00  0.00    -0.206 F 
ATOM     70  C   UNL     1       5.795   5.441  10.333  1.00  0.00     0.060 A 
BRANCH  70  71
ATOM     71  S   UNL     1       6.673   4.402  11.521  1.00  0.00     0.124 S 
ATOM     72  O   UNL     1       5.707   4.295  12.608  1.00  0.00    -0.237 OA
ATOM     73  O   UNL     1       6.910   3.179  10.759  1.00  0.00    -0.237 OA
ATOM     74  O   UNL     1       7.875   5.175  11.828  1.00  0.00    -0.744 OA
ENDBRANCH  70  71
ENDBRANCH  38  63
ENDBRANCH  12  13
ENDBRANCH   5   7
ENDBRANCH   4   5
ENDBRANCH   3   4
ENDBRANCH   2   3
ENDBRANCH   1   2
BRANCH   1  75
ATOM     75  C   UNL     1       2.698   0.053  -1.390  1.00  0.00     0.202 C 
BRANCH  75  76
ATOM     76  C   UNL     1       2.279  -1.424  -1.467  1.00  0.00     0.261 C 
BRANCH  76  77
ATOM     77  O   UNL     1       3.386  -2.320  -1.271  1.00  0.00    -0.458 OA
BRANCH  77  78
ATOM     78  C   UNL     1       3.388  -3.442  -1.988  1.00  0.00     0.359 C 
ATOM     79  O   UNL     1       2.557  -3.746  -2.856  1.00  0.00    -0.244 OA
BRANCH  78  80
ATOM     80  C   UNL     1       4.503  -4.340  -1.617  1.00  0.00     0.179 A 
ATOM     81  N   UNL     1       4.088  -5.654  -1.583  1.00  0.00    -0.245 NA
ATOM     82  C   UNL     1       5.833  -3.997  -1.377  1.00  0.00     0.161 A 
ATOM     83  C   UNL     1       4.996  -6.584  -1.236  1.00  0.00     0.132 A 
ATOM     84  N   UNL     1       6.743  -4.983  -1.061  1.00  0.00    -0.247 NA
ATOM     85  C   UNL     1       6.302  -6.253  -0.972  1.00  0.00     0.132 A 
BRANCH  82  86
ATOM     86  C   UNL     1       6.492  -2.666  -1.238  1.00  0.00     0.276 C 
ATOM     87  O   UNL     1       7.126  -2.483  -0.186  1.00  0.00    -0.267 OA
ATOM     88  N   UNL     1       6.531  -1.597  -2.107  1.00  0.00    -0.321 N 
ATOM     89  H   UNL     1       7.235  -0.951  -1.869  1.00  0.00     0.170 HD
BRANCH  88  90
ATOM     90  C   UNL     1       5.819  -1.203  -3.242  1.00  0.00     0.043 A 
ATOM     91  C   UNL     1       5.078  -2.064  -4.031  1.00  0.00     0.028 A 
ATOM     92  C   UNL     1       5.759   0.181  -3.490  1.00  0.00     0.049 A 
ATOM     93  C   UNL     1       4.098  -1.551  -4.881  1.00  0.00     0.032 A 
ATOM     94  C   UNL     1       4.797   0.709  -4.359  1.00  0.00     0.068 A 
ATOM     95  C   UNL     1       3.919  -0.165  -4.997  1.00  0.00     0.085 A 
ATOM     96  Cl  UNL     1       4.758   2.417  -4.597  1.00  0.00    -0.082 Cl
BRANCH  95  97
ATOM     97  N   UNL     1       2.725   0.281  -5.595  1.00  0.00    -0.220 N 
ATOM     98  C   UNL     1       2.132  -0.232  -6.721  1.00  0.00     0.226 A 
ATOM     99  N   UNL     1       1.798   0.947  -4.865  1.00  0.00    -0.155 NA
ATOM    100  N   UNL     1       0.847   0.029  -6.727  1.00  0.00    -0.223 NA
ATOM    101  C   UNL     1       0.681   0.720  -5.562  1.00  0.00     0.246 A 
ENDBRANCH  95  97
ENDBRANCH  88  90
ENDBRANCH  82  86
ENDBRANCH  78  80
ENDBRANCH  77  78
ENDBRANCH  76  77
ENDBRANCH  75  76
ENDBRANCH   1  75
TORSDOF 20
