REMARK SMILES C[C@@H](C(=O)OCCOCCOC(=O)c1ccc(-c2c3nc(c(-c4c(F)cc(S(=O)(=O)[O-])cc4F)c4ccc([nH]4)c(-c4c(F)cc(S(=O)(=O)[O-])cc4F)c4nc(c(-c5c(F)cc(S(=O)(=O)[O-])cc5F)c5ccc2[nH]5)C=C4)C=C3)cc1)c1ccc(C[C@@H]2CCC[C@@H]2O)cc1
REMARK SMILES IDX 7 1 6 2 5 3 3 4 4 5 2 6 1 7 80 8 81 9 92 10 82 11 91 12
REMARK SMILES IDX 83 13 84 14 85 15 86 16 89 17 87 18 88 19 90 20 8 22 9 23
REMARK SMILES IDX 10 24 11 25 12 26 13 27 14 28 15 29 79 30 16 31 78 32 17 33
REMARK SMILES IDX 18 34 19 35 72 36 20 37 77 38 71 39 73 40 21 41 76 42 70 43
REMARK SMILES IDX 69 44 22 46 56 47 35 48 55 49 36 50 39 51 54 52 74 53 37 54
REMARK SMILES IDX 38 55 53 57 75 58 40 59 23 60 24 61 33 62 25 63 26 64 32 65
REMARK SMILES IDX 34 66 27 67 28 68 29 69 30 70 31 71 57 72 58 73 67 74 59 75
REMARK SMILES IDX 60 76 66 77 68 78 61 79 62 80 63 81 64 82 65 83 41 84 42 85
REMARK SMILES IDX 51 86 43 87 44 88 50 89 52 90 45 91 46 92 47 93 48 94 49 95
REMARK H PARENT 90 21 73 45 39 56
REMARK Flexibility Score: inf
ROOT
ATOM      1  C   UNL     1      -9.029   1.319  11.073  1.00  0.00     0.202 C 
ENDROOT
BRANCH   1   2
ATOM      2  C   UNL     1      -8.447   2.675  10.661  1.00  0.00     0.261 C 
BRANCH   2   3
ATOM      3  O   UNL     1      -9.263   3.269   9.637  1.00  0.00    -0.463 OA
BRANCH   3   4
ATOM      4  C   UNL     1      -8.594   3.855   8.610  1.00  0.00     0.313 C 
ATOM      5  O   UNL     1      -7.392   4.099   8.618  1.00  0.00    -0.252 OA
BRANCH   4   6
ATOM      6  C   UNL     1      -9.484   4.068   7.380  1.00  0.00     0.126 C 
ATOM      7  C   UNL     1     -10.989   3.929   7.633  1.00  0.00     0.025 C 
BRANCH   6   8
ATOM      8  C   UNL     1      -9.051   3.213   6.191  1.00  0.00    -0.034 A 
ATOM      9  C   UNL     1      -8.374   1.995   6.353  1.00  0.00     0.005 A 
ATOM     10  C   UNL     1      -9.317   3.648   4.886  1.00  0.00     0.005 A 
ATOM     11  C   UNL     1      -7.910   1.276   5.252  1.00  0.00     0.004 A 
ATOM     12  C   UNL     1      -8.826   2.941   3.784  1.00  0.00     0.004 A 
ATOM     13  C   UNL     1      -8.059   1.782   3.962  1.00  0.00    -0.048 A 
BRANCH  13  14
ATOM     14  C   UNL     1      -7.353   1.137   2.795  1.00  0.00     0.041 C 
BRANCH  14  15
ATOM     15  C   UNL     1      -5.817   1.328   2.699  1.00  0.00     0.022 C 
ATOM     16  C   UNL     1      -4.996   0.622   3.788  1.00  0.00     0.007 C 
ATOM     17  C   UNL     1      -5.270   2.759   2.749  1.00  0.00     0.117 C 
ATOM     18  C   UNL     1      -4.591   1.691   4.809  1.00  0.00     0.003 C 
ATOM     19  C   UNL     1      -5.009   3.036   4.226  1.00  0.00     0.032 C 
BRANCH  17  20
ATOM     20  O   UNL     1      -6.110   3.715   2.136  1.00  0.00    -0.393 OA
ATOM     21  H   UNL     1      -6.970   3.725   2.585  1.00  0.00     0.210 HD
ENDBRANCH  17  20
ENDBRANCH  14  15
ENDBRANCH  13  14
ENDBRANCH   6   8
ENDBRANCH   4   6
ENDBRANCH   3   4
ENDBRANCH   2   3
ENDBRANCH   1   2
BRANCH   1  22
ATOM     22  O   UNL     1      -9.033   0.310  10.058  1.00  0.00    -0.374 OA
BRANCH  22  23
ATOM     23  C   UNL     1     -10.034   0.410   9.044  1.00  0.00     0.202 C 
BRANCH  23  24
ATOM     24  C   UNL     1     -11.447  -0.054   9.406  1.00  0.00     0.261 C 
BRANCH  24  25
ATOM     25  O   UNL     1     -12.049   0.780  10.409  1.00  0.00    -0.460 OA
BRANCH  25  26
ATOM     26  C   UNL     1     -12.198   0.186  11.615  1.00  0.00     0.338 C 
ATOM     27  O   UNL     1     -11.958  -0.981  11.896  1.00  0.00    -0.246 OA
BRANCH  26  28
ATOM     28  C   UNL     1     -12.523   1.193  12.640  1.00  0.00     0.060 A 
ATOM     29  C   UNL     1     -11.754   1.184  13.811  1.00  0.00     0.016 A 
ATOM     30  C   UNL     1     -13.591   2.082  12.498  1.00  0.00     0.016 A 
ATOM     31  C   UNL     1     -12.088   2.021  14.871  1.00  0.00     0.010 A 
ATOM     32  C   UNL     1     -13.931   2.917  13.568  1.00  0.00     0.010 A 
ATOM     33  C   UNL     1     -13.205   2.860  14.772  1.00  0.00    -0.014 A 
BRANCH  33  34
ATOM     34  C   UNL     1     -13.700   3.548  15.988  1.00  0.00     0.031 A 
ATOM     35  C   UNL     1     -14.844   2.936  16.750  1.00  0.00     0.074 A 
ATOM     36  C   UNL     1     -13.110   4.672  16.431  1.00  0.00     0.049 A 
ATOM     37  N   UNL     1     -15.443   3.364  17.831  1.00  0.00    -0.248 NA
ATOM     38  C   UNL     1     -15.384   1.671  16.224  1.00  0.00     0.031 C 
ATOM     39  C   UNL     1     -11.968   5.332  15.798  1.00  0.00     0.029 A 
ATOM     40  N   UNL     1     -13.391   5.457  17.520  1.00  0.00    -0.354 N 
ATOM     41  C   UNL     1     -16.433   2.428  18.110  1.00  0.00     0.074 A 
ATOM     42  C   UNL     1     -16.372   1.423  17.071  1.00  0.00     0.031 C 
ATOM     43  C   UNL     1     -11.651   6.429  16.507  1.00  0.00     0.029 A 
ATOM     44  C   UNL     1     -12.583   6.563  17.625  1.00  0.00     0.049 A 
ATOM     45  H   UNL     1     -14.105   5.248  18.165  1.00  0.00     0.167 HD
ATOM     46  C   UNL     1     -17.307   2.406  19.144  1.00  0.00     0.037 A 
ATOM     47  C   UNL     1     -12.607   7.577  18.513  1.00  0.00     0.037 A 
ATOM     48  C   UNL     1     -17.357   3.405  20.178  1.00  0.00     0.049 A 
ATOM     49  C   UNL     1     -13.628   7.560  19.621  1.00  0.00     0.074 A 
ATOM     50  C   UNL     1     -18.190   3.462  21.281  1.00  0.00     0.029 A 
ATOM     51  N   UNL     1     -16.543   4.527  20.233  1.00  0.00    -0.354 N 
ATOM     52  N   UNL     1     -14.543   6.658  19.887  1.00  0.00    -0.248 NA
ATOM     53  C   UNL     1     -13.619   8.697  20.552  1.00  0.00     0.031 C 
ATOM     54  C   UNL     1     -17.911   4.642  21.979  1.00  0.00     0.029 A 
ATOM     55  C   UNL     1     -16.870   5.295  21.338  1.00  0.00     0.049 A 
ATOM     56  H   UNL     1     -15.836   4.745  19.583  1.00  0.00     0.167 HD
ATOM     57  C   UNL     1     -15.199   7.104  21.029  1.00  0.00     0.074 A 
ATOM     58  C   UNL     1     -14.571   8.353  21.409  1.00  0.00     0.031 C 
ATOM     59  C   UNL     1     -16.227   6.532  21.705  1.00  0.00     0.037 A 
BRANCH  46  60
ATOM     60  C   UNL     1     -18.299   1.277  19.194  1.00  0.00     0.058 A 
ATOM     61  C   UNL     1     -17.916  -0.030  19.532  1.00  0.00     0.135 A 
ATOM     62  C   UNL     1     -19.658   1.515  18.933  1.00  0.00     0.135 A 
ATOM     63  F   UNL     1     -16.627  -0.317  19.772  1.00  0.00    -0.206 F 
ATOM     64  C   UNL     1     -18.843  -1.067  19.590  1.00  0.00     0.059 A 
ATOM     65  C   UNL     1     -20.606   0.499  19.009  1.00  0.00     0.059 A 
ATOM     66  F   UNL     1     -20.077   2.746  18.600  1.00  0.00    -0.206 F 
ATOM     67  C   UNL     1     -20.186  -0.792  19.326  1.00  0.00     0.060 A 
BRANCH  67  68
ATOM     68  S   UNL     1     -21.378  -2.145  19.413  1.00  0.00     0.124 S 
ATOM     69  O   UNL     1     -21.064  -2.888  18.196  1.00  0.00    -0.237 OA
ATOM     70  O   UNL     1     -21.017  -2.801  20.666  1.00  0.00    -0.237 OA
ATOM     71  O   UNL     1     -22.668  -1.462  19.416  1.00  0.00    -0.744 OA
ENDBRANCH  67  68
ENDBRANCH  46  60
BRANCH  47  72
ATOM     72  C   UNL     1     -11.640   8.699  18.387  1.00  0.00     0.058 A 
ATOM     73  C   UNL     1     -10.612   8.881  19.323  1.00  0.00     0.135 A 
ATOM     74  C   UNL     1     -11.730   9.617  17.328  1.00  0.00     0.135 A 
ATOM     75  F   UNL     1     -10.491   8.037  20.359  1.00  0.00    -0.206 F 
ATOM     76  C   UNL     1      -9.714   9.939  19.223  1.00  0.00     0.059 A 
ATOM     77  C   UNL     1     -10.829  10.668  17.193  1.00  0.00     0.059 A 
ATOM     78  F   UNL     1     -12.690   9.481  16.400  1.00  0.00    -0.206 F 
ATOM     79  C   UNL     1      -9.831  10.827  18.152  1.00  0.00     0.060 A 
BRANCH  79  80
ATOM     80  S   UNL     1      -8.634  12.172  18.006  1.00  0.00     0.124 S 
ATOM     81  O   UNL     1      -9.082  13.079  19.056  1.00  0.00    -0.237 OA
ATOM     82  O   UNL     1      -7.369  11.486  18.249  1.00  0.00    -0.237 OA
ATOM     83  O   UNL     1      -8.828  12.644  16.637  1.00  0.00    -0.744 OA
ENDBRANCH  79  80
ENDBRANCH  47  72
BRANCH  59  84
ATOM     84  C   UNL     1     -16.715   7.229  22.945  1.00  0.00     0.058 A 
ATOM     85  C   UNL     1     -17.477   8.406  22.879  1.00  0.00     0.135 A 
ATOM     86  C   UNL     1     -16.464   6.680  24.213  1.00  0.00     0.135 A 
ATOM     87  F   UNL     1     -17.740   8.974  21.691  1.00  0.00    -0.206 F 
ATOM     88  C   UNL     1     -17.954   9.027  24.028  1.00  0.00     0.059 A 
ATOM     89  C   UNL     1     -16.954   7.269  25.374  1.00  0.00     0.059 A 
ATOM     90  F   UNL     1     -15.751   5.548  24.331  1.00  0.00    -0.206 F 
ATOM     91  C   UNL     1     -17.689   8.449  25.272  1.00  0.00     0.060 A 
BRANCH  91  92
ATOM     92  S   UNL     1     -18.343   9.245  26.755  1.00  0.00     0.124 S 
ATOM     93  O   UNL     1     -17.447  10.388  26.895  1.00  0.00    -0.237 OA
ATOM     94  O   UNL     1     -19.714   9.559  26.363  1.00  0.00    -0.237 OA
ATOM     95  O   UNL     1     -18.212   8.214  27.780  1.00  0.00    -0.744 OA
ENDBRANCH  91  92
ENDBRANCH  59  84
ENDBRANCH  33  34
ENDBRANCH  26  28
ENDBRANCH  25  26
ENDBRANCH  24  25
ENDBRANCH  23  24
ENDBRANCH  22  23
ENDBRANCH   1  22
TORSDOF 21
