REMARK SMILES NS(=O)(=O)c1ccc(-n2nc(C(=O)NCCCC(=O)OCCOCCOC(=O)c3ccc(-c4c5nc(c(-c6c(F)cc(S(=O)(=O)[O-])cc6F)c6ccc([nH]6)c(-c6c(F)cc(S(=O)(=O)[O-])cc6F)c6nc(c(-c7c(F)cc(S(=O)(=O)[O-])cc7F)c7ccc4[nH]7)C=C6)C=C5)cc3)cc2-c2ccccc2)cc1
REMARK SMILES IDX 21 1 20 2 18 3 19 4 17 5 16 6 15 7 14 8 12 9 13 10 11 12
REMARK SMILES IDX 9 13 10 14 96 15 95 16 8 17 5 18 6 19 104 20 7 21 103 22
REMARK SMILES IDX 2 23 3 24 4 25 1 26 97 29 98 30 102 31 99 32 101 33 100 34
REMARK SMILES IDX 22 35 23 36 24 37 25 38 26 39 27 40 28 41 29 42 30 43 94 44
REMARK SMILES IDX 31 45 93 46 32 47 33 48 34 49 87 50 35 51 92 52 86 53 88 54
REMARK SMILES IDX 36 55 91 56 85 57 84 58 37 60 71 61 50 62 70 63 51 64 54 65
REMARK SMILES IDX 69 66 89 67 52 68 53 69 68 71 90 72 55 73 38 74 39 75 48 76
REMARK SMILES IDX 40 77 41 78 47 79 49 80 42 81 43 82 44 83 45 84 46 85 72 86
REMARK SMILES IDX 73 87 82 88 74 89 75 90 81 91 83 92 76 93 77 94 78 95 79 96
REMARK SMILES IDX 80 97 56 98 57 99 66 100 58 101 59 102 65 103 67 104 60 105
REMARK SMILES IDX 61 106 62 107 63 108 64 109
REMARK H PARENT 14 11 1 27 1 28 88 59 54 70
REMARK Flexibility Score: inf
ROOT
ATOM      1  C   UNL     1       4.607  -7.615 -13.454  1.00  0.00     0.261 C 
ENDROOT
BRANCH   1   2
ATOM      2  O   UNL     1       4.505  -6.344 -12.790  1.00  0.00    -0.463 OA
BRANCH   2   3
ATOM      3  C   UNL     1       4.760  -5.231 -13.514  1.00  0.00     0.305 C 
ATOM      4  O   UNL     1       5.185  -5.224 -14.662  1.00  0.00    -0.252 OA
BRANCH   3   5
ATOM      5  C   UNL     1       4.482  -3.961 -12.732  1.00  0.00     0.124 C 
BRANCH   5   6
ATOM      6  C   UNL     1       3.367  -3.999 -11.678  1.00  0.00     0.033 C 
BRANCH   6   7
ATOM      7  C   UNL     1       3.637  -4.883 -10.460  1.00  0.00     0.117 C 
BRANCH   7   8
ATOM      8  N   UNL     1       4.746  -4.396  -9.667  1.00  0.00    -0.351 N 
ATOM      9  C   UNL     1       4.872  -3.842  -8.410  1.00  0.00     0.271 C 
ATOM     10  O   UNL     1       6.032  -3.582  -8.076  1.00  0.00    -0.267 OA
ATOM     11  H   UNL     1       5.610  -4.479 -10.132  1.00  0.00     0.163 HD
BRANCH   9  12
ATOM     12  C   UNL     1       3.719  -3.616  -7.511  1.00  0.00     0.151 A 
ATOM     13  N   UNL     1       2.703  -3.305  -5.636  1.00  0.00    -0.232 N 
ATOM     14  N   UNL     1       3.906  -3.168  -6.242  1.00  0.00    -0.162 NA
ATOM     15  C   UNL     1       1.725  -3.649  -6.540  1.00  0.00     0.075 A 
ATOM     16  C   UNL     1       2.339  -3.789  -7.751  1.00  0.00     0.065 A 
BRANCH  13  17
ATOM     17  C   UNL     1       2.458  -2.985  -4.275  1.00  0.00     0.065 A 
ATOM     18  C   UNL     1       1.343  -2.184  -1.852  1.00  0.00     0.082 A 
ATOM     19  C   UNL     1       1.232  -3.517  -2.247  1.00  0.00     0.024 A 
ATOM     20  C   UNL     1       2.019  -1.253  -2.654  1.00  0.00     0.024 A 
ATOM     21  C   UNL     1       1.796  -3.917  -3.456  1.00  0.00     0.030 A 
ATOM     22  C   UNL     1       2.594  -1.657  -3.866  1.00  0.00     0.030 A 
BRANCH  18  23
ATOM     23  S   UNL     1       0.643  -1.739  -0.292  1.00  0.00     0.238 S 
ATOM     24  O   UNL     1       1.341  -2.489   0.738  1.00  0.00    -0.207 OA
ATOM     25  O   UNL     1      -0.783  -1.697  -0.403  1.00  0.00    -0.207 OA
BRANCH  23  26
ATOM     26  N   UNL     1       1.134  -0.145  -0.044  1.00  0.00    -0.225 NA
ATOM     27  H   UNL     1       0.766   0.190   0.846  1.00  0.00     0.137 HD
ATOM     28  H   UNL     1       0.780   0.441  -0.800  1.00  0.00     0.137 HD
ENDBRANCH  23  26
ENDBRANCH  18  23
ENDBRANCH  13  17
BRANCH  15  29
ATOM     29  C   UNL     1       0.347  -3.857  -6.189  1.00  0.00     0.000 A 
ATOM     30  C   UNL     1      -0.526  -2.787  -6.031  1.00  0.00     0.010 A 
ATOM     31  C   UNL     1      -0.029  -5.154  -5.846  1.00  0.00     0.010 A 
ATOM     32  C   UNL     1      -1.768  -3.024  -5.471  1.00  0.00     0.001 A 
ATOM     33  C   UNL     1      -1.261  -5.386  -5.279  1.00  0.00     0.001 A 
ATOM     34  C   UNL     1      -2.114  -4.316  -5.076  1.00  0.00     0.000 A 
ENDBRANCH  15  29
ENDBRANCH   9  12
ENDBRANCH   7   8
ENDBRANCH   6   7
ENDBRANCH   5   6
ENDBRANCH   3   5
ENDBRANCH   2   3
ENDBRANCH   1   2
BRANCH   1  35
ATOM     35  C   UNL     1       3.221  -8.229 -13.640  1.00  0.00     0.202 C 
BRANCH  35  36
ATOM     36  O   UNL     1       2.393  -7.601 -14.621  1.00  0.00    -0.374 OA
BRANCH  36  37
ATOM     37  C   UNL     1       1.706  -6.406 -14.261  1.00  0.00     0.202 C 
BRANCH  37  38
ATOM     38  C   UNL     1       0.460  -6.564 -13.402  1.00  0.00     0.261 C 
BRANCH  38  39
ATOM     39  O   UNL     1       0.782  -7.088 -12.121  1.00  0.00    -0.460 OA
BRANCH  39  40
ATOM     40  C   UNL     1       0.554  -8.417 -11.963  1.00  0.00     0.338 C 
ATOM     41  O   UNL     1       0.341  -9.240 -12.835  1.00  0.00    -0.246 OA
BRANCH  40  42
ATOM     42  C   UNL     1       0.420  -8.666 -10.522  1.00  0.00     0.060 A 
ATOM     43  C   UNL     1      -0.271  -9.820 -10.155  1.00  0.00     0.016 A 
ATOM     44  C   UNL     1       0.598  -7.597  -9.640  1.00  0.00     0.016 A 
ATOM     45  C   UNL     1      -1.042  -9.772  -9.012  1.00  0.00     0.010 A 
ATOM     46  C   UNL     1      -0.222  -7.528  -8.548  1.00  0.00     0.010 A 
ATOM     47  C   UNL     1      -1.099  -8.575  -8.289  1.00  0.00    -0.014 A 
BRANCH  47  48
ATOM     48  C   UNL     1      -1.941  -8.491  -7.109  1.00  0.00     0.031 A 
ATOM     49  C   UNL     1      -1.328  -9.275  -6.002  1.00  0.00     0.074 A 
ATOM     50  C   UNL     1      -3.020  -7.676  -7.026  1.00  0.00     0.049 A 
ATOM     51  N   UNL     1      -1.697 -10.428  -5.555  1.00  0.00    -0.248 NA
ATOM     52  C   UNL     1       0.015  -8.880  -5.530  1.00  0.00     0.031 C 
ATOM     53  C   UNL     1      -3.474  -6.671  -7.990  1.00  0.00     0.029 A 
ATOM     54  N   UNL     1      -3.894  -7.497  -5.987  1.00  0.00    -0.354 N 
ATOM     55  C   UNL     1      -0.799 -10.730  -4.534  1.00  0.00     0.074 A 
ATOM     56  C   UNL     1       0.351  -9.907  -4.753  1.00  0.00     0.031 C 
ATOM     57  C   UNL     1      -4.397  -5.862  -7.412  1.00  0.00     0.029 A 
ATOM     58  C   UNL     1      -4.701  -6.340  -6.075  1.00  0.00     0.049 A 
ATOM     59  H   UNL     1      -3.956  -8.128  -5.234  1.00  0.00     0.167 HD
ATOM     60  C   UNL     1      -1.216 -11.383  -3.417  1.00  0.00     0.037 A 
ATOM     61  C   UNL     1      -5.466  -5.831  -5.056  1.00  0.00     0.037 A 
ATOM     62  C   UNL     1      -2.495 -12.005  -3.655  1.00  0.00     0.049 A 
ATOM     63  C   UNL     1      -5.605  -6.959  -4.081  1.00  0.00     0.074 A 
ATOM     64  C   UNL     1      -2.954 -12.948  -4.554  1.00  0.00     0.029 A 
ATOM     65  N   UNL     1      -3.604 -11.333  -3.196  1.00  0.00    -0.354 N 
ATOM     66  N   UNL     1      -6.277  -8.049  -4.344  1.00  0.00    -0.248 NA
ATOM     67  C   UNL     1      -4.603  -7.092  -3.029  1.00  0.00     0.031 C 
ATOM     68  C   UNL     1      -4.249 -12.492  -4.934  1.00  0.00     0.029 A 
ATOM     69  C   UNL     1      -4.555 -11.356  -4.183  1.00  0.00     0.049 A 
ATOM     70  H   UNL     1      -3.699 -10.910  -2.312  1.00  0.00     0.167 HD
ATOM     71  C   UNL     1      -5.518  -9.081  -3.808  1.00  0.00     0.074 A 
ATOM     72  C   UNL     1      -4.537  -8.426  -2.945  1.00  0.00     0.031 C 
ATOM     73  C   UNL     1      -5.564 -10.334  -4.351  1.00  0.00     0.037 A 
BRANCH  60  74
ATOM     74  C   UNL     1      -0.711 -11.092  -2.021  1.00  0.00     0.058 A 
ATOM     75  C   UNL     1      -1.184 -11.896  -0.964  1.00  0.00     0.135 A 
ATOM     76  C   UNL     1      -0.035  -9.912  -1.630  1.00  0.00     0.135 A 
ATOM     77  F   UNL     1      -1.829 -13.046  -1.215  1.00  0.00    -0.206 F 
ATOM     78  C   UNL     1      -1.089 -11.507   0.370  1.00  0.00     0.059 A 
ATOM     79  C   UNL     1       0.120  -9.534  -0.302  1.00  0.00     0.059 A 
ATOM     80  F   UNL     1       0.430  -9.014  -2.505  1.00  0.00    -0.206 F 
ATOM     81  C   UNL     1      -0.451 -10.313   0.688  1.00  0.00     0.060 A 
BRANCH  81  82
ATOM     82  S   UNL     1      -0.415  -9.762   2.399  1.00  0.00     0.124 S 
ATOM     83  O   UNL     1      -1.820  -9.451   2.631  1.00  0.00    -0.237 OA
ATOM     84  O   UNL     1       0.102 -10.944   3.082  1.00  0.00    -0.237 OA
ATOM     85  O   UNL     1       0.491  -8.618   2.362  1.00  0.00    -0.744 OA
ENDBRANCH  81  82
ENDBRANCH  60  74
BRANCH  61  86
ATOM     86  C   UNL     1      -5.843  -4.414  -4.674  1.00  0.00     0.058 A 
ATOM     87  C   UNL     1      -6.546  -4.146  -3.474  1.00  0.00     0.135 A 
ATOM     88  C   UNL     1      -5.271  -3.277  -5.274  1.00  0.00     0.135 A 
ATOM     89  F   UNL     1      -7.213  -5.130  -2.851  1.00  0.00    -0.206 F 
ATOM     90  C   UNL     1      -6.537  -2.889  -2.839  1.00  0.00     0.059 A 
ATOM     91  C   UNL     1      -5.219  -2.025  -4.645  1.00  0.00     0.059 A 
ATOM     92  F   UNL     1      -4.633  -3.362  -6.447  1.00  0.00    -0.206 F 
ATOM     93  C   UNL     1      -5.820  -1.844  -3.408  1.00  0.00     0.060 A 
BRANCH  93  94
ATOM     94  S   UNL     1      -5.545  -0.290  -2.512  1.00  0.00     0.124 S 
ATOM     95  O   UNL     1      -6.638   0.538  -3.010  1.00  0.00    -0.237 OA
ATOM     96  O   UNL     1      -5.642  -0.690  -1.112  1.00  0.00    -0.237 OA
ATOM     97  O   UNL     1      -4.211   0.107  -2.955  1.00  0.00    -0.744 OA
ENDBRANCH  93  94
ENDBRANCH  61  86
BRANCH  73  98
ATOM     98  C   UNL     1      -6.637 -10.623  -5.371  1.00  0.00     0.058 A 
ATOM     99  C   UNL     1      -6.709 -10.027  -6.644  1.00  0.00     0.135 A 
ATOM    100  C   UNL     1      -7.521 -11.677  -5.109  1.00  0.00     0.135 A 
ATOM    101  F   UNL     1      -5.832  -9.085  -7.014  1.00  0.00    -0.206 F 
ATOM    102  C   UNL     1      -7.641 -10.437  -7.599  1.00  0.00     0.059 A 
ATOM    103  C   UNL     1      -8.435 -12.126  -6.056  1.00  0.00     0.059 A 
ATOM    104  F   UNL     1      -7.457 -12.329  -3.937  1.00  0.00    -0.206 F 
ATOM    105  C   UNL     1      -8.499 -11.493  -7.295  1.00  0.00     0.060 A 
BRANCH 105 106
ATOM    106  S   UNL     1      -9.652 -12.078  -8.554  1.00  0.00     0.124 S 
ATOM    107  O   UNL     1     -10.604 -10.975  -8.633  1.00  0.00    -0.237 OA
ATOM    108  O   UNL     1      -8.787 -12.255  -9.717  1.00  0.00    -0.237 OA
ATOM    109  O   UNL     1     -10.178 -13.317  -7.985  1.00  0.00    -0.744 OA
ENDBRANCH 105 106
ENDBRANCH  73  98
ENDBRANCH  47  48
ENDBRANCH  40  42
ENDBRANCH  39  40
ENDBRANCH  38  39
ENDBRANCH  37  38
ENDBRANCH  36  37
ENDBRANCH  35  36
ENDBRANCH   1  35
TORSDOF 25
