REMARK SMILES O=C(OCCOCCOC(=O)c1cccc(Oc2ncc([N+](=O)[O-])cc2Br)c1)c1ccc(-c2c3nc(c(-c4c(F)cc(S(=O)(=O)[O-])cc4F)c4ccc([nH]4)c(-c4c(F)cc(S(=O)(=O)[O-])cc4F)c4nc(c(-c5c(F)cc(S(=O)(=O)[O-])cc5F)c5ccc2[nH]5)C=C4)C=C3)cc1
REMARK SMILES IDX 6 1 5 2 4 3 3 4 2 5 1 6 29 7 30 8 94 9 31 10 93 11 32 12
REMARK SMILES IDX 33 13 34 14 87 15 35 16 92 17 86 18 88 19 36 20 91 21 85 22
REMARK SMILES IDX 84 23 37 25 71 26 50 27 70 28 51 29 54 30 69 31 89 32 52 33
REMARK SMILES IDX 53 34 68 36 90 37 55 38 38 39 39 40 48 41 40 42 41 43 47 44
REMARK SMILES IDX 49 45 42 46 43 47 44 48 45 49 46 50 72 51 73 52 82 53 74 54
REMARK SMILES IDX 75 55 81 56 83 57 76 58 77 59 78 60 79 61 80 62 56 63 57 64
REMARK SMILES IDX 66 65 58 66 59 67 65 68 67 69 60 70 61 71 62 72 63 73 64 74
REMARK SMILES IDX 7 75 8 76 9 77 10 78 11 79 12 80 13 81 28 82 14 83 16 84
REMARK SMILES IDX 15 85 17 86 18 87 19 88 26 89 20 90 25 91 27 92 21 93 22 94
REMARK SMILES IDX 23 95 24 96
REMARK H PARENT 88 24 54 35
REMARK Flexibility Score: inf
ROOT
ATOM      1  O   UNL     1       3.948  -1.516   0.636  1.00  0.00    -0.374 OA
ENDROOT
BRANCH   1   2
ATOM      2  C   UNL     1       4.266  -0.433   1.507  1.00  0.00     0.202 C 
BRANCH   2   3
ATOM      3  C   UNL     1       3.983   0.949   0.917  1.00  0.00     0.261 C 
BRANCH   3   4
ATOM      4  O   UNL     1       2.594   1.062   0.575  1.00  0.00    -0.460 OA
BRANCH   4   5
ATOM      5  C   UNL     1       2.034   0.894  -0.647  1.00  0.00     0.338 C 
ATOM      6  O   UNL     1       0.810   0.969  -0.751  1.00  0.00    -0.246 OA
BRANCH   5   7
ATOM      7  C   UNL     1       2.828   0.631  -1.883  1.00  0.00     0.060 A 
ATOM      8  C   UNL     1       4.012  -0.105  -1.921  1.00  0.00     0.016 A 
ATOM      9  C   UNL     1       2.289   1.073  -3.100  1.00  0.00     0.016 A 
ATOM     10  C   UNL     1       4.670  -0.377  -3.101  1.00  0.00     0.010 A 
ATOM     11  C   UNL     1       2.929   0.780  -4.308  1.00  0.00     0.010 A 
ATOM     12  C   UNL     1       4.123   0.052  -4.299  1.00  0.00    -0.014 A 
BRANCH  12  13
ATOM     13  C   UNL     1       4.924  -0.194  -5.502  1.00  0.00     0.031 A 
ATOM     14  C   UNL     1       5.697   0.952  -6.066  1.00  0.00     0.074 A 
ATOM     15  C   UNL     1       5.079  -1.458  -5.934  1.00  0.00     0.049 A 
ATOM     16  N   UNL     1       6.436   0.998  -7.136  1.00  0.00    -0.248 NA
ATOM     17  C   UNL     1       5.642   2.217  -5.311  1.00  0.00     0.031 C 
ATOM     18  C   UNL     1       4.484  -2.644  -5.305  1.00  0.00     0.029 A 
ATOM     19  N   UNL     1       5.812  -1.966  -6.969  1.00  0.00    -0.354 N 
ATOM     20  C   UNL     1       6.907   2.302  -7.204  1.00  0.00     0.074 A 
ATOM     21  C   UNL     1       6.369   3.019  -6.072  1.00  0.00     0.031 C 
ATOM     22  C   UNL     1       4.892  -3.741  -5.961  1.00  0.00     0.029 A 
ATOM     23  C   UNL     1       5.703  -3.330  -7.099  1.00  0.00     0.049 A 
ATOM     24  H   UNL     1       6.365  -1.409  -7.564  1.00  0.00     0.167 HD
ATOM     25  C   UNL     1       7.711   2.838  -8.148  1.00  0.00     0.037 A 
ATOM     26  C   UNL     1       6.174  -4.137  -8.067  1.00  0.00     0.037 A 
ATOM     27  C   UNL     1       8.217   2.073  -9.255  1.00  0.00     0.049 A 
ATOM     28  C   UNL     1       6.960  -3.491  -9.176  1.00  0.00     0.074 A 
ATOM     29  C   UNL     1       8.973   2.500 -10.328  1.00  0.00     0.029 A 
ATOM     30  N   UNL     1       8.009   0.707  -9.422  1.00  0.00    -0.354 N 
ATOM     31  N   UNL     1       7.322  -2.233  -9.301  1.00  0.00    -0.248 NA
ATOM     32  C   UNL     1       7.384  -4.355 -10.281  1.00  0.00     0.031 C 
ATOM     33  C   UNL     1       9.177   1.402 -11.171  1.00  0.00     0.029 A 
ATOM     34  C   UNL     1       8.605   0.277 -10.591  1.00  0.00     0.049 A 
ATOM     35  H   UNL     1       7.511   0.132  -8.797  1.00  0.00     0.167 HD
ATOM     36  C   UNL     1       8.037  -2.158 -10.488  1.00  0.00     0.074 A 
ATOM     37  C   UNL     1       8.068  -3.503 -11.033  1.00  0.00     0.031 C 
ATOM     38  C   UNL     1       8.615  -1.082 -11.080  1.00  0.00     0.037 A 
BRANCH  25  39
ATOM     39  C   UNL     1       7.999   4.308  -8.052  1.00  0.00     0.058 A 
ATOM     40  C   UNL     1       8.817   4.848  -7.047  1.00  0.00     0.135 A 
ATOM     41  C   UNL     1       7.408   5.199  -8.963  1.00  0.00     0.135 A 
ATOM     42  F   UNL     1       9.374   4.048  -6.124  1.00  0.00    -0.206 F 
ATOM     43  C   UNL     1       9.020   6.221  -6.934  1.00  0.00     0.059 A 
ATOM     44  C   UNL     1       7.619   6.572  -8.886  1.00  0.00     0.059 A 
ATOM     45  F   UNL     1       6.598   4.738  -9.929  1.00  0.00    -0.206 F 
ATOM     46  C   UNL     1       8.415   7.075  -7.859  1.00  0.00     0.060 A 
BRANCH  46  47
ATOM     47  S   UNL     1       8.684   8.852  -7.697  1.00  0.00     0.124 S 
ATOM     48  O   UNL     1       7.912   9.156  -6.496  1.00  0.00    -0.237 OA
ATOM     49  O   UNL     1      10.134   8.934  -7.555  1.00  0.00    -0.237 OA
ATOM     50  O   UNL     1       8.147   9.393  -8.941  1.00  0.00    -0.744 OA
ENDBRANCH  46  47
ENDBRANCH  25  39
BRANCH  26  51
ATOM     51  C   UNL     1       5.864  -5.593  -8.060  1.00  0.00     0.058 A 
ATOM     52  C   UNL     1       6.876  -6.556  -7.938  1.00  0.00     0.135 A 
ATOM     53  C   UNL     1       4.542  -6.056  -8.178  1.00  0.00     0.135 A 
ATOM     54  F   UNL     1       8.157  -6.173  -7.828  1.00  0.00    -0.206 F 
ATOM     55  C   UNL     1       6.594  -7.920  -7.951  1.00  0.00     0.059 A 
ATOM     56  C   UNL     1       4.231  -7.412  -8.162  1.00  0.00     0.059 A 
ATOM     57  F   UNL     1       3.529  -5.182  -8.289  1.00  0.00    -0.206 F 
ATOM     58  C   UNL     1       5.266  -8.338  -8.062  1.00  0.00     0.060 A 
BRANCH  58  59
ATOM     59  S   UNL     1       4.909 -10.109  -8.057  1.00  0.00     0.124 S 
ATOM     60  O   UNL     1       5.441 -10.520  -9.351  1.00  0.00    -0.237 OA
ATOM     61  O   UNL     1       5.651 -10.567  -6.887  1.00  0.00    -0.237 OA
ATOM     62  O   UNL     1       3.455 -10.159  -7.928  1.00  0.00    -0.744 OA
ENDBRANCH  58  59
ENDBRANCH  26  51
BRANCH  38  63
ATOM     63  C   UNL     1       9.364  -1.334 -12.355  1.00  0.00     0.058 A 
ATOM     64  C   UNL     1       8.699  -1.607 -13.560  1.00  0.00     0.135 A 
ATOM     65  C   UNL     1      10.763  -1.226 -12.379  1.00  0.00     0.135 A 
ATOM     66  F   UNL     1       7.362  -1.728 -13.583  1.00  0.00    -0.206 F 
ATOM     67  C   UNL     1       9.401  -1.785 -14.745  1.00  0.00     0.059 A 
ATOM     68  C   UNL     1      11.482  -1.365 -13.558  1.00  0.00     0.059 A 
ATOM     69  F   UNL     1      11.441  -0.954 -11.252  1.00  0.00    -0.206 F 
ATOM     70  C   UNL     1      10.792  -1.655 -14.735  1.00  0.00     0.060 A 
BRANCH  70  71
ATOM     71  S   UNL     1      11.684  -1.835 -16.291  1.00  0.00     0.124 S 
ATOM     72  O   UNL     1      11.587  -3.273 -16.519  1.00  0.00    -0.237 OA
ATOM     73  O   UNL     1      10.906  -0.994 -17.194  1.00  0.00    -0.237 OA
ATOM     74  O   UNL     1      13.021  -1.338 -15.976  1.00  0.00    -0.744 OA
ENDBRANCH  70  71
ENDBRANCH  38  63
ENDBRANCH  12  13
ENDBRANCH   5   7
ENDBRANCH   4   5
ENDBRANCH   3   4
ENDBRANCH   2   3
ENDBRANCH   1   2
BRANCH   1  75
ATOM     75  C   UNL     1       2.614  -2.025   0.665  1.00  0.00     0.202 C 
BRANCH  75  76
ATOM     76  C   UNL     1       2.680  -3.542   0.854  1.00  0.00     0.261 C 
BRANCH  76  77
ATOM     77  O   UNL     1       3.267  -3.789   2.137  1.00  0.00    -0.460 OA
BRANCH  77  78
ATOM     78  C   UNL     1       4.617  -3.641   2.184  1.00  0.00     0.338 C 
ATOM     79  O   UNL     1       5.416  -3.817   1.279  1.00  0.00    -0.246 OA
BRANCH  78  80
ATOM     80  C   UNL     1       4.980  -3.124   3.521  1.00  0.00     0.063 A 
ATOM     81  C   UNL     1       6.193  -2.469   3.736  1.00  0.00     0.016 A 
ATOM     82  C   UNL     1       4.135  -3.382   4.592  1.00  0.00     0.062 A 
ATOM     83  C   UNL     1       6.576  -2.145   5.039  1.00  0.00     0.005 A 
ATOM     84  C   UNL     1       4.627  -3.295   5.889  1.00  0.00     0.130 A 
ATOM     85  C   UNL     1       5.817  -2.608   6.121  1.00  0.00     0.047 A 
BRANCH  84  86
ATOM     86  O   UNL     1       4.051  -3.989   6.943  1.00  0.00    -0.438 OA
BRANCH  86  87
ATOM     87  C   UNL     1       3.092  -4.932   6.601  1.00  0.00     0.234 A 
ATOM     88  N   UNL     1       1.835  -4.584   6.976  1.00  0.00    -0.214 NA
ATOM     89  C   UNL     1       3.360  -6.043   5.778  1.00  0.00     0.087 A 
ATOM     90  C   UNL     1       0.809  -5.297   6.452  1.00  0.00     0.200 A 
ATOM     91  C   UNL     1       2.282  -6.722   5.202  1.00  0.00     0.108 A 
ATOM     92  Br  UNL     1       5.110  -6.621   5.323  1.00  0.00    -0.045 Br
ATOM     93  C   UNL     1       0.987  -6.331   5.545  1.00  0.00     0.288 A 
BRANCH  93  94
ATOM     94  N   UNL     1      -0.177  -6.981   4.961  1.00  0.00     0.064 N 
ATOM     95  O   UNL     1      -1.285  -6.719   5.449  1.00  0.00    -0.258 OA
ATOM     96  O   UNL     1       0.013  -7.757   4.016  1.00  0.00    -0.258 OA
ENDBRANCH  93  94
ENDBRANCH  86  87
ENDBRANCH  84  86
ENDBRANCH  78  80
ENDBRANCH  77  78
ENDBRANCH  76  77
ENDBRANCH  75  76
ENDBRANCH   1  75
TORSDOF 20
