REMARK SMILES O=C(OCCOCCOC(=O)[C@H]1Cc2c([nH]c3ccccc23)[C@H](c2c[nH]c3ccccc23)[NH2+]1)c1ccc(-c2c3nc(c(-c4c(F)cc(S(=O)(=O)[O-])cc4F)c4ccc([nH]4)c(-c4c(F)cc(S(=O)(=O)[O-])cc4F)c4nc(c(-c5c(F)cc(S(=O)(=O)[O-])cc5F)c5ccc2[nH]5)C=C4)C=C3)cc1
REMARK SMILES IDX 5 1 4 2 3 3 2 4 1 5 34 6 35 7 99 8 36 9 98 10 37 11 38 12
REMARK SMILES IDX 39 13 92 14 40 15 97 16 91 17 93 18 41 19 96 20 90 21 89 22
REMARK SMILES IDX 42 24 76 25 55 26 75 27 56 28 59 29 74 30 94 31 57 32 58 33
REMARK SMILES IDX 73 35 95 36 60 37 43 38 44 39 53 40 45 41 46 42 52 43 54 44
REMARK SMILES IDX 47 45 48 46 49 47 50 48 51 49 77 50 78 51 87 52 79 53 80 54
REMARK SMILES IDX 86 55 88 56 81 57 82 58 83 59 84 60 85 61 61 62 62 63 71 64
REMARK SMILES IDX 63 65 64 66 70 67 72 68 65 69 66 70 67 71 68 72 69 73 6 74
REMARK SMILES IDX 7 75 8 76 9 77 10 78 11 79 12 80 13 81 33 82 14 83 23 84
REMARK SMILES IDX 15 87 22 88 16 89 17 90 21 91 18 93 20 94 19 95 24 96 25 97
REMARK SMILES IDX 32 98 26 99 27 100 31 101 28 103 30 104 29 105
REMARK H PARENT 93 23 59 34 33 85 33 86 16 92 26 102
REMARK Flexibility Score: inf
ROOT
ATOM      1  C   UNL     1       4.721   0.207   1.075  1.00  0.00     0.202 C 
ENDROOT
BRANCH   1   2
ATOM      2  C   UNL     1       4.179   1.157  -0.003  1.00  0.00     0.261 C 
BRANCH   2   3
ATOM      3  O   UNL     1       2.746   1.111  -0.121  1.00  0.00    -0.460 OA
BRANCH   3   4
ATOM      4  C   UNL     1       2.067   0.633  -1.198  1.00  0.00     0.338 C 
ATOM      5  O   UNL     1       0.872   0.871  -1.330  1.00  0.00    -0.246 OA
BRANCH   4   6
ATOM      6  C   UNL     1       2.766  -0.198  -2.213  1.00  0.00     0.060 A 
ATOM      7  C   UNL     1       3.795  -1.071  -1.868  1.00  0.00     0.016 A 
ATOM      8  C   UNL     1       2.345  -0.156  -3.545  1.00  0.00     0.016 A 
ATOM      9  C   UNL     1       4.502  -1.776  -2.810  1.00  0.00     0.010 A 
ATOM     10  C   UNL     1       2.980  -0.957  -4.499  1.00  0.00     0.010 A 
ATOM     11  C   UNL     1       4.067  -1.759  -4.125  1.00  0.00    -0.014 A 
BRANCH  11  12
ATOM     12  C   UNL     1       4.804  -2.614  -5.062  1.00  0.00     0.031 A 
ATOM     13  C   UNL     1       5.707  -1.970  -6.057  1.00  0.00     0.074 A 
ATOM     14  C   UNL     1       4.749  -3.949  -4.886  1.00  0.00     0.049 A 
ATOM     15  N   UNL     1       6.372  -2.521  -7.031  1.00  0.00    -0.248 NA
ATOM     16  C   UNL     1       5.900  -0.513  -5.936  1.00  0.00     0.031 C 
ATOM     17  C   UNL     1       3.995  -4.630  -3.823  1.00  0.00     0.029 A 
ATOM     18  N   UNL     1       5.355  -4.970  -5.561  1.00  0.00    -0.354 N 
ATOM     19  C   UNL     1       7.012  -1.475  -7.680  1.00  0.00     0.074 A 
ATOM     20  C   UNL     1       6.690  -0.259  -6.970  1.00  0.00     0.031 C 
ATOM     21  C   UNL     1       4.203  -5.952  -3.910  1.00  0.00     0.029 A 
ATOM     22  C   UNL     1       5.012  -6.215  -5.090  1.00  0.00     0.049 A 
ATOM     23  H   UNL     1       5.977  -4.827  -6.311  1.00  0.00     0.167 HD
ATOM     24  C   UNL     1       7.774  -1.548  -8.793  1.00  0.00     0.037 A 
ATOM     25  C   UNL     1       5.266  -7.430  -5.609  1.00  0.00     0.037 A 
ATOM     26  C   UNL     1       8.077  -2.793  -9.444  1.00  0.00     0.049 A 
ATOM     27  C   UNL     1       6.044  -7.474  -6.894  1.00  0.00     0.074 A 
ATOM     28  C   UNL     1       8.806  -3.010 -10.596  1.00  0.00     0.029 A 
ATOM     29  N   UNL     1       7.656  -4.037  -8.988  1.00  0.00    -0.354 N 
ATOM     30  N   UNL     1       6.594  -6.478  -7.552  1.00  0.00    -0.248 NA
ATOM     31  C   UNL     1       6.204  -8.784  -7.532  1.00  0.00     0.031 C 
ATOM     32  C   UNL     1       8.787  -4.384 -10.861  1.00  0.00     0.029 A 
ATOM     33  C   UNL     1       8.080  -5.026  -9.853  1.00  0.00     0.049 A 
ATOM     34  H   UNL     1       7.132  -4.190  -8.168  1.00  0.00     0.167 HD
ATOM     35  C   UNL     1       7.157  -7.039  -8.688  1.00  0.00     0.074 A 
ATOM     36  C   UNL     1       6.909  -8.467  -8.610  1.00  0.00     0.031 C 
ATOM     37  C   UNL     1       7.806  -6.436  -9.715  1.00  0.00     0.037 A 
BRANCH  24  38
ATOM     38  C   UNL     1       8.229  -0.260  -9.407  1.00  0.00     0.058 A 
ATOM     39  C   UNL     1       9.275   0.504  -8.870  1.00  0.00     0.135 A 
ATOM     40  C   UNL     1       7.591   0.222 -10.562  1.00  0.00     0.135 A 
ATOM     41  F   UNL     1       9.893   0.108  -7.746  1.00  0.00    -0.206 F 
ATOM     42  C   UNL     1       9.668   1.706  -9.452  1.00  0.00     0.059 A 
ATOM     43  C   UNL     1       7.978   1.411 -11.171  1.00  0.00     0.059 A 
ATOM     44  F   UNL     1       6.568  -0.461 -11.102  1.00  0.00    -0.206 F 
ATOM     45  C   UNL     1       9.012   2.151 -10.603  1.00  0.00     0.060 A 
BRANCH  45  46
ATOM     46  S   UNL     1       9.534   3.709 -11.352  1.00  0.00     0.124 S 
ATOM     47  O   UNL     1       9.002   4.682 -10.402  1.00  0.00    -0.237 OA
ATOM     48  O   UNL     1      10.987   3.574 -11.372  1.00  0.00    -0.237 OA
ATOM     49  O   UNL     1       8.888   3.692 -12.660  1.00  0.00    -0.744 OA
ENDBRANCH  45  46
ENDBRANCH  24  38
BRANCH  25  50
ATOM     50  C   UNL     1       4.681  -8.654  -4.996  1.00  0.00     0.058 A 
ATOM     51  C   UNL     1       5.488  -9.664  -4.454  1.00  0.00     0.135 A 
ATOM     52  C   UNL     1       3.288  -8.843  -4.950  1.00  0.00     0.135 A 
ATOM     53  F   UNL     1       6.824  -9.539  -4.476  1.00  0.00    -0.206 F 
ATOM     54  C   UNL     1       4.940 -10.823  -3.910  1.00  0.00     0.059 A 
ATOM     55  C   UNL     1       2.716  -9.977  -4.384  1.00  0.00     0.059 A 
ATOM     56  F   UNL     1       2.463  -7.906  -5.444  1.00  0.00    -0.206 F 
ATOM     57  C   UNL     1       3.551 -10.972  -3.883  1.00  0.00     0.060 A 
BRANCH  57  58
ATOM     58  S   UNL     1       2.843 -12.474  -3.174  1.00  0.00     0.124 S 
ATOM     59  O   UNL     1       3.080 -13.440  -4.241  1.00  0.00    -0.237 OA
ATOM     60  O   UNL     1       3.638 -12.652  -1.963  1.00  0.00    -0.237 OA
ATOM     61  O   UNL     1       1.446 -12.112  -2.949  1.00  0.00    -0.744 OA
ENDBRANCH  57  58
ENDBRANCH  25  50
BRANCH  37  62
ATOM     62  C   UNL     1       8.284  -7.324 -10.821  1.00  0.00     0.058 A 
ATOM     63  C   UNL     1       7.397  -7.808 -11.793  1.00  0.00     0.135 A 
ATOM     64  C   UNL     1       9.649  -7.611 -10.958  1.00  0.00     0.135 A 
ATOM     65  F   UNL     1       6.081  -7.565 -11.690  1.00  0.00    -0.206 F 
ATOM     66  C   UNL     1       7.852  -8.551 -12.873  1.00  0.00     0.059 A 
ATOM     67  C   UNL     1      10.129  -8.333 -12.043  1.00  0.00     0.059 A 
ATOM     68  F   UNL     1      10.531  -7.159 -10.052  1.00  0.00    -0.206 F 
ATOM     69  C   UNL     1       9.221  -8.800 -12.994  1.00  0.00     0.060 A 
BRANCH  69  70
ATOM     70  S   UNL     1       9.809  -9.695 -14.445  1.00  0.00     0.124 S 
ATOM     71  O   UNL     1       9.427 -11.064 -14.119  1.00  0.00    -0.237 OA
ATOM     72  O   UNL     1       9.058  -9.066 -15.527  1.00  0.00    -0.237 OA
ATOM     73  O   UNL     1      11.244  -9.426 -14.449  1.00  0.00    -0.744 OA
ENDBRANCH  69  70
ENDBRANCH  37  62
ENDBRANCH  11  12
ENDBRANCH   4   6
ENDBRANCH   3   4
ENDBRANCH   2   3
ENDBRANCH   1   2
BRANCH   1  74
ATOM     74  O   UNL     1       4.176  -1.108   1.212  1.00  0.00    -0.374 OA
BRANCH  74  75
ATOM     75  C   UNL     1       2.779  -1.228   1.499  1.00  0.00     0.202 C 
BRANCH  75  76
ATOM     76  C   UNL     1       2.542  -2.402   2.452  1.00  0.00     0.261 C 
BRANCH  76  77
ATOM     77  O   UNL     1       3.021  -1.996   3.739  1.00  0.00    -0.459 OA
BRANCH  77  78
ATOM     78  C   UNL     1       4.353  -2.232   3.944  1.00  0.00     0.365 C 
ATOM     79  O   UNL     1       4.981  -3.156   3.466  1.00  0.00    -0.245 OA
BRANCH  78  80
ATOM     80  C   UNL     1       4.907  -1.138   4.854  1.00  0.00     0.298 C 
ATOM     81  C   UNL     1       6.413  -1.370   5.029  1.00  0.00     0.115 C 
ATOM     82  N   UNL     1       4.699   0.208   4.253  1.00  0.00    -0.323 N 
ATOM     83  C   UNL     1       6.943  -0.248   5.841  1.00  0.00    -0.006 A 
ATOM     84  C   UNL     1       5.056   1.347   5.099  1.00  0.00     0.264 C 
ATOM     85  H   UNL     1       3.711   0.294   4.014  1.00  0.00     0.347 HD
ATOM     86  H   UNL     1       5.326   0.253   3.450  1.00  0.00     0.347 HD
ATOM     87  C   UNL     1       6.300   0.979   5.877  1.00  0.00     0.083 A 
ATOM     88  C   UNL     1       8.064  -0.205   6.692  1.00  0.00     0.003 A 
ATOM     89  N   UNL     1       7.048   1.790   6.690  1.00  0.00    -0.353 N 
ATOM     90  C   UNL     1       8.091   1.073   7.248  1.00  0.00     0.046 A 
ATOM     91  C   UNL     1       9.043  -1.146   7.055  1.00  0.00     0.010 A 
ATOM     92  H   UNL     1       6.869   2.744   6.853  1.00  0.00     0.166 HD
ATOM     93  C   UNL     1       9.054   1.446   8.192  1.00  0.00     0.026 A 
ATOM     94  C   UNL     1      10.004  -0.791   8.001  1.00  0.00     0.001 A 
ATOM     95  C   UNL     1      10.002   0.484   8.566  1.00  0.00     0.002 A 
BRANCH  84  96
ATOM     96  C   UNL     1       3.866   1.859   5.910  1.00  0.00     0.041 A 
ATOM     97  C   UNL     1       3.955   2.894   6.835  1.00  0.00     0.093 A 
ATOM     98  C   UNL     1       2.438   1.550   5.833  1.00  0.00     0.009 A 
ATOM     99  N   UNL     1       2.725   3.132   7.376  1.00  0.00    -0.361 N 
ATOM    100  C   UNL     1       1.782   2.332   6.790  1.00  0.00     0.046 A 
ATOM    101  C   UNL     1       1.604   0.709   5.054  1.00  0.00     0.011 A 
ATOM    102  H   UNL     1       2.542   3.788   8.088  1.00  0.00     0.166 HD
ATOM    103  C   UNL     1       0.400   2.268   7.032  1.00  0.00     0.026 A 
ATOM    104  C   UNL     1       0.223   0.634   5.272  1.00  0.00     0.001 A 
ATOM    105  C   UNL     1      -0.369   1.397   6.261  1.00  0.00     0.002 A 
ENDBRANCH  84  96
ENDBRANCH  78  80
ENDBRANCH  77  78
ENDBRANCH  76  77
ENDBRANCH  75  76
ENDBRANCH  74  75
ENDBRANCH   1  74
TORSDOF 18
