REMARK SMILES Cc1cc(Br)cc2c1O[C@H](C(F)(F)F)C(C(=O)OCCOCCOC(=O)c1ccc(-c3c4nc(c(-c5c(F)cc(S(=O)(=O)[O-])cc5F)c5ccc([nH]5)c(-c5c(F)cc(S(=O)(=O)[O-])cc5F)c5nc(c(-c6c(F)cc(S(=O)(=O)[O-])cc6F)c6ccc3[nH]6)C=C5)C=C4)cc1)=C2
REMARK SMILES IDX 22 1 21 2 20 3 19 4 18 5 16 6 17 7 15 8 1 9 2 10 3 11 8 12
REMARK SMILES IDX 4 13 7 14 9 15 5 16 6 17 93 18 10 19 11 20 12 21 13 22 14 23
REMARK SMILES IDX 23 24 24 25 25 26 26 27 27 28 28 29 92 30 29 31 91 32 30 33
REMARK SMILES IDX 31 34 32 35 85 36 33 37 90 38 84 39 86 40 34 41 89 42 83 43
REMARK SMILES IDX 82 44 35 46 69 47 48 48 68 49 49 50 52 51 67 52 87 53 50 54
REMARK SMILES IDX 51 55 66 57 88 58 53 59 36 60 37 61 46 62 38 63 39 64 45 65
REMARK SMILES IDX 47 66 40 67 41 68 42 69 43 70 44 71 70 72 71 73 80 74 72 75
REMARK SMILES IDX 73 76 79 77 81 78 74 79 75 80 76 81 77 82 78 83 54 84 55 85
REMARK SMILES IDX 64 86 56 87 57 88 63 89 65 90 58 91 59 92 60 93 61 94 62 95
REMARK H PARENT 86 45 52 56
REMARK Flexibility Score: inf
ROOT
ATOM      1  C   UNL     1      -0.592  -0.257   7.889  1.00  0.00     0.202 C 
ENDROOT
BRANCH   1   2
ATOM      2  O   UNL     1      -1.779  -0.367   8.675  1.00  0.00    -0.374 OA
BRANCH   2   3
ATOM      3  C   UNL     1      -2.604  -1.514   8.475  1.00  0.00     0.202 C 
BRANCH   3   4
ATOM      4  C   UNL     1      -3.521  -1.496   7.249  1.00  0.00     0.261 C 
BRANCH   4   5
ATOM      5  O   UNL     1      -2.778  -1.314   6.033  1.00  0.00    -0.460 OA
BRANCH   5   6
ATOM      6  C   UNL     1      -2.992  -0.132   5.412  1.00  0.00     0.338 C 
ATOM      7  O   UNL     1      -3.817   0.718   5.715  1.00  0.00    -0.246 OA
BRANCH   6   8
ATOM      8  C   UNL     1      -1.978   0.074   4.360  1.00  0.00     0.087 C 
ATOM      9  C   UNL     1       1.025  -0.140   0.176  1.00  0.00     0.048 C 
ATOM     10  C   UNL     1       0.616   0.896   1.186  1.00  0.00    -0.007 A 
ATOM     11  C   UNL     1       1.030   2.224   0.983  1.00  0.00     0.023 A 
ATOM     12  C   UNL     1      -0.187   0.593   2.298  1.00  0.00     0.130 A 
ATOM     13  C   UNL     1       0.656   3.224   1.877  1.00  0.00     0.019 A 
ATOM     14  C   UNL     1      -0.585   1.611   3.172  1.00  0.00     0.019 A 
ATOM     15  O   UNL     1      -0.535  -0.716   2.487  1.00  0.00    -0.475 OA
ATOM     16  Br  UNL     1       1.219   5.006   1.589  1.00  0.00    -0.051 Br
ATOM     17  C   UNL     1      -0.149   2.925   2.971  1.00  0.00     0.027 A 
ATOM     18  C   UNL     1      -1.499   1.319   4.260  1.00  0.00     0.027 C 
ATOM     19  C   UNL     1      -1.556  -1.058   3.466  1.00  0.00     0.316 C 
BRANCH  19  20
ATOM     20  C   UNL     1      -2.739  -1.698   2.726  1.00  0.00     0.430 C 
ATOM     21  F   UNL     1      -2.320  -2.677   1.889  1.00  0.00    -0.167 F 
ATOM     22  F   UNL     1      -3.620  -2.264   3.582  1.00  0.00    -0.167 F 
ATOM     23  F   UNL     1      -3.417  -0.792   1.985  1.00  0.00    -0.167 F 
ENDBRANCH  19  20
ENDBRANCH   6   8
ENDBRANCH   5   6
ENDBRANCH   4   5
ENDBRANCH   3   4
ENDBRANCH   2   3
ENDBRANCH   1   2
BRANCH   1  24
ATOM     24  C   UNL     1       0.575  -1.190   8.237  1.00  0.00     0.261 C 
BRANCH  24  25
ATOM     25  O   UNL     1       0.280  -2.568   7.945  1.00  0.00    -0.460 OA
BRANCH  25  26
ATOM     26  C   UNL     1       0.213  -3.374   9.032  1.00  0.00     0.338 C 
ATOM     27  O   UNL     1       0.434  -3.064  10.195  1.00  0.00    -0.246 OA
BRANCH  26  28
ATOM     28  C   UNL     1      -0.358  -4.679   8.659  1.00  0.00     0.060 A 
ATOM     29  C   UNL     1      -1.519  -5.094   9.324  1.00  0.00     0.016 A 
ATOM     30  C   UNL     1       0.277  -5.520   7.743  1.00  0.00     0.016 A 
ATOM     31  C   UNL     1      -2.025  -6.373   9.109  1.00  0.00     0.010 A 
ATOM     32  C   UNL     1      -0.226  -6.810   7.539  1.00  0.00     0.010 A 
ATOM     33  C   UNL     1      -1.358  -7.253   8.246  1.00  0.00    -0.014 A 
BRANCH  33  34
ATOM     34  C   UNL     1      -1.760  -8.680   8.212  1.00  0.00     0.031 A 
ATOM     35  C   UNL     1      -0.992  -9.671   9.044  1.00  0.00     0.074 A 
ATOM     36  C   UNL     1      -2.823  -9.077   7.491  1.00  0.00     0.049 A 
ATOM     37  N   UNL     1      -1.161 -10.962   9.159  1.00  0.00    -0.248 NA
ATOM     38  C   UNL     1       0.110  -9.133   9.860  1.00  0.00     0.031 C 
ATOM     39  C   UNL     1      -3.674  -8.199   6.689  1.00  0.00     0.029 A 
ATOM     40  N   UNL     1      -3.371 -10.324   7.323  1.00  0.00    -0.354 N 
ATOM     41  C   UNL     1      -0.194 -11.391  10.061  1.00  0.00     0.074 A 
ATOM     42  C   UNL     1       0.581 -10.229  10.437  1.00  0.00     0.031 C 
ATOM     43  C   UNL     1      -4.639  -8.937   6.112  1.00  0.00     0.029 A 
ATOM     44  C   UNL     1      -4.456 -10.340   6.479  1.00  0.00     0.049 A 
ATOM     45  H   UNL     1      -3.020 -11.130   7.764  1.00  0.00     0.167 HD
ATOM     46  C   UNL     1       0.018 -12.638  10.543  1.00  0.00     0.037 A 
ATOM     47  C   UNL     1      -5.205 -11.372   6.043  1.00  0.00     0.037 A 
ATOM     48  C   UNL     1      -0.755 -13.792  10.163  1.00  0.00     0.049 A 
ATOM     49  C   UNL     1      -4.892 -12.766   6.523  1.00  0.00     0.074 A 
ATOM     50  C   UNL     1      -0.617 -15.099  10.595  1.00  0.00     0.029 A 
ATOM     51  N   UNL     1      -1.808 -13.778   9.260  1.00  0.00    -0.354 N 
ATOM     52  N   UNL     1      -3.976 -13.157   7.377  1.00  0.00    -0.248 NA
ATOM     53  C   UNL     1      -5.712 -13.858   5.979  1.00  0.00     0.031 C 
ATOM     54  C   UNL     1      -1.557 -15.884   9.919  1.00  0.00     0.029 A 
ATOM     55  C   UNL     1      -2.313 -15.057   9.103  1.00  0.00     0.049 A 
ATOM     56  H   UNL     1      -2.146 -12.976   8.799  1.00  0.00     0.167 HD
ATOM     57  C   UNL     1      -4.122 -14.536   7.488  1.00  0.00     0.074 A 
ATOM     58  C   UNL     1      -5.223 -14.910   6.623  1.00  0.00     0.031 C 
ATOM     59  C   UNL     1      -3.411 -15.413   8.238  1.00  0.00     0.037 A 
BRANCH  46  60
ATOM     60  C   UNL     1       1.137 -12.826  11.527  1.00  0.00     0.058 A 
ATOM     61  C   UNL     1       1.033 -12.373  12.852  1.00  0.00     0.135 A 
ATOM     62  C   UNL     1       2.306 -13.510  11.158  1.00  0.00     0.135 A 
ATOM     63  F   UNL     1      -0.054 -11.696  13.252  1.00  0.00    -0.206 F 
ATOM     64  C   UNL     1       2.055 -12.581  13.773  1.00  0.00     0.059 A 
ATOM     65  C   UNL     1       3.331 -13.750  12.069  1.00  0.00     0.059 A 
ATOM     66  F   UNL     1       2.458 -13.959   9.902  1.00  0.00    -0.206 F 
ATOM     67  C   UNL     1       3.199 -13.274  13.372  1.00  0.00     0.060 A 
BRANCH  67  68
ATOM     68  S   UNL     1       4.506 -13.550  14.587  1.00  0.00     0.124 S 
ATOM     69  O   UNL     1       5.036 -12.201  14.757  1.00  0.00    -0.237 OA
ATOM     70  O   UNL     1       3.765 -14.088  15.723  1.00  0.00    -0.237 OA
ATOM     71  O   UNL     1       5.398 -14.494  13.919  1.00  0.00    -0.744 OA
ENDBRANCH  67  68
ENDBRANCH  46  60
BRANCH  47  72
ATOM     72  C   UNL     1      -6.324 -11.127   5.095  1.00  0.00     0.058 A 
ATOM     73  C   UNL     1      -7.659 -11.273   5.499  1.00  0.00     0.135 A 
ATOM     74  C   UNL     1      -6.082 -10.733   3.769  1.00  0.00     0.135 A 
ATOM     75  F   UNL     1      -7.941 -11.662   6.752  1.00  0.00    -0.206 F 
ATOM     76  C   UNL     1      -8.715 -11.042   4.623  1.00  0.00     0.059 A 
ATOM     77  C   UNL     1      -7.121 -10.473   2.881  1.00  0.00     0.059 A 
ATOM     78  F   UNL     1      -4.822 -10.572   3.335  1.00  0.00    -0.206 F 
ATOM     79  C   UNL     1      -8.435 -10.636   3.317  1.00  0.00     0.060 A 
BRANCH  79  80
ATOM     80  S   UNL     1      -9.816 -10.284   2.207  1.00  0.00     0.124 S 
ATOM     81  O   UNL     1     -10.344 -11.621   1.961  1.00  0.00    -0.237 OA
ATOM     82  O   UNL     1     -10.649  -9.409   3.026  1.00  0.00    -0.237 OA
ATOM     83  O   UNL     1      -9.174  -9.639   1.066  1.00  0.00    -0.744 OA
ENDBRANCH  79  80
ENDBRANCH  47  72
BRANCH  59  84
ATOM     84  C   UNL     1      -3.801 -16.864   8.177  1.00  0.00     0.058 A 
ATOM     85  C   UNL     1      -3.496 -17.659   7.063  1.00  0.00     0.135 A 
ATOM     86  C   UNL     1      -4.414 -17.485   9.278  1.00  0.00     0.135 A 
ATOM     87  F   UNL     1      -2.915 -17.114   5.982  1.00  0.00    -0.206 F 
ATOM     88  C   UNL     1      -3.795 -19.018   7.036  1.00  0.00     0.059 A 
ATOM     89  C   UNL     1      -4.699 -18.846   9.284  1.00  0.00     0.059 A 
ATOM     90  F   UNL     1      -4.718 -16.771  10.374  1.00  0.00    -0.206 F 
ATOM     91  C   UNL     1      -4.392 -19.604   8.155  1.00  0.00     0.060 A 
BRANCH  91  92
ATOM     92  S   UNL     1      -4.727 -21.378   8.123  1.00  0.00     0.124 S 
ATOM     93  O   UNL     1      -5.840 -21.451   7.183  1.00  0.00    -0.237 OA
ATOM     94  O   UNL     1      -3.460 -21.926   7.650  1.00  0.00    -0.237 OA
ATOM     95  O   UNL     1      -5.057 -21.687   9.511  1.00  0.00    -0.744 OA
ENDBRANCH  91  92
ENDBRANCH  59  84
ENDBRANCH  33  34
ENDBRANCH  26  28
ENDBRANCH  25  26
ENDBRANCH  24  25
ENDBRANCH   1  24
TORSDOF 18
