REMARK SMILES C/C(=C(/F)C(=O)OCCOCCOC(=O)c1ccc(-c2c3nc(c(-c4c(F)cc(S(=O)(=O)[O-])cc4F)c4ccc([nH]4)c(-c4c(F)cc(S(=O)(=O)[O-])cc4F)c4nc(c(-c5c(F)cc(S(=O)(=O)[O-])cc5F)c5ccc2[nH]5)C=C4)C=C3)cc1)c1ccccc1F
REMARK SMILES IDX 11 1 10 2 9 3 8 4 7 5 5 6 6 7 3 8 1 9 2 10 4 11 82 12 83 13
REMARK SMILES IDX 87 14 84 15 86 16 88 17 85 18 12 19 13 20 14 21 15 22 16 23
REMARK SMILES IDX 17 24 81 25 18 26 80 27 19 28 20 29 21 30 74 31 22 32 79 33
REMARK SMILES IDX 73 34 75 35 23 36 78 37 72 38 71 39 24 41 58 42 37 43 57 44
REMARK SMILES IDX 38 45 41 46 56 47 76 48 39 49 40 50 55 52 77 53 42 54 25 55
REMARK SMILES IDX 26 56 35 57 27 58 28 59 34 60 36 61 29 62 30 63 31 64 32 65
REMARK SMILES IDX 33 66 59 67 60 68 69 69 61 70 62 71 68 72 70 73 63 74 64 75
REMARK SMILES IDX 65 76 66 77 67 78 43 79 44 80 53 81 45 82 46 83 52 84 54 85
REMARK SMILES IDX 47 86 48 87 49 88 50 89 51 90
REMARK H PARENT 75 40 41 51
REMARK Flexibility Score: inf
ROOT
ATOM      1  C   UNL     1       1.038   2.933   1.593  1.00  0.00     0.202 C 
ENDROOT
BRANCH   1   2
ATOM      2  O   UNL     1       0.214   3.850   0.869  1.00  0.00    -0.374 OA
BRANCH   2   3
ATOM      3  C   UNL     1      -1.040   4.197   1.462  1.00  0.00     0.202 C 
BRANCH   3   4
ATOM      4  C   UNL     1      -2.180   3.201   1.224  1.00  0.00     0.261 C 
BRANCH   4   5
ATOM      5  O   UNL     1      -1.860   1.923   1.796  1.00  0.00    -0.458 OA
BRANCH   5   6
ATOM      6  C   UNL     1      -1.707   0.911   0.907  1.00  0.00     0.367 C 
ATOM      7  O   UNL     1      -2.017   0.927  -0.276  1.00  0.00    -0.243 OA
BRANCH   6   8
ATOM      8  C   UNL     1      -1.010  -0.215   1.573  1.00  0.00     0.211 C 
ATOM      9  C   UNL     1       0.693  -0.476  -0.258  1.00  0.00     0.048 C 
ATOM     10  C   UNL     1       0.038  -0.882   1.042  1.00  0.00     0.002 C 
ATOM     11  F   UNL     1      -1.473  -0.495   2.812  1.00  0.00    -0.199 F 
BRANCH  10  12
ATOM     12  C   UNL     1       0.617  -2.076   1.730  1.00  0.00     0.016 A 
ATOM     13  C   UNL     1      -0.226  -2.991   2.389  1.00  0.00     0.011 A 
ATOM     14  C   UNL     1       1.985  -2.400   1.685  1.00  0.00     0.130 A 
ATOM     15  C   UNL     1       0.275  -4.159   2.978  1.00  0.00     0.001 A 
ATOM     16  C   UNL     1       2.489  -3.570   2.258  1.00  0.00     0.040 A 
ATOM     17  F   UNL     1       2.871  -1.587   1.091  1.00  0.00    -0.206 F 
ATOM     18  C   UNL     1       1.632  -4.453   2.907  1.00  0.00     0.003 A 
ENDBRANCH  10  12
ENDBRANCH   6   8
ENDBRANCH   5   6
ENDBRANCH   4   5
ENDBRANCH   3   4
ENDBRANCH   2   3
ENDBRANCH   1   2
BRANCH   1  19
ATOM     19  C   UNL     1       1.852   3.512   2.755  1.00  0.00     0.261 C 
BRANCH  19  20
ATOM     20  O   UNL     1       1.010   3.977   3.824  1.00  0.00    -0.460 OA
BRANCH  20  21
ATOM     21  C   UNL     1       0.970   5.322   3.966  1.00  0.00     0.338 C 
ATOM     22  O   UNL     1       1.639   6.146   3.355  1.00  0.00    -0.246 OA
BRANCH  21  23
ATOM     23  C   UNL     1      -0.142   5.710   4.853  1.00  0.00     0.060 A 
ATOM     24  C   UNL     1      -1.008   6.707   4.390  1.00  0.00     0.016 A 
ATOM     25  C   UNL     1      -0.305   5.166   6.130  1.00  0.00     0.016 A 
ATOM     26  C   UNL     1      -2.006   7.205   5.223  1.00  0.00     0.010 A 
ATOM     27  C   UNL     1      -1.308   5.672   6.968  1.00  0.00     0.010 A 
ATOM     28  C   UNL     1      -2.138   6.719   6.530  1.00  0.00    -0.014 A 
BRANCH  28  29
ATOM     29  C   UNL     1      -3.068   7.407   7.459  1.00  0.00     0.031 A 
ATOM     30  C   UNL     1      -2.522   8.402   8.448  1.00  0.00     0.074 A 
ATOM     31  C   UNL     1      -4.393   7.193   7.378  1.00  0.00     0.049 A 
ATOM     32  N   UNL     1      -3.162   9.160   9.300  1.00  0.00    -0.248 NA
ATOM     33  C   UNL     1      -1.059   8.564   8.480  1.00  0.00     0.031 C 
ATOM     34  C   UNL     1      -5.041   6.263   6.453  1.00  0.00     0.029 A 
ATOM     35  N   UNL     1      -5.433   7.747   8.081  1.00  0.00    -0.354 N 
ATOM     36  C   UNL     1      -2.185   9.888   9.969  1.00  0.00     0.074 A 
ATOM     37  C   UNL     1      -0.906   9.456   9.448  1.00  0.00     0.031 C 
ATOM     38  C   UNL     1      -6.370   6.310   6.647  1.00  0.00     0.029 A 
ATOM     39  C   UNL     1      -6.665   7.259   7.719  1.00  0.00     0.049 A 
ATOM     40  H   UNL     1      -5.307   8.430   8.779  1.00  0.00     0.167 HD
ATOM     41  C   UNL     1      -2.341  10.840  10.921  1.00  0.00     0.037 A 
ATOM     42  C   UNL     1      -7.891   7.541   8.202  1.00  0.00     0.037 A 
ATOM     43  C   UNL     1      -3.617  11.268  11.435  1.00  0.00     0.049 A 
ATOM     44  C   UNL     1      -8.037   8.581   9.281  1.00  0.00     0.074 A 
ATOM     45  C   UNL     1      -3.881  12.250  12.374  1.00  0.00     0.029 A 
ATOM     46  N   UNL     1      -4.841  10.733  11.062  1.00  0.00    -0.354 N 
ATOM     47  N   UNL     1      -7.108   9.295   9.871  1.00  0.00    -0.248 NA
ATOM     48  C   UNL     1      -9.400   8.860   9.752  1.00  0.00     0.031 C 
ATOM     49  C   UNL     1      -5.262  12.275  12.605  1.00  0.00     0.029 A 
ATOM     50  C   UNL     1      -5.863  11.344  11.772  1.00  0.00     0.049 A 
ATOM     51  H   UNL     1      -4.967  10.024  10.392  1.00  0.00     0.167 HD
ATOM     52  C   UNL     1      -7.774  10.120  10.771  1.00  0.00     0.074 A 
ATOM     53  C   UNL     1      -9.187   9.830  10.631  1.00  0.00     0.031 C 
ATOM     54  C   UNL     1      -7.265  11.035  11.634  1.00  0.00     0.037 A 
BRANCH  41  55
ATOM     55  C   UNL     1      -1.095  11.466  11.486  1.00  0.00     0.058 A 
ATOM     56  C   UNL     1      -0.311  12.359  10.738  1.00  0.00     0.135 A 
ATOM     57  C   UNL     1      -0.694  11.188  12.803  1.00  0.00     0.135 A 
ATOM     58  F   UNL     1      -0.639  12.648   9.469  1.00  0.00    -0.206 F 
ATOM     59  C   UNL     1       0.843  12.931  11.265  1.00  0.00     0.059 A 
ATOM     60  C   UNL     1       0.443  11.769  13.359  1.00  0.00     0.059 A 
ATOM     61  F   UNL     1      -1.406  10.340  13.562  1.00  0.00    -0.206 F 
ATOM     62  C   UNL     1       1.213  12.627  12.577  1.00  0.00     0.060 A 
BRANCH  62  63
ATOM     63  S   UNL     1       2.714  13.374  13.247  1.00  0.00     0.124 S 
ATOM     64  O   UNL     1       3.751  12.618  12.551  1.00  0.00    -0.237 OA
ATOM     65  O   UNL     1       2.574  14.771  12.849  1.00  0.00    -0.237 OA
ATOM     66  O   UNL     1       2.609  13.121  14.681  1.00  0.00    -0.744 OA
ENDBRANCH  62  63
ENDBRANCH  41  55
BRANCH  42  67
ATOM     67  C   UNL     1      -9.078   6.827   7.662  1.00  0.00     0.058 A 
ATOM     68  C   UNL     1     -10.021   7.483   6.859  1.00  0.00     0.135 A 
ATOM     69  C   UNL     1      -9.280   5.463   7.928  1.00  0.00     0.135 A 
ATOM     70  F   UNL     1      -9.877   8.789   6.586  1.00  0.00    -0.206 F 
ATOM     71  C   UNL     1     -11.128   6.816   6.344  1.00  0.00     0.059 A 
ATOM     72  C   UNL     1     -10.365   4.769   7.404  1.00  0.00     0.059 A 
ATOM     73  F   UNL     1      -8.399   4.787   8.683  1.00  0.00    -0.206 F 
ATOM     74  C   UNL     1     -11.288   5.456   6.618  1.00  0.00     0.060 A 
BRANCH  74  75
ATOM     75  S   UNL     1     -12.691   4.583   5.890  1.00  0.00     0.124 S 
ATOM     76  O   UNL     1     -13.797   5.072   6.705  1.00  0.00    -0.237 OA
ATOM     77  O   UNL     1     -12.660   5.051   4.508  1.00  0.00    -0.237 OA
ATOM     78  O   UNL     1     -12.343   3.177   6.074  1.00  0.00    -0.744 OA
ENDBRANCH  74  75
ENDBRANCH  42  67
BRANCH  54  79
ATOM     79  C   UNL     1      -8.245  11.796  12.485  1.00  0.00     0.058 A 
ATOM     80  C   UNL     1      -8.932  11.183  13.545  1.00  0.00     0.135 A 
ATOM     81  C   UNL     1      -8.488  13.159  12.248  1.00  0.00     0.135 A 
ATOM     82  F   UNL     1      -8.739   9.882  13.812  1.00  0.00    -0.206 F 
ATOM     83  C   UNL     1      -9.855  11.884  14.315  1.00  0.00     0.059 A 
ATOM     84  C   UNL     1      -9.386  13.886  13.024  1.00  0.00     0.059 A 
ATOM     85  F   UNL     1      -7.848  13.799  11.257  1.00  0.00    -0.206 F 
ATOM     86  C   UNL     1     -10.079  13.235  14.043  1.00  0.00     0.060 A 
BRANCH  86  87
ATOM     87  S   UNL     1     -11.281  14.134  15.047  1.00  0.00     0.124 S 
ATOM     88  O   UNL     1     -12.543  13.645  14.501  1.00  0.00    -0.237 OA
ATOM     89  O   UNL     1     -10.959  13.687  16.399  1.00  0.00    -0.237 OA
ATOM     90  O   UNL     1     -10.976  15.534  14.767  1.00  0.00    -0.744 OA
ENDBRANCH  86  87
ENDBRANCH  54  79
ENDBRANCH  28  29
ENDBRANCH  21  23
ENDBRANCH  20  21
ENDBRANCH  19  20
ENDBRANCH   1  19
TORSDOF 18
