REMARK SMILES O=C(CNC(=O)[C@@H](CC1=c2ccccc2=NC1)N1C(=O)N=C2C=CC=C[C@H]2C1=O)OCCOCCOC(=O)c1ccc(-c2c3nc(c(-c4c(F)cc(S(=O)(=O)[O-])cc4F)c4ccc([nH]4)c(-c4c(F)cc(S(=O)(=O)[O-])cc4F)c4nc(c(-c5c(F)cc(S(=O)(=O)[O-])cc5F)c5ccc2[nH]5)C=C4)C=C3)cc1
REMARK SMILES IDX 32 1 31 2 30 3 2 4 1 5 3 6 4 7 5 8 6 10 7 11 8 12 9 13 10 14
REMARK SMILES IDX 17 15 11 16 15 17 16 18 12 19 14 20 13 21 18 22 19 23 28 24
REMARK SMILES IDX 21 25 20 26 27 27 29 28 22 29 26 30 23 31 25 32 24 33 33 34
REMARK SMILES IDX 34 35 35 36 36 37 37 38 38 39 39 40 40 41 104 42 41 43
REMARK SMILES IDX 103 44 42 45 43 46 44 47 97 48 45 49 102 50 96 51 98 52
REMARK SMILES IDX 46 53 101 54 95 55 94 56 47 58 81 59 60 60 80 61 61 62 64 63
REMARK SMILES IDX 79 64 99 65 62 66 63 67 78 69 100 70 65 71 48 72 49 73 58 74
REMARK SMILES IDX 50 75 51 76 57 77 59 78 52 79 53 80 54 81 55 82 56 83 82 84
REMARK SMILES IDX 83 85 92 86 84 87 85 88 91 89 93 90 86 91 87 92 88 93 89 94
REMARK SMILES IDX 90 95 66 96 67 97 76 98 68 99 69 100 75 101 77 102 70 103
REMARK SMILES IDX 71 104 72 105 73 106 74 107
REMARK H PARENT 4 9 98 57 64 68
REMARK Flexibility Score: inf
ROOT
ATOM      1  C   UNL     1       4.924   2.308  -0.237  1.00  0.00     0.202 C 
ENDROOT
BRANCH   1   2
ATOM      2  C   UNL     1       5.177   1.041  -1.137  1.00  0.00     0.261 C 
BRANCH   2   3
ATOM      3  O   UNL     1       3.929   0.572  -1.712  1.00  0.00    -0.462 OA
BRANCH   3   4
ATOM      4  C   UNL     1       3.303  -0.609  -1.798  1.00  0.00     0.325 C 
ATOM      5  O   UNL     1       2.265  -0.645  -2.472  1.00  0.00    -0.250 OA
BRANCH   4   6
ATOM      6  C   UNL     1       3.656  -1.885  -1.006  1.00  0.00     0.238 C 
BRANCH   6   7
ATOM      7  N   UNL     1       4.894  -2.386  -0.385  1.00  0.00    -0.343 N 
ATOM      8  C   UNL     1       5.091  -2.635   0.974  1.00  0.00     0.244 C 
ATOM      9  H   UNL     1       5.655  -2.561  -0.985  1.00  0.00     0.164 HD
ATOM     10  O   UNL     1       5.302  -3.786   1.356  1.00  0.00    -0.273 OA
BRANCH   8  11
ATOM     11  C   UNL     1       5.285  -1.417   1.892  1.00  0.00     0.188 C 
BRANCH  11  12
ATOM     12  C   UNL     1       4.193  -0.364   1.881  1.00  0.00     0.069 C 
BRANCH  12  13
ATOM     13  C   UNL     1       2.717  -0.389   1.806  1.00  0.00    -0.037 C 
ATOM     14  C   UNL     1       1.850  -1.354   2.037  1.00  0.00     0.001 A 
ATOM     15  C   UNL     1       2.020   0.807   1.199  1.00  0.00     0.174 C 
ATOM     16  C   UNL     1       1.962  -2.697   2.475  1.00  0.00     0.010 A 
ATOM     17  C   UNL     1       0.601  -0.787   1.504  1.00  0.00     0.065 A 
ATOM     18  N   UNL     1       0.604   0.434   1.073  1.00  0.00    -0.280 NA
ATOM     19  C   UNL     1       0.889  -3.486   2.336  1.00  0.00     0.001 A 
ATOM     20  C   UNL     1      -0.549  -1.696   1.440  1.00  0.00     0.028 A 
ATOM     21  C   UNL     1      -0.368  -2.975   1.807  1.00  0.00     0.002 A 
ENDBRANCH  12  13
ENDBRANCH  11  12
BRANCH  11  22
ATOM     22  N   UNL     1       6.088  -1.478   3.158  1.00  0.00    -0.249 N 
ATOM     23  C   UNL     1       7.461  -1.245   3.004  1.00  0.00     0.351 C 
ATOM     24  C   UNL     1       5.476  -1.425   4.405  1.00  0.00     0.244 C 
ATOM     25  N   UNL     1       8.282  -1.192   4.086  1.00  0.00    -0.197 NA
ATOM     26  O   UNL     1       7.950  -0.960   1.915  1.00  0.00    -0.246 OA
ATOM     27  C   UNL     1       6.391  -1.501   5.634  1.00  0.00     0.151 C 
ATOM     28  O   UNL     1       4.254  -1.338   4.550  1.00  0.00    -0.273 OA
ATOM     29  C   UNL     1       7.822  -1.191   5.286  1.00  0.00     0.062 C 
ATOM     30  C   UNL     1       5.976  -0.670   6.838  1.00  0.00    -0.007 C 
ATOM     31  C   UNL     1       8.782  -0.813   6.351  1.00  0.00     0.025 C 
ATOM     32  C   UNL     1       6.869  -0.116   7.678  1.00  0.00    -0.003 C 
ATOM     33  C   UNL     1       8.288  -0.258   7.463  1.00  0.00     0.002 C 
ENDBRANCH  11  22
ENDBRANCH   8  11
ENDBRANCH   6   7
ENDBRANCH   4   6
ENDBRANCH   3   4
ENDBRANCH   2   3
ENDBRANCH   1   2
BRANCH   1  34
ATOM     34  O   UNL     1       4.831   1.994   1.144  1.00  0.00    -0.374 OA
BRANCH  34  35
ATOM     35  C   UNL     1       4.662   2.918   2.218  1.00  0.00     0.202 C 
BRANCH  35  36
ATOM     36  C   UNL     1       3.616   4.035   2.174  1.00  0.00     0.261 C 
BRANCH  36  37
ATOM     37  O   UNL     1       3.716   4.866   1.036  1.00  0.00    -0.460 OA
BRANCH  37  38
ATOM     38  C   UNL     1       4.932   5.423   0.830  1.00  0.00     0.338 C 
ATOM     39  O   UNL     1       5.860   5.492   1.603  1.00  0.00    -0.246 OA
BRANCH  38  40
ATOM     40  C   UNL     1       4.993   5.587  -0.630  1.00  0.00     0.060 A 
ATOM     41  C   UNL     1       3.852   5.972  -1.344  1.00  0.00     0.016 A 
ATOM     42  C   UNL     1       6.154   5.151  -1.279  1.00  0.00     0.016 A 
ATOM     43  C   UNL     1       3.883   5.953  -2.727  1.00  0.00     0.010 A 
ATOM     44  C   UNL     1       6.170   5.080  -2.661  1.00  0.00     0.010 A 
ATOM     45  C   UNL     1       5.058   5.545  -3.378  1.00  0.00    -0.014 A 
BRANCH  45  46
ATOM     46  C   UNL     1       5.280   6.001  -4.754  1.00  0.00     0.031 A 
ATOM     47  C   UNL     1       5.031   5.142  -5.937  1.00  0.00     0.074 A 
ATOM     48  C   UNL     1       5.742   7.261  -4.854  1.00  0.00     0.049 A 
ATOM     49  N   UNL     1       5.111   5.470  -7.197  1.00  0.00    -0.248 NA
ATOM     50  C   UNL     1       4.656   3.745  -5.686  1.00  0.00     0.031 C 
ATOM     51  C   UNL     1       6.022   8.140  -3.709  1.00  0.00     0.029 A 
ATOM     52  N   UNL     1       6.043   8.024  -5.941  1.00  0.00    -0.354 N 
ATOM     53  C   UNL     1       4.758   4.331  -7.903  1.00  0.00     0.074 A 
ATOM     54  C   UNL     1       4.528   3.284  -6.926  1.00  0.00     0.031 C 
ATOM     55  C   UNL     1       6.422   9.334  -4.159  1.00  0.00     0.029 A 
ATOM     56  C   UNL     1       6.442   9.294  -5.612  1.00  0.00     0.049 A 
ATOM     57  H   UNL     1       5.980   7.697  -6.867  1.00  0.00     0.167 HD
ATOM     58  C   UNL     1       4.620   4.202  -9.245  1.00  0.00     0.037 A 
ATOM     59  C   UNL     1       6.768  10.327  -6.404  1.00  0.00     0.037 A 
ATOM     60  C   UNL     1       4.912   5.264 -10.179  1.00  0.00     0.049 A 
ATOM     61  C   UNL     1       6.665  10.133  -7.882  1.00  0.00     0.074 A 
ATOM     62  C   UNL     1       4.818   5.252 -11.559  1.00  0.00     0.029 A 
ATOM     63  N   UNL     1       5.374   6.530  -9.826  1.00  0.00    -0.354 N 
ATOM     64  N   UNL     1       6.280   9.068  -8.545  1.00  0.00    -0.248 NA
ATOM     65  C   UNL     1       7.031  11.277  -8.718  1.00  0.00     0.031 C 
ATOM     66  C   UNL     1       5.270   6.486 -12.041  1.00  0.00     0.029 A 
ATOM     67  C   UNL     1       5.593   7.295 -10.962  1.00  0.00     0.049 A 
ATOM     68  H   UNL     1       5.523   6.838  -8.903  1.00  0.00     0.167 HD
ATOM     69  C   UNL     1       6.339   9.417  -9.886  1.00  0.00     0.074 A 
ATOM     70  C   UNL     1       6.777  10.802  -9.929  1.00  0.00     0.031 C 
ATOM     71  C   UNL     1       6.059   8.664 -10.979  1.00  0.00     0.037 A 
BRANCH  58  72
ATOM     72  C   UNL     1       4.139   2.875  -9.765  1.00  0.00     0.058 A 
ATOM     73  C   UNL     1       2.834   2.420  -9.511  1.00  0.00     0.135 A 
ATOM     74  C   UNL     1       4.973   2.053 -10.540  1.00  0.00     0.135 A 
ATOM     75  F   UNL     1       1.992   3.160  -8.770  1.00  0.00    -0.206 F 
ATOM     76  C   UNL     1       2.387   1.185  -9.969  1.00  0.00     0.059 A 
ATOM     77  C   UNL     1       4.537   0.826 -11.036  1.00  0.00     0.059 A 
ATOM     78  F   UNL     1       6.229   2.435 -10.820  1.00  0.00    -0.206 F 
ATOM     79  C   UNL     1       3.249   0.392 -10.728  1.00  0.00     0.060 A 
BRANCH  79  80
ATOM     80  S   UNL     1       2.662  -1.220 -11.291  1.00  0.00     0.124 S 
ATOM     81  O   UNL     1       2.580  -1.957 -10.034  1.00  0.00    -0.237 OA
ATOM     82  O   UNL     1       1.386  -0.886 -11.915  1.00  0.00    -0.237 OA
ATOM     83  O   UNL     1       3.708  -1.663 -12.208  1.00  0.00    -0.744 OA
ENDBRANCH  79  80
ENDBRANCH  58  72
BRANCH  59  84
ATOM     84  C   UNL     1       7.119  11.625  -5.782  1.00  0.00     0.058 A 
ATOM     85  C   UNL     1       6.216  12.696  -5.823  1.00  0.00     0.135 A 
ATOM     86  C   UNL     1       8.300  11.785  -5.040  1.00  0.00     0.135 A 
ATOM     87  F   UNL     1       5.068  12.579  -6.506  1.00  0.00    -0.206 F 
ATOM     88  C   UNL     1       6.473  13.885  -5.152  1.00  0.00     0.059 A 
ATOM     89  C   UNL     1       8.567  12.956  -4.339  1.00  0.00     0.059 A 
ATOM     90  F   UNL     1       9.175  10.772  -4.940  1.00  0.00    -0.206 F 
ATOM     91  C   UNL     1       7.646  14.001  -4.405  1.00  0.00     0.060 A 
BRANCH  91  92
ATOM     92  S   UNL     1       7.926  15.526  -3.482  1.00  0.00     0.124 S 
ATOM     93  O   UNL     1       8.112  16.492  -4.559  1.00  0.00    -0.237 OA
ATOM     94  O   UNL     1       6.689  15.649  -2.718  1.00  0.00    -0.237 OA
ATOM     95  O   UNL     1       9.117  15.229  -2.690  1.00  0.00    -0.744 OA
ENDBRANCH  91  92
ENDBRANCH  59  84
BRANCH  71  96
ATOM     96  C   UNL     1       6.229   9.334 -12.314  1.00  0.00     0.058 A 
ATOM     97  C   UNL     1       7.500   9.664 -12.813  1.00  0.00     0.135 A 
ATOM     98  C   UNL     1       5.113   9.635 -13.111  1.00  0.00     0.135 A 
ATOM     99  F   UNL     1       8.599   9.410 -12.085  1.00  0.00    -0.206 F 
ATOM    100  C   UNL     1       7.655  10.301 -14.039  1.00  0.00     0.059 A 
ATOM    101  C   UNL     1       5.248  10.239 -14.356  1.00  0.00     0.059 A 
ATOM    102  F   UNL     1       3.876   9.335 -12.685  1.00  0.00    -0.206 F 
ATOM    103  C   UNL     1       6.523  10.583 -14.804  1.00  0.00     0.060 A 
BRANCH 103 104
ATOM    104  S   UNL     1       6.745  11.397 -16.399  1.00  0.00     0.124 S 
ATOM    105  O   UNL     1       7.164  12.734 -15.991  1.00  0.00    -0.237 OA
ATOM    106  O   UNL     1       7.774  10.573 -17.025  1.00  0.00    -0.237 OA
ATOM    107  O   UNL     1       5.423  11.313 -17.012  1.00  0.00    -0.744 OA
ENDBRANCH 103 104
ENDBRANCH  71  96
ENDBRANCH  45  46
ENDBRANCH  38  40
ENDBRANCH  37  38
ENDBRANCH  36  37
ENDBRANCH  35  36
ENDBRANCH  34  35
ENDBRANCH   1  34
TORSDOF 22
