REMARK SMILES O=C(/C=C/C(=O)OCCOCCOC(=O)c1ccc(-c2c3nc(c(-c4c(F)cc(S(=O)(=O)[O-])cc4F)c4ccc([nH]4)c(-c4c(F)cc(S(=O)(=O)[O-])cc4F)c4nc(c(-c5c(F)cc(S(=O)(=O)[O-])cc5F)c5ccc2[nH]5)C=C4)C=C3)cc1)NNC(=O)CSc1ccc2ccccc2n1
REMARK SMILES IDX 9 1 8 2 7 3 5 4 6 5 4 6 3 7 2 8 1 9 82 10 83 12 84 13 85 15
REMARK SMILES IDX 86 16 87 17 88 18 89 19 97 20 90 21 96 22 91 23 95 24 92 25
REMARK SMILES IDX 94 26 93 27 10 28 11 29 12 30 13 31 14 32 15 33 16 34 17 35
REMARK SMILES IDX 81 36 18 37 80 38 19 39 20 40 21 41 74 42 22 43 79 44 73 45
REMARK SMILES IDX 75 46 23 47 78 48 72 49 71 50 24 52 58 53 37 54 57 55 38 56
REMARK SMILES IDX 41 57 56 58 76 59 39 60 40 61 55 63 77 64 42 65 25 66 26 67
REMARK SMILES IDX 35 68 27 69 28 70 34 71 36 72 29 73 30 74 31 75 32 76 33 77
REMARK SMILES IDX 59 78 60 79 69 80 61 81 62 82 68 83 70 84 63 85 64 86 65 87
REMARK SMILES IDX 66 88 67 89 43 90 44 91 53 92 45 93 46 94 52 95 54 96 47 97
REMARK SMILES IDX 48 98 49 99 50 100 51 101
REMARK H PARENT 82 11 83 14 75 51 41 62
REMARK Flexibility Score: inf
ROOT
ATOM      1  C   UNL     1       6.042  -2.404   4.324  1.00  0.00     0.202 C 
ENDROOT
BRANCH   1   2
ATOM      2  C   UNL     1       5.357  -1.049   4.524  1.00  0.00     0.261 C 
BRANCH   2   3
ATOM      3  O   UNL     1       4.453  -0.733   3.450  1.00  0.00    -0.460 OA
BRANCH   3   4
ATOM      4  C   UNL     1       4.855   0.277   2.645  1.00  0.00     0.331 C 
ATOM      5  O   UNL     1       5.859   0.961   2.773  1.00  0.00    -0.247 OA
BRANCH   4   6
ATOM      6  C   UNL     1       4.017   0.408   1.438  1.00  0.00     0.099 C 
ATOM      7  C   UNL     1       2.842  -0.197   1.213  1.00  0.00     0.080 C 
BRANCH   7   8
ATOM      8  C   UNL     1       2.084   0.003  -0.052  1.00  0.00     0.262 C 
ATOM      9  O   UNL     1       0.866  -0.127  -0.080  1.00  0.00    -0.268 OA
ATOM     10  N   UNL     1       2.858   0.256  -1.167  1.00  0.00    -0.264 N 
ATOM     11  H   UNL     1       3.841   0.233  -1.108  1.00  0.00     0.191 HD
BRANCH  10  12
ATOM     12  N   UNL     1       2.231   0.547  -2.379  1.00  0.00    -0.267 N 
ATOM     13  C   UNL     1       2.598   1.580  -3.212  1.00  0.00     0.248 C 
ATOM     14  H   UNL     1       1.478  -0.023  -2.656  1.00  0.00     0.191 HD
ATOM     15  O   UNL     1       1.983   1.777  -4.263  1.00  0.00    -0.272 OA
BRANCH  13  16
ATOM     16  C   UNL     1       3.763   2.472  -2.804  1.00  0.00     0.178 C 
BRANCH  16  17
ATOM     17  S   UNL     1       3.087   3.748  -1.698  1.00  0.00    -0.096 SA
BRANCH  17  18
ATOM     18  C   UNL     1       4.497   4.654  -1.134  1.00  0.00     0.097 A 
ATOM     19  C   UNL     1       5.787   4.555  -1.630  1.00  0.00     0.036 A 
ATOM     20  N   UNL     1       4.200   5.419  -0.063  1.00  0.00    -0.241 NA
ATOM     21  C   UNL     1       6.826   5.107  -0.879  1.00  0.00     0.013 A 
ATOM     22  C   UNL     1       5.191   5.944   0.662  1.00  0.00     0.072 A 
ATOM     23  C   UNL     1       6.542   5.745   0.337  1.00  0.00     0.000 A 
ATOM     24  C   UNL     1       4.869   6.650   1.810  1.00  0.00     0.029 A 
ATOM     25  C   UNL     1       7.539   6.143   1.245  1.00  0.00     0.010 A 
ATOM     26  C   UNL     1       5.854   7.059   2.707  1.00  0.00     0.002 A 
ATOM     27  C   UNL     1       7.189   6.769   2.442  1.00  0.00     0.001 A 
ENDBRANCH  17  18
ENDBRANCH  16  17
ENDBRANCH  13  16
ENDBRANCH  10  12
ENDBRANCH   7   8
ENDBRANCH   4   6
ENDBRANCH   3   4
ENDBRANCH   2   3
ENDBRANCH   1   2
BRANCH   1  28
ATOM     28  O   UNL     1       6.844  -2.556   3.154  1.00  0.00    -0.374 OA
BRANCH  28  29
ATOM     29  C   UNL     1       6.172  -2.800   1.919  1.00  0.00     0.202 C 
BRANCH  29  30
ATOM     30  C   UNL     1       5.597  -4.204   1.688  1.00  0.00     0.261 C 
BRANCH  30  31
ATOM     31  O   UNL     1       4.541  -4.532   2.605  1.00  0.00    -0.460 OA
BRANCH  31  32
ATOM     32  C   UNL     1       4.877  -5.466   3.532  1.00  0.00     0.338 C 
ATOM     33  O   UNL     1       5.933  -6.066   3.617  1.00  0.00    -0.246 OA
BRANCH  32  34
ATOM     34  C   UNL     1       3.836  -5.542   4.577  1.00  0.00     0.060 A 
ATOM     35  C   UNL     1       4.253  -5.422   5.909  1.00  0.00     0.016 A 
ATOM     36  C   UNL     1       2.500  -5.806   4.271  1.00  0.00     0.016 A 
ATOM     37  C   UNL     1       3.344  -5.626   6.945  1.00  0.00     0.010 A 
ATOM     38  C   UNL     1       1.590  -6.014   5.314  1.00  0.00     0.010 A 
ATOM     39  C   UNL     1       2.016  -5.966   6.654  1.00  0.00    -0.014 A 
BRANCH  39  40
ATOM     40  C   UNL     1       1.125  -6.422   7.750  1.00  0.00     0.031 A 
ATOM     41  C   UNL     1       0.865  -7.897   7.913  1.00  0.00     0.074 A 
ATOM     42  C   UNL     1       0.591  -5.541   8.616  1.00  0.00     0.049 A 
ATOM     43  N   UNL     1       0.104  -8.515   8.778  1.00  0.00    -0.248 NA
ATOM     44  C   UNL     1       1.557  -8.794   6.973  1.00  0.00     0.031 C 
ATOM     45  C   UNL     1       0.797  -4.094   8.583  1.00  0.00     0.029 A 
ATOM     46  N   UNL     1      -0.240  -5.738   9.691  1.00  0.00    -0.354 N 
ATOM     47  C   UNL     1       0.227  -9.871   8.491  1.00  0.00     0.074 A 
ATOM     48  C   UNL     1       1.100  -9.981   7.342  1.00  0.00     0.031 C 
ATOM     49  C   UNL     1       0.099  -3.531   9.585  1.00  0.00     0.029 A 
ATOM     50  C   UNL     1      -0.625  -4.573  10.310  1.00  0.00     0.049 A 
ATOM     51  H   UNL     1      -0.532  -6.629   9.989  1.00  0.00     0.167 HD
ATOM     52  C   UNL     1      -0.323 -10.928   9.135  1.00  0.00     0.037 A 
ATOM     53  C   UNL     1      -1.482  -4.370  11.331  1.00  0.00     0.037 A 
ATOM     54  C   UNL     1      -1.197 -10.812  10.274  1.00  0.00     0.049 A 
ATOM     55  C   UNL     1      -2.137  -5.559  11.989  1.00  0.00     0.074 A 
ATOM     56  C   UNL     1      -1.816 -11.821  10.992  1.00  0.00     0.029 A 
ATOM     57  N   UNL     1      -1.575  -9.614  10.864  1.00  0.00    -0.354 N 
ATOM     58  N   UNL     1      -2.005  -6.835  11.712  1.00  0.00    -0.248 NA
ATOM     59  C   UNL     1      -3.050  -5.281  13.107  1.00  0.00     0.031 C 
ATOM     60  C   UNL     1      -2.603 -11.231  11.987  1.00  0.00     0.029 A 
ATOM     61  C   UNL     1      -2.428  -9.858  11.928  1.00  0.00     0.049 A 
ATOM     62  H   UNL     1      -1.281  -8.722  10.569  1.00  0.00     0.167 HD
ATOM     63  C   UNL     1      -2.788  -7.511  12.644  1.00  0.00     0.074 A 
ATOM     64  C   UNL     1      -3.380  -6.504  13.498  1.00  0.00     0.031 C 
ATOM     65  C   UNL     1      -2.996  -8.845  12.782  1.00  0.00     0.037 A 
BRANCH  52  66
ATOM     66  C   UNL     1      -0.002 -12.304   8.617  1.00  0.00     0.058 A 
ATOM     67  C   UNL     1       1.276 -12.867   8.766  1.00  0.00     0.135 A 
ATOM     68  C   UNL     1      -0.992 -13.085   7.999  1.00  0.00     0.135 A 
ATOM     69  F   UNL     1       2.265 -12.157   9.332  1.00  0.00    -0.206 F 
ATOM     70  C   UNL     1       1.568 -14.144   8.300  1.00  0.00     0.059 A 
ATOM     71  C   UNL     1      -0.730 -14.377   7.551  1.00  0.00     0.059 A 
ATOM     72  F   UNL     1      -2.230 -12.597   7.827  1.00  0.00    -0.206 F 
ATOM     73  C   UNL     1       0.557 -14.893   7.694  1.00  0.00     0.060 A 
BRANCH  73  74
ATOM     74  S   UNL     1       0.951 -16.554   7.106  1.00  0.00     0.124 S 
ATOM     75  O   UNL     1       1.790 -16.260   5.947  1.00  0.00    -0.237 OA
ATOM     76  O   UNL     1       1.637 -17.136   8.254  1.00  0.00    -0.237 OA
ATOM     77  O   UNL     1      -0.357 -17.127   6.803  1.00  0.00    -0.744 OA
ENDBRANCH  73  74
ENDBRANCH  52  66
BRANCH  53  78
ATOM     78  C   UNL     1      -1.788  -2.988  11.789  1.00  0.00     0.058 A 
ATOM     79  C   UNL     1      -1.395  -2.535  13.058  1.00  0.00     0.135 A 
ATOM     80  C   UNL     1      -2.507  -2.099  10.974  1.00  0.00     0.135 A 
ATOM     81  F   UNL     1      -0.713  -3.348  13.878  1.00  0.00    -0.206 F 
ATOM     82  C   UNL     1      -1.729  -1.264  13.514  1.00  0.00     0.059 A 
ATOM     83  C   UNL     1      -2.826  -0.812  11.396  1.00  0.00     0.059 A 
ATOM     84  F   UNL     1      -2.895  -2.476   9.746  1.00  0.00    -0.206 F 
ATOM     85  C   UNL     1      -2.447  -0.410  12.676  1.00  0.00     0.060 A 
BRANCH  85  86
ATOM     86  S   UNL     1      -2.858   1.246  13.269  1.00  0.00     0.124 S 
ATOM     87  O   UNL     1      -3.905   0.957  14.242  1.00  0.00    -0.237 OA
ATOM     88  O   UNL     1      -1.583   1.699  13.818  1.00  0.00    -0.237 OA
ATOM     89  O   UNL     1      -3.292   1.937  12.059  1.00  0.00    -0.744 OA
ENDBRANCH  85  86
ENDBRANCH  53  78
BRANCH  65  90
ATOM     90  C   UNL     1      -3.854  -9.298  13.934  1.00  0.00     0.058 A 
ATOM     91  C   UNL     1      -5.241  -9.085  13.960  1.00  0.00     0.135 A 
ATOM     92  C   UNL     1      -3.278  -9.990  15.013  1.00  0.00     0.135 A 
ATOM     93  F   UNL     1      -5.842  -8.428  12.956  1.00  0.00    -0.206 F 
ATOM     94  C   UNL     1      -6.022  -9.509  15.031  1.00  0.00     0.059 A 
ATOM     95  C   UNL     1      -4.044 -10.451  16.079  1.00  0.00     0.059 A 
ATOM     96  F   UNL     1      -1.958 -10.234  15.034  1.00  0.00    -0.206 F 
ATOM     97  C   UNL     1      -5.413 -10.191  16.087  1.00  0.00     0.060 A 
BRANCH  97  98
ATOM     98  S   UNL     1      -6.439 -10.748  17.464  1.00  0.00     0.124 S 
ATOM     99  O   UNL     1      -6.715  -9.492  18.153  1.00  0.00    -0.237 OA
ATOM    100  O   UNL     1      -7.575 -11.360  16.781  1.00  0.00    -0.237 OA
ATOM    101  O   UNL     1      -5.572 -11.679  18.180  1.00  0.00    -0.744 OA
ENDBRANCH  97  98
ENDBRANCH  65  90
ENDBRANCH  39  40
ENDBRANCH  32  34
ENDBRANCH  31  32
ENDBRANCH  30  31
ENDBRANCH  29  30
ENDBRANCH  28  29
ENDBRANCH   1  28
TORSDOF 22
