REMARK SMILES Cc1ccc(N2CC[C@H]([NH+]3CCOCC3)[C@H](CCC(=O)OCCOCCOC(=O)c3ccc(-c4c5nc(c(-c6c(F)cc(S(=O)(=O)[O-])cc6F)c6ccc([nH]6)c(-c6c(F)cc(S(=O)(=O)[O-])cc6F)c6nc(c(-c7c(F)cc(S(=O)(=O)[O-])cc7F)c7ccc4[nH]7)C=C6)C=C5)cc3)C2)nc1
REMARK SMILES IDX 24 1 23 2 22 3 21 4 19 5 20 6 18 7 17 8 16 9 6 10 7 11 96 12
REMARK SMILES IDX 8 13 9 14 5 15 1 16 2 17 3 18 98 19 4 20 97 21 10 22 11 23
REMARK SMILES IDX 15 24 12 26 14 27 13 28 25 29 26 30 27 31 28 32 29 33 30 34
REMARK SMILES IDX 31 35 95 36 32 37 94 38 33 39 34 40 35 41 88 42 36 43 93 44
REMARK SMILES IDX 87 45 89 46 37 47 92 48 86 49 85 50 38 52 72 53 51 54 71 55
REMARK SMILES IDX 52 56 55 57 70 58 90 59 53 60 54 61 69 63 91 64 56 65 39 66
REMARK SMILES IDX 40 67 49 68 41 69 42 70 48 71 50 72 43 73 44 74 45 75 46 76
REMARK SMILES IDX 47 77 73 78 74 79 83 80 75 81 76 82 82 83 84 84 77 85 78 86
REMARK SMILES IDX 79 87 80 88 81 89 57 90 58 91 67 92 59 93 60 94 66 95 68 96
REMARK SMILES IDX 61 97 62 98 63 99 64 100 65 101
REMARK H PARENT 10 25 89 51 55 62
REMARK Flexibility Score: inf
ROOT
ATOM      1  O   UNL     1      -5.614   0.160  -7.228  1.00  0.00    -0.374 OA
ENDROOT
BRANCH   1   2
ATOM      2  C   UNL     1      -6.750   0.242  -6.363  1.00  0.00     0.202 C 
BRANCH   2   3
ATOM      3  C   UNL     1      -7.007  -0.944  -5.430  1.00  0.00     0.261 C 
BRANCH   3   4
ATOM      4  O   UNL     1      -5.926  -1.083  -4.492  1.00  0.00    -0.463 OA
BRANCH   4   5
ATOM      5  C   UNL     1      -5.463  -2.343  -4.313  1.00  0.00     0.305 C 
ATOM      6  O   UNL     1      -5.952  -3.353  -4.808  1.00  0.00    -0.252 OA
BRANCH   5   7
ATOM      7  C   UNL     1      -4.146  -2.378  -3.569  1.00  0.00     0.123 C 
BRANCH   7   8
ATOM      8  C   UNL     1      -3.843  -1.383  -2.448  1.00  0.00     0.023 C 
BRANCH   8   9
ATOM      9  C   UNL     1      -4.927  -0.650  -1.610  1.00  0.00     0.067 C 
ATOM     10  N   UNL     1      -3.358   0.319   0.086  1.00  0.00    -0.356 N 
ATOM     11  C   UNL     1      -3.943  -0.409   1.196  1.00  0.00     0.124 C 
ATOM     12  C   UNL     1      -4.237   0.643  -1.036  1.00  0.00     0.127 C 
ATOM     13  C   UNL     1      -4.615  -1.690   0.713  1.00  0.00     0.087 C 
ATOM     14  C   UNL     1      -5.636  -1.371  -0.393  1.00  0.00     0.190 C 
BRANCH  10  15
ATOM     15  C   UNL     1      -1.989   0.213  -0.066  1.00  0.00     0.128 A 
ATOM     16  C   UNL     1       2.270  -0.114  -0.060  1.00  0.00     0.046 C 
ATOM     17  C   UNL     1       0.784   0.041  -0.088  1.00  0.00    -0.033 A 
ATOM     18  C   UNL     1       0.167   1.258  -0.357  1.00  0.00     0.009 A 
ATOM     19  C   UNL     1      -0.047  -1.043   0.149  1.00  0.00     0.117 A 
ATOM     20  C   UNL     1      -1.228   1.341  -0.360  1.00  0.00     0.047 A 
ATOM     21  N   UNL     1      -1.397  -0.976   0.182  1.00  0.00    -0.239 NA
ENDBRANCH  10  15
BRANCH  14  22
ATOM     22  N   UNL     1      -6.666  -2.400  -0.658  1.00  0.00    -0.328 N 
ATOM     23  C   UNL     1      -7.506  -2.755   0.514  1.00  0.00     0.291 C 
ATOM     24  C   UNL     1      -6.335  -3.640  -1.349  1.00  0.00     0.291 C 
ATOM     25  H   UNL     1      -7.167  -1.846  -1.353  1.00  0.00     0.348 HD
ATOM     26  C   UNL     1      -7.041  -3.982   1.341  1.00  0.00     0.221 C 
ATOM     27  C   UNL     1      -5.763  -4.752  -0.474  1.00  0.00     0.221 C 
ATOM     28  O   UNL     1      -6.708  -5.117   0.532  1.00  0.00    -0.370 OA
ENDBRANCH  14  22
ENDBRANCH   8   9
ENDBRANCH   7   8
ENDBRANCH   5   7
ENDBRANCH   4   5
ENDBRANCH   3   4
ENDBRANCH   2   3
ENDBRANCH   1   2
BRANCH   1  29
ATOM     29  C   UNL     1      -4.326   0.014  -6.640  1.00  0.00     0.202 C 
BRANCH  29  30
ATOM     30  C   UNL     1      -3.721   1.212  -5.888  1.00  0.00     0.261 C 
BRANCH  30  31
ATOM     31  O   UNL     1      -4.626   1.893  -5.005  1.00  0.00    -0.460 OA
BRANCH  31  32
ATOM     32  C   UNL     1      -5.028   3.104  -5.461  1.00  0.00     0.338 C 
ATOM     33  O   UNL     1      -4.653   3.666  -6.489  1.00  0.00    -0.246 OA
BRANCH  32  34
ATOM     34  C   UNL     1      -6.111   3.658  -4.635  1.00  0.00     0.060 A 
ATOM     35  C   UNL     1      -7.321   3.946  -5.277  1.00  0.00     0.016 A 
ATOM     36  C   UNL     1      -5.910   4.022  -3.301  1.00  0.00     0.016 A 
ATOM     37  C   UNL     1      -8.316   4.650  -4.604  1.00  0.00     0.010 A 
ATOM     38  C   UNL     1      -6.911   4.737  -2.629  1.00  0.00     0.010 A 
ATOM     39  C   UNL     1      -8.102   5.089  -3.291  1.00  0.00    -0.014 A 
BRANCH  39  40
ATOM     40  C   UNL     1      -9.080   6.028  -2.687  1.00  0.00     0.031 A 
ATOM     41  C   UNL     1      -8.802   7.508  -2.718  1.00  0.00     0.074 A 
ATOM     42  C   UNL     1     -10.242   5.571  -2.186  1.00  0.00     0.049 A 
ATOM     43  N   UNL     1      -9.556   8.500  -2.319  1.00  0.00    -0.248 NA
ATOM     44  C   UNL     1      -7.506   7.924  -3.276  1.00  0.00     0.031 C 
ATOM     45  C   UNL     1     -10.637   4.165  -2.119  1.00  0.00     0.029 A 
ATOM     46  N   UNL     1     -11.308   6.246  -1.646  1.00  0.00    -0.354 N 
ATOM     47  C   UNL     1      -8.830   9.657  -2.579  1.00  0.00     0.074 A 
ATOM     48  C   UNL     1      -7.563   9.242  -3.142  1.00  0.00     0.031 C 
ATOM     49  C   UNL     1     -11.860   4.081  -1.568  1.00  0.00     0.029 A 
ATOM     50  C   UNL     1     -12.327   5.424  -1.229  1.00  0.00     0.049 A 
ATOM     51  H   UNL     1     -11.340   7.227  -1.565  1.00  0.00     0.167 HD
ATOM     52  C   UNL     1      -9.191  10.948  -2.379  1.00  0.00     0.037 A 
ATOM     53  C   UNL     1     -13.500   5.720  -0.635  1.00  0.00     0.037 A 
ATOM     54  C   UNL     1     -10.455  11.360  -1.826  1.00  0.00     0.049 A 
ATOM     55  C   UNL     1     -13.864   7.160  -0.389  1.00  0.00     0.074 A 
ATOM     56  C   UNL     1     -10.926  12.646  -1.619  1.00  0.00     0.029 A 
ATOM     57  N   UNL     1     -11.446  10.497  -1.384  1.00  0.00    -0.354 N 
ATOM     58  N   UNL     1     -13.184   8.243  -0.680  1.00  0.00    -0.248 NA
ATOM     59  C   UNL     1     -15.157   7.418   0.260  1.00  0.00     0.031 C 
ATOM     60  C   UNL     1     -12.184  12.559  -1.012  1.00  0.00     0.029 A 
ATOM     61  C   UNL     1     -12.514  11.220  -0.879  1.00  0.00     0.049 A 
ATOM     62  H   UNL     1     -11.397   9.514  -1.423  1.00  0.00     0.167 HD
ATOM     63  C   UNL     1     -13.973   9.311  -0.264  1.00  0.00     0.074 A 
ATOM     64  C   UNL     1     -15.188   8.743   0.283  1.00  0.00     0.031 C 
ATOM     65  C   UNL     1     -13.714  10.641  -0.329  1.00  0.00     0.037 A 
BRANCH  52  66
ATOM     66  C   UNL     1      -8.196  12.013  -2.745  1.00  0.00     0.058 A 
ATOM     67  C   UNL     1      -7.935  12.351  -4.082  1.00  0.00     0.135 A 
ATOM     68  C   UNL     1      -7.524  12.732  -1.744  1.00  0.00     0.135 A 
ATOM     69  F   UNL     1      -8.538  11.684  -5.079  1.00  0.00    -0.206 F 
ATOM     70  C   UNL     1      -7.026  13.351  -4.415  1.00  0.00     0.059 A 
ATOM     71  C   UNL     1      -6.628  13.751  -2.053  1.00  0.00     0.059 A 
ATOM     72  F   UNL     1      -7.736  12.447  -0.450  1.00  0.00    -0.206 F 
ATOM     73  C   UNL     1      -6.376  14.045  -3.392  1.00  0.00     0.060 A 
BRANCH  73  74
ATOM     74  S   UNL     1      -5.203  15.344  -3.837  1.00  0.00     0.124 S 
ATOM     75  O   UNL     1      -4.059  14.560  -4.291  1.00  0.00    -0.237 OA
ATOM     76  O   UNL     1      -5.923  16.075  -4.875  1.00  0.00    -0.237 OA
ATOM     77  O   UNL     1      -5.010  16.069  -2.585  1.00  0.00    -0.744 OA
ENDBRANCH  73  74
ENDBRANCH  52  66
BRANCH  53  78
ATOM     78  C   UNL     1     -14.415   4.623  -0.224  1.00  0.00     0.058 A 
ATOM     79  C   UNL     1     -15.625   4.392  -0.894  1.00  0.00     0.135 A 
ATOM     80  C   UNL     1     -14.089   3.781   0.851  1.00  0.00     0.135 A 
ATOM     81  F   UNL     1     -15.984   5.178  -1.920  1.00  0.00    -0.206 F 
ATOM     82  C   UNL     1     -16.485   3.368  -0.509  1.00  0.00     0.059 A 
ATOM     83  C   UNL     1     -14.922   2.738   1.240  1.00  0.00     0.059 A 
ATOM     84  F   UNL     1     -12.938   3.957   1.518  1.00  0.00    -0.206 F 
ATOM     85  C   UNL     1     -16.123   2.545   0.559  1.00  0.00     0.060 A 
BRANCH  85  86
ATOM     86  S   UNL     1     -17.216   1.183   1.019  1.00  0.00     0.124 S 
ATOM     87  O   UNL     1     -18.273   1.885   1.737  1.00  0.00    -0.237 OA
ATOM     88  O   UNL     1     -17.584   0.629  -0.281  1.00  0.00    -0.237 OA
ATOM     89  O   UNL     1     -16.358   0.328   1.834  1.00  0.00    -0.744 OA
ENDBRANCH  85  86
ENDBRANCH  53  78
BRANCH  65  90
ATOM     90  C   UNL     1     -14.769  11.574   0.198  1.00  0.00     0.058 A 
ATOM     91  C   UNL     1     -14.990  11.727   1.576  1.00  0.00     0.135 A 
ATOM     92  C   UNL     1     -15.543  12.348  -0.681  1.00  0.00     0.135 A 
ATOM     93  F   UNL     1     -14.280  11.007   2.458  1.00  0.00    -0.206 F 
ATOM     94  C   UNL     1     -15.962  12.595   2.063  1.00  0.00     0.059 A 
ATOM     95  C   UNL     1     -16.504  13.239  -0.215  1.00  0.00     0.059 A 
ATOM     96  F   UNL     1     -15.363  12.248  -2.008  1.00  0.00    -0.206 F 
ATOM     97  C   UNL     1     -16.717  13.345   1.159  1.00  0.00     0.060 A 
BRANCH  97  98
ATOM     98  S   UNL     1     -17.965  14.480   1.802  1.00  0.00     0.124 S 
ATOM     99  O   UNL     1     -19.044  13.563   2.151  1.00  0.00    -0.237 OA
ATOM    100  O   UNL     1     -17.275  15.104   2.927  1.00  0.00    -0.237 OA
ATOM    101  O   UNL     1     -18.232  15.365   0.671  1.00  0.00    -0.744 OA
ENDBRANCH  97  98
ENDBRANCH  65  90
ENDBRANCH  39  40
ENDBRANCH  32  34
ENDBRANCH  31  32
ENDBRANCH  30  31
ENDBRANCH  29  30
ENDBRANCH   1  29
TORSDOF 21
