REMARK SMILES Cc1nc(Nc2ccc(F)cc2)nc(OCC(=O)OCCOCCOC(=O)c2ccc(-c3c4nc(c(-c5c(F)cc(S(=O)(=O)[O-])cc5F)c5ccc([nH]5)c(-c5c(F)cc(S(=O)(=O)[O-])cc5F)c5nc(c(-c6c(F)cc(S(=O)(=O)[O-])cc6F)c6ccc3[nH]6)C=C5)C=C4)cc2)c1CCO
REMARK SMILES IDX 21 1 20 2 19 3 17 4 18 5 16 6 15 7 14 8 1 9 2 10 3 11 94 12
REMARK SMILES IDX 4 13 13 14 95 15 96 16 97 17 5 19 6 21 7 22 12 23 8 24 11 25
REMARK SMILES IDX 9 26 10 27 22 28 23 29 24 30 25 31 26 32 27 33 28 34 29 35
REMARK SMILES IDX 93 36 30 37 92 38 31 39 32 40 33 41 86 42 34 43 91 44 85 45
REMARK SMILES IDX 87 46 35 47 90 48 84 49 83 50 36 52 70 53 49 54 69 55 50 56
REMARK SMILES IDX 53 57 68 58 88 59 51 60 52 61 67 63 89 64 54 65 37 66 38 67
REMARK SMILES IDX 47 68 39 69 40 70 46 71 48 72 41 73 42 74 43 75 44 76 45 77
REMARK SMILES IDX 71 78 72 79 81 80 73 81 74 82 80 83 82 84 75 85 76 86 77 87
REMARK SMILES IDX 78 88 79 89 55 90 56 91 65 92 57 93 58 94 64 95 66 96 59 97
REMARK SMILES IDX 60 98 61 99 62 100 63 101
REMARK H PARENT 97 18 5 20 87 51 53 62
REMARK Flexibility Score: inf
ROOT
ATOM      1  C   UNL     1      -0.808  -3.583   4.142  1.00  0.00     0.202 C 
ENDROOT
BRANCH   1   2
ATOM      2  C   UNL     1       0.217  -4.464   3.419  1.00  0.00     0.261 C 
BRANCH   2   3
ATOM      3  O   UNL     1       0.964  -3.751   2.406  1.00  0.00    -0.461 OA
BRANCH   3   4
ATOM      4  C   UNL     1       1.003  -4.351   1.185  1.00  0.00     0.344 C 
ATOM      5  O   UNL     1       0.427  -5.398   0.904  1.00  0.00    -0.248 OA
BRANCH   4   6
ATOM      6  C   UNL     1       1.877  -3.613   0.165  1.00  0.00     0.353 C 
BRANCH   6   7
ATOM      7  O   UNL     1       1.997  -2.219   0.073  1.00  0.00    -0.465 OA
BRANCH   7   8
ATOM      8  C   UNL     1       1.075  -1.319  -0.332  1.00  0.00     0.222 A 
ATOM      9  C   UNL     1      -2.464  -0.240  -1.056  1.00  0.00     0.067 C 
ATOM     10  C   UNL     1      -0.975  -0.319  -0.867  1.00  0.00     0.050 A 
ATOM     11  N   UNL     1      -0.437   0.898  -0.669  1.00  0.00    -0.218 NA
ATOM     12  C   UNL     1      -0.227  -1.500  -0.792  1.00  0.00     0.038 A 
ATOM     13  C   UNL     1       0.855   0.989  -0.368  1.00  0.00     0.230 A 
ATOM     14  N   UNL     1       1.617  -0.086  -0.188  1.00  0.00    -0.177 NA
BRANCH  12  15
ATOM     15  C   UNL     1      -0.832  -2.806  -1.232  1.00  0.00     0.071 C 
BRANCH  15  16
ATOM     16  C   UNL     1      -0.571  -3.132  -2.703  1.00  0.00     0.161 C 
BRANCH  16  17
ATOM     17  O   UNL     1       0.810  -3.330  -2.971  1.00  0.00    -0.396 OA
ATOM     18  H   UNL     1       1.299  -2.517  -2.768  1.00  0.00     0.210 HD
ENDBRANCH  16  17
ENDBRANCH  15  16
ENDBRANCH  12  15
BRANCH  13  19
ATOM     19  N   UNL     1       1.448   2.243  -0.270  1.00  0.00    -0.324 N 
ATOM     20  H   UNL     1       2.432   2.261  -0.253  1.00  0.00     0.170 HD
BRANCH  19  21
ATOM     21  C   UNL     1       0.804   3.481  -0.194  1.00  0.00     0.041 A 
ATOM     22  C   UNL     1      -0.136   3.742   0.816  1.00  0.00     0.029 A 
ATOM     23  C   UNL     1       1.056   4.469  -1.153  1.00  0.00     0.029 A 
ATOM     24  C   UNL     1      -0.824   4.957   0.856  1.00  0.00     0.041 A 
ATOM     25  C   UNL     1       0.347   5.674  -1.132  1.00  0.00     0.041 A 
ATOM     26  C   UNL     1      -0.587   5.905  -0.129  1.00  0.00     0.123 A 
ATOM     27  F   UNL     1      -1.275   7.054  -0.121  1.00  0.00    -0.207 F 
ENDBRANCH  19  21
ENDBRANCH  13  19
ENDBRANCH   7   8
ENDBRANCH   6   7
ENDBRANCH   4   6
ENDBRANCH   3   4
ENDBRANCH   2   3
ENDBRANCH   1   2
BRANCH   1  28
ATOM     28  O   UNL     1      -1.942  -3.153   3.384  1.00  0.00    -0.374 OA
BRANCH  28  29
ATOM     29  C   UNL     1      -1.695  -2.291   2.279  1.00  0.00     0.202 C 
BRANCH  29  30
ATOM     30  C   UNL     1      -1.351  -0.834   2.596  1.00  0.00     0.261 C 
BRANCH  30  31
ATOM     31  O   UNL     1      -0.249  -0.707   3.491  1.00  0.00    -0.460 OA
BRANCH  31  32
ATOM     32  C   UNL     1      -0.559  -0.086   4.647  1.00  0.00     0.338 C 
ATOM     33  O   UNL     1      -1.619   0.446   4.957  1.00  0.00    -0.246 OA
BRANCH  32  34
ATOM     34  C   UNL     1       0.531  -0.302   5.594  1.00  0.00     0.060 A 
ATOM     35  C   UNL     1       0.224  -0.995   6.769  1.00  0.00     0.016 A 
ATOM     36  C   UNL     1       1.811   0.203   5.352  1.00  0.00     0.016 A 
ATOM     37  C   UNL     1       1.193  -1.133   7.748  1.00  0.00     0.010 A 
ATOM     38  C   UNL     1       2.782   0.071   6.342  1.00  0.00     0.010 A 
ATOM     39  C   UNL     1       2.457  -0.558   7.555  1.00  0.00    -0.014 A 
BRANCH  39  40
ATOM     40  C   UNL     1       3.361  -0.463   8.716  1.00  0.00     0.031 A 
ATOM     41  C   UNL     1       3.362   0.811   9.509  1.00  0.00     0.074 A 
ATOM     42  C   UNL     1       4.081  -1.532   9.091  1.00  0.00     0.049 A 
ATOM     43  N   UNL     1       4.019   1.105  10.598  1.00  0.00    -0.248 NA
ATOM     44  C   UNL     1       2.498   1.899   9.014  1.00  0.00     0.031 C 
ATOM     45  C   UNL     1       4.091  -2.823   8.401  1.00  0.00     0.029 A 
ATOM     46  N   UNL     1       4.924  -1.711  10.154  1.00  0.00    -0.354 N 
ATOM     47  C   UNL     1       3.641   2.402  10.924  1.00  0.00     0.074 A 
ATOM     48  C   UNL     1       2.732   2.857   9.898  1.00  0.00     0.031 C 
ATOM     49  C   UNL     1       4.893  -3.668   9.070  1.00  0.00     0.029 A 
ATOM     50  C   UNL     1       5.470  -2.969  10.216  1.00  0.00     0.049 A 
ATOM     51  H   UNL     1       5.120  -1.004  10.812  1.00  0.00     0.167 HD
ATOM     52  C   UNL     1       4.010   3.135  11.999  1.00  0.00     0.037 A 
ATOM     53  C   UNL     1       6.341  -3.489  11.102  1.00  0.00     0.037 A 
ATOM     54  C   UNL     1       4.924   2.658  13.002  1.00  0.00     0.049 A 
ATOM     55  C   UNL     1       6.800  -2.625  12.246  1.00  0.00     0.074 A 
ATOM     56  C   UNL     1       5.389   3.315  14.126  1.00  0.00     0.029 A 
ATOM     57  N   UNL     1       5.512   1.400  12.998  1.00  0.00    -0.354 N 
ATOM     58  N   UNL     1       6.442  -1.397  12.544  1.00  0.00    -0.248 NA
ATOM     59  C   UNL     1       7.776  -3.210  13.173  1.00  0.00     0.031 C 
ATOM     60  C   UNL     1       6.294   2.470  14.776  1.00  0.00     0.029 A 
ATOM     61  C   UNL     1       6.353   1.267  14.088  1.00  0.00     0.049 A 
ATOM     62  H   UNL     1       5.353   0.705  12.319  1.00  0.00     0.167 HD
ATOM     63  C   UNL     1       7.135  -1.067  13.702  1.00  0.00     0.074 A 
ATOM     64  C   UNL     1       7.923  -2.232  14.058  1.00  0.00     0.031 C 
ATOM     65  C   UNL     1       7.124   0.090  14.409  1.00  0.00     0.037 A 
BRANCH  52  66
ATOM     66  C   UNL     1       3.443   4.520  12.131  1.00  0.00     0.058 A 
ATOM     67  C   UNL     1       4.260   5.647  11.954  1.00  0.00     0.135 A 
ATOM     68  C   UNL     1       2.095   4.736  12.466  1.00  0.00     0.135 A 
ATOM     69  F   UNL     1       5.551   5.501  11.619  1.00  0.00    -0.206 F 
ATOM     70  C   UNL     1       3.768   6.938  12.121  1.00  0.00     0.059 A 
ATOM     71  C   UNL     1       1.575   6.019  12.613  1.00  0.00     0.059 A 
ATOM     72  F   UNL     1       1.262   3.694  12.616  1.00  0.00    -0.206 F 
ATOM     73  C   UNL     1       2.423   7.114  12.452  1.00  0.00     0.060 A 
BRANCH  73  74
ATOM     74  S   UNL     1       1.795   8.797  12.636  1.00  0.00     0.124 S 
ATOM     75  O   UNL     1       2.452   9.229  13.865  1.00  0.00    -0.237 OA
ATOM     76  O   UNL     1       2.260   9.433  11.407  1.00  0.00    -0.237 OA
ATOM     77  O   UNL     1       0.350   8.611  12.727  1.00  0.00    -0.744 OA
ENDBRANCH  73  74
ENDBRANCH  52  66
BRANCH  53  78
ATOM     78  C   UNL     1       6.809  -4.890  10.939  1.00  0.00     0.058 A 
ATOM     79  C   UNL     1       7.628  -5.260   9.860  1.00  0.00     0.135 A 
ATOM     80  C   UNL     1       6.407  -5.898  11.827  1.00  0.00     0.135 A 
ATOM     81  F   UNL     1       8.035  -4.336   8.976  1.00  0.00    -0.206 F 
ATOM     82  C   UNL     1       8.003  -6.582   9.648  1.00  0.00     0.059 A 
ATOM     83  C   UNL     1       6.789  -7.226  11.650  1.00  0.00     0.059 A 
ATOM     84  F   UNL     1       5.633  -5.593  12.880  1.00  0.00    -0.206 F 
ATOM     85  C   UNL     1       7.572  -7.559  10.545  1.00  0.00     0.060 A 
BRANCH  85  86
ATOM     86  S   UNL     1       8.047  -9.274  10.233  1.00  0.00     0.124 S 
ATOM     87  O   UNL     1       7.273  -9.576   9.034  1.00  0.00    -0.237 OA
ATOM     88  O   UNL     1       9.490  -9.162  10.048  1.00  0.00    -0.237 OA
ATOM     89  O   UNL     1       7.623  -9.967  11.445  1.00  0.00    -0.744 OA
ENDBRANCH  85  86
ENDBRANCH  53  78
BRANCH  65  90
ATOM     90  C   UNL     1       7.978   0.155  15.643  1.00  0.00     0.058 A 
ATOM     91  C   UNL     1       7.386   0.181  16.916  1.00  0.00     0.135 A 
ATOM     92  C   UNL     1       9.373   0.284  15.561  1.00  0.00     0.135 A 
ATOM     93  F   UNL     1       6.054   0.069  17.046  1.00  0.00    -0.206 F 
ATOM     94  C   UNL     1       8.147   0.354  18.065  1.00  0.00     0.059 A 
ATOM     95  C   UNL     1      10.156   0.430  16.700  1.00  0.00     0.059 A 
ATOM     96  F   UNL     1       9.984   0.254  14.366  1.00  0.00    -0.206 F 
ATOM     97  C   UNL     1       9.531   0.483  17.946  1.00  0.00     0.060 A 
BRANCH  97  98
ATOM     98  S   UNL     1      10.505   0.702  19.450  1.00  0.00     0.124 S 
ATOM     99  O   UNL     1      10.146   2.061  19.842  1.00  0.00    -0.237 OA
ATOM    100  O   UNL     1       9.992  -0.363  20.307  1.00  0.00    -0.237 OA
ATOM    101  O   UNL     1      11.879   0.522  18.993  1.00  0.00    -0.744 OA
ENDBRANCH  97  98
ENDBRANCH  65  90
ENDBRANCH  39  40
ENDBRANCH  32  34
ENDBRANCH  31  32
ENDBRANCH  30  31
ENDBRANCH  29  30
ENDBRANCH  28  29
ENDBRANCH   1  28
TORSDOF 24
