REMARK SMILES COc1ccc(C[N@@H+]2C[C@@H](C(=O)OCCOCCOC(=O)c3ccc(-c4c5nc(c(-c6c(F)cc(S(=O)(=O)[O-])cc6F)c6ccc([nH]6)c(-c6c(F)cc(S(=O)(=O)[O-])cc6F)c6nc(c(-c7c(F)cc(S(=O)(=O)[O-])cc7F)c7ccc4[nH]7)C=C6)C=C5)cc3)[C@H](c3ccccc3OC)C2)c(OC)c1
REMARK SMILES IDX 16 1 15 2 14 3 13 4 11 5 12 6 10 7 8 8 9 9 97 10 88 12 7 13
REMARK SMILES IDX 6 14 3 15 4 16 101 17 5 18 98 19 2 20 1 21 99 22 100 23
REMARK SMILES IDX 89 24 90 25 94 26 91 27 93 28 92 29 95 30 96 31 17 32 18 33
REMARK SMILES IDX 19 34 20 35 21 36 22 37 23 38 87 39 24 40 86 41 25 42 26 43
REMARK SMILES IDX 27 44 80 45 28 46 85 47 79 48 81 49 29 50 84 51 78 52 77 53
REMARK SMILES IDX 30 55 64 56 43 57 63 58 44 59 47 60 62 61 82 62 45 63 46 64
REMARK SMILES IDX 61 66 83 67 48 68 31 69 32 70 41 71 33 72 34 73 40 74 42 75
REMARK SMILES IDX 35 76 36 77 37 78 38 79 39 80 65 81 66 82 75 83 67 84 68 85
REMARK SMILES IDX 74 86 76 87 69 88 70 89 71 90 72 91 73 92 49 93 50 94 59 95
REMARK SMILES IDX 51 96 52 97 58 98 60 99 53 100 54 101 55 102 56 103 57 104
REMARK H PARENT 8 11 81 54 47 65
REMARK Flexibility Score: inf
ROOT
ATOM      1  O   UNL     1      -3.259  -6.641  -4.440  1.00  0.00    -0.374 OA
ENDROOT
BRANCH   1   2
ATOM      2  C   UNL     1      -4.061  -5.500  -4.675  1.00  0.00     0.202 C 
BRANCH   2   3
ATOM      3  C   UNL     1      -3.498  -4.069  -4.729  1.00  0.00     0.261 C 
BRANCH   3   4
ATOM      4  O   UNL     1      -2.176  -3.928  -5.259  1.00  0.00    -0.463 OA
BRANCH   4   5
ATOM      5  C   UNL     1      -1.230  -4.195  -4.320  1.00  0.00     0.315 C 
ATOM      6  O   UNL     1      -1.555  -4.642  -3.233  1.00  0.00    -0.252 OA
BRANCH   5   7
ATOM      7  C   UNL     1       0.170  -3.752  -4.698  1.00  0.00     0.167 C 
ATOM      8  N   UNL     1       1.556  -2.934  -6.466  1.00  0.00    -0.330 N 
ATOM      9  C   UNL     1       0.167  -3.233  -6.146  1.00  0.00     0.278 C 
ATOM     10  C   UNL     1       2.312  -3.987  -5.773  1.00  0.00     0.272 C 
ATOM     11  H   UNL     1       1.725  -2.948  -7.471  1.00  0.00     0.348 HD
ATOM     12  C   UNL     1       1.417  -4.673  -4.665  1.00  0.00     0.098 C 
BRANCH   8  13
ATOM     13  C   UNL     1       1.983  -1.540  -6.151  1.00  0.00     0.303 C 
BRANCH  13  14
ATOM     14  C   UNL     1       1.715  -1.018  -4.745  1.00  0.00     0.048 A 
ATOM     15  C   UNL     1       0.933  -0.664  -2.077  1.00  0.00     0.122 A 
ATOM     16  C   UNL     1       0.024  -0.409  -3.097  1.00  0.00     0.047 A 
ATOM     17  C   UNL     1       2.256  -0.992  -2.376  1.00  0.00     0.093 A 
ATOM     18  C   UNL     1       0.423  -0.546  -4.427  1.00  0.00     0.017 A 
ATOM     19  C   UNL     1       2.661  -1.131  -3.711  1.00  0.00     0.131 A 
BRANCH  15  20
ATOM     20  O   UNL     1       0.430  -0.761  -0.807  1.00  0.00    -0.497 OA
ATOM     21  C   UNL     1       1.016   0.172   0.089  1.00  0.00     0.278 C 
ENDBRANCH  15  20
BRANCH  19  22
ATOM     22  O   UNL     1       3.945  -1.458  -4.068  1.00  0.00    -0.496 OA
ATOM     23  C   UNL     1       4.955  -0.935  -3.210  1.00  0.00     0.278 C 
ENDBRANCH  19  22
ENDBRANCH  13  14
ENDBRANCH   8  13
BRANCH  12  24
ATOM     24  C   UNL     1       2.215  -4.965  -3.367  1.00  0.00     0.004 A 
ATOM     25  C   UNL     1       3.630  -5.036  -3.398  1.00  0.00     0.008 A 
ATOM     26  C   UNL     1       1.655  -5.297  -2.122  1.00  0.00     0.122 A 
ATOM     27  C   UNL     1       4.412  -5.355  -2.275  1.00  0.00     0.001 A 
ATOM     28  C   UNL     1       2.430  -5.712  -1.022  1.00  0.00     0.047 A 
ATOM     29  C   UNL     1       3.809  -5.711  -1.084  1.00  0.00     0.004 A 
BRANCH  26  30
ATOM     30  O   UNL     1       0.316  -5.324  -1.895  1.00  0.00    -0.496 OA
ATOM     31  C   UNL     1      -0.076  -4.195  -1.099  1.00  0.00     0.278 C 
ENDBRANCH  26  30
ENDBRANCH  12  24
ENDBRANCH   5   7
ENDBRANCH   4   5
ENDBRANCH   3   4
ENDBRANCH   2   3
ENDBRANCH   1   2
BRANCH   1  32
ATOM     32  C   UNL     1      -2.134  -6.970  -5.239  1.00  0.00     0.202 C 
BRANCH  32  33
ATOM     33  C   UNL     1      -2.080  -6.794  -6.768  1.00  0.00     0.261 C 
BRANCH  33  34
ATOM     34  O   UNL     1      -2.873  -5.746  -7.325  1.00  0.00    -0.460 OA
BRANCH  34  35
ATOM     35  C   UNL     1      -4.050  -6.157  -7.849  1.00  0.00     0.338 C 
ATOM     36  O   UNL     1      -4.487  -7.301  -7.883  1.00  0.00    -0.246 OA
BRANCH  35  37
ATOM     37  C   UNL     1      -4.847  -4.979  -8.217  1.00  0.00     0.060 A 
ATOM     38  C   UNL     1      -6.061  -4.766  -7.549  1.00  0.00     0.016 A 
ATOM     39  C   UNL     1      -4.438  -4.133  -9.249  1.00  0.00     0.016 A 
ATOM     40  C   UNL     1      -6.884  -3.714  -7.922  1.00  0.00     0.010 A 
ATOM     41  C   UNL     1      -5.286  -3.100  -9.650  1.00  0.00     0.010 A 
ATOM     42  C   UNL     1      -6.524  -2.912  -9.009  1.00  0.00    -0.014 A 
BRANCH  42  43
ATOM     43  C   UNL     1      -7.549  -2.033  -9.609  1.00  0.00     0.031 A 
ATOM     44  C   UNL     1      -8.322  -2.557 -10.787  1.00  0.00     0.074 A 
ATOM     45  C   UNL     1      -7.823  -0.831  -9.075  1.00  0.00     0.049 A 
ATOM     46  N   UNL     1      -9.225  -1.960 -11.516  1.00  0.00    -0.248 NA
ATOM     47  C   UNL     1      -8.039  -3.945 -11.194  1.00  0.00     0.031 C 
ATOM     48  C   UNL     1      -7.183  -0.267  -7.886  1.00  0.00     0.029 A 
ATOM     49  N   UNL     1      -8.714   0.133  -9.468  1.00  0.00    -0.354 N 
ATOM     50  C   UNL     1      -9.621  -2.897 -12.464  1.00  0.00     0.074 A 
ATOM     51  C   UNL     1      -8.833  -4.088 -12.244  1.00  0.00     0.031 C 
ATOM     52  C   UNL     1      -7.694   0.955  -7.656  1.00  0.00     0.029 A 
ATOM     53  C   UNL     1      -8.665   1.272  -8.701  1.00  0.00     0.049 A 
ATOM     54  H   UNL     1      -9.330   0.020 -10.227  1.00  0.00     0.167 HD
ATOM     55  C   UNL     1     -10.569  -2.776 -13.421  1.00  0.00     0.037 A 
ATOM     56  C   UNL     1      -9.312   2.443  -8.853  1.00  0.00     0.037 A 
ATOM     57  C   UNL     1     -11.338  -1.578 -13.631  1.00  0.00     0.049 A 
ATOM     58  C   UNL     1     -10.280   2.593 -10.002  1.00  0.00     0.074 A 
ATOM     59  C   UNL     1     -12.302  -1.331 -14.591  1.00  0.00     0.029 A 
ATOM     60  N   UNL     1     -11.229  -0.426 -12.865  1.00  0.00    -0.354 N 
ATOM     61  N   UNL     1     -10.638   1.707 -10.903  1.00  0.00    -0.248 NA
ATOM     62  C   UNL     1     -10.934   3.900 -10.155  1.00  0.00     0.031 C 
ATOM     63  C   UNL     1     -12.743  -0.013 -14.434  1.00  0.00     0.029 A 
ATOM     64  C   UNL     1     -12.098   0.541 -13.339  1.00  0.00     0.049 A 
ATOM     65  H   UNL     1     -10.623  -0.313 -12.097  1.00  0.00     0.167 HD
ATOM     66  C   UNL     1     -11.589   2.337 -11.701  1.00  0.00     0.074 A 
ATOM     67  C   UNL     1     -11.756   3.674 -11.170  1.00  0.00     0.031 C 
ATOM     68  C   UNL     1     -12.265   1.857 -12.774  1.00  0.00     0.037 A 
BRANCH  55  69
ATOM     69  C   UNL     1     -10.814  -3.957 -14.318  1.00  0.00     0.058 A 
ATOM     70  C   UNL     1     -11.441  -5.122 -13.846  1.00  0.00     0.135 A 
ATOM     71  C   UNL     1     -10.459  -3.910 -15.675  1.00  0.00     0.135 A 
ATOM     72  F   UNL     1     -11.778  -5.231 -12.551  1.00  0.00    -0.206 F 
ATOM     73  C   UNL     1     -11.695  -6.202 -14.684  1.00  0.00     0.059 A 
ATOM     74  C   UNL     1     -10.729  -4.967 -16.539  1.00  0.00     0.059 A 
ATOM     75  F   UNL     1      -9.848  -2.825 -16.177  1.00  0.00    -0.206 F 
ATOM     76  C   UNL     1     -11.341  -6.112 -16.032  1.00  0.00     0.060 A 
BRANCH  76  77
ATOM     77  S   UNL     1     -11.708  -7.511 -17.112  1.00  0.00     0.124 S 
ATOM     78  O   UNL     1     -10.758  -8.510 -16.631  1.00  0.00    -0.237 OA
ATOM     79  O   UNL     1     -13.111  -7.775 -16.811  1.00  0.00    -0.237 OA
ATOM     80  O   UNL     1     -11.444  -6.989 -18.449  1.00  0.00    -0.744 OA
ENDBRANCH  76  77
ENDBRANCH  55  69
BRANCH  56  81
ATOM     81  C   UNL     1      -9.058   3.578  -7.924  1.00  0.00     0.058 A 
ATOM     82  C   UNL     1     -10.070   4.073  -7.088  1.00  0.00     0.135 A 
ATOM     83  C   UNL     1      -7.811   4.223  -7.887  1.00  0.00     0.135 A 
ATOM     84  F   UNL     1     -11.281   3.496  -7.089  1.00  0.00    -0.206 F 
ATOM     85  C   UNL     1      -9.870   5.188  -6.280  1.00  0.00     0.059 A 
ATOM     86  C   UNL     1      -7.576   5.319  -7.064  1.00  0.00     0.059 A 
ATOM     87  F   UNL     1      -6.801   3.783  -8.655  1.00  0.00    -0.206 F 
ATOM     88  C   UNL     1      -8.620   5.808  -6.280  1.00  0.00     0.060 A 
BRANCH  88  89
ATOM     89  S   UNL     1      -8.371   7.257  -5.232  1.00  0.00     0.124 S 
ATOM     90  O   UNL     1      -9.144   8.268  -5.942  1.00  0.00    -0.237 OA
ATOM     91  O   UNL     1      -8.921   6.810  -3.956  1.00  0.00    -0.237 OA
ATOM     92  O   UNL     1      -6.922   7.440  -5.252  1.00  0.00    -0.744 OA
ENDBRANCH  88  89
ENDBRANCH  56  81
BRANCH  68  93
ATOM     93  C   UNL     1     -13.292   2.755 -13.407  1.00  0.00     0.058 A 
ATOM     94  C   UNL     1     -12.930   3.883 -14.160  1.00  0.00     0.135 A 
ATOM     95  C   UNL     1     -14.659   2.446 -13.305  1.00  0.00     0.135 A 
ATOM     96  F   UNL     1     -11.638   4.226 -14.284  1.00  0.00    -0.206 F 
ATOM     97  C   UNL     1     -13.888   4.688 -14.767  1.00  0.00     0.059 A 
ATOM     98  C   UNL     1     -15.632   3.217 -13.931  1.00  0.00     0.059 A 
ATOM     99  F   UNL     1     -15.059   1.371 -12.607  1.00  0.00    -0.206 F 
ATOM    100  C   UNL     1     -15.237   4.344 -14.650  1.00  0.00     0.060 A 
BRANCH 100 101
ATOM    101  S   UNL     1     -16.466   5.376 -15.476  1.00  0.00     0.124 S 
ATOM    102  O   UNL     1     -16.450   6.575 -14.645  1.00  0.00    -0.237 OA
ATOM    103  O   UNL     1     -15.899   5.524 -16.814  1.00  0.00    -0.237 OA
ATOM    104  O   UNL     1     -17.686   4.578 -15.403  1.00  0.00    -0.744 OA
ENDBRANCH 100 101
ENDBRANCH  68  93
ENDBRANCH  42  43
ENDBRANCH  35  37
ENDBRANCH  34  35
ENDBRANCH  33  34
ENDBRANCH  32  33
ENDBRANCH   1  32
TORSDOF 23
