REMARK SMILES C[N@@H+]1CCC[C@@H](C[NH2+]CC(=O)OCCOCCOC(=O)c2ccc(-c3c4nc(c(-c5c(F)cc(S(=O)(=O)[O-])cc5F)c5ccc([nH]5)c(-c5c(F)cc(S(=O)(=O)[O-])cc5F)c5nc(c(-c6c(F)cc(S(=O)(=O)[O-])cc6F)c6ccc3[nH]6)C=C5)C=C4)cc2)C1
REMARK SMILES IDX 15 1 14 2 13 3 12 4 10 5 11 6 9 7 8 8 7 11 6 12 1 13 2 14
REMARK SMILES IDX 3 15 87 16 4 18 5 19 16 20 17 21 18 22 19 23 20 24 21 25
REMARK SMILES IDX 22 26 86 27 23 28 85 29 24 30 25 31 26 32 79 33 27 34 84 35
REMARK SMILES IDX 78 36 80 37 28 38 83 39 77 40 76 41 29 43 63 44 42 45 62 46
REMARK SMILES IDX 43 47 46 48 61 49 81 50 44 51 45 52 60 54 82 55 47 56 30 57
REMARK SMILES IDX 31 58 40 59 32 60 33 61 39 62 41 63 34 64 35 65 36 66 37 67
REMARK SMILES IDX 38 68 64 69 65 70 74 71 66 72 67 73 73 74 75 75 68 76 69 77
REMARK SMILES IDX 70 78 71 79 72 80 48 81 49 82 58 83 50 84 51 85 57 86 59 87
REMARK SMILES IDX 52 88 53 89 54 90 55 91 56 92
REMARK H PARENT 8 9 8 10 2 17 80 42 46 53
REMARK Flexibility Score: inf
ROOT
ATOM      1  O   UNL     1      -2.294  -0.015   5.239  1.00  0.00    -0.374 OA
ENDROOT
BRANCH   1   2
ATOM      2  C   UNL     1      -1.293   0.997   5.282  1.00  0.00     0.202 C 
BRANCH   2   3
ATOM      3  C   UNL     1       0.174   0.563   5.399  1.00  0.00     0.261 C 
BRANCH   3   4
ATOM      4  O   UNL     1       0.580  -0.425   4.440  1.00  0.00    -0.459 OA
BRANCH   4   5
ATOM      5  C   UNL     1       0.836  -1.666   4.937  1.00  0.00     0.361 C 
ATOM      6  O   UNL     1       0.740  -1.970   6.123  1.00  0.00    -0.245 OA
BRANCH   5   7
ATOM      7  C   UNL     1       1.315  -2.673   3.892  1.00  0.00     0.384 C 
BRANCH   7   8
ATOM      8  N   UNL     1       0.808  -2.531   2.511  1.00  0.00    -0.337 N 
ATOM      9  H   UNL     1       1.017  -3.389   2.000  1.00  0.00     0.346 HD
ATOM     10  H   UNL     1      -0.194  -2.355   2.574  1.00  0.00     0.346 HD
BRANCH   8  11
ATOM     11  C   UNL     1       1.401  -1.405   1.787  1.00  0.00     0.270 C 
BRANCH  11  12
ATOM     12  C   UNL     1       1.412  -1.637   0.259  1.00  0.00     0.099 C 
ATOM     13  C   UNL     1      -2.088  -0.695  -0.911  1.00  0.00     0.332 C 
ATOM     14  N   UNL     1      -0.740  -0.524  -0.373  1.00  0.00    -0.337 N 
ATOM     15  C   UNL     1      -0.003   0.482  -1.152  1.00  0.00     0.262 C 
ATOM     16  C   UNL     1       0.009  -1.790  -0.370  1.00  0.00     0.271 C 
ATOM     17  H   UNL     1      -0.834  -0.208   0.593  1.00  0.00     0.347 HD
ATOM     18  C   UNL     1       1.338   0.783  -0.491  1.00  0.00     0.062 C 
ATOM     19  C   UNL     1       2.177  -0.490  -0.432  1.00  0.00     0.021 C 
ENDBRANCH  11  12
ENDBRANCH   8  11
ENDBRANCH   7   8
ENDBRANCH   5   7
ENDBRANCH   4   5
ENDBRANCH   3   4
ENDBRANCH   2   3
ENDBRANCH   1   2
BRANCH   1  20
ATOM     20  C   UNL     1      -2.376  -0.816   4.063  1.00  0.00     0.202 C 
BRANCH  20  21
ATOM     21  C   UNL     1      -2.788  -0.140   2.751  1.00  0.00     0.261 C 
BRANCH  21  22
ATOM     22  O   UNL     1      -1.946   0.959   2.382  1.00  0.00    -0.460 OA
BRANCH  22  23
ATOM     23  C   UNL     1      -2.572   2.155   2.243  1.00  0.00     0.338 C 
ATOM     24  O   UNL     1      -3.748   2.411   2.417  1.00  0.00    -0.246 OA
BRANCH  23  25
ATOM     25  C   UNL     1      -1.579   3.147   1.808  1.00  0.00     0.060 A 
ATOM     26  C   UNL     1      -0.958   4.013   2.709  1.00  0.00     0.016 A 
ATOM     27  C   UNL     1      -1.316   3.243   0.449  1.00  0.00     0.016 A 
ATOM     28  C   UNL     1      -0.076   4.993   2.230  1.00  0.00     0.010 A 
ATOM     29  C   UNL     1      -0.355   4.141  -0.011  1.00  0.00     0.010 A 
ATOM     30  C   UNL     1       0.232   5.074   0.862  1.00  0.00    -0.014 A 
BRANCH  30  31
ATOM     31  C   UNL     1       1.022   6.204   0.279  1.00  0.00     0.031 A 
ATOM     32  C   UNL     1       0.391   7.038  -0.819  1.00  0.00     0.074 A 
ATOM     33  C   UNL     1       2.288   6.468   0.661  1.00  0.00     0.049 A 
ATOM     34  N   UNL     1       0.940   7.902  -1.633  1.00  0.00    -0.248 NA
ATOM     35  C   UNL     1      -1.044   6.816  -1.072  1.00  0.00     0.031 C 
ATOM     36  C   UNL     1       3.038   5.749   1.691  1.00  0.00     0.029 A 
ATOM     37  N   UNL     1       3.177   7.417   0.211  1.00  0.00    -0.354 N 
ATOM     38  C   UNL     1      -0.060   8.261  -2.533  1.00  0.00     0.074 A 
ATOM     39  C   UNL     1      -1.225   7.472  -2.207  1.00  0.00     0.031 C 
ATOM     40  C   UNL     1       4.260   6.296   1.812  1.00  0.00     0.029 A 
ATOM     41  C   UNL     1       4.405   7.371   0.833  1.00  0.00     0.049 A 
ATOM     42  H   UNL     1       2.956   8.070  -0.491  1.00  0.00     0.167 HD
ATOM     43  C   UNL     1      -0.030   9.190  -3.519  1.00  0.00     0.037 A 
ATOM     44  C   UNL     1       5.522   8.099   0.627  1.00  0.00     0.037 A 
ATOM     45  C   UNL     1       1.090  10.057  -3.761  1.00  0.00     0.049 A 
ATOM     46  C   UNL     1       5.521   9.169  -0.438  1.00  0.00     0.074 A 
ATOM     47  C   UNL     1       1.197  11.090  -4.676  1.00  0.00     0.029 A 
ATOM     48  N   UNL     1       2.286  10.016  -3.061  1.00  0.00    -0.354 N 
ATOM     49  N   UNL     1       4.563   9.500  -1.272  1.00  0.00    -0.248 NA
ATOM     50  C   UNL     1       6.747   9.967  -0.588  1.00  0.00     0.031 C 
ATOM     51  C   UNL     1       2.469  11.654  -4.550  1.00  0.00     0.029 A 
ATOM     52  C   UNL     1       3.135  11.006  -3.521  1.00  0.00     0.049 A 
ATOM     53  H   UNL     1       2.499   9.376  -2.343  1.00  0.00     0.167 HD
ATOM     54  C   UNL     1       5.056  10.571  -2.012  1.00  0.00     0.074 A 
ATOM     55  C   UNL     1       6.396  10.831  -1.532  1.00  0.00     0.031 C 
ATOM     56  C   UNL     1       4.450  11.278  -2.998  1.00  0.00     0.037 A 
BRANCH  43  57
ATOM     57  C   UNL     1      -1.252   9.337  -4.390  1.00  0.00     0.058 A 
ATOM     58  C   UNL     1      -2.470   9.824  -3.889  1.00  0.00     0.135 A 
ATOM     59  C   UNL     1      -1.195   9.009  -5.755  1.00  0.00     0.135 A 
ATOM     60  F   UNL     1      -2.589  10.143  -2.590  1.00  0.00    -0.206 F 
ATOM     61  C   UNL     1      -3.598   9.935  -4.695  1.00  0.00     0.059 A 
ATOM     62  C   UNL     1      -2.300   9.150  -6.590  1.00  0.00     0.059 A 
ATOM     63  F   UNL     1      -0.056   8.545  -6.293  1.00  0.00    -0.206 F 
ATOM     64  C   UNL     1      -3.503   9.596  -6.045  1.00  0.00     0.060 A 
BRANCH  64  65
ATOM     65  S   UNL     1      -4.976   9.752  -7.077  1.00  0.00     0.124 S 
ATOM     66  O   UNL     1      -5.775   8.621  -6.614  1.00  0.00    -0.237 OA
ATOM     67  O   UNL     1      -5.475  11.073  -6.710  1.00  0.00    -0.237 OA
ATOM     68  O   UNL     1      -4.454   9.637  -8.435  1.00  0.00    -0.744 OA
ENDBRANCH  64  65
ENDBRANCH  43  57
BRANCH  44  69
ATOM     69  C   UNL     1       6.734   7.865   1.463  1.00  0.00     0.058 A 
ATOM     70  C   UNL     1       7.156   8.818   2.403  1.00  0.00     0.135 A 
ATOM     71  C   UNL     1       7.492   6.690   1.344  1.00  0.00     0.135 A 
ATOM     72  F   UNL     1       6.472   9.964   2.549  1.00  0.00    -0.206 F 
ATOM     73  C   UNL     1       8.293   8.625   3.182  1.00  0.00     0.059 A 
ATOM     74  C   UNL     1       8.618   6.461   2.132  1.00  0.00     0.059 A 
ATOM     75  F   UNL     1       7.127   5.739   0.470  1.00  0.00    -0.206 F 
ATOM     76  C   UNL     1       9.016   7.440   3.042  1.00  0.00     0.060 A 
BRANCH  76  77
ATOM     77  S   UNL     1      10.461   7.178   4.094  1.00  0.00     0.124 S 
ATOM     78  O   UNL     1      11.418   8.117   3.519  1.00  0.00    -0.237 OA
ATOM     79  O   UNL     1       9.943   7.522   5.415  1.00  0.00    -0.237 OA
ATOM     80  O   UNL     1      10.767   5.764   3.898  1.00  0.00    -0.744 OA
ENDBRANCH  76  77
ENDBRANCH  44  69
BRANCH  56  81
ATOM     81  C   UNL     1       5.182  12.455  -3.580  1.00  0.00     0.058 A 
ATOM     82  C   UNL     1       6.250  12.298  -4.474  1.00  0.00     0.135 A 
ATOM     83  C   UNL     1       4.727  13.759  -3.321  1.00  0.00     0.135 A 
ATOM     84  F   UNL     1       6.726  11.074  -4.751  1.00  0.00    -0.206 F 
ATOM     85  C   UNL     1       6.844  13.394  -5.093  1.00  0.00     0.059 A 
ATOM     86  C   UNL     1       5.288  14.867  -3.948  1.00  0.00     0.059 A 
ATOM     87  F   UNL     1       3.700  13.962  -2.480  1.00  0.00    -0.206 F 
ATOM     88  C   UNL     1       6.348  14.674  -4.831  1.00  0.00     0.060 A 
BRANCH  88  89
ATOM     89  S   UNL     1       7.078  16.079  -5.699  1.00  0.00     0.124 S 
ATOM     90  O   UNL     1       8.371  16.197  -5.035  1.00  0.00    -0.237 OA
ATOM     91  O   UNL     1       7.114  15.606  -7.080  1.00  0.00    -0.237 OA
ATOM     92  O   UNL     1       6.137  17.165  -5.440  1.00  0.00    -0.744 OA
ENDBRANCH  88  89
ENDBRANCH  56  81
ENDBRANCH  30  31
ENDBRANCH  23  25
ENDBRANCH  22  23
ENDBRANCH  21  22
ENDBRANCH  20  21
ENDBRANCH   1  20
TORSDOF 20
