REMARK SMILES C=C[C@@H]1[C@@H](O)C[C@@H]2[C@@]3(CC[C@@]4(C)[C@@H]([C@H](C)CCC=C(C)C)CC[C@@]24C)C[C@@]13CCC(=O)OCCOCCOC(=O)c1ccc(-c2c3nc(c(-c4c(F)cc(S(=O)(=O)[O-])cc4F)c4ccc([nH]4)c(-c4c(F)cc(S(=O)(=O)[O-])cc4F)c4nc(c(-c5c(F)cc(S(=O)(=O)[O-])cc5F)c5ccc2[nH]5)C=C4)C=C3)cc1
REMARK SMILES IDX 33 1 32 2 30 3 31 4 29 5 28 6 27 7 3 8 4 9 6 10 8 11 26 12
REMARK SMILES IDX 7 13 9 14 24 15 10 16 11 17 23 18 25 19 12 20 13 21 22 22
REMARK SMILES IDX 2 23 1 24 5 25 14 27 15 28 16 29 17 30 18 31 19 32 20 33
REMARK SMILES IDX 21 34 34 35 35 36 36 37 37 38 38 39 39 40 40 41 41 42 42 43
REMARK SMILES IDX 106 44 43 45 105 46 44 47 45 48 46 49 99 50 47 51 104 52
REMARK SMILES IDX 98 53 100 54 48 55 103 56 97 57 96 58 49 60 83 61 62 62
REMARK SMILES IDX 82 63 63 64 66 65 81 66 101 67 64 68 65 69 80 71 102 72
REMARK SMILES IDX 67 73 50 74 51 75 60 76 52 77 53 78 59 79 61 80 54 81 55 82
REMARK SMILES IDX 56 83 57 84 58 85 84 86 85 87 94 88 86 89 87 90 93 91 95 92
REMARK SMILES IDX 88 93 89 94 90 95 91 96 92 97 68 98 69 99 78 100 70 101
REMARK SMILES IDX 71 102 77 103 79 104 72 105 73 106 74 107 75 108 76 109
REMARK H PARENT 5 26 100 59 66 70
REMARK Flexibility Score: inf
ROOT
ATOM      1  C   UNL     1      -1.099   0.158   4.715  1.00  0.00     0.261 C 
ENDROOT
BRANCH   1   2
ATOM      2  O   UNL     1      -0.490   0.139   5.979  1.00  0.00    -0.463 OA
BRANCH   2   3
ATOM      3  C   UNL     1      -1.369   0.458   6.984  1.00  0.00     0.305 C 
ATOM      4  O   UNL     1      -2.603   0.531   6.927  1.00  0.00    -0.252 OA
BRANCH   3   5
ATOM      5  C   UNL     1      -0.565   0.713   8.181  1.00  0.00     0.123 C 
BRANCH   5   6
ATOM      6  C   UNL     1       0.619   1.590   7.728  1.00  0.00     0.020 C 
BRANCH   6   7
ATOM      7  C   UNL     1       0.179   2.907   7.042  1.00  0.00    -0.014 C 
ATOM      8  C   UNL     1      -0.496   3.936   7.997  1.00  0.00     0.047 C 
ATOM      9  C   UNL     1      -1.779   4.559   7.386  1.00  0.00     0.122 C 
ATOM     10  C   UNL     1      -1.696   4.819   5.879  1.00  0.00     0.037 C 
ATOM     11  C   UNL     1      -0.039   3.007   5.417  1.00  0.00    -0.019 C 
ATOM     12  C   UNL     1       1.137   3.625   6.177  1.00  0.00     0.016 C 
ATOM     13  C   UNL     1      -1.510   3.483   5.135  1.00  0.00     0.005 C 
ATOM     14  C   UNL     1       0.651   2.325   4.250  1.00  0.00     0.008 C 
ATOM     15  C   UNL     1      -1.978   3.506   3.601  1.00  0.00    -0.023 C 
ATOM     16  C   UNL     1      -0.120   2.201   2.924  1.00  0.00     0.008 C 
ATOM     17  C   UNL     1      -1.686   2.173   2.754  1.00  0.00    -0.024 C 
ATOM     18  C   UNL     1      -3.497   3.578   3.397  1.00  0.00     0.008 C 
ATOM     19  C   UNL     1      -1.241   4.745   3.055  1.00  0.00     0.012 C 
ATOM     20  C   UNL     1      -1.903   2.304   1.193  1.00  0.00     0.012 C 
ATOM     21  C   UNL     1      -2.990   1.049   3.140  1.00  0.00    -0.002 C 
ATOM     22  C   UNL     1      -4.089   2.137   3.477  1.00  0.00     0.005 C 
BRANCH   8  23
ATOM     23  C   UNL     1      -0.616   3.513   9.455  1.00  0.00    -0.028 C 
ATOM     24  C   UNL     1      -1.736   3.243  10.139  1.00  0.00     0.004 C 
ENDBRANCH   8  23
BRANCH   9  25
ATOM     25  O   UNL     1      -2.042   5.811   8.028  1.00  0.00    -0.392 OA
ATOM     26  H   UNL     1      -1.310   6.423   7.855  1.00  0.00     0.210 HD
ENDBRANCH   9  25
BRANCH  21  27
ATOM     27  C   UNL     1      -3.321  -0.733   3.536  1.00  0.00    -0.010 C 
ATOM     28  C   UNL     1      -4.783  -0.816   4.056  1.00  0.00     0.008 C 
BRANCH  27  29
ATOM     29  C   UNL     1      -2.506  -2.192   4.340  1.00  0.00     0.008 C 
BRANCH  29  30
ATOM     30  C   UNL     1      -1.271  -2.323   5.486  1.00  0.00     0.027 C 
BRANCH  30  31
ATOM     31  C   UNL     1      -0.371  -3.441   6.028  1.00  0.00    -0.028 C 
ATOM     32  C   UNL     1       0.813  -3.260   6.704  1.00  0.00    -0.080 C 
ATOM     33  C   UNL     1       1.624  -4.425   7.221  1.00  0.00     0.039 C 
ATOM     34  C   UNL     1       1.530  -1.960   7.067  1.00  0.00     0.039 C 
ENDBRANCH  30  31
ENDBRANCH  29  30
ENDBRANCH  27  29
ENDBRANCH  21  27
ENDBRANCH   6   7
ENDBRANCH   5   6
ENDBRANCH   3   5
ENDBRANCH   2   3
ENDBRANCH   1   2
BRANCH   1  35
ATOM     35  C   UNL     1      -0.304  -0.386   3.417  1.00  0.00     0.202 C 
BRANCH  35  36
ATOM     36  O   UNL     1      -0.203  -1.717   2.959  1.00  0.00    -0.374 OA
BRANCH  36  37
ATOM     37  C   UNL     1       0.759  -1.923   1.904  1.00  0.00     0.202 C 
BRANCH  37  38
ATOM     38  C   UNL     1       1.917  -0.927   1.509  1.00  0.00     0.261 C 
BRANCH  38  39
ATOM     39  O   UNL     1       1.675   0.469   1.145  1.00  0.00    -0.460 OA
BRANCH  39  40
ATOM     40  C   UNL     1       1.499   0.896  -0.139  1.00  0.00     0.338 C 
ATOM     41  O   UNL     1       1.385   0.145  -1.097  1.00  0.00    -0.246 OA
BRANCH  40  42
ATOM     42  C   UNL     1       1.284   2.413  -0.227  1.00  0.00     0.060 A 
ATOM     43  C   UNL     1       0.264   2.892  -1.074  1.00  0.00     0.016 A 
ATOM     44  C   UNL     1       1.910   3.360   0.600  1.00  0.00     0.016 A 
ATOM     45  C   UNL     1      -0.249   4.213  -0.964  1.00  0.00     0.010 A 
ATOM     46  C   UNL     1       1.421   4.705   0.676  1.00  0.00     0.010 A 
ATOM     47  C   UNL     1       0.292   5.144  -0.069  1.00  0.00    -0.014 A 
BRANCH  47  48
ATOM     48  C   UNL     1      -0.085   6.615  -0.210  1.00  0.00     0.031 A 
ATOM     49  C   UNL     1       0.793   7.361  -1.181  1.00  0.00     0.074 A 
ATOM     50  C   UNL     1      -1.155   7.288   0.302  1.00  0.00     0.049 A 
ATOM     51  N   UNL     1       0.695   8.581  -1.632  1.00  0.00    -0.248 NA
ATOM     52  C   UNL     1       1.889   6.581  -1.785  1.00  0.00     0.031 C 
ATOM     53  C   UNL     1      -2.271   6.718   1.047  1.00  0.00     0.029 A 
ATOM     54  N   UNL     1      -1.502   8.635   0.282  1.00  0.00    -0.354 N 
ATOM     55  C   UNL     1       1.677   8.690  -2.605  1.00  0.00     0.074 A 
ATOM     56  C   UNL     1       2.407   7.447  -2.631  1.00  0.00     0.031 C 
ATOM     57  C   UNL     1      -3.044   7.681   1.580  1.00  0.00     0.029 A 
ATOM     58  C   UNL     1      -2.603   8.965   1.066  1.00  0.00     0.049 A 
ATOM     59  H   UNL     1      -1.006   9.303  -0.245  1.00  0.00     0.167 HD
ATOM     60  C   UNL     1       1.933   9.716  -3.443  1.00  0.00     0.037 A 
ATOM     61  C   UNL     1      -3.250  10.134   1.296  1.00  0.00     0.037 A 
ATOM     62  C   UNL     1       1.240  10.968  -3.401  1.00  0.00     0.049 A 
ATOM     63  C   UNL     1      -2.851  11.323   0.461  1.00  0.00     0.074 A 
ATOM     64  C   UNL     1       1.475  12.100  -4.154  1.00  0.00     0.029 A 
ATOM     65  N   UNL     1       0.194  11.260  -2.536  1.00  0.00    -0.354 N 
ATOM     66  N   UNL     1      -1.927  11.387  -0.469  1.00  0.00    -0.248 NA
ATOM     67  C   UNL     1      -3.603  12.573   0.646  1.00  0.00     0.031 C 
ATOM     68  C   UNL     1       0.618  13.104  -3.695  1.00  0.00     0.029 A 
ATOM     69  C   UNL     1      -0.200  12.574  -2.708  1.00  0.00     0.049 A 
ATOM     70  H   UNL     1      -0.206  10.627  -1.897  1.00  0.00     0.167 HD
ATOM     71  C   UNL     1      -2.007  12.666  -1.000  1.00  0.00     0.074 A 
ATOM     72  C   UNL     1      -3.079  13.344  -0.298  1.00  0.00     0.031 C 
ATOM     73  C   UNL     1      -1.266  13.226  -1.987  1.00  0.00     0.037 A 
BRANCH  60  74
ATOM     74  C   UNL     1       3.077   9.514  -4.390  1.00  0.00     0.058 A 
ATOM     75  C   UNL     1       3.007   8.602  -5.459  1.00  0.00     0.135 A 
ATOM     76  C   UNL     1       4.305  10.140  -4.134  1.00  0.00     0.135 A 
ATOM     77  F   UNL     1       1.869   7.933  -5.706  1.00  0.00    -0.206 F 
ATOM     78  C   UNL     1       4.133   8.280  -6.207  1.00  0.00     0.059 A 
ATOM     79  C   UNL     1       5.434   9.858  -4.892  1.00  0.00     0.059 A 
ATOM     80  F   UNL     1       4.427  10.994  -3.107  1.00  0.00    -0.206 F 
ATOM     81  C   UNL     1       5.344   8.909  -5.910  1.00  0.00     0.060 A 
BRANCH  81  82
ATOM     82  S   UNL     1       6.809   8.453  -6.857  1.00  0.00     0.124 S 
ATOM     83  O   UNL     1       7.095   7.123  -6.329  1.00  0.00    -0.237 OA
ATOM     84  O   UNL     1       6.316   8.498  -8.230  1.00  0.00    -0.237 OA
ATOM     85  O   UNL     1       7.775   9.489  -6.506  1.00  0.00    -0.744 OA
ENDBRANCH  81  82
ENDBRANCH  60  74
BRANCH  61  86
ATOM     86  C   UNL     1      -4.372  10.246   2.295  1.00  0.00     0.058 A 
ATOM     87  C   UNL     1      -5.705  10.493   1.918  1.00  0.00     0.135 A 
ATOM     88  C   UNL     1      -4.117  10.156   3.676  1.00  0.00     0.135 A 
ATOM     89  F   UNL     1      -6.020  10.614   0.620  1.00  0.00    -0.206 F 
ATOM     90  C   UNL     1      -6.728  10.658   2.858  1.00  0.00     0.059 A 
ATOM     91  C   UNL     1      -5.125  10.297   4.635  1.00  0.00     0.059 A 
ATOM     92  F   UNL     1      -2.867   9.933   4.112  1.00  0.00    -0.206 F 
ATOM     93  C   UNL     1      -6.429  10.555   4.218  1.00  0.00     0.060 A 
BRANCH  93  94
ATOM     94  S   UNL     1      -7.769  10.736   5.425  1.00  0.00     0.124 S 
ATOM     95  O   UNL     1      -8.107  12.148   5.289  1.00  0.00    -0.237 OA
ATOM     96  O   UNL     1      -8.762   9.792   4.922  1.00  0.00    -0.237 OA
ATOM     97  O   UNL     1      -7.139  10.360   6.688  1.00  0.00    -0.744 OA
ENDBRANCH  93  94
ENDBRANCH  61  86
BRANCH  73  98
ATOM     98  C   UNL     1      -1.577  14.641  -2.371  1.00  0.00     0.058 A 
ATOM     99  C   UNL     1      -1.242  15.716  -1.536  1.00  0.00     0.135 A 
ATOM    100  C   UNL     1      -2.112  14.926  -3.637  1.00  0.00     0.135 A 
ATOM    101  F   UNL     1      -0.730  15.492  -0.315  1.00  0.00    -0.206 F 
ATOM    102  C   UNL     1      -1.435  17.031  -1.940  1.00  0.00     0.059 A 
ATOM    103  C   UNL     1      -2.283  16.233  -4.075  1.00  0.00     0.059 A 
ATOM    104  F   UNL     1      -2.436  13.929  -4.476  1.00  0.00    -0.206 F 
ATOM    105  C   UNL     1      -1.946  17.278  -3.216  1.00  0.00     0.060 A 
BRANCH 105 106
ATOM    106  S   UNL     1      -2.123  18.991  -3.753  1.00  0.00     0.124 S 
ATOM    107  O   UNL     1      -3.259  19.433  -2.952  1.00  0.00    -0.237 OA
ATOM    108  O   UNL     1      -0.830  19.564  -3.393  1.00  0.00    -0.237 OA
ATOM    109  O   UNL     1      -2.373  18.873  -5.187  1.00  0.00    -0.744 OA
ENDBRANCH 105 106
ENDBRANCH  73  98
ENDBRANCH  47  48
ENDBRANCH  40  42
ENDBRANCH  39  40
ENDBRANCH  38  39
ENDBRANCH  37  38
ENDBRANCH  36  37
ENDBRANCH  35  36
ENDBRANCH   1  35
TORSDOF 25
