REMARK SMILES Cc1ccc(-c2c(C)sc(NC(=O)[C@H]3CC=CC[C@H]3C(=O)OCCOCCOC(=O)c3ccc(-c4c5nc(c(-c6c(F)cc(S(=O)(=O)[O-])cc6F)c6ccc([nH]6)c(-c6c(F)cc(S(=O)(=O)[O-])cc6F)c6nc(c(-c7c(F)cc(S(=O)(=O)[O-])cc7F)c7ccc4[nH]7)C=C6)C=C5)cc3)c2C(N)=O)cc1
REMARK SMILES IDX 25 1 24 2 23 3 22 4 20 5 21 6 19 7 14 8 15 9 16 10 18 11
REMARK SMILES IDX 17 12 12 13 11 14 13 16 10 17 6 18 7 19 97 20 8 21 9 22 5 23
REMARK SMILES IDX 1 24 2 25 3 26 102 27 4 28 101 29 98 30 99 31 100 32 26 35
REMARK SMILES IDX 27 36 28 37 29 38 30 39 31 40 32 41 96 42 33 43 95 44 34 45
REMARK SMILES IDX 35 46 36 47 89 48 37 49 94 50 88 51 90 52 38 53 93 54 87 55
REMARK SMILES IDX 86 56 39 58 73 59 52 60 72 61 53 62 56 63 71 64 91 65 54 66
REMARK SMILES IDX 55 67 70 69 92 70 57 71 40 72 41 73 50 74 42 75 43 76 49 77
REMARK SMILES IDX 51 78 44 79 45 80 46 81 47 82 48 83 74 84 75 85 84 86 76 87
REMARK SMILES IDX 77 88 83 89 85 90 78 91 79 92 80 93 81 94 82 95 58 96 59 97
REMARK SMILES IDX 68 98 60 99 61 100 67 101 69 102 62 103 63 104 64 105 65 106
REMARK SMILES IDX 66 107
REMARK H PARENT 11 15 99 33 99 34 90 57 56 68
REMARK Flexibility Score: inf
ROOT
ATOM      1  O   UNL     1     -10.829  -1.294  -0.293  1.00  0.00    -0.374 OA
ENDROOT
BRANCH   1   2
ATOM      2  C   UNL     1     -10.370  -1.496   1.037  1.00  0.00     0.202 C 
BRANCH   2   3
ATOM      3  C   UNL     1      -9.227  -2.462   0.955  1.00  0.00     0.261 C 
BRANCH   3   4
ATOM      4  O   UNL     1      -8.089  -1.931   0.249  1.00  0.00    -0.463 OA
BRANCH   4   5
ATOM      5  C   UNL     1      -8.239  -1.687  -1.072  1.00  0.00     0.310 C 
ATOM      6  O   UNL     1      -8.763  -2.434  -1.895  1.00  0.00    -0.252 OA
BRANCH   5   7
ATOM      7  C   UNL     1      -7.715  -0.347  -1.445  1.00  0.00     0.116 C 
ATOM      8  C   UNL     1      -7.816   0.722  -0.344  1.00  0.00     0.097 C 
ATOM      9  C   UNL     1      -7.503   2.103  -0.930  1.00  0.00     0.041 C 
ATOM     10  C   UNL     1      -6.553   2.088  -2.109  1.00  0.00    -0.030 C 
ATOM     11  C   UNL     1      -6.374  -0.409  -2.150  1.00  0.00     0.043 C 
ATOM     12  C   UNL     1      -6.026   0.969  -2.639  1.00  0.00    -0.030 C 
BRANCH   8  13
ATOM     13  C   UNL     1      -7.353   0.427   1.123  1.00  0.00     0.229 C 
ATOM     14  N   UNL     1      -6.184  -0.176   1.503  1.00  0.00    -0.317 N 
ATOM     15  H   UNL     1      -6.278  -0.919   2.142  1.00  0.00     0.170 HD
ATOM     16  O   UNL     1      -8.155   0.650   2.043  1.00  0.00    -0.274 OA
BRANCH  14  17
ATOM     17  C   UNL     1      -4.896   0.115   1.114  1.00  0.00     0.109 A 
ATOM     18  C   UNL     1      -2.689   0.171   0.417  1.00  0.00     0.010 A 
ATOM     19  C   UNL     1      -3.306   1.109  -0.397  1.00  0.00     0.012 A 
ATOM     20  C   UNL     1      -3.630  -0.414   1.390  1.00  0.00     0.082 A 
ATOM     21  C   UNL     1      -2.890   1.770  -1.665  1.00  0.00     0.057 C 
ATOM     22  S   UNL     1      -4.674   1.658   0.428  1.00  0.00    -0.122 S 
BRANCH  18  23
ATOM     23  C   UNL     1      -1.249   0.003   0.290  1.00  0.00    -0.016 A 
ATOM     24  C   UNL     1       3.025  -0.213  -0.111  1.00  0.00     0.044 C 
ATOM     25  C   UNL     1       1.534  -0.136  -0.004  1.00  0.00    -0.051 A 
ATOM     26  C   UNL     1       0.745  -1.292  -0.114  1.00  0.00     0.004 A 
ATOM     27  C   UNL     1       0.922   1.090   0.259  1.00  0.00     0.004 A 
ATOM     28  C   UNL     1      -0.647  -1.223   0.016  1.00  0.00     0.009 A 
ATOM     29  C   UNL     1      -0.453   1.151   0.427  1.00  0.00     0.009 A 
ENDBRANCH  18  23
BRANCH  20  30
ATOM     30  C   UNL     1      -3.219  -1.370   2.428  1.00  0.00     0.252 C 
ATOM     31  N   UNL     1      -4.129  -1.826   3.330  1.00  0.00    -0.365 N 
ATOM     32  O   UNL     1      -2.060  -1.755   2.575  1.00  0.00    -0.269 OA
ATOM     33  H   UNL     1      -5.072  -1.551   3.260  1.00  0.00     0.159 HD
ATOM     34  H   UNL     1      -3.845  -2.432   4.052  1.00  0.00     0.159 HD
ENDBRANCH  20  30
ENDBRANCH  14  17
ENDBRANCH   8  13
ENDBRANCH   5   7
ENDBRANCH   4   5
ENDBRANCH   3   4
ENDBRANCH   2   3
ENDBRANCH   1   2
BRANCH   1  35
ATOM     35  C   UNL     1     -11.976  -0.496  -0.470  1.00  0.00     0.202 C 
BRANCH  35  36
ATOM     36  C   UNL     1     -13.056  -0.578   0.616  1.00  0.00     0.261 C 
BRANCH  36  37
ATOM     37  O   UNL     1     -13.204  -1.844   1.302  1.00  0.00    -0.460 OA
BRANCH  37  38
ATOM     38  C   UNL     1     -13.847  -2.903   0.762  1.00  0.00     0.338 C 
ATOM     39  O   UNL     1     -15.049  -3.094   0.804  1.00  0.00    -0.246 OA
BRANCH  38  40
ATOM     40  C   UNL     1     -12.873  -3.846   0.175  1.00  0.00     0.060 A 
ATOM     41  C   UNL     1     -12.247  -4.869   0.905  1.00  0.00     0.016 A 
ATOM     42  C   UNL     1     -12.496  -3.588  -1.134  1.00  0.00     0.016 A 
ATOM     43  C   UNL     1     -11.150  -5.558   0.356  1.00  0.00     0.010 A 
ATOM     44  C   UNL     1     -11.357  -4.190  -1.627  1.00  0.00     0.010 A 
ATOM     45  C   UNL     1     -10.660  -5.166  -0.886  1.00  0.00    -0.014 A 
BRANCH  45  46
ATOM     46  C   UNL     1      -9.454  -5.665  -1.562  1.00  0.00     0.031 A 
ATOM     47  C   UNL     1      -9.669  -6.367  -2.845  1.00  0.00     0.074 A 
ATOM     48  C   UNL     1      -8.221  -5.199  -1.244  1.00  0.00     0.049 A 
ATOM     49  N   UNL     1      -8.732  -6.773  -3.619  1.00  0.00    -0.248 NA
ATOM     50  C   UNL     1     -10.997  -6.690  -3.361  1.00  0.00     0.031 C 
ATOM     51  C   UNL     1      -7.052  -5.012  -2.112  1.00  0.00     0.029 A 
ATOM     52  N   UNL     1      -7.741  -4.747  -0.014  1.00  0.00    -0.354 N 
ATOM     53  C   UNL     1      -9.287  -7.088  -4.837  1.00  0.00     0.074 A 
ATOM     54  C   UNL     1     -10.702  -7.140  -4.583  1.00  0.00     0.031 C 
ATOM     55  C   UNL     1      -5.957  -4.795  -1.357  1.00  0.00     0.029 A 
ATOM     56  C   UNL     1      -6.365  -4.993   0.024  1.00  0.00     0.049 A 
ATOM     57  H   UNL     1      -8.276  -4.330   0.700  1.00  0.00     0.167 HD
ATOM     58  C   UNL     1      -8.450  -7.131  -5.914  1.00  0.00     0.037 A 
ATOM     59  C   UNL     1      -5.872  -5.882   0.927  1.00  0.00     0.037 A 
ATOM     60  C   UNL     1      -7.052  -7.062  -5.446  1.00  0.00     0.049 A 
ATOM     61  C   UNL     1      -5.248  -6.998   0.141  1.00  0.00     0.074 A 
ATOM     62  C   UNL     1      -6.084  -6.072  -5.454  1.00  0.00     0.029 A 
ATOM     63  N   UNL     1      -6.605  -8.032  -4.546  1.00  0.00    -0.354 N 
ATOM     64  N   UNL     1      -5.686  -7.373  -1.034  1.00  0.00    -0.248 NA
ATOM     65  C   UNL     1      -3.977  -7.615   0.500  1.00  0.00     0.031 C 
ATOM     66  C   UNL     1      -5.097  -6.419  -4.480  1.00  0.00     0.029 A 
ATOM     67  C   UNL     1      -5.454  -7.628  -3.896  1.00  0.00     0.049 A 
ATOM     68  H   UNL     1      -7.053  -8.895  -4.393  1.00  0.00     0.167 HD
ATOM     69  C   UNL     1      -4.729  -8.132  -1.641  1.00  0.00     0.074 A 
ATOM     70  C   UNL     1      -3.703  -8.303  -0.622  1.00  0.00     0.031 C 
ATOM     71  C   UNL     1      -4.787  -8.519  -2.948  1.00  0.00     0.037 A 
BRANCH  58  72
ATOM     72  C   UNL     1      -8.859  -7.058  -7.381  1.00  0.00     0.058 A 
ATOM     73  C   UNL     1      -7.875  -6.908  -8.387  1.00  0.00     0.135 A 
ATOM     74  C   UNL     1     -10.181  -7.061  -7.881  1.00  0.00     0.135 A 
ATOM     75  F   UNL     1      -6.569  -6.874  -8.087  1.00  0.00    -0.206 F 
ATOM     76  C   UNL     1      -8.177  -6.766  -9.749  1.00  0.00     0.059 A 
ATOM     77  C   UNL     1     -10.507  -6.932  -9.235  1.00  0.00     0.059 A 
ATOM     78  F   UNL     1     -11.251  -7.176  -7.095  1.00  0.00    -0.206 F 
ATOM     79  C   UNL     1      -9.499  -6.782 -10.166  1.00  0.00     0.060 A 
BRANCH  79  80
ATOM     80  S   UNL     1      -9.885  -6.616 -11.918  1.00  0.00     0.124 S 
ATOM     81  O   UNL     1      -9.351  -5.293 -12.224  1.00  0.00    -0.237 OA
ATOM     82  O   UNL     1      -9.165  -7.744 -12.499  1.00  0.00    -0.237 OA
ATOM     83  O   UNL     1     -11.342  -6.721 -11.960  1.00  0.00    -0.744 OA
ENDBRANCH  79  80
ENDBRANCH  58  72
BRANCH  59  84
ATOM     84  C   UNL     1      -6.705  -5.910   2.177  1.00  0.00     0.058 A 
ATOM     85  C   UNL     1      -6.737  -4.727   2.956  1.00  0.00     0.135 A 
ATOM     86  C   UNL     1      -7.774  -6.799   2.358  1.00  0.00     0.135 A 
ATOM     87  F   UNL     1      -5.785  -3.796   2.791  1.00  0.00    -0.206 F 
ATOM     88  C   UNL     1      -7.815  -4.384   3.772  1.00  0.00     0.059 A 
ATOM     89  C   UNL     1      -8.877  -6.469   3.167  1.00  0.00     0.059 A 
ATOM     90  F   UNL     1      -7.832  -7.935   1.651  1.00  0.00    -0.206 F 
ATOM     91  C   UNL     1      -8.913  -5.233   3.816  1.00  0.00     0.060 A 
BRANCH  91  92
ATOM     92  S   UNL     1     -10.422  -4.639   4.625  1.00  0.00     0.124 S 
ATOM     93  O   UNL     1      -9.899  -3.921   5.783  1.00  0.00    -0.237 OA
ATOM     94  O   UNL     1     -10.996  -3.796   3.582  1.00  0.00    -0.237 OA
ATOM     95  O   UNL     1     -11.149  -5.868   4.920  1.00  0.00    -0.744 OA
ENDBRANCH  91  92
ENDBRANCH  59  84
BRANCH  71  96
ATOM     96  C   UNL     1      -4.173  -9.801  -3.451  1.00  0.00     0.058 A 
ATOM     97  C   UNL     1      -3.796 -10.860  -2.605  1.00  0.00     0.135 A 
ATOM     98  C   UNL     1      -4.152 -10.093  -4.838  1.00  0.00     0.135 A 
ATOM     99  F   UNL     1      -3.878 -10.770  -1.271  1.00  0.00    -0.206 F 
ATOM    100  C   UNL     1      -3.368 -12.087  -3.093  1.00  0.00     0.059 A 
ATOM    101  C   UNL     1      -3.809 -11.341  -5.341  1.00  0.00     0.059 A 
ATOM    102  F   UNL     1      -4.499  -9.184  -5.761  1.00  0.00    -0.206 F 
ATOM    103  C   UNL     1      -3.388 -12.322  -4.461  1.00  0.00     0.060 A 
BRANCH 103 104
ATOM    104  S   UNL     1      -2.892 -13.937  -5.066  1.00  0.00     0.124 S 
ATOM    105  O   UNL     1      -1.437 -13.822  -5.020  1.00  0.00    -0.237 OA
ATOM    106  O   UNL     1      -3.486 -14.838  -4.082  1.00  0.00    -0.237 OA
ATOM    107  O   UNL     1      -3.481 -13.996  -6.399  1.00  0.00    -0.744 OA
ENDBRANCH 103 104
ENDBRANCH  71  96
ENDBRANCH  45  46
ENDBRANCH  38  40
ENDBRANCH  37  38
ENDBRANCH  36  37
ENDBRANCH  35  36
ENDBRANCH   1  35
TORSDOF 21
