REMARK SMILES CN(c1ccccc1C(=O)OCCOCCOC(=O)c1ccc(-c2c3nc(c(-c4c(F)cc(S(=O)(=O)[O-])cc4F)c4ccc([nH]4)c(-c4c(F)cc(S(=O)(=O)[O-])cc4F)c4nc(c(-c5c(F)cc(S(=O)(=O)[O-])cc5F)c5ccc2[nH]5)C=C4)C=C3)cc1)S(=O)(=O)c1ccc(I)cc1
REMARK SMILES IDX 14 1 13 2 12 3 11 4 9 5 10 6 8 7 3 8 4 9 5 10 7 11 6 12 2 13
REMARK SMILES IDX 1 14 86 15 87 16 88 17 89 18 90 19 95 20 91 21 94 22 92 23
REMARK SMILES IDX 93 24 15 25 16 26 17 27 18 28 19 29 20 30 21 31 85 32 22 33
REMARK SMILES IDX 84 34 23 35 24 36 25 37 78 38 26 39 83 40 77 41 79 42 27 43
REMARK SMILES IDX 82 44 76 45 75 46 28 48 62 49 41 50 61 51 42 52 45 53 60 54
REMARK SMILES IDX 80 55 43 56 44 57 59 59 81 60 46 61 29 62 30 63 39 64 31 65
REMARK SMILES IDX 32 66 38 67 40 68 33 69 34 70 35 71 36 72 37 73 63 74 64 75
REMARK SMILES IDX 73 76 65 77 66 78 72 79 74 80 67 81 68 82 69 83 70 84 71 85
REMARK SMILES IDX 47 86 48 87 57 88 49 89 50 90 56 91 58 92 51 93 52 94 53 95
REMARK SMILES IDX 54 96 55 97
REMARK H PARENT 79 47 45 58
REMARK Flexibility Score: inf
ROOT
ATOM      1  O   UNL     1      -3.574   1.120   1.933  1.00  0.00    -0.374 OA
ENDROOT
BRANCH   1   2
ATOM      2  C   UNL     1      -2.296   1.664   2.268  1.00  0.00     0.202 C 
BRANCH   2   3
ATOM      3  C   UNL     1      -1.150   0.660   2.397  1.00  0.00     0.261 C 
BRANCH   3   4
ATOM      4  O   UNL     1      -0.915  -0.024   1.154  1.00  0.00    -0.460 OA
BRANCH   4   5
ATOM      5  C   UNL     1      -0.691  -1.346   1.288  1.00  0.00     0.340 C 
ATOM      6  O   UNL     1      -0.512  -1.956   2.333  1.00  0.00    -0.246 OA
BRANCH   5   7
ATOM      7  C   UNL     1      -0.875  -2.070   0.021  1.00  0.00     0.084 A 
ATOM      8  C   UNL     1       0.077  -2.150  -1.005  1.00  0.00     0.066 A 
ATOM      9  C   UNL     1      -0.051  -3.224  -1.902  1.00  0.00     0.028 A 
ATOM     10  C   UNL     1      -1.142  -4.096  -1.886  1.00  0.00     0.002 A 
ATOM     11  C   UNL     1      -1.980  -2.954   0.040  1.00  0.00     0.018 A 
ATOM     12  C   UNL     1      -2.131  -3.939  -0.931  1.00  0.00     0.001 A 
BRANCH   8  13
ATOM     13  N   UNL     1       1.159  -1.223  -1.304  1.00  0.00    -0.269 N 
ATOM     14  C   UNL     1       1.896  -0.618  -0.163  1.00  0.00     0.164 C 
BRANCH  13  15
ATOM     15  S   UNL     1       0.834  -0.017  -2.518  1.00  0.00     0.264 S 
ATOM     16  O   UNL     1      -0.269   0.784  -2.050  1.00  0.00    -0.201 OA
ATOM     17  O   UNL     1       2.104   0.599  -2.872  1.00  0.00    -0.201 OA
BRANCH  15  18
ATOM     18  C   UNL     1       0.287  -0.866  -3.989  1.00  0.00     0.088 A 
ATOM     19  C   UNL     1      -0.942  -0.513  -4.561  1.00  0.00     0.023 A 
ATOM     20  C   UNL     1       1.078  -1.858  -4.575  1.00  0.00     0.023 A 
ATOM     21  C   UNL     1      -1.416  -1.210  -5.675  1.00  0.00     0.016 A 
ATOM     22  C   UNL     1       0.581  -2.584  -5.663  1.00  0.00     0.016 A 
ATOM     23  C   UNL     1      -0.668  -2.263  -6.201  1.00  0.00     0.013 A 
ATOM     24  I   UNL     1      -1.429  -3.372  -7.787  1.00  0.00    -0.044 I 
ENDBRANCH  15  18
ENDBRANCH  13  15
ENDBRANCH   8  13
ENDBRANCH   5   7
ENDBRANCH   4   5
ENDBRANCH   3   4
ENDBRANCH   2   3
ENDBRANCH   1   2
BRANCH   1  25
ATOM     25  C   UNL     1      -3.745   0.596   0.616  1.00  0.00     0.202 C 
BRANCH  25  26
ATOM     26  C   UNL     1      -3.797   1.597  -0.544  1.00  0.00     0.261 C 
BRANCH  26  27
ATOM     27  O   UNL     1      -2.578   2.335  -0.718  1.00  0.00    -0.460 OA
BRANCH  27  28
ATOM     28  C   UNL     1      -2.664   3.661  -0.456  1.00  0.00     0.338 C 
ATOM     29  O   UNL     1      -3.660   4.277  -0.109  1.00  0.00    -0.246 OA
BRANCH  28  30
ATOM     30  C   UNL     1      -1.325   4.281  -0.479  1.00  0.00     0.060 A 
ATOM     31  C   UNL     1      -0.906   4.970   0.667  1.00  0.00     0.016 A 
ATOM     32  C   UNL     1      -0.545   4.292  -1.637  1.00  0.00     0.016 A 
ATOM     33  C   UNL     1       0.271   5.715   0.642  1.00  0.00     0.010 A 
ATOM     34  C   UNL     1       0.629   5.053  -1.664  1.00  0.00     0.010 A 
ATOM     35  C   UNL     1       1.023   5.797  -0.537  1.00  0.00    -0.014 A 
BRANCH  35  36
ATOM     36  C   UNL     1       2.134   6.776  -0.629  1.00  0.00     0.031 A 
ATOM     37  C   UNL     1       1.878   8.115  -1.268  1.00  0.00     0.074 A 
ATOM     38  C   UNL     1       3.344   6.493  -0.113  1.00  0.00     0.049 A 
ATOM     39  N   UNL     1       2.704   9.107  -1.476  1.00  0.00    -0.248 NA
ATOM     40  C   UNL     1       0.503   8.371  -1.729  1.00  0.00     0.031 C 
ATOM     41  C   UNL     1       3.700   5.250   0.571  1.00  0.00     0.029 A 
ATOM     42  N   UNL     1       4.498   7.234  -0.087  1.00  0.00    -0.354 N 
ATOM     43  C   UNL     1       1.954  10.104  -2.088  1.00  0.00     0.074 A 
ATOM     44  C   UNL     1       0.611   9.587  -2.245  1.00  0.00     0.031 C 
ATOM     45  C   UNL     1       4.991   5.312   0.942  1.00  0.00     0.029 A 
ATOM     46  C   UNL     1       5.559   6.583   0.496  1.00  0.00     0.049 A 
ATOM     47  H   UNL     1       4.561   8.146  -0.452  1.00  0.00     0.167 HD
ATOM     48  C   UNL     1       2.345  11.343  -2.474  1.00  0.00     0.037 A 
ATOM     49  C   UNL     1       6.844   6.964   0.635  1.00  0.00     0.037 A 
ATOM     50  C   UNL     1       3.683  11.851  -2.324  1.00  0.00     0.049 A 
ATOM     51  C   UNL     1       7.275   8.314   0.121  1.00  0.00     0.074 A 
ATOM     52  C   UNL     1       4.182  13.088  -2.693  1.00  0.00     0.029 A 
ATOM     53  N   UNL     1       4.738  11.148  -1.762  1.00  0.00    -0.354 N 
ATOM     54  N   UNL     1       6.554   9.248  -0.452  1.00  0.00    -0.248 NA
ATOM     55  C   UNL     1       8.695   8.662   0.273  1.00  0.00     0.031 C 
ATOM     56  C   UNL     1       5.547  13.120  -2.388  1.00  0.00     0.029 A 
ATOM     57  C   UNL     1       5.889  11.918  -1.788  1.00  0.00     0.049 A 
ATOM     58  H   UNL     1       4.678  10.235  -1.398  1.00  0.00     0.167 HD
ATOM     59  C   UNL     1       7.425  10.304  -0.700  1.00  0.00     0.074 A 
ATOM     60  C   UNL     1       8.725   9.897  -0.209  1.00  0.00     0.031 C 
ATOM     61  C   UNL     1       7.172  11.504  -1.280  1.00  0.00     0.037 A 
BRANCH  48  62
ATOM     62  C   UNL     1       1.312  12.231  -3.109  1.00  0.00     0.058 A 
ATOM     63  C   UNL     1       0.293  12.830  -2.352  1.00  0.00     0.135 A 
ATOM     64  C   UNL     1       1.363  12.520  -4.482  1.00  0.00     0.135 A 
ATOM     65  F   UNL     1       0.188  12.574  -1.038  1.00  0.00    -0.206 F 
ATOM     66  C   UNL     1      -0.651  13.668  -2.937  1.00  0.00     0.059 A 
ATOM     67  C   UNL     1       0.443  13.373  -5.085  1.00  0.00     0.059 A 
ATOM     68  F   UNL     1       2.316  11.972  -5.253  1.00  0.00    -0.206 F 
ATOM     69  C   UNL     1      -0.568  13.933  -4.305  1.00  0.00     0.060 A 
BRANCH  69  70
ATOM     70  S   UNL     1      -1.794  15.031  -5.048  1.00  0.00     0.124 S 
ATOM     71  O   UNL     1      -2.977  14.175  -5.068  1.00  0.00    -0.237 OA
ATOM     72  O   UNL     1      -1.833  16.143  -4.103  1.00  0.00    -0.237 OA
ATOM     73  O   UNL     1      -1.224  15.343  -6.355  1.00  0.00    -0.744 OA
ENDBRANCH  69  70
ENDBRANCH  48  62
BRANCH  49  74
ATOM     74  C   UNL     1       7.830   6.053   1.277  1.00  0.00     0.058 A 
ATOM     75  C   UNL     1       8.387   6.354   2.528  1.00  0.00     0.135 A 
ATOM     76  C   UNL     1       8.252   4.875   0.640  1.00  0.00     0.135 A 
ATOM     77  F   UNL     1       8.024   7.475   3.171  1.00  0.00    -0.206 F 
ATOM     78  C   UNL     1       9.344   5.534   3.117  1.00  0.00     0.059 A 
ATOM     79  C   UNL     1       9.189   4.026   1.220  1.00  0.00     0.059 A 
ATOM     80  F   UNL     1       7.742   4.537  -0.554  1.00  0.00    -0.206 F 
ATOM     81  C   UNL     1       9.740   4.372   2.453  1.00  0.00     0.060 A 
BRANCH  81  82
ATOM     82  S   UNL     1      10.962   3.296   3.235  1.00  0.00     0.124 S 
ATOM     83  O   UNL     1      12.194   4.043   3.013  1.00  0.00    -0.237 OA
ATOM     84  O   UNL     1      10.487   3.242   4.614  1.00  0.00    -0.237 OA
ATOM     85  O   UNL     1      10.835   2.048   2.489  1.00  0.00    -0.744 OA
ENDBRANCH  81  82
ENDBRANCH  49  74
BRANCH  61  86
ATOM     86  C   UNL     1       8.311  12.481  -1.377  1.00  0.00     0.058 A 
ATOM     87  C   UNL     1       9.350  12.315  -2.304  1.00  0.00     0.135 A 
ATOM     88  C   UNL     1       8.334  13.626  -0.564  1.00  0.00     0.135 A 
ATOM     89  F   UNL     1       9.379  11.234  -3.100  1.00  0.00    -0.206 F 
ATOM     90  C   UNL     1      10.385  13.239  -2.408  1.00  0.00     0.059 A 
ATOM     91  C   UNL     1       9.345  14.576  -0.668  1.00  0.00     0.059 A 
ATOM     92  F   UNL     1       7.357  13.838   0.333  1.00  0.00    -0.206 F 
ATOM     93  C   UNL     1      10.374  14.367  -1.585  1.00  0.00     0.060 A 
BRANCH  93  94
ATOM     94  S   UNL     1      11.704  15.577  -1.752  1.00  0.00     0.124 S 
ATOM     95  O   UNL     1      12.806  14.897  -1.082  1.00  0.00    -0.237 OA
ATOM     96  O   UNL     1      11.828  15.710  -3.201  1.00  0.00    -0.237 OA
ATOM     97  O   UNL     1      11.180  16.754  -1.065  1.00  0.00    -0.744 OA
ENDBRANCH  93  94
ENDBRANCH  61  86
ENDBRANCH  35  36
ENDBRANCH  28  30
ENDBRANCH  27  28
ENDBRANCH  26  27
ENDBRANCH  25  26
ENDBRANCH   1  25
TORSDOF 20
