REMARK SMILES COc1cccc(-c2cc(OCC(=O)OCCOCCOC(=O)c3ccc(-c4c5nc(c(-c6c(F)cc(S(=O)(=O)[O-])cc6F)c6ccc([nH]6)c(-c6c(F)cc(S(=O)(=O)[O-])cc6F)c6nc(c(-c7c(F)cc(S(=O)(=O)[O-])cc7F)c7ccc4[nH]7)C=C6)C=C5)cc3)nc(Nc3ccccc3Br)n2)c1
REMARK SMILES IDX 17 1 16 2 15 3 13 4 14 5 12 6 11 7 10 8 8 9 9 10 100 11
REMARK SMILES IDX 91 12 90 13 7 14 3 15 4 16 101 17 5 18 6 19 2 20 1 21 92 22
REMARK SMILES IDX 93 24 94 25 98 26 95 27 97 28 99 29 96 30 18 31 19 32 20 33
REMARK SMILES IDX 21 34 22 35 23 36 24 37 25 38 89 39 26 40 88 41 27 42 28 43
REMARK SMILES IDX 29 44 82 45 30 46 87 47 81 48 83 49 31 50 86 51 80 52 79 53
REMARK SMILES IDX 32 55 66 56 45 57 65 58 46 59 49 60 64 61 84 62 47 63 48 64
REMARK SMILES IDX 63 66 85 67 50 68 33 69 34 70 43 71 35 72 36 73 42 74 44 75
REMARK SMILES IDX 37 76 38 77 39 78 40 79 41 80 67 81 68 82 77 83 69 84 70 85
REMARK SMILES IDX 76 86 78 87 71 88 72 89 73 90 74 91 75 92 51 93 52 94 61 95
REMARK SMILES IDX 53 96 54 97 60 98 62 99 55 100 56 101 57 102 58 103 59 104
REMARK H PARENT 92 23 83 54 49 65
REMARK Flexibility Score: inf
ROOT
ATOM      1  C   UNL     1       5.968  -0.617   1.401  1.00  0.00     0.202 C 
ENDROOT
BRANCH   1   2
ATOM      2  C   UNL     1       6.916  -1.766   1.780  1.00  0.00     0.261 C 
BRANCH   2   3
ATOM      3  O   UNL     1       7.068  -2.768   0.742  1.00  0.00    -0.461 OA
BRANCH   3   4
ATOM      4  C   UNL     1       6.733  -4.043   1.093  1.00  0.00     0.344 C 
ATOM      5  O   UNL     1       6.418  -4.392   2.228  1.00  0.00    -0.248 OA
BRANCH   4   6
ATOM      6  C   UNL     1       6.746  -5.051  -0.071  1.00  0.00     0.353 C 
BRANCH   6   7
ATOM      7  O   UNL     1       6.767  -4.641  -1.419  1.00  0.00    -0.466 OA
BRANCH   7   8
ATOM      8  C   UNL     1       5.658  -4.630  -2.215  1.00  0.00     0.219 A 
ATOM      9  C   UNL     1       3.392  -4.243  -2.733  1.00  0.00     0.080 A 
ATOM     10  C   UNL     1       4.340  -4.655  -1.799  1.00  0.00     0.097 A 
ATOM     11  N   UNL     1       3.728  -3.930  -3.995  1.00  0.00    -0.212 NA
ATOM     12  C   UNL     1       5.022  -3.994  -4.338  1.00  0.00     0.231 A 
ATOM     13  N   UNL     1       5.992  -4.349  -3.487  1.00  0.00    -0.177 NA
BRANCH   9  14
ATOM     14  C   UNL     1       1.980  -3.962  -2.389  1.00  0.00     0.004 A 
ATOM     15  C   UNL     1       0.299  -2.479  -1.355  1.00  0.00     0.119 A 
ATOM     16  C   UNL     1      -0.677  -3.437  -1.594  1.00  0.00     0.046 A 
ATOM     17  C   UNL     1       1.589  -2.732  -1.815  1.00  0.00     0.056 A 
ATOM     18  C   UNL     1      -0.357  -4.613  -2.277  1.00  0.00     0.005 A 
ATOM     19  C   UNL     1       0.964  -4.881  -2.658  1.00  0.00     0.010 A 
BRANCH  15  20
ATOM     20  O   UNL     1      -0.114  -1.368  -0.673  1.00  0.00    -0.497 OA
ATOM     21  C   UNL     1       0.838  -0.335  -0.413  1.00  0.00     0.278 C 
ENDBRANCH  15  20
ENDBRANCH   9  14
BRANCH  12  22
ATOM     22  N   UNL     1       5.421  -3.663  -5.627  1.00  0.00    -0.323 N 
ATOM     23  H   UNL     1       6.365  -3.837  -5.846  1.00  0.00     0.170 HD
BRANCH  22  24
ATOM     24  C   UNL     1       4.645  -3.112  -6.652  1.00  0.00     0.055 A 
ATOM     25  C   UNL     1       4.458  -3.870  -7.817  1.00  0.00     0.027 A 
ATOM     26  C   UNL     1       4.051  -1.838  -6.589  1.00  0.00     0.041 A 
ATOM     27  C   UNL     1       3.634  -3.414  -8.849  1.00  0.00     0.002 A 
ATOM     28  C   UNL     1       3.225  -1.381  -7.622  1.00  0.00     0.018 A 
ATOM     29  Br  UNL     1       4.399  -0.628  -5.166  1.00  0.00    -0.049 Br
ATOM     30  C   UNL     1       3.005  -2.177  -8.744  1.00  0.00     0.001 A 
ENDBRANCH  22  24
ENDBRANCH  12  22
ENDBRANCH   7   8
ENDBRANCH   6   7
ENDBRANCH   4   6
ENDBRANCH   3   4
ENDBRANCH   2   3
ENDBRANCH   1   2
BRANCH   1  31
ATOM     31  O   UNL     1       4.629  -0.956   1.050  1.00  0.00    -0.374 OA
BRANCH  31  32
ATOM     32  C   UNL     1       4.460  -1.857  -0.026  1.00  0.00     0.202 C 
BRANCH  32  33
ATOM     33  C   UNL     1       4.863  -1.425  -1.439  1.00  0.00     0.261 C 
BRANCH  33  34
ATOM     34  O   UNL     1       5.818  -0.405  -1.520  1.00  0.00    -0.460 OA
BRANCH  34  35
ATOM     35  C   UNL     1       5.274   0.809  -1.725  1.00  0.00     0.338 C 
ATOM     36  O   UNL     1       4.101   1.141  -1.722  1.00  0.00    -0.246 OA
BRANCH  35  37
ATOM     37  C   UNL     1       6.429   1.680  -1.812  1.00  0.00     0.060 A 
ATOM     38  C   UNL     1       6.534   2.689  -0.860  1.00  0.00     0.016 A 
ATOM     39  C   UNL     1       7.436   1.406  -2.748  1.00  0.00     0.016 A 
ATOM     40  C   UNL     1       7.662   3.480  -0.870  1.00  0.00     0.010 A 
ATOM     41  C   UNL     1       8.573   2.189  -2.744  1.00  0.00     0.010 A 
ATOM     42  C   UNL     1       8.662   3.246  -1.828  1.00  0.00    -0.014 A 
BRANCH  42  43
ATOM     43  C   UNL     1       9.736   4.232  -1.966  1.00  0.00     0.031 A 
ATOM     44  C   UNL     1       9.621   5.234  -3.071  1.00  0.00     0.074 A 
ATOM     45  C   UNL     1      10.733   4.240  -1.069  1.00  0.00     0.049 A 
ATOM     46  N   UNL     1      10.418   6.221  -3.369  1.00  0.00    -0.248 NA
ATOM     47  C   UNL     1       8.452   5.110  -3.963  1.00  0.00     0.031 C 
ATOM     48  C   UNL     1      10.880   3.293   0.040  1.00  0.00     0.029 A 
ATOM     49  N   UNL     1      11.802   5.078  -0.941  1.00  0.00    -0.354 N 
ATOM     50  C   UNL     1       9.845   6.838  -4.473  1.00  0.00     0.074 A 
ATOM     51  C   UNL     1       8.663   6.090  -4.828  1.00  0.00     0.031 C 
ATOM     52  C   UNL     1      11.978   3.614   0.743  1.00  0.00     0.029 A 
ATOM     53  C   UNL     1      12.620   4.764   0.115  1.00  0.00     0.049 A 
ATOM     54  H   UNL     1      11.970   5.835  -1.548  1.00  0.00     0.167 HD
ATOM     55  C   UNL     1      10.269   7.950  -5.113  1.00  0.00     0.037 A 
ATOM     56  C   UNL     1      13.765   5.348   0.509  1.00  0.00     0.037 A 
ATOM     57  C   UNL     1      11.453   8.668  -4.728  1.00  0.00     0.049 A 
ATOM     58  C   UNL     1      14.243   6.550  -0.261  1.00  0.00     0.074 A 
ATOM     59  C   UNL     1      11.994   9.805  -5.295  1.00  0.00     0.029 A 
ATOM     60  N   UNL     1      12.279   8.311  -3.669  1.00  0.00    -0.354 N 
ATOM     61  N   UNL     1      13.686   7.144  -1.292  1.00  0.00    -0.248 NA
ATOM     62  C   UNL     1      15.496   7.167   0.186  1.00  0.00     0.031 C 
ATOM     63  C   UNL     1      13.173  10.110  -4.608  1.00  0.00     0.029 A 
ATOM     64  C   UNL     1      13.336   9.195  -3.577  1.00  0.00     0.049 A 
ATOM     65  H   UNL     1      12.132   7.541  -3.073  1.00  0.00     0.167 HD
ATOM     66  C   UNL     1      14.505   8.223  -1.599  1.00  0.00     0.074 A 
ATOM     67  C   UNL     1      15.587   8.206  -0.633  1.00  0.00     0.031 C 
ATOM     68  C   UNL     1      14.384   9.145  -2.587  1.00  0.00     0.037 A 
BRANCH  55  69
ATOM     69  C   UNL     1       9.462   8.436  -6.281  1.00  0.00     0.058 A 
ATOM     70  C   UNL     1       8.195   9.017  -6.112  1.00  0.00     0.135 A 
ATOM     71  C   UNL     1       9.976   8.353  -7.585  1.00  0.00     0.135 A 
ATOM     72  F   UNL     1       7.642   9.092  -4.891  1.00  0.00    -0.206 F 
ATOM     73  C   UNL     1       7.463   9.493  -7.195  1.00  0.00     0.059 A 
ATOM     74  C   UNL     1       9.272   8.847  -8.680  1.00  0.00     0.059 A 
ATOM     75  F   UNL     1      11.174   7.790  -7.805  1.00  0.00    -0.206 F 
ATOM     76  C   UNL     1       8.014   9.411  -8.475  1.00  0.00     0.060 A 
BRANCH  76  77
ATOM     77  S   UNL     1       7.070  10.075  -9.862  1.00  0.00     0.124 S 
ATOM     78  O   UNL     1       5.987   9.102  -9.973  1.00  0.00    -0.237 OA
ATOM     79  O   UNL     1       6.688  11.396  -9.373  1.00  0.00    -0.237 OA
ATOM     80  O   UNL     1       8.031  10.070 -10.961  1.00  0.00    -0.744 OA
ENDBRANCH  76  77
ENDBRANCH  55  69
BRANCH  56  81
ATOM     81  C   UNL     1      14.526   4.807   1.665  1.00  0.00     0.058 A 
ATOM     82  C   UNL     1      14.667   5.539   2.852  1.00  0.00     0.135 A 
ATOM     83  C   UNL     1      15.136   3.544   1.601  1.00  0.00     0.135 A 
ATOM     84  F   UNL     1      14.098   6.749   2.965  1.00  0.00    -0.206 F 
ATOM     85  C   UNL     1      15.416   5.057   3.921  1.00  0.00     0.059 A 
ATOM     86  C   UNL     1      15.866   3.027   2.666  1.00  0.00     0.059 A 
ATOM     87  F   UNL     1      15.013   2.790   0.496  1.00  0.00    -0.206 F 
ATOM     88  C   UNL     1      16.016   3.801   3.816  1.00  0.00     0.060 A 
BRANCH  88  89
ATOM     89  S   UNL     1      16.982   3.182   5.209  1.00  0.00     0.124 S 
ATOM     90  O   UNL     1      18.176   4.016   5.130  1.00  0.00    -0.237 OA
ATOM     91  O   UNL     1      16.094   3.442   6.338  1.00  0.00    -0.237 OA
ATOM     92  O   UNL     1      17.174   1.772   4.884  1.00  0.00    -0.744 OA
ENDBRANCH  88  89
ENDBRANCH  56  81
BRANCH  68  93
ATOM     93  C   UNL     1      15.423  10.227  -2.639  1.00  0.00     0.058 A 
ATOM     94  C   UNL     1      16.734   9.969  -3.067  1.00  0.00     0.135 A 
ATOM     95  C   UNL     1      15.083  11.549  -2.308  1.00  0.00     0.135 A 
ATOM     96  F   UNL     1      17.107   8.720  -3.388  1.00  0.00    -0.206 F 
ATOM     97  C   UNL     1      17.682  10.982  -3.140  1.00  0.00     0.059 A 
ATOM     98  C   UNL     1      16.006  12.583  -2.405  1.00  0.00     0.059 A 
ATOM     99  F   UNL     1      13.837  11.847  -1.907  1.00  0.00    -0.206 F 
ATOM    100  C   UNL     1      17.307  12.286  -2.810  1.00  0.00     0.060 A 
BRANCH 100 101
ATOM    101  S   UNL     1      18.539  13.597  -2.941  1.00  0.00     0.124 S 
ATOM    102  O   UNL     1      19.388  13.317  -1.788  1.00  0.00    -0.237 OA
ATOM    103  O   UNL     1      19.135  13.334  -4.248  1.00  0.00    -0.237 OA
ATOM    104  O   UNL     1      17.746  14.819  -2.855  1.00  0.00    -0.744 OA
ENDBRANCH 100 101
ENDBRANCH  68  93
ENDBRANCH  42  43
ENDBRANCH  35  37
ENDBRANCH  34  35
ENDBRANCH  33  34
ENDBRANCH  32  33
ENDBRANCH  31  32
ENDBRANCH   1  31
TORSDOF 23
