REMARK SMILES C/C(=N/OCc1ccccc1Nc1c(Cl)cccc1Cl)C(=O)OCCOCCOC(=O)c1ccc(-c2c3nc(c(-c4c(F)cc(S(=O)(=O)[O-])cc4F)c4ccc([nH]4)c(-c4c(F)cc(S(=O)(=O)[O-])cc4F)c4nc(c(-c5c(F)cc(S(=O)(=O)[O-])cc5F)c5ccc2[nH]5)C=C4)C=C3)cc1
REMARK SMILES IDX 25 1 24 2 23 3 21 4 22 5 2 6 1 7 3 8 4 9 5 10 6 11 7 12
REMARK SMILES IDX 11 13 8 14 10 15 9 16 12 17 13 19 14 20 19 21 15 22 16 23
REMARK SMILES IDX 18 24 20 25 17 26 26 27 27 28 28 29 29 30 30 31 31 32 32 33
REMARK SMILES IDX 33 34 97 35 34 36 96 37 35 38 36 39 37 40 90 41 38 42 95 43
REMARK SMILES IDX 89 44 91 45 39 46 94 47 88 48 87 49 40 51 74 52 53 53 73 54
REMARK SMILES IDX 54 55 57 56 72 57 92 58 55 59 56 60 71 62 93 63 58 64 41 65
REMARK SMILES IDX 42 66 51 67 43 68 44 69 50 70 52 71 45 72 46 73 47 74 48 75
REMARK SMILES IDX 49 76 75 77 76 78 85 79 77 80 78 81 84 82 86 83 79 84 80 85
REMARK SMILES IDX 81 86 82 87 83 88 59 89 60 90 69 91 61 92 62 93 68 94 70 95
REMARK SMILES IDX 63 96 64 97 65 98 66 99 67 100
REMARK H PARENT 12 18 91 50 57 61
REMARK Flexibility Score: inf
ROOT
ATOM      1  C   UNL     1       0.879  -4.992   2.098  1.00  0.00     0.202 C 
ENDROOT
BRANCH   1   2
ATOM      2  C   UNL     1       1.776  -3.874   2.643  1.00  0.00     0.261 C 
BRANCH   2   3
ATOM      3  O   UNL     1       1.042  -2.642   2.575  1.00  0.00    -0.459 OA
BRANCH   3   4
ATOM      4  C   UNL     1       1.716  -1.565   2.131  1.00  0.00     0.355 C 
ATOM      5  O   UNL     1       2.919  -1.428   2.002  1.00  0.00    -0.245 OA
BRANCH   4   6
ATOM      6  C   UNL     1       0.729  -0.644   1.436  1.00  0.00     0.161 C 
ATOM      7  C   UNL     1       1.029  -0.372  -0.013  1.00  0.00     0.079 C 
ATOM      8  N   UNL     1      -0.334  -0.117   1.972  1.00  0.00    -0.084 NA
BRANCH   8   9
ATOM      9  O   UNL     1      -0.396  -0.373   3.353  1.00  0.00    -0.390 OA
BRANCH   9  10
ATOM     10  C   UNL     1      -1.398   0.460   3.959  1.00  0.00     0.302 C 
BRANCH  10  11
ATOM     11  C   UNL     1      -0.795   1.709   4.576  1.00  0.00     0.016 A 
ATOM     12  C   UNL     1      -1.014   1.942   5.947  1.00  0.00     0.009 A 
ATOM     13  C   UNL     1      -0.048   2.653   3.828  1.00  0.00     0.045 A 
ATOM     14  C   UNL     1      -0.492   3.073   6.575  1.00  0.00     0.001 A 
ATOM     15  C   UNL     1       0.472   3.779   4.482  1.00  0.00     0.026 A 
ATOM     16  C   UNL     1       0.256   3.987   5.844  1.00  0.00     0.002 A 
BRANCH  13  17
ATOM     17  N   UNL     1       0.143   2.483   2.445  1.00  0.00    -0.353 N 
ATOM     18  H   UNL     1      -0.580   1.979   2.005  1.00  0.00     0.167 HD
BRANCH  17  19
ATOM     19  C   UNL     1       1.167   2.891   1.559  1.00  0.00     0.076 A 
ATOM     20  C   UNL     1       0.808   3.313   0.259  1.00  0.00     0.066 A 
ATOM     21  C   UNL     1       2.543   2.748   1.829  1.00  0.00     0.066 A 
ATOM     22  Cl  UNL     1      -0.857   3.423  -0.217  1.00  0.00    -0.082 Cl
ATOM     23  C   UNL     1       1.770   3.622  -0.709  1.00  0.00     0.023 A 
ATOM     24  C   UNL     1       3.506   3.062   0.857  1.00  0.00     0.023 A 
ATOM     25  Cl  UNL     1       3.147   2.062   3.299  1.00  0.00    -0.082 Cl
ATOM     26  C   UNL     1       3.121   3.503  -0.408  1.00  0.00     0.003 A 
ENDBRANCH  17  19
ENDBRANCH  13  17
ENDBRANCH  10  11
ENDBRANCH   9  10
ENDBRANCH   8   9
ENDBRANCH   4   6
ENDBRANCH   3   4
ENDBRANCH   2   3
ENDBRANCH   1   2
BRANCH   1  27
ATOM     27  O   UNL     1       0.766  -5.029   0.668  1.00  0.00    -0.374 OA
BRANCH  27  28
ATOM     28  C   UNL     1      -0.011  -4.004   0.051  1.00  0.00     0.202 C 
BRANCH  28  29
ATOM     29  C   UNL     1      -1.519  -4.248  -0.049  1.00  0.00     0.261 C 
BRANCH  29  30
ATOM     30  O   UNL     1      -2.127  -4.372   1.244  1.00  0.00    -0.460 OA
BRANCH  30  31
ATOM     31  C   UNL     1      -2.433  -5.645   1.586  1.00  0.00     0.338 C 
ATOM     32  O   UNL     1      -2.321  -6.641   0.889  1.00  0.00    -0.246 OA
BRANCH  31  33
ATOM     33  C   UNL     1      -2.788  -5.716   3.015  1.00  0.00     0.060 A 
ATOM     34  C   UNL     1      -2.175  -6.723   3.768  1.00  0.00     0.016 A 
ATOM     35  C   UNL     1      -3.749  -4.879   3.590  1.00  0.00     0.016 A 
ATOM     36  C   UNL     1      -2.569  -6.943   5.083  1.00  0.00     0.010 A 
ATOM     37  C   UNL     1      -4.150  -5.107   4.910  1.00  0.00     0.010 A 
ATOM     38  C   UNL     1      -3.592  -6.168   5.645  1.00  0.00    -0.014 A 
BRANCH  38  39
ATOM     39  C   UNL     1      -4.177  -6.598   6.937  1.00  0.00     0.031 A 
ATOM     40  C   UNL     1      -5.426  -7.437   6.922  1.00  0.00     0.074 A 
ATOM     41  C   UNL     1      -3.567  -6.302   8.098  1.00  0.00     0.049 A 
ATOM     42  N   UNL     1      -6.080  -7.966   7.923  1.00  0.00    -0.248 NA
ATOM     43  C   UNL     1      -6.016  -7.719   5.602  1.00  0.00     0.031 C 
ATOM     44  C   UNL     1      -2.342  -5.516   8.233  1.00  0.00     0.029 A 
ATOM     45  N   UNL     1      -3.898  -6.636   9.386  1.00  0.00    -0.354 N 
ATOM     46  C   UNL     1      -7.156  -8.640   7.357  1.00  0.00     0.074 A 
ATOM     47  C   UNL     1      -7.085  -8.431   5.928  1.00  0.00     0.031 C 
ATOM     48  C   UNL     1      -2.027  -5.420   9.537  1.00  0.00     0.029 A 
ATOM     49  C   UNL     1      -3.034  -6.127  10.326  1.00  0.00     0.049 A 
ATOM     50  H   UNL     1      -4.680  -7.188   9.616  1.00  0.00     0.167 HD
ATOM     51  C   UNL     1      -8.111  -9.377   7.973  1.00  0.00     0.037 A 
ATOM     52  C   UNL     1      -3.060  -6.218  11.670  1.00  0.00     0.037 A 
ATOM     53  C   UNL     1      -8.174  -9.590   9.395  1.00  0.00     0.049 A 
ATOM     54  C   UNL     1      -4.144  -7.027  12.333  1.00  0.00     0.074 A 
ATOM     55  C   UNL     1      -9.091 -10.336  10.115  1.00  0.00     0.029 A 
ATOM     56  N   UNL     1      -7.284  -9.055  10.314  1.00  0.00    -0.354 N 
ATOM     57  N   UNL     1      -5.136  -7.686  11.782  1.00  0.00    -0.248 NA
ATOM     58  C   UNL     1      -4.104  -7.117  13.800  1.00  0.00     0.031 C 
ATOM     59  C   UNL     1      -8.775 -10.224  11.473  1.00  0.00     0.029 A 
ATOM     60  C   UNL     1      -7.637  -9.442  11.596  1.00  0.00     0.049 A 
ATOM     61  H   UNL     1      -6.514  -8.485  10.089  1.00  0.00     0.167 HD
ATOM     62  C   UNL     1      -5.821  -8.290  12.832  1.00  0.00     0.074 A 
ATOM     63  C   UNL     1      -5.124  -7.926  14.049  1.00  0.00     0.031 C 
ATOM     64  C   UNL     1      -6.925  -9.077  12.793  1.00  0.00     0.037 A 
BRANCH  51  65
ATOM     65  C   UNL     1      -9.176  -9.994   7.112  1.00  0.00     0.058 A 
ATOM     66  C   UNL     1      -8.914 -11.111   6.303  1.00  0.00     0.135 A 
ATOM     67  C   UNL     1     -10.483  -9.482   7.123  1.00  0.00     0.135 A 
ATOM     68  F   UNL     1      -7.676 -11.625   6.241  1.00  0.00    -0.206 F 
ATOM     69  C   UNL     1      -9.909 -11.690   5.522  1.00  0.00     0.059 A 
ATOM     70  C   UNL     1     -11.498 -10.059   6.366  1.00  0.00     0.059 A 
ATOM     71  F   UNL     1     -10.783  -8.412   7.875  1.00  0.00    -0.206 F 
ATOM     72  C   UNL     1     -11.198 -11.156   5.560  1.00  0.00     0.060 A 
BRANCH  72  73
ATOM     73  S   UNL     1     -12.484 -11.926   4.553  1.00  0.00     0.124 S 
ATOM     74  O   UNL     1     -12.131 -11.452   3.218  1.00  0.00    -0.237 OA
ATOM     75  O   UNL     1     -12.266 -13.348   4.798  1.00  0.00    -0.237 OA
ATOM     76  O   UNL     1     -13.720 -11.381   5.106  1.00  0.00    -0.744 OA
ENDBRANCH  72  73
ENDBRANCH  51  65
BRANCH  52  77
ATOM     77  C   UNL     1      -2.028  -5.521  12.481  1.00  0.00     0.058 A 
ATOM     78  C   UNL     1      -1.035  -6.236  13.167  1.00  0.00     0.135 A 
ATOM     79  C   UNL     1      -2.023  -4.122  12.592  1.00  0.00     0.135 A 
ATOM     80  F   UNL     1      -1.004  -7.575  13.098  1.00  0.00    -0.206 F 
ATOM     81  C   UNL     1      -0.085  -5.590  13.952  1.00  0.00     0.059 A 
ATOM     82  C   UNL     1      -1.070  -3.453  13.351  1.00  0.00     0.059 A 
ATOM     83  F   UNL     1      -2.945  -3.393  11.943  1.00  0.00    -0.206 F 
ATOM     84  C   UNL     1      -0.112  -4.197  14.039  1.00  0.00     0.060 A 
BRANCH  84  85
ATOM     85  S   UNL     1       1.146  -3.361  15.029  1.00  0.00     0.124 S 
ATOM     86  O   UNL     1       0.655  -3.592  16.382  1.00  0.00    -0.237 OA
ATOM     87  O   UNL     1       2.360  -4.080  14.657  1.00  0.00    -0.237 OA
ATOM     88  O   UNL     1       1.077  -1.980  14.558  1.00  0.00    -0.744 OA
ENDBRANCH  84  85
ENDBRANCH  52  77
BRANCH  64  89
ATOM     89  C   UNL     1      -7.423  -9.629  14.100  1.00  0.00     0.058 A 
ATOM     90  C   UNL     1      -8.092  -8.823  15.033  1.00  0.00     0.135 A 
ATOM     91  C   UNL     1      -7.259 -10.989  14.404  1.00  0.00     0.135 A 
ATOM     92  F   UNL     1      -8.273  -7.515  14.790  1.00  0.00    -0.206 F 
ATOM     93  C   UNL     1      -8.554  -9.340  16.239  1.00  0.00     0.059 A 
ATOM     94  C   UNL     1      -7.734 -11.533  15.593  1.00  0.00     0.059 A 
ATOM     95  F   UNL     1      -6.637 -11.806  13.538  1.00  0.00    -0.206 F 
ATOM     96  C   UNL     1      -8.366 -10.697  16.512  1.00  0.00     0.060 A 
BRANCH  96  97
ATOM     97  S   UNL     1      -8.979 -11.364  18.073  1.00  0.00     0.124 S 
ATOM     98  O   UNL     1      -7.951 -10.915  19.007  1.00  0.00    -0.237 OA
ATOM     99  O   UNL     1     -10.281 -10.717  18.205  1.00  0.00    -0.237 OA
ATOM    100  O   UNL     1      -9.024 -12.803  17.831  1.00  0.00    -0.744 OA
ENDBRANCH  96  97
ENDBRANCH  64  89
ENDBRANCH  38  39
ENDBRANCH  31  33
ENDBRANCH  30  31
ENDBRANCH  29  30
ENDBRANCH  28  29
ENDBRANCH  27  28
ENDBRANCH   1  27
TORSDOF 22
