REMARK SMILES Cc1ccccc1C(=O)Nc1cc(C(=O)OCCOCCOC(=O)c2ccc(-c3c4nc(c(-c5c(F)cc(S(=O)(=O)[O-])cc5F)c5ccc([nH]5)c(-c5c(F)cc(S(=O)(=O)[O-])cc5F)c5nc(c(-c6c(F)cc(S(=O)(=O)[O-])cc6F)c6ccc3[nH]6)C=C5)C=C4)cc2)ccc1N1CC[NH+](CC(=O)Nc2ccc(F)cc2)CC1
REMARK SMILES IDX 18 1 17 2 16 3 14 4 15 5 13 6 11 7 12 8 93 9 92 10 91 11
REMARK SMILES IDX 10 12 8 13 9 14 7 16 1 17 2 18 3 19 4 20 6 21 5 22 94 23
REMARK SMILES IDX 95 24 110 25 96 26 109 27 97 28 98 30 99 31 100 32 101 33
REMARK SMILES IDX 102 35 103 36 108 37 104 38 107 39 105 40 106 41 19 42 20 43
REMARK SMILES IDX 21 44 22 45 23 46 24 47 25 48 26 49 90 50 27 51 89 52 28 53
REMARK SMILES IDX 29 54 30 55 83 56 31 57 88 58 82 59 84 60 32 61 87 62 81 63
REMARK SMILES IDX 80 64 33 66 67 67 46 68 66 69 47 70 50 71 65 72 85 73 48 74
REMARK SMILES IDX 49 75 64 77 86 78 51 79 34 80 35 81 44 82 36 83 37 84 43 85
REMARK SMILES IDX 45 86 38 87 39 88 40 89 41 90 42 91 68 92 69 93 78 94 70 95
REMARK SMILES IDX 71 96 77 97 79 98 72 99 73 100 74 101 75 102 76 103 52 104
REMARK SMILES IDX 53 105 62 106 54 107 55 108 61 109 63 110 56 111 57 112
REMARK SMILES IDX 58 113 59 114 60 115
REMARK H PARENT 10 15 97 29 101 34 84 65 50 76
REMARK Flexibility Score: inf
ROOT
ATOM      1  C   UNL     1       3.445  -1.220  -4.048  1.00  0.00     0.202 C 
ENDROOT
BRANCH   1   2
ATOM      2  C   UNL     1       2.187  -1.462  -3.263  1.00  0.00     0.261 C 
BRANCH   2   3
ATOM      3  O   UNL     1       2.299  -1.749  -1.838  1.00  0.00    -0.460 OA
BRANCH   3   4
ATOM      4  C   UNL     1       3.492  -1.951  -1.243  1.00  0.00     0.338 C 
ATOM      5  O   UNL     1       3.832  -3.004  -0.700  1.00  0.00    -0.246 OA
BRANCH   4   6
ATOM      6  C   UNL     1       4.207  -0.683  -0.990  1.00  0.00     0.062 A 
ATOM      7  C   UNL     1       3.980   1.661  -0.603  1.00  0.00     0.065 A 
ATOM      8  C   UNL     1       3.515   0.501  -1.179  1.00  0.00     0.044 A 
ATOM      9  C   UNL     1       5.232   1.738   0.077  1.00  0.00     0.061 A 
ATOM     10  C   UNL     1       5.977   0.546   0.137  1.00  0.00     0.029 A 
ATOM     11  C   UNL     1       5.451  -0.663  -0.351  1.00  0.00     0.018 A 
BRANCH   7  12
ATOM     12  N   UNL     1       3.089   2.731  -0.614  1.00  0.00    -0.320 N 
ATOM     13  C   UNL     1       1.811   2.793  -0.076  1.00  0.00     0.255 C 
ATOM     14  O   UNL     1       1.306   3.926  -0.066  1.00  0.00    -0.269 OA
ATOM     15  H   UNL     1       3.407   3.549  -1.060  1.00  0.00     0.170 HD
BRANCH  13  16
ATOM     16  C   UNL     1       1.023   1.677   0.598  1.00  0.00     0.043 A 
ATOM     17  C   UNL     1       2.789   0.242   1.933  1.00  0.00     0.045 C 
ATOM     18  C   UNL     1       1.421   0.609   1.443  1.00  0.00    -0.038 A 
ATOM     19  C   UNL     1       0.432  -0.251   1.987  1.00  0.00     0.004 A 
ATOM     20  C   UNL     1      -0.924  -0.005   1.837  1.00  0.00     0.000 A 
ATOM     21  C   UNL     1      -0.371   1.879   0.452  1.00  0.00     0.014 A 
ATOM     22  C   UNL     1      -1.328   1.075   1.079  1.00  0.00     0.001 A 
ENDBRANCH  13  16
ENDBRANCH   7  12
BRANCH   9  23
ATOM     23  N   UNL     1       5.601   2.881   0.802  1.00  0.00    -0.359 N 
ATOM     24  C   UNL     1       6.931   3.041   1.449  1.00  0.00     0.178 C 
ATOM     25  C   UNL     1       4.557   3.434   1.670  1.00  0.00     0.178 C 
ATOM     26  C   UNL     1       7.101   4.469   2.104  1.00  0.00     0.284 C 
ATOM     27  C   UNL     1       4.792   4.930   1.819  1.00  0.00     0.284 C 
ATOM     28  N   UNL     1       5.924   5.147   2.706  1.00  0.00    -0.324 N 
ATOM     29  H   UNL     1       6.207   6.125   2.776  1.00  0.00     0.348 HD
BRANCH  28  30
ATOM     30  C   UNL     1       5.578   4.924   4.136  1.00  0.00     0.364 C 
BRANCH  30  31
ATOM     31  C   UNL     1       5.330   3.505   4.659  1.00  0.00     0.279 C 
ATOM     32  O   UNL     1       6.307   2.758   4.831  1.00  0.00    -0.268 OA
ATOM     33  N   UNL     1       4.121   2.993   5.061  1.00  0.00    -0.321 N 
ATOM     34  H   UNL     1       4.262   2.231   5.668  1.00  0.00     0.170 HD
BRANCH  33  35
ATOM     35  C   UNL     1       2.732   3.216   4.877  1.00  0.00     0.041 A 
ATOM     36  C   UNL     1       1.867   2.425   5.659  1.00  0.00     0.029 A 
ATOM     37  C   UNL     1       2.135   4.033   3.923  1.00  0.00     0.029 A 
ATOM     38  C   UNL     1       0.474   2.447   5.482  1.00  0.00     0.041 A 
ATOM     39  C   UNL     1       0.746   4.018   3.695  1.00  0.00     0.041 A 
ATOM     40  C   UNL     1      -0.076   3.233   4.485  1.00  0.00     0.123 A 
ATOM     41  F   UNL     1      -1.401   3.242   4.292  1.00  0.00    -0.207 F 
ENDBRANCH  33  35
ENDBRANCH  30  31
ENDBRANCH  28  30
ENDBRANCH   9  23
ENDBRANCH   4   6
ENDBRANCH   3   4
ENDBRANCH   2   3
ENDBRANCH   1   2
BRANCH   1  42
ATOM     42  O   UNL     1       4.373  -2.237  -3.700  1.00  0.00    -0.374 OA
BRANCH  42  43
ATOM     43  C   UNL     1       5.658  -2.103  -4.271  1.00  0.00     0.202 C 
BRANCH  43  44
ATOM     44  C   UNL     1       5.631  -2.113  -5.802  1.00  0.00     0.261 C 
BRANCH  44  45
ATOM     45  O   UNL     1       5.353  -3.439  -6.308  1.00  0.00    -0.460 OA
BRANCH  45  46
ATOM     46  C   UNL     1       4.110  -3.644  -6.826  1.00  0.00     0.338 C 
ATOM     47  O   UNL     1       3.820  -3.404  -7.998  1.00  0.00    -0.246 OA
BRANCH  46  48
ATOM     48  C   UNL     1       3.204  -4.289  -5.839  1.00  0.00     0.060 A 
ATOM     49  C   UNL     1       1.805  -4.249  -5.973  1.00  0.00     0.016 A 
ATOM     50  C   UNL     1       3.766  -4.818  -4.683  1.00  0.00     0.016 A 
ATOM     51  C   UNL     1       0.976  -4.609  -4.893  1.00  0.00     0.010 A 
ATOM     52  C   UNL     1       2.958  -5.056  -3.593  1.00  0.00     0.010 A 
ATOM     53  C   UNL     1       1.560  -4.941  -3.675  1.00  0.00    -0.014 A 
BRANCH  53  54
ATOM     54  C   UNL     1       0.899  -5.141  -2.380  1.00  0.00     0.031 A 
ATOM     55  C   UNL     1       1.185  -6.419  -1.679  1.00  0.00     0.074 A 
ATOM     56  C   UNL     1       0.422  -4.086  -1.674  1.00  0.00     0.049 A 
ATOM     57  N   UNL     1       0.952  -6.624  -0.437  1.00  0.00    -0.248 NA
ATOM     58  C   UNL     1       1.807  -7.578  -2.317  1.00  0.00     0.031 C 
ATOM     59  C   UNL     1       0.329  -3.946  -0.221  1.00  0.00     0.029 A 
ATOM     60  N   UNL     1      -0.144  -2.885  -2.121  1.00  0.00    -0.354 N 
ATOM     61  C   UNL     1       1.620  -7.750  -0.032  1.00  0.00     0.074 A 
ATOM     62  C   UNL     1       2.090  -8.345  -1.256  1.00  0.00     0.031 C 
ATOM     63  C   UNL     1      -0.551  -2.982   0.082  1.00  0.00     0.029 A 
ATOM     64  C   UNL     1      -1.106  -2.514  -1.170  1.00  0.00     0.049 A 
ATOM     65  H   UNL     1       0.089  -2.395  -2.943  1.00  0.00     0.167 HD
ATOM     66  C   UNL     1       1.731  -7.945   1.313  1.00  0.00     0.037 A 
ATOM     67  C   UNL     1      -2.419  -2.438  -1.500  1.00  0.00     0.037 A 
ATOM     68  C   UNL     1       0.755  -7.078   2.008  1.00  0.00     0.049 A 
ATOM     69  C   UNL     1      -3.130  -3.447  -0.648  1.00  0.00     0.074 A 
ATOM     70  C   UNL     1       0.838  -5.947   2.802  1.00  0.00     0.029 A 
ATOM     71  N   UNL     1      -0.590  -7.176   1.623  1.00  0.00    -0.354 N 
ATOM     72  N   UNL     1      -2.594  -4.595  -0.298  1.00  0.00    -0.248 NA
ATOM     73  C   UNL     1      -4.308  -3.097   0.140  1.00  0.00     0.031 C 
ATOM     74  C   UNL     1      -0.447  -5.311   2.786  1.00  0.00     0.029 A 
ATOM     75  C   UNL     1      -1.313  -6.058   1.994  1.00  0.00     0.049 A 
ATOM     76  H   UNL     1      -0.972  -7.947   1.146  1.00  0.00     0.167 HD
ATOM     77  C   UNL     1      -3.210  -5.023   0.847  1.00  0.00     0.074 A 
ATOM     78  C   UNL     1      -4.309  -4.084   1.050  1.00  0.00     0.031 C 
ATOM     79  C   UNL     1      -2.746  -5.971   1.717  1.00  0.00     0.037 A 
BRANCH  66  80
ATOM     80  C   UNL     1       2.755  -8.827   2.014  1.00  0.00     0.058 A 
ATOM     81  C   UNL     1       2.816  -8.875   3.427  1.00  0.00     0.135 A 
ATOM     82  C   UNL     1       3.764  -9.585   1.375  1.00  0.00     0.135 A 
ATOM     83  F   UNL     1       1.963  -8.169   4.183  1.00  0.00    -0.206 F 
ATOM     84  C   UNL     1       3.769  -9.623   4.134  1.00  0.00     0.059 A 
ATOM     85  C   UNL     1       4.706 -10.363   2.058  1.00  0.00     0.059 A 
ATOM     86  F   UNL     1       3.928  -9.584   0.050  1.00  0.00    -0.206 F 
ATOM     87  C   UNL     1       4.707 -10.375   3.441  1.00  0.00     0.060 A 
BRANCH  87  88
ATOM     88  S   UNL     1       5.923 -11.347   4.353  1.00  0.00     0.124 S 
ATOM     89  O   UNL     1       6.686 -10.312   5.043  1.00  0.00    -0.237 OA
ATOM     90  O   UNL     1       5.078 -12.184   5.198  1.00  0.00    -0.237 OA
ATOM     91  O   UNL     1       6.650 -12.059   3.305  1.00  0.00    -0.744 OA
ENDBRANCH  87  88
ENDBRANCH  66  80
BRANCH  67  92
ATOM     92  C   UNL     1      -2.606  -1.903  -2.886  1.00  0.00     0.058 A 
ATOM     93  C   UNL     1      -2.295  -0.527  -3.026  1.00  0.00     0.135 A 
ATOM     94  C   UNL     1      -2.425  -2.700  -4.029  1.00  0.00     0.135 A 
ATOM     95  F   UNL     1      -2.472   0.303  -1.984  1.00  0.00    -0.206 F 
ATOM     96  C   UNL     1      -1.629  -0.019  -4.144  1.00  0.00     0.059 A 
ATOM     97  C   UNL     1      -1.775  -2.201  -5.173  1.00  0.00     0.059 A 
ATOM     98  F   UNL     1      -2.709  -4.010  -3.990  1.00  0.00    -0.206 F 
ATOM     99  C   UNL     1      -1.309  -0.884  -5.185  1.00  0.00     0.060 A 
BRANCH  99 100
ATOM    100  S   UNL     1      -0.096  -0.326  -6.418  1.00  0.00     0.124 S 
ATOM    101  O   UNL     1      -0.869   0.630  -7.200  1.00  0.00    -0.237 OA
ATOM    102  O   UNL     1       0.960   0.248  -5.585  1.00  0.00    -0.237 OA
ATOM    103  O   UNL     1       0.276  -1.557  -7.106  1.00  0.00    -0.744 OA
ENDBRANCH  99 100
ENDBRANCH  67  92
BRANCH  79 104
ATOM    104  C   UNL     1      -3.706  -6.878   2.449  1.00  0.00     0.058 A 
ATOM    105  C   UNL     1      -5.061  -7.010   2.085  1.00  0.00     0.135 A 
ATOM    106  C   UNL     1      -3.247  -7.793   3.426  1.00  0.00     0.135 A 
ATOM    107  F   UNL     1      -5.602  -6.300   1.084  1.00  0.00    -0.206 F 
ATOM    108  C   UNL     1      -5.916  -7.908   2.705  1.00  0.00     0.059 A 
ATOM    109  C   UNL     1      -4.072  -8.748   4.008  1.00  0.00     0.059 A 
ATOM    110  F   UNL     1      -1.970  -7.817   3.834  1.00  0.00    -0.206 F 
ATOM    111  C   UNL     1      -5.414  -8.774   3.665  1.00  0.00     0.060 A 
BRANCH 111 112
ATOM    112  S   UNL     1      -6.527  -9.958   4.425  1.00  0.00     0.124 S 
ATOM    113  O   UNL     1      -7.163  -9.133   5.448  1.00  0.00    -0.237 OA
ATOM    114  O   UNL     1      -7.383 -10.350   3.308  1.00  0.00    -0.237 OA
ATOM    115  O   UNL     1      -5.631 -10.999   4.915  1.00  0.00    -0.744 OA
ENDBRANCH 111 112
ENDBRANCH  79 104
ENDBRANCH  53  54
ENDBRANCH  46  48
ENDBRANCH  45  46
ENDBRANCH  44  45
ENDBRANCH  43  44
ENDBRANCH  42  43
ENDBRANCH   1  42
TORSDOF 23
