REMARK SMILES Cc1ccc(S(=O)(=O)n2cc(C(=O)C(=O)NCC(=O)NCC(=O)OCCOCCOC(=O)c3ccc(-c4c5nc(c(-c6c(F)cc(S(=O)(=O)[O-])cc6F)c6ccc([nH]6)c(-c6c(F)cc(S(=O)(=O)[O-])cc6F)c6nc(c(-c7c(F)cc(S(=O)(=O)[O-])cc7F)c7ccc4[nH]7)C=C6)C=C5)cc3)c3ccccc32)cc1
REMARK SMILES IDX 25 1 24 2 22 3 23 4 21 5 20 6 18 7 19 8 17 10 16 11 14 12
REMARK SMILES IDX 15 13 12 15 13 16 11 17 9 18 10 19 104 20 99 21 103 22
REMARK SMILES IDX 100 23 102 24 101 25 6 26 7 27 8 28 5 29 1 30 2 31 3 32
REMARK SMILES IDX 106 33 4 34 105 35 26 36 27 37 28 38 29 39 30 40 31 41 32 42
REMARK SMILES IDX 33 43 34 44 98 45 35 46 97 47 36 48 37 49 38 50 91 51 39 52
REMARK SMILES IDX 96 53 90 54 92 55 40 56 95 57 89 58 88 59 41 61 75 62 54 63
REMARK SMILES IDX 74 64 55 65 58 66 73 67 93 68 56 69 57 70 72 72 94 73 59 74
REMARK SMILES IDX 42 75 43 76 52 77 44 78 45 79 51 80 53 81 46 82 47 83 48 84
REMARK SMILES IDX 49 85 50 86 76 87 77 88 86 89 78 90 79 91 85 92 87 93 80 94
REMARK SMILES IDX 81 95 82 96 83 97 84 98 60 99 61 100 70 101 62 102 63 103
REMARK SMILES IDX 69 104 71 105 64 106 65 107 66 108 67 109 68 110
REMARK H PARENT 20 9 16 14 92 60 58 71
REMARK Flexibility Score: inf
ROOT
ATOM      1  C   UNL     1     -10.587   2.933   0.110  1.00  0.00     0.261 C 
ENDROOT
BRANCH   1   2
ATOM      2  O   UNL     1     -10.109   4.216   0.486  1.00  0.00    -0.462 OA
BRANCH   2   3
ATOM      3  C   UNL     1      -9.197   4.767  -0.346  1.00  0.00     0.325 C 
ATOM      4  O   UNL     1      -8.780   4.273  -1.386  1.00  0.00    -0.250 OA
BRANCH   3   5
ATOM      5  C   UNL     1      -8.828   6.173   0.118  1.00  0.00     0.238 C 
BRANCH   5   6
ATOM      6  N   UNL     1      -9.407   6.614   1.388  1.00  0.00    -0.344 N 
ATOM      7  C   UNL     1      -8.812   7.001   2.550  1.00  0.00     0.239 C 
ATOM      8  O   UNL     1      -9.517   7.486   3.438  1.00  0.00    -0.273 OA
ATOM      9  H   UNL     1     -10.391   6.635   1.405  1.00  0.00     0.164 HD
BRANCH   7  10
ATOM     10  C   UNL     1      -7.297   6.849   2.735  1.00  0.00     0.216 C 
BRANCH  10  11
ATOM     11  N   UNL     1      -6.984   5.432   2.801  1.00  0.00    -0.340 N 
ATOM     12  C   UNL     1      -6.394   4.738   1.772  1.00  0.00     0.292 C 
ATOM     13  O   UNL     1      -6.946   3.760   1.291  1.00  0.00    -0.265 OA
ATOM     14  H   UNL     1      -7.206   4.943   3.627  1.00  0.00     0.164 HD
BRANCH  12  15
ATOM     15  C   UNL     1      -5.074   5.208   1.147  1.00  0.00     0.252 C 
ATOM     16  O   UNL     1      -4.775   6.398   1.178  1.00  0.00    -0.283 OA
BRANCH  15  17
ATOM     17  C   UNL     1      -4.265   4.220   0.432  1.00  0.00     0.054 A 
ATOM     18  N   UNL     1      -3.199   2.333  -0.108  1.00  0.00    -0.240 N 
ATOM     19  C   UNL     1      -3.859   2.986   0.909  1.00  0.00     0.117 A 
ATOM     20  C   UNL     1      -3.208   3.086  -1.262  1.00  0.00     0.065 A 
ATOM     21  C   UNL     1      -3.832   4.297  -0.930  1.00  0.00     0.012 A 
ATOM     22  C   UNL     1      -2.764   2.816  -2.567  1.00  0.00     0.028 A 
ATOM     23  C   UNL     1      -3.993   5.275  -1.933  1.00  0.00     0.011 A 
ATOM     24  C   UNL     1      -2.935   3.805  -3.538  1.00  0.00     0.002 A 
ATOM     25  C   UNL     1      -3.534   5.021  -3.227  1.00  0.00     0.001 A 
BRANCH  18  26
ATOM     26  S   UNL     1      -2.641   0.734   0.020  1.00  0.00     0.268 S 
ATOM     27  O   UNL     1      -3.205   0.052  -1.131  1.00  0.00    -0.201 OA
ATOM     28  O   UNL     1      -2.833   0.377   1.406  1.00  0.00    -0.201 OA
BRANCH  26  29
ATOM     29  C   UNL     1      -0.911   0.629  -0.180  1.00  0.00     0.088 A 
ATOM     30  C   UNL     1       3.291  -0.043  -0.014  1.00  0.00     0.044 C 
ATOM     31  C   UNL     1       1.819   0.206  -0.118  1.00  0.00    -0.051 A 
ATOM     32  C   UNL     1       0.956  -0.891  -0.202  1.00  0.00     0.005 A 
ATOM     33  C   UNL     1       1.298   1.512  -0.093  1.00  0.00     0.005 A 
ATOM     34  C   UNL     1      -0.410  -0.680  -0.236  1.00  0.00     0.022 A 
ATOM     35  C   UNL     1      -0.076   1.733  -0.119  1.00  0.00     0.022 A 
ENDBRANCH  26  29
ENDBRANCH  18  26
ENDBRANCH  15  17
ENDBRANCH  12  15
ENDBRANCH  10  11
ENDBRANCH   7  10
ENDBRANCH   5   6
ENDBRANCH   3   5
ENDBRANCH   2   3
ENDBRANCH   1   2
BRANCH   1  36
ATOM     36  C   UNL     1     -11.906   2.974  -0.668  1.00  0.00     0.202 C 
BRANCH  36  37
ATOM     37  O   UNL     1     -12.516   4.226  -0.941  1.00  0.00    -0.374 OA
BRANCH  37  38
ATOM     38  C   UNL     1     -12.951   5.014   0.172  1.00  0.00     0.202 C 
BRANCH  38  39
ATOM     39  C   UNL     1     -13.630   4.319   1.376  1.00  0.00     0.261 C 
BRANCH  39  40
ATOM     40  O   UNL     1     -12.595   3.783   2.222  1.00  0.00    -0.460 OA
BRANCH  40  41
ATOM     41  C   UNL     1     -12.592   2.807   3.163  1.00  0.00     0.338 C 
ATOM     42  O   UNL     1     -11.669   2.847   3.977  1.00  0.00    -0.246 OA
BRANCH  41  43
ATOM     43  C   UNL     1     -13.405   1.507   3.019  1.00  0.00     0.060 A 
ATOM     44  C   UNL     1     -12.922   0.523   3.894  1.00  0.00     0.016 A 
ATOM     45  C   UNL     1     -13.540   1.058   1.720  1.00  0.00     0.016 A 
ATOM     46  C   UNL     1     -11.926  -0.348   3.450  1.00  0.00     0.010 A 
ATOM     47  C   UNL     1     -12.530   0.243   1.227  1.00  0.00     0.010 A 
ATOM     48  C   UNL     1     -11.590  -0.291   2.107  1.00  0.00    -0.014 A 
BRANCH  48  49
ATOM     49  C   UNL     1     -10.192  -0.357   1.657  1.00  0.00     0.031 A 
ATOM     50  C   UNL     1      -9.780  -1.257   0.551  1.00  0.00     0.074 A 
ATOM     51  C   UNL     1      -9.323   0.526   2.217  1.00  0.00     0.049 A 
ATOM     52  N   UNL     1      -8.591  -1.726   0.390  1.00  0.00    -0.248 NA
ATOM     53  C   UNL     1     -10.709  -1.780  -0.445  1.00  0.00     0.031 C 
ATOM     54  C   UNL     1      -7.988   0.897   1.780  1.00  0.00     0.029 A 
ATOM     55  N   UNL     1      -9.447   1.208   3.425  1.00  0.00    -0.354 N 
ATOM     56  C   UNL     1      -8.531  -2.368  -0.839  1.00  0.00     0.074 A 
ATOM     57  C   UNL     1      -9.899  -2.453  -1.267  1.00  0.00     0.031 C 
ATOM     58  C   UNL     1      -7.327   1.464   2.807  1.00  0.00     0.029 A 
ATOM     59  C   UNL     1      -8.187   1.447   3.967  1.00  0.00     0.049 A 
ATOM     60  H   UNL     1     -10.299   1.482   3.834  1.00  0.00     0.167 HD
ATOM     61  C   UNL     1      -7.313  -2.618  -1.412  1.00  0.00     0.037 A 
ATOM     62  C   UNL     1      -7.859   0.913   5.178  1.00  0.00     0.037 A 
ATOM     63  C   UNL     1      -6.282  -2.115  -0.515  1.00  0.00     0.049 A 
ATOM     64  C   UNL     1      -6.884  -0.251   5.008  1.00  0.00     0.074 A 
ATOM     65  C   UNL     1      -5.812  -0.826  -0.381  1.00  0.00     0.029 A 
ATOM     66  N   UNL     1      -5.990  -2.766   0.675  1.00  0.00    -0.354 N 
ATOM     67  N   UNL     1      -6.591  -0.799   3.854  1.00  0.00    -0.248 NA
ATOM     68  C   UNL     1      -6.144  -0.879   6.097  1.00  0.00     0.031 C 
ATOM     69  C   UNL     1      -5.389  -0.684   0.962  1.00  0.00     0.029 A 
ATOM     70  C   UNL     1      -5.403  -1.909   1.592  1.00  0.00     0.049 A 
ATOM     71  H   UNL     1      -6.177  -3.717   0.846  1.00  0.00     0.167 HD
ATOM     72  C   UNL     1      -5.595  -1.732   3.994  1.00  0.00     0.074 A 
ATOM     73  C   UNL     1      -5.412  -1.800   5.438  1.00  0.00     0.031 C 
ATOM     74  C   UNL     1      -4.983  -2.344   2.923  1.00  0.00     0.037 A 
BRANCH  61  75
ATOM     75  C   UNL     1      -7.048  -2.961  -2.876  1.00  0.00     0.058 A 
ATOM     76  C   UNL     1      -5.784  -2.699  -3.461  1.00  0.00     0.135 A 
ATOM     77  C   UNL     1      -7.992  -3.491  -3.778  1.00  0.00     0.135 A 
ATOM     78  F   UNL     1      -4.746  -2.291  -2.716  1.00  0.00    -0.206 F 
ATOM     79  C   UNL     1      -5.519  -2.850  -4.830  1.00  0.00     0.059 A 
ATOM     80  C   UNL     1      -7.766  -3.611  -5.156  1.00  0.00     0.059 A 
ATOM     81  F   UNL     1      -9.164  -3.981  -3.362  1.00  0.00    -0.206 F 
ATOM     82  C   UNL     1      -6.527  -3.281  -5.680  1.00  0.00     0.060 A 
BRANCH  82  83
ATOM     83  S   UNL     1      -6.196  -3.456  -7.446  1.00  0.00     0.124 S 
ATOM     84  O   UNL     1      -5.796  -2.105  -7.826  1.00  0.00    -0.237 OA
ATOM     85  O   UNL     1      -5.138  -4.461  -7.464  1.00  0.00    -0.237 OA
ATOM     86  O   UNL     1      -7.477  -3.896  -7.993  1.00  0.00    -0.744 OA
ENDBRANCH  82  83
ENDBRANCH  61  75
BRANCH  62  87
ATOM     87  C   UNL     1      -8.961   1.109   6.180  1.00  0.00     0.058 A 
ATOM     88  C   UNL     1      -9.373   2.442   6.443  1.00  0.00     0.135 A 
ATOM     89  C   UNL     1      -9.860   0.101   6.541  1.00  0.00     0.135 A 
ATOM     90  F   UNL     1      -8.548   3.463   6.147  1.00  0.00    -0.206 F 
ATOM     91  C   UNL     1     -10.664   2.764   6.875  1.00  0.00     0.059 A 
ATOM     92  C   UNL     1     -11.155   0.401   7.000  1.00  0.00     0.059 A 
ATOM     93  F   UNL     1      -9.547  -1.186   6.333  1.00  0.00    -0.206 F 
ATOM     94  C   UNL     1     -11.571   1.735   7.105  1.00  0.00     0.060 A 
BRANCH  94  95
ATOM     95  S   UNL     1     -13.334   2.153   7.335  1.00  0.00     0.124 S 
ATOM     96  O   UNL     1     -13.354   2.669   8.698  1.00  0.00    -0.237 OA
ATOM     97  O   UNL     1     -13.598   3.133   6.285  1.00  0.00    -0.237 OA
ATOM     98  O   UNL     1     -14.012   0.873   7.141  1.00  0.00    -0.744 OA
ENDBRANCH  94  95
ENDBRANCH  62  87
BRANCH  74  99
ATOM     99  C   UNL     1      -3.864  -3.364   3.043  1.00  0.00     0.058 A 
ATOM    100  C   UNL     1      -2.909  -3.357   4.072  1.00  0.00     0.135 A 
ATOM    101  C   UNL     1      -3.685  -4.390   2.082  1.00  0.00     0.135 A 
ATOM    102  F   UNL     1      -2.799  -2.315   4.911  1.00  0.00    -0.206 F 
ATOM    103  C   UNL     1      -2.016  -4.414   4.271  1.00  0.00     0.059 A 
ATOM    104  C   UNL     1      -2.764  -5.419   2.223  1.00  0.00     0.059 A 
ATOM    105  F   UNL     1      -4.422  -4.478   0.969  1.00  0.00    -0.206 F 
ATOM    106  C   UNL     1      -1.992  -5.469   3.366  1.00  0.00     0.060 A 
BRANCH 106 107
ATOM    107  S   UNL     1      -0.991  -6.923   3.699  1.00  0.00     0.124 S 
ATOM    108  O   UNL     1       0.269  -6.344   4.152  1.00  0.00    -0.237 OA
ATOM    109  O   UNL     1      -1.787  -7.591   4.724  1.00  0.00    -0.237 OA
ATOM    110  O   UNL     1      -0.934  -7.604   2.409  1.00  0.00    -0.744 OA
ENDBRANCH 106 107
ENDBRANCH  74  99
ENDBRANCH  48  49
ENDBRANCH  41  43
ENDBRANCH  40  41
ENDBRANCH  39  40
ENDBRANCH  38  39
ENDBRANCH  37  38
ENDBRANCH  36  37
ENDBRANCH   1  36
TORSDOF 24
