REMARK SMILES Cc1c(CCC(=O)N[C@@H](C)C(=O)OCCOCCOC(=O)c2ccc(-c3c4nc(c(-c5c(F)cc(S(=O)(=O)[O-])cc5F)c5ccc([nH]5)c(-c5c(F)cc(S(=O)(=O)[O-])cc5F)c5nc(c(-c6c(F)cc(S(=O)(=O)[O-])cc6F)c6ccc3[nH]6)C=C5)C=C4)cc2)c(=O)oc2cc3oc4c(c3cc12)CCCC4
REMARK SMILES IDX 15 1 14 2 13 3 11 4 12 5 9 6 10 7 8 8 6 9 7 10 5 12 4 13
REMARK SMILES IDX 3 14 1 15 2 16 99 17 88 18 91 19 98 20 89 21 90 22 92 23
REMARK SMILES IDX 97 24 93 25 96 26 94 27 95 28 100 29 103 30 101 31 102 32
REMARK SMILES IDX 16 33 17 34 18 35 19 36 20 37 21 38 22 39 23 40 87 41 24 42
REMARK SMILES IDX 86 43 25 44 26 45 27 46 80 47 28 48 85 49 79 50 81 51 29 52
REMARK SMILES IDX 84 53 78 54 77 55 30 57 64 58 43 59 63 60 44 61 47 62 62 63
REMARK SMILES IDX 82 64 45 65 46 66 61 68 83 69 48 70 31 71 32 72 41 73 33 74
REMARK SMILES IDX 34 75 40 76 42 77 35 78 36 79 37 80 38 81 39 82 65 83 66 84
REMARK SMILES IDX 75 85 67 86 68 87 74 88 76 89 69 90 70 91 71 92 72 93 73 94
REMARK SMILES IDX 49 95 50 96 59 97 51 98 52 99 58 100 60 101 53 102 54 103
REMARK SMILES IDX 55 104 56 105 57 106
REMARK H PARENT 8 11 81 56 47 67
REMARK Flexibility Score: inf
ROOT
ATOM      1  C   UNL     1       5.351  -1.300   4.145  1.00  0.00     0.202 C 
ENDROOT
BRANCH   1   2
ATOM      2  C   UNL     1       3.816  -1.188   4.131  1.00  0.00     0.261 C 
BRANCH   2   3
ATOM      3  O   UNL     1       3.271  -1.196   2.795  1.00  0.00    -0.462 OA
BRANCH   3   4
ATOM      4  C   UNL     1       2.763  -0.022   2.335  1.00  0.00     0.328 C 
ATOM      5  O   UNL     1       2.683   1.009   2.995  1.00  0.00    -0.250 OA
BRANCH   4   6
ATOM      6  C   UNL     1       2.431  -0.060   0.828  1.00  0.00     0.189 C 
ATOM      7  C   UNL     1       2.246  -1.431   0.188  1.00  0.00     0.043 C 
BRANCH   6   8
ATOM      8  N   UNL     1       3.272   0.764  -0.046  1.00  0.00    -0.343 N 
ATOM      9  C   UNL     1       2.871   1.957  -0.585  1.00  0.00     0.221 C 
ATOM     10  O   UNL     1       2.982   2.114  -1.801  1.00  0.00    -0.275 OA
ATOM     11  H   UNL     1       4.177   0.440  -0.258  1.00  0.00     0.164 HD
BRANCH   9  12
ATOM     12  C   UNL     1       2.414   3.086   0.326  1.00  0.00     0.105 C 
BRANCH  12  13
ATOM     13  C   UNL     1       0.936   3.491   0.205  1.00  0.00     0.053 C 
BRANCH  13  14
ATOM     14  C   UNL     1       0.111   2.842   1.286  1.00  0.00     0.042 A 
ATOM     15  C   UNL     1      -1.005   1.200  -0.300  1.00  0.00     0.046 C 
ATOM     16  C   UNL     1      -0.633   1.753   1.051  1.00  0.00    -0.030 A 
ATOM     17  C   UNL     1      -0.798   0.907   2.222  1.00  0.00     0.022 A 
ATOM     18  C   UNL     1       0.201   3.412   2.674  1.00  0.00     0.339 A 
ATOM     19  C   UNL     1      -0.853   1.429   3.511  1.00  0.00     0.142 A 
ATOM     20  C   UNL     1      -0.666  -0.457   2.056  1.00  0.00     0.024 A 
ATOM     21  O   UNL     1       0.816   4.455   2.881  1.00  0.00    -0.246 OA
ATOM     22  O   UNL     1      -0.549   2.790   3.678  1.00  0.00    -0.422 OA
ATOM     23  C   UNL     1      -1.131   0.635   4.641  1.00  0.00     0.095 A 
ATOM     24  C   UNL     1      -0.694  -1.259   3.179  1.00  0.00     0.025 A 
ATOM     25  C   UNL     1      -1.134  -0.733   4.381  1.00  0.00     0.138 A 
ATOM     26  C   UNL     1      -0.556  -2.632   3.344  1.00  0.00     0.001 A 
ATOM     27  O   UNL     1      -1.665  -1.770   5.112  1.00  0.00    -0.461 OA
ATOM     28  C   UNL     1      -1.487  -2.876   4.323  1.00  0.00     0.108 A 
ATOM     29  C   UNL     1      -0.236  -3.629   2.318  1.00  0.00     0.040 C 
ATOM     30  C   UNL     1      -2.572  -3.875   4.090  1.00  0.00     0.076 C 
ATOM     31  C   UNL     1      -1.534  -4.067   1.642  1.00  0.00     0.005 C 
ATOM     32  C   UNL     1      -2.806  -3.930   2.537  1.00  0.00     0.008 C 
ENDBRANCH  13  14
ENDBRANCH  12  13
ENDBRANCH   9  12
ENDBRANCH   6   8
ENDBRANCH   4   6
ENDBRANCH   3   4
ENDBRANCH   2   3
ENDBRANCH   1   2
BRANCH   1  33
ATOM     33  O   UNL     1       6.089  -0.189   3.640  1.00  0.00    -0.374 OA
BRANCH  33  34
ATOM     34  C   UNL     1       6.015   0.098   2.246  1.00  0.00     0.202 C 
BRANCH  34  35
ATOM     35  C   UNL     1       6.352  -1.047   1.279  1.00  0.00     0.261 C 
BRANCH  35  36
ATOM     36  O   UNL     1       5.320  -2.056   1.261  1.00  0.00    -0.460 OA
BRANCH  36  37
ATOM     37  C   UNL     1       5.737  -3.341   1.253  1.00  0.00     0.338 C 
ATOM     38  O   UNL     1       6.897  -3.732   1.145  1.00  0.00    -0.246 OA
BRANCH  37  39
ATOM     39  C   UNL     1       4.605  -4.267   1.448  1.00  0.00     0.060 A 
ATOM     40  C   UNL     1       3.935  -4.802   0.343  1.00  0.00     0.016 A 
ATOM     41  C   UNL     1       4.313  -4.735   2.730  1.00  0.00     0.016 A 
ATOM     42  C   UNL     1       3.031  -5.861   0.516  1.00  0.00     0.010 A 
ATOM     43  C   UNL     1       3.403  -5.785   2.898  1.00  0.00     0.010 A 
ATOM     44  C   UNL     1       2.807  -6.412   1.787  1.00  0.00    -0.014 A 
BRANCH  44  45
ATOM     45  C   UNL     1       2.116  -7.747   1.869  1.00  0.00     0.031 A 
ATOM     46  C   UNL     1       2.795  -8.684   2.817  1.00  0.00     0.074 A 
ATOM     47  C   UNL     1       0.768  -7.838   1.960  1.00  0.00     0.049 A 
ATOM     48  N   UNL     1       2.674  -8.563   4.103  1.00  0.00    -0.248 NA
ATOM     49  C   UNL     1       3.821  -9.638   2.409  1.00  0.00     0.031 C 
ATOM     50  C   UNL     1       0.001  -6.919   2.786  1.00  0.00     0.029 A 
ATOM     51  N   UNL     1      -0.142  -8.840   1.643  1.00  0.00    -0.354 N 
ATOM     52  C   UNL     1       3.605  -9.394   4.690  1.00  0.00     0.074 A 
ATOM     53  C   UNL     1       4.295 -10.046   3.599  1.00  0.00     0.031 C 
ATOM     54  C   UNL     1      -1.274  -7.316   2.853  1.00  0.00     0.029 A 
ATOM     55  C   UNL     1      -1.406  -8.602   2.189  1.00  0.00     0.049 A 
ATOM     56  H   UNL     1       0.079  -9.628   1.096  1.00  0.00     0.167 HD
ATOM     57  C   UNL     1       3.706  -9.505   6.041  1.00  0.00     0.037 A 
ATOM     58  C   UNL     1      -2.348  -9.508   2.567  1.00  0.00     0.037 A 
ATOM     59  C   UNL     1       2.748  -8.770   6.840  1.00  0.00     0.049 A 
ATOM     60  C   UNL     1      -2.052  -9.700   4.040  1.00  0.00     0.074 A 
ATOM     61  C   UNL     1       2.705  -8.082   8.035  1.00  0.00     0.029 A 
ATOM     62  N   UNL     1       1.475  -8.709   6.340  1.00  0.00    -0.354 N 
ATOM     63  N   UNL     1      -2.313  -8.851   5.006  1.00  0.00    -0.248 NA
ATOM     64  C   UNL     1      -1.095 -10.755   4.406  1.00  0.00     0.031 C 
ATOM     65  C   UNL     1       1.340  -7.699   8.261  1.00  0.00     0.029 A 
ATOM     66  C   UNL     1       0.569  -8.201   7.224  1.00  0.00     0.049 A 
ATOM     67  H   UNL     1       1.237  -9.003   5.431  1.00  0.00     0.167 HD
ATOM     68  C   UNL     1      -1.320  -9.080   5.954  1.00  0.00     0.074 A 
ATOM     69  C   UNL     1      -0.721 -10.357   5.618  1.00  0.00     0.031 C 
ATOM     70  C   UNL     1      -0.809  -8.123   6.785  1.00  0.00     0.037 A 
BRANCH  57  71
ATOM     71  C   UNL     1       4.532 -10.554   6.678  1.00  0.00     0.058 A 
ATOM     72  C   UNL     1       3.889 -11.740   7.069  1.00  0.00     0.135 A 
ATOM     73  C   UNL     1       5.878 -10.390   7.017  1.00  0.00     0.135 A 
ATOM     74  F   UNL     1       2.599 -11.941   6.750  1.00  0.00    -0.206 F 
ATOM     75  C   UNL     1       4.545 -12.720   7.798  1.00  0.00     0.059 A 
ATOM     76  C   UNL     1       6.562 -11.365   7.746  1.00  0.00     0.059 A 
ATOM     77  F   UNL     1       6.534  -9.273   6.664  1.00  0.00    -0.206 F 
ATOM     78  C   UNL     1       5.881 -12.519   8.143  1.00  0.00     0.060 A 
BRANCH  78  79
ATOM     79  S   UNL     1       6.696 -13.793   9.129  1.00  0.00     0.124 S 
ATOM     80  O   UNL     1       5.901 -13.784  10.352  1.00  0.00    -0.237 OA
ATOM     81  O   UNL     1       6.545 -14.971   8.280  1.00  0.00    -0.237 OA
ATOM     82  O   UNL     1       8.061 -13.294   9.266  1.00  0.00    -0.744 OA
ENDBRANCH  78  79
ENDBRANCH  57  71
BRANCH  58  83
ATOM     83  C   UNL     1      -2.801 -10.569   1.629  1.00  0.00     0.058 A 
ATOM     84  C   UNL     1      -3.135 -10.207   0.304  1.00  0.00     0.135 A 
ATOM     85  C   UNL     1      -3.013 -11.912   1.967  1.00  0.00     0.135 A 
ATOM     86  F   UNL     1      -3.109  -8.918  -0.074  1.00  0.00    -0.206 F 
ATOM     87  C   UNL     1      -3.510 -11.142  -0.658  1.00  0.00     0.059 A 
ATOM     88  C   UNL     1      -3.361 -12.874   1.018  1.00  0.00     0.059 A 
ATOM     89  F   UNL     1      -2.885 -12.335   3.232  1.00  0.00    -0.206 F 
ATOM     90  C   UNL     1      -3.574 -12.485  -0.300  1.00  0.00     0.060 A 
BRANCH  90  91
ATOM     91  S   UNL     1      -3.865 -13.709  -1.593  1.00  0.00     0.124 S 
ATOM     92  O   UNL     1      -5.218 -13.379  -2.026  1.00  0.00    -0.237 OA
ATOM     93  O   UNL     1      -2.800 -13.393  -2.541  1.00  0.00    -0.237 OA
ATOM     94  O   UNL     1      -3.718 -14.981  -0.894  1.00  0.00    -0.744 OA
ENDBRANCH  90  91
ENDBRANCH  58  83
BRANCH  70  95
ATOM     95  C   UNL     1      -1.636  -6.924   7.101  1.00  0.00     0.058 A 
ATOM     96  C   UNL     1      -2.915  -7.082   7.653  1.00  0.00     0.135 A 
ATOM     97  C   UNL     1      -1.130  -5.617   6.995  1.00  0.00     0.135 A 
ATOM     98  F   UNL     1      -3.435  -8.307   7.830  1.00  0.00    -0.206 F 
ATOM     99  C   UNL     1      -3.661  -5.994   8.089  1.00  0.00     0.059 A 
ATOM    100  C   UNL     1      -1.849  -4.513   7.454  1.00  0.00     0.059 A 
ATOM    101  F   UNL     1       0.074  -5.392   6.441  1.00  0.00    -0.206 F 
ATOM    102  C   UNL     1      -3.114  -4.714   8.001  1.00  0.00     0.060 A 
BRANCH 102 103
ATOM    103  S   UNL     1      -4.069  -3.338   8.670  1.00  0.00     0.124 S 
ATOM    104  O   UNL     1      -5.229  -3.318   7.785  1.00  0.00    -0.237 OA
ATOM    105  O   UNL     1      -4.325  -3.784  10.037  1.00  0.00    -0.237 OA
ATOM    106  O   UNL     1      -3.168  -2.196   8.554  1.00  0.00    -0.744 OA
ENDBRANCH 102 103
ENDBRANCH  70  95
ENDBRANCH  44  45
ENDBRANCH  37  39
ENDBRANCH  36  37
ENDBRANCH  35  36
ENDBRANCH  34  35
ENDBRANCH  33  34
ENDBRANCH   1  33
TORSDOF 21
