REMARK SMILES CCC[C@@H](C(=O)OCCOCCOC(=O)c1ccc(-c2c3nc(c(-c4c(F)cc(S(=O)(=O)[O-])cc4F)c4ccc([nH]4)c(-c4c(F)cc(S(=O)(=O)[O-])cc4F)c4nc(c(-c5c(F)cc(S(=O)(=O)[O-])cc5F)c5ccc2[nH]5)C=C4)C=C3)cc1)n1nc(/C=C/c2ccc(OC)cc2)ccc1=O
REMARK SMILES IDX 9 1 8 2 7 3 5 4 6 5 4 6 3 7 2 8 1 9 82 10 83 11 97 12 84 13
REMARK SMILES IDX 96 14 98 15 95 16 85 17 86 18 87 19 88 20 94 21 89 22 93 23
REMARK SMILES IDX 90 24 91 25 92 26 10 27 11 28 12 29 13 30 14 31 15 32 16 33
REMARK SMILES IDX 17 34 81 35 18 36 80 37 19 38 20 39 21 40 74 41 22 42 79 43
REMARK SMILES IDX 73 44 75 45 23 46 78 47 72 48 71 49 24 51 58 52 37 53 57 54
REMARK SMILES IDX 38 55 41 56 56 57 76 58 39 59 40 60 55 62 77 63 42 64 25 65
REMARK SMILES IDX 26 66 35 67 27 68 28 69 34 70 36 71 29 72 30 73 31 74 32 75
REMARK SMILES IDX 33 76 59 77 60 78 69 79 61 80 62 81 68 82 70 83 63 84 64 85
REMARK SMILES IDX 65 86 66 87 67 88 43 89 44 90 53 91 45 92 46 93 52 94 54 95
REMARK SMILES IDX 47 96 48 97 49 98 50 99 51 100
REMARK H PARENT 75 50 41 61
REMARK Flexibility Score: inf
ROOT
ATOM      1  C   UNL     1      -3.653  -2.651  -0.499  1.00  0.00     0.202 C 
ENDROOT
BRANCH   1   2
ATOM      2  C   UNL     1      -2.786  -2.431   0.748  1.00  0.00     0.261 C 
BRANCH   2   3
ATOM      3  O   UNL     1      -1.433  -2.179   0.344  1.00  0.00    -0.462 OA
BRANCH   3   4
ATOM      4  C   UNL     1      -0.461  -2.531   1.229  1.00  0.00     0.331 C 
ATOM      5  O   UNL     1      -0.643  -2.725   2.425  1.00  0.00    -0.250 OA
BRANCH   4   6
ATOM      6  C   UNL     1       0.873  -2.799   0.501  1.00  0.00     0.221 C 
BRANCH   6   7
ATOM      7  C   UNL     1       1.078  -2.115  -0.873  1.00  0.00     0.039 C 
BRANCH   7   8
ATOM      8  C   UNL     1       0.687  -0.639  -1.018  1.00  0.00    -0.001 C 
ATOM      9  C   UNL     1       1.197   0.263   0.092  1.00  0.00     0.004 C 
ENDBRANCH   7   8
ENDBRANCH   6   7
BRANCH   6  10
ATOM     10  N   UNL     1       1.212  -4.253   0.419  1.00  0.00    -0.215 N 
ATOM     11  N   UNL     1       2.526  -4.523   0.050  1.00  0.00    -0.169 NA
ATOM     12  C   UNL     1       0.238  -5.247   0.477  1.00  0.00     0.267 A 
ATOM     13  C   UNL     1       2.861  -5.751  -0.214  1.00  0.00     0.084 A 
ATOM     14  C   UNL     1       0.692  -6.630   0.247  1.00  0.00     0.075 A 
ATOM     15  O   UNL     1      -0.957  -5.089   0.697  1.00  0.00    -0.268 OA
ATOM     16  C   UNL     1       1.946  -6.900  -0.103  1.00  0.00     0.036 A 
BRANCH  13  17
ATOM     17  C   UNL     1       4.268  -6.014  -0.638  1.00  0.00     0.031 C 
ATOM     18  C   UNL     1       4.790  -7.192  -1.014  1.00  0.00     0.010 C 
BRANCH  18  19
ATOM     19  C   UNL     1       6.212  -7.386  -1.336  1.00  0.00    -0.025 A 
ATOM     20  C   UNL     1       6.574  -8.324  -2.308  1.00  0.00     0.012 A 
ATOM     21  C   UNL     1       7.224  -6.736  -0.620  1.00  0.00     0.012 A 
ATOM     22  C   UNL     1       7.923  -8.592  -2.564  1.00  0.00     0.047 A 
ATOM     23  C   UNL     1       8.573  -7.004  -0.878  1.00  0.00     0.047 A 
ATOM     24  C   UNL     1       8.928  -7.936  -1.851  1.00  0.00     0.118 A 
BRANCH  24  25
ATOM     25  O   UNL     1      10.203  -8.300  -2.186  1.00  0.00    -0.497 OA
ATOM     26  C   UNL     1      11.257  -7.614  -1.521  1.00  0.00     0.278 C 
ENDBRANCH  24  25
ENDBRANCH  18  19
ENDBRANCH  13  17
ENDBRANCH   6  10
ENDBRANCH   4   6
ENDBRANCH   3   4
ENDBRANCH   2   3
ENDBRANCH   1   2
BRANCH   1  27
ATOM     27  O   UNL     1      -3.425  -3.858  -1.236  1.00  0.00    -0.374 OA
BRANCH  27  28
ATOM     28  C   UNL     1      -2.189  -3.970  -1.938  1.00  0.00     0.202 C 
BRANCH  28  29
ATOM     29  C   UNL     1      -2.126  -3.302  -3.315  1.00  0.00     0.261 C 
BRANCH  29  30
ATOM     30  O   UNL     1      -2.333  -1.882  -3.247  1.00  0.00    -0.460 OA
BRANCH  30  31
ATOM     31  C   UNL     1      -3.528  -1.470  -3.733  1.00  0.00     0.338 C 
ATOM     32  O   UNL     1      -4.380  -2.161  -4.280  1.00  0.00    -0.246 OA
BRANCH  31  33
ATOM     33  C   UNL     1      -3.767  -0.059  -3.386  1.00  0.00     0.060 A 
ATOM     34  C   UNL     1      -4.977   0.250  -2.754  1.00  0.00     0.016 A 
ATOM     35  C   UNL     1      -2.876   0.954  -3.750  1.00  0.00     0.016 A 
ATOM     36  C   UNL     1      -5.328   1.579  -2.531  1.00  0.00     0.010 A 
ATOM     37  C   UNL     1      -3.235   2.289  -3.532  1.00  0.00     0.010 A 
ATOM     38  C   UNL     1      -4.478   2.608  -2.956  1.00  0.00    -0.014 A 
BRANCH  38  39
ATOM     39  C   UNL     1      -4.963   4.010  -2.925  1.00  0.00     0.031 A 
ATOM     40  C   UNL     1      -5.497   4.627  -4.190  1.00  0.00     0.074 A 
ATOM     41  C   UNL     1      -4.968   4.709  -1.776  1.00  0.00     0.049 A 
ATOM     42  N   UNL     1      -5.957   5.835  -4.393  1.00  0.00    -0.248 NA
ATOM     43  C   UNL     1      -5.514   3.768  -5.385  1.00  0.00     0.031 C 
ATOM     44  C   UNL     1      -4.514   4.207  -0.480  1.00  0.00     0.029 A 
ATOM     45  N   UNL     1      -5.369   5.996  -1.516  1.00  0.00    -0.354 N 
ATOM     46  C   UNL     1      -6.314   5.883  -5.735  1.00  0.00     0.074 A 
ATOM     47  C   UNL     1      -5.992   4.593  -6.306  1.00  0.00     0.031 C 
ATOM     48  C   UNL     1      -4.651   5.180   0.437  1.00  0.00     0.029 A 
ATOM     49  C   UNL     1      -5.177   6.381  -0.211  1.00  0.00     0.049 A 
ATOM     50  H   UNL     1      -5.756   6.588  -2.201  1.00  0.00     0.167 HD
ATOM     51  C   UNL     1      -6.870   6.907  -6.427  1.00  0.00     0.037 A 
ATOM     52  C   UNL     1      -5.384   7.571   0.387  1.00  0.00     0.037 A 
ATOM     53  C   UNL     1      -7.194   8.188  -5.854  1.00  0.00     0.049 A 
ATOM     54  C   UNL     1      -5.949   8.714  -0.417  1.00  0.00     0.074 A 
ATOM     55  C   UNL     1      -7.773   9.284  -6.469  1.00  0.00     0.029 A 
ATOM     56  N   UNL     1      -6.962   8.547  -4.534  1.00  0.00    -0.354 N 
ATOM     57  N   UNL     1      -6.300   8.739  -1.681  1.00  0.00    -0.248 NA
ATOM     58  C   UNL     1      -6.149   9.989   0.287  1.00  0.00     0.031 C 
ATOM     59  C   UNL     1      -7.852  10.320  -5.533  1.00  0.00     0.029 A 
ATOM     60  C   UNL     1      -7.367   9.854  -4.321  1.00  0.00     0.049 A 
ATOM     61  H   UNL     1      -6.568   7.959  -3.850  1.00  0.00     0.167 HD
ATOM     62  C   UNL     1      -6.790  10.021  -1.915  1.00  0.00     0.074 A 
ATOM     63  C   UNL     1      -6.695  10.739  -0.661  1.00  0.00     0.031 C 
ATOM     64  C   UNL     1      -7.276  10.553  -3.063  1.00  0.00     0.037 A 
BRANCH  51  65
ATOM     65  C   UNL     1      -7.143   6.692  -7.889  1.00  0.00     0.058 A 
ATOM     66  C   UNL     1      -8.191   5.869  -8.332  1.00  0.00     0.135 A 
ATOM     67  C   UNL     1      -6.371   7.349  -8.861  1.00  0.00     0.135 A 
ATOM     68  F   UNL     1      -8.949   5.204  -7.446  1.00  0.00    -0.206 F 
ATOM     69  C   UNL     1      -8.450   5.688  -9.687  1.00  0.00     0.059 A 
ATOM     70  C   UNL     1      -6.627   7.201 -10.221  1.00  0.00     0.059 A 
ATOM     71  F   UNL     1      -5.356   8.146  -8.492  1.00  0.00    -0.206 F 
ATOM     72  C   UNL     1      -7.661   6.358 -10.624  1.00  0.00     0.060 A 
BRANCH  72  73
ATOM     73  S   UNL     1      -8.013   6.119 -12.379  1.00  0.00     0.124 S 
ATOM     74  O   UNL     1      -7.504   4.768 -12.596  1.00  0.00    -0.237 OA
ATOM     75  O   UNL     1      -9.464   6.265 -12.430  1.00  0.00    -0.237 OA
ATOM     76  O   UNL     1      -7.256   7.186 -13.026  1.00  0.00    -0.744 OA
ENDBRANCH  72  73
ENDBRANCH  51  65
BRANCH  52  77
ATOM     77  C   UNL     1      -5.044   7.749   1.824  1.00  0.00     0.058 A 
ATOM     78  C   UNL     1      -6.044   7.916   2.792  1.00  0.00     0.135 A 
ATOM     79  C   UNL     1      -3.708   7.759   2.254  1.00  0.00     0.135 A 
ATOM     80  F   UNL     1      -7.335   7.925   2.429  1.00  0.00    -0.206 F 
ATOM     81  C   UNL     1      -5.733   8.103   4.136  1.00  0.00     0.059 A 
ATOM     82  C   UNL     1      -3.373   7.919   3.595  1.00  0.00     0.059 A 
ATOM     83  F   UNL     1      -2.714   7.593   1.368  1.00  0.00    -0.206 F 
ATOM     84  C   UNL     1      -4.393   8.101   4.527  1.00  0.00     0.060 A 
BRANCH  84  85
ATOM     85  S   UNL     1      -3.999   8.301   6.278  1.00  0.00     0.124 S 
ATOM     86  O   UNL     1      -4.250   9.724   6.475  1.00  0.00    -0.237 OA
ATOM     87  O   UNL     1      -4.947   7.391   6.913  1.00  0.00    -0.237 OA
ATOM     88  O   UNL     1      -2.600   7.890   6.356  1.00  0.00    -0.744 OA
ENDBRANCH  84  85
ENDBRANCH  52  77
BRANCH  64  89
ATOM     89  C   UNL     1      -7.783  11.968  -3.015  1.00  0.00     0.058 A 
ATOM     90  C   UNL     1      -6.909  13.064  -2.941  1.00  0.00     0.135 A 
ATOM     91  C   UNL     1      -9.159  12.232  -3.106  1.00  0.00     0.135 A 
ATOM     92  F   UNL     1      -5.584  12.866  -2.847  1.00  0.00    -0.206 F 
ATOM     93  C   UNL     1      -7.383  14.372  -2.937  1.00  0.00     0.059 A 
ATOM     94  C   UNL     1      -9.654  13.533  -3.129  1.00  0.00     0.059 A 
ATOM     95  F   UNL     1     -10.038  11.221  -3.190  1.00  0.00    -0.206 F 
ATOM     96  C   UNL     1      -8.758  14.597  -3.034  1.00  0.00     0.060 A 
BRANCH  96  97
ATOM     97  S   UNL     1      -9.359  16.299  -3.067  1.00  0.00     0.124 S 
ATOM     98  O   UNL     1      -9.213  16.689  -1.668  1.00  0.00    -0.237 OA
ATOM     99  O   UNL     1      -8.439  16.939  -4.003  1.00  0.00    -0.237 OA
ATOM    100  O   UNL     1     -10.733  16.165  -3.542  1.00  0.00    -0.744 OA
ENDBRANCH  96  97
ENDBRANCH  64  89
ENDBRANCH  38  39
ENDBRANCH  31  33
ENDBRANCH  30  31
ENDBRANCH  29  30
ENDBRANCH  28  29
ENDBRANCH  27  28
ENDBRANCH   1  27
TORSDOF 23
