REMARK SMILES CC(C)C[C@H](NC(=O)[C@H](Cc1ccccc1)NC(=O)CNC(=O)CNC(=O)OCc1ccccc1)C(=O)OCCOCCOC(=O)c1ccc(-c2c3nc(c(-c4c(F)cc(S(=O)(=O)[O-])cc4F)c4ccc([nH]4)c(-c4c(F)cc(S(=O)(=O)[O-])cc4F)c4nc(c(-c5c(F)cc(S(=O)(=O)[O-])cc5F)c5ccc2[nH]5)C=C4)C=C3)cc1
REMARK SMILES IDX 36 1 37 2 5 3 4 4 2 5 1 6 3 7 6 8 7 9 8 11 9 12 17 13 18 14
REMARK SMILES IDX 19 16 20 17 21 18 22 19 23 21 24 22 25 23 26 24 27 26 28 27
REMARK SMILES IDX 29 28 30 29 31 30 35 31 32 32 34 33 33 34 10 35 11 36 12 37
REMARK SMILES IDX 16 38 13 39 15 40 14 41 38 42 39 43 40 44 41 45 42 46 43 47
REMARK SMILES IDX 44 48 45 49 46 50 47 51 48 52 112 53 49 54 111 55 50 56
REMARK SMILES IDX 51 57 52 58 105 59 53 60 110 61 104 62 106 63 54 64 109 65
REMARK SMILES IDX 103 66 102 67 55 69 89 70 68 71 88 72 69 73 72 74 87 75
REMARK SMILES IDX 107 76 70 77 71 78 86 80 108 81 73 82 56 83 57 84 66 85
REMARK SMILES IDX 58 86 59 87 65 88 67 89 60 90 61 91 62 92 63 93 64 94 90 95
REMARK SMILES IDX 91 96 100 97 92 98 93 99 99 100 101 101 94 102 95 103 96 104
REMARK SMILES IDX 97 105 98 106 74 107 75 108 84 109 76 110 77 111 83 112
REMARK SMILES IDX 85 113 78 114 79 115 80 116 81 117 82 118
REMARK H PARENT 6 10 17 15 21 20 25 25 106 68 72 79
REMARK Flexibility Score: inf
ROOT
ATOM      1  C   UNL     1       1.625   5.254   0.623  1.00  0.00     0.328 C 
ATOM      2  O   UNL     1       1.166   5.741   1.647  1.00  0.00    -0.250 OA
ENDROOT
BRANCH   1   3
ATOM      3  C   UNL     1       1.597   3.756   0.314  1.00  0.00     0.192 C 
BRANCH   3   4
ATOM      4  C   UNL     1       3.033   3.236   0.287  1.00  0.00     0.040 C 
BRANCH   4   5
ATOM      5  C   UNL     1       4.216   3.964   0.949  1.00  0.00    -0.015 C 
ATOM      6  C   UNL     1       4.064   4.058   2.464  1.00  0.00     0.007 C 
ATOM      7  C   UNL     1       5.501   3.199   0.607  1.00  0.00     0.007 C 
ENDBRANCH   4   5
ENDBRANCH   3   4
BRANCH   3   8
ATOM      8  N   UNL     1       0.818   3.460  -0.914  1.00  0.00    -0.341 N 
ATOM      9  C   UNL     1       0.392   2.336  -1.563  1.00  0.00     0.243 C 
ATOM     10  H   UNL     1       0.536   4.281  -1.378  1.00  0.00     0.164 HD
ATOM     11  O   UNL     1      -0.546   2.517  -2.356  1.00  0.00    -0.273 OA
BRANCH   9  12
ATOM     12  C   UNL     1       1.111   0.944  -1.556  1.00  0.00     0.175 C 
BRANCH  12  13
ATOM     13  N   UNL     1       1.922   0.600  -0.390  1.00  0.00    -0.342 N 
ATOM     14  C   UNL     1       3.257   0.269  -0.323  1.00  0.00     0.240 C 
ATOM     15  H   UNL     1       1.446   0.606   0.471  1.00  0.00     0.164 HD
ATOM     16  O   UNL     1       3.657  -0.290   0.702  1.00  0.00    -0.273 OA
BRANCH  14  17
ATOM     17  C   UNL     1       4.242   0.594  -1.472  1.00  0.00     0.216 C 
BRANCH  17  18
ATOM     18  N   UNL     1       4.382  -0.457  -2.457  1.00  0.00    -0.346 N 
ATOM     19  C   UNL     1       4.303  -0.416  -3.818  1.00  0.00     0.239 C 
ATOM     20  H   UNL     1       4.564  -1.350  -2.083  1.00  0.00     0.164 HD
ATOM     21  O   UNL     1       4.193  -1.492  -4.411  1.00  0.00    -0.273 OA
BRANCH  19  22
ATOM     22  C   UNL     1       4.406   0.902  -4.594  1.00  0.00     0.219 C 
BRANCH  22  23
ATOM     23  N   UNL     1       3.289   1.773  -4.333  1.00  0.00    -0.312 N 
ATOM     24  C   UNL     1       3.338   2.982  -3.725  1.00  0.00     0.407 C 
ATOM     25  H   UNL     1       2.403   1.459  -4.625  1.00  0.00     0.167 HD
ATOM     26  O   UNL     1       2.294   3.491  -3.330  1.00  0.00    -0.225 OA
BRANCH  24  27
ATOM     27  O   UNL     1       4.586   3.483  -3.551  1.00  0.00    -0.445 OA
BRANCH  27  28
ATOM     28  C   UNL     1       4.661   4.880  -3.173  1.00  0.00     0.270 C 
BRANCH  28  29
ATOM     29  C   UNL     1       3.976   5.697  -4.239  1.00  0.00    -0.011 A 
ATOM     30  C   UNL     1       4.543   5.778  -5.515  1.00  0.00     0.007 A 
ATOM     31  C   UNL     1       2.640   6.075  -4.051  1.00  0.00     0.007 A 
ATOM     32  C   UNL     1       3.745   6.095  -6.609  1.00  0.00     0.000 A 
ATOM     33  C   UNL     1       1.827   6.294  -5.155  1.00  0.00     0.000 A 
ATOM     34  C   UNL     1       2.376   6.285  -6.436  1.00  0.00     0.000 A 
ENDBRANCH  28  29
ENDBRANCH  27  28
ENDBRANCH  24  27
ENDBRANCH  22  23
ENDBRANCH  19  22
ENDBRANCH  17  18
ENDBRANCH  14  17
ENDBRANCH  12  13
BRANCH  12  35
ATOM     35  C   UNL     1       0.057  -0.187  -1.899  1.00  0.00     0.070 C 
BRANCH  35  36
ATOM     36  C   UNL     1       0.374  -1.593  -1.411  1.00  0.00    -0.045 A 
ATOM     37  C   UNL     1      -0.588  -2.396  -0.795  1.00  0.00     0.004 A 
ATOM     38  C   UNL     1       1.667  -2.105  -1.508  1.00  0.00     0.004 A 
ATOM     39  C   UNL     1      -0.207  -3.570  -0.132  1.00  0.00     0.000 A 
ATOM     40  C   UNL     1       2.078  -3.208  -0.766  1.00  0.00     0.000 A 
ATOM     41  C   UNL     1       1.137  -3.935  -0.056  1.00  0.00     0.000 A 
ENDBRANCH  35  36
ENDBRANCH  12  35
ENDBRANCH   9  12
ENDBRANCH   3   8
ENDBRANCH   1   3
BRANCH   1  42
ATOM     42  O   UNL     1       2.339   5.929  -0.324  1.00  0.00    -0.462 OA
BRANCH  42  43
ATOM     43  C   UNL     1       2.821   7.224   0.076  1.00  0.00     0.261 C 
BRANCH  43  44
ATOM     44  C   UNL     1       1.964   8.335  -0.502  1.00  0.00     0.202 C 
BRANCH  44  45
ATOM     45  O   UNL     1       0.621   8.342  -0.024  1.00  0.00    -0.374 OA
BRANCH  45  46
ATOM     46  C   UNL     1      -0.287   7.517  -0.754  1.00  0.00     0.202 C 
BRANCH  46  47
ATOM     47  C   UNL     1      -0.932   8.194  -1.966  1.00  0.00     0.261 C 
BRANCH  47  48
ATOM     48  O   UNL     1       0.025   8.489  -2.998  1.00  0.00    -0.460 OA
BRANCH  48  49
ATOM     49  C   UNL     1       0.567   9.737  -2.971  1.00  0.00     0.338 C 
ATOM     50  O   UNL     1       0.304  10.639  -2.197  1.00  0.00    -0.246 OA
BRANCH  49  51
ATOM     51  C   UNL     1       1.678   9.782  -3.944  1.00  0.00     0.060 A 
ATOM     52  C   UNL     1       2.959  10.177  -3.537  1.00  0.00     0.016 A 
ATOM     53  C   UNL     1       1.455   9.406  -5.261  1.00  0.00     0.016 A 
ATOM     54  C   UNL     1       4.021  10.200  -4.457  1.00  0.00     0.010 A 
ATOM     55  C   UNL     1       2.528   9.382  -6.154  1.00  0.00     0.010 A 
ATOM     56  C   UNL     1       3.821   9.807  -5.788  1.00  0.00    -0.014 A 
BRANCH  56  57
ATOM     57  C   UNL     1       4.870   9.950  -6.854  1.00  0.00     0.031 A 
ATOM     58  C   UNL     1       4.522  10.734  -8.105  1.00  0.00     0.074 A 
ATOM     59  C   UNL     1       6.088   9.367  -6.781  1.00  0.00     0.049 A 
ATOM     60  N   UNL     1       5.189  10.863  -9.225  1.00  0.00    -0.248 NA
ATOM     61  C   UNL     1       3.217  11.419  -8.114  1.00  0.00     0.031 C 
ATOM     62  C   UNL     1       6.591   8.555  -5.674  1.00  0.00     0.029 A 
ATOM     63  N   UNL     1       7.129   9.356  -7.687  1.00  0.00    -0.354 N 
ATOM     64  C   UNL     1       4.365  11.604 -10.067  1.00  0.00     0.074 A 
ATOM     65  C   UNL     1       3.107  11.778  -9.381  1.00  0.00     0.031 C 
ATOM     66  C   UNL     1       7.834   8.126  -5.963  1.00  0.00     0.029 A 
ATOM     67  C   UNL     1       8.220   8.618  -7.285  1.00  0.00     0.049 A 
ATOM     68  H   UNL     1       7.095   9.835  -8.546  1.00  0.00     0.167 HD
ATOM     69  C   UNL     1       4.638  12.166 -11.268  1.00  0.00     0.037 A 
ATOM     70  C   UNL     1       9.395   8.366  -7.901  1.00  0.00     0.037 A 
ATOM     71  C   UNL     1       5.911  12.086 -11.925  1.00  0.00     0.049 A 
ATOM     72  C   UNL     1       9.684   8.983  -9.250  1.00  0.00     0.074 A 
ATOM     73  C   UNL     1       6.310  12.697 -13.100  1.00  0.00     0.029 A 
ATOM     74  N   UNL     1       6.997  11.364 -11.458  1.00  0.00    -0.354 N 
ATOM     75  N   UNL     1       8.918   9.748  -9.990  1.00  0.00    -0.248 NA
ATOM     76  C   UNL     1      11.009   8.722  -9.837  1.00  0.00     0.031 C 
ATOM     77  C   UNL     1       7.625  12.307 -13.369  1.00  0.00     0.029 A 
ATOM     78  C   UNL     1       8.062  11.500 -12.331  1.00  0.00     0.049 A 
ATOM     79  H   UNL     1       7.009  10.833 -10.629  1.00  0.00     0.167 HD
ATOM     80  C   UNL     1       9.688  10.103 -11.097  1.00  0.00     0.074 A 
ATOM     81  C   UNL     1      10.976   9.467 -10.933  1.00  0.00     0.031 C 
ATOM     82  C   UNL     1       9.356  10.893 -12.149  1.00  0.00     0.037 A 
BRANCH  69  83
ATOM     83  C   UNL     1       3.542  12.968 -11.920  1.00  0.00     0.058 A 
ATOM     84  C   UNL     1       3.075  14.169 -11.357  1.00  0.00     0.135 A 
ATOM     85  C   UNL     1       2.954  12.536 -13.119  1.00  0.00     0.135 A 
ATOM     86  F   UNL     1       3.591  14.621 -10.202  1.00  0.00    -0.206 F 
ATOM     87  C   UNL     1       2.029  14.882 -11.928  1.00  0.00     0.059 A 
ATOM     88  C   UNL     1       1.934  13.258 -13.732  1.00  0.00     0.059 A 
ATOM     89  F   UNL     1       3.364  11.400 -13.704  1.00  0.00    -0.206 F 
ATOM     90  C   UNL     1       1.465  14.418 -13.116  1.00  0.00     0.060 A 
BRANCH  90  91
ATOM     91  S   UNL     1       0.107  15.359 -13.841  1.00  0.00     0.124 S 
ATOM     92  O   UNL     1      -0.979  15.066 -12.910  1.00  0.00    -0.237 OA
ATOM     93  O   UNL     1       0.621  16.724 -13.804  1.00  0.00    -0.237 OA
ATOM     94  O   UNL     1      -0.035  14.780 -15.173  1.00  0.00    -0.744 OA
ENDBRANCH  90  91
ENDBRANCH  69  83
BRANCH  70  95
ATOM     95  C   UNL     1      10.434   7.526  -7.236  1.00  0.00     0.058 A 
ATOM     96  C   UNL     1      11.626   8.098  -6.762  1.00  0.00     0.135 A 
ATOM     97  C   UNL     1      10.277   6.139  -7.088  1.00  0.00     0.135 A 
ATOM     98  F   UNL     1      11.834   9.417  -6.892  1.00  0.00    -0.206 F 
ATOM     99  C   UNL     1      12.633   7.327  -6.189  1.00  0.00     0.059 A 
ATOM    100  C   UNL     1      11.260   5.349  -6.495  1.00  0.00     0.059 A 
ATOM    101  F   UNL     1       9.153   5.540  -7.513  1.00  0.00    -0.206 F 
ATOM    102  C   UNL     1      12.439   5.951  -6.056  1.00  0.00     0.060 A 
BRANCH 102 103
ATOM    103  S   UNL     1      13.733   4.970  -5.264  1.00  0.00     0.124 S 
ATOM    104  O   UNL     1      14.794   5.016  -6.263  1.00  0.00    -0.237 OA
ATOM    105  O   UNL     1      13.975   5.724  -4.038  1.00  0.00    -0.237 OA
ATOM    106  O   UNL     1      13.098   3.669  -5.076  1.00  0.00    -0.744 OA
ENDBRANCH 102 103
ENDBRANCH  70  95
BRANCH  82 107
ATOM    107  C   UNL     1      10.409  11.182 -13.185  1.00  0.00     0.058 A 
ATOM    108  C   UNL     1      10.848  10.209 -14.094  1.00  0.00     0.135 A 
ATOM    109  C   UNL     1      10.921  12.485 -13.324  1.00  0.00     0.135 A 
ATOM    110  F   UNL     1      10.394   8.948 -14.006  1.00  0.00    -0.206 F 
ATOM    111  C   UNL     1      11.768  10.510 -15.095  1.00  0.00     0.059 A 
ATOM    112  C   UNL     1      11.817  12.816 -14.336  1.00  0.00     0.059 A 
ATOM    113  F   UNL     1      10.527  13.459 -12.489  1.00  0.00    -0.206 F 
ATOM    114  C   UNL     1      12.241  11.819 -15.212  1.00  0.00     0.060 A 
BRANCH 114 115
ATOM    115  S   UNL     1      13.392  12.205 -16.548  1.00  0.00     0.124 S 
ATOM    116  O   UNL     1      14.607  11.536 -16.093  1.00  0.00    -0.237 OA
ATOM    117  O   UNL     1      12.735  11.609 -17.707  1.00  0.00    -0.237 OA
ATOM    118  O   UNL     1      13.442  13.664 -16.544  1.00  0.00    -0.744 OA
ENDBRANCH 114 115
ENDBRANCH  82 107
ENDBRANCH  56  57
ENDBRANCH  49  51
ENDBRANCH  48  49
ENDBRANCH  47  48
ENDBRANCH  46  47
ENDBRANCH  45  46
ENDBRANCH  44  45
ENDBRANCH  43  44
ENDBRANCH  42  43
ENDBRANCH   1  42
TORSDOF 31
