REMARK SMILES O=C(Cc1ccn[nH]1)Nc1sc2c(c1C(=O)OCCOCCOC(=O)c1ccc(-c3c4nc(c(-c5c(F)cc(S(=O)(=O)[O-])cc5F)c5ccc([nH]5)c(-c5c(F)cc(S(=O)(=O)[O-])cc5F)c5nc(c(-c6c(F)cc(S(=O)(=O)[O-])cc6F)c6ccc3[nH]6)C=C5)C=C4)cc1)CCC2
REMARK SMILES IDX 20 1 19 2 18 3 17 4 15 5 16 6 14 7 10 8 11 9 12 10 13 11
REMARK SMILES IDX 94 12 92 13 93 14 9 15 1 16 2 17 3 19 4 20 5 21 8 22 6 23
REMARK SMILES IDX 7 24 21 26 22 27 23 28 24 29 25 30 26 31 27 32 91 33 28 34
REMARK SMILES IDX 90 35 29 36 30 37 31 38 84 39 32 40 89 41 83 42 85 43 33 44
REMARK SMILES IDX 88 45 82 46 81 47 34 49 68 50 47 51 67 52 48 53 51 54 66 55
REMARK SMILES IDX 86 56 49 57 50 58 65 60 87 61 52 62 35 63 36 64 45 65 37 66
REMARK SMILES IDX 38 67 44 68 46 69 39 70 40 71 41 72 42 73 43 74 69 75 70 76
REMARK SMILES IDX 79 77 71 78 72 79 78 80 80 81 73 82 74 83 75 84 76 85 77 86
REMARK SMILES IDX 53 87 54 88 63 89 55 90 56 91 62 92 64 93 57 94 58 95 59 96
REMARK SMILES IDX 60 97 61 98
REMARK H PARENT 9 18 8 25 85 48 51 59
REMARK Flexibility Score: inf
ROOT
ATOM      1  O   UNL     1      -0.908   2.489   0.813  1.00  0.00    -0.374 OA
ENDROOT
BRANCH   1   2
ATOM      2  C   UNL     1      -1.487   3.399  -0.118  1.00  0.00     0.202 C 
BRANCH   2   3
ATOM      3  C   UNL     1      -0.644   3.906  -1.293  1.00  0.00     0.261 C 
BRANCH   3   4
ATOM      4  O   UNL     1      -0.213   2.865  -2.189  1.00  0.00    -0.460 OA
BRANCH   4   5
ATOM      5  C   UNL     1       1.101   2.506  -2.072  1.00  0.00     0.341 C 
ATOM      6  O   UNL     1       1.907   3.076  -1.342  1.00  0.00    -0.246 OA
BRANCH   5   7
ATOM      7  C   UNL     1       1.456   1.325  -2.853  1.00  0.00     0.098 A 
ATOM      8  C   UNL     1       2.461   0.435  -2.480  1.00  0.00     0.110 A 
ATOM      9  S   UNL     1       2.952  -0.620  -3.732  1.00  0.00    -0.122 S 
ATOM     10  C   UNL     1       1.667  -0.101  -4.666  1.00  0.00     0.011 A 
ATOM     11  C   UNL     1       0.918   0.895  -4.098  1.00  0.00    -0.017 A 
ATOM     12  C   UNL     1       1.236  -0.489  -6.026  1.00  0.00     0.047 C 
ATOM     13  C   UNL     1      -0.185   1.311  -5.005  1.00  0.00     0.038 C 
ATOM     14  C   UNL     1      -0.161   0.195  -6.101  1.00  0.00     0.010 C 
BRANCH   8  15
ATOM     15  N   UNL     1       3.127   0.246  -1.285  1.00  0.00    -0.317 N 
ATOM     16  O   UNL     1       1.327  -0.844  -0.322  1.00  0.00    -0.274 OA
ATOM     17  C   UNL     1       2.420  -0.289  -0.220  1.00  0.00     0.230 C 
ATOM     18  H   UNL     1       4.078   0.486  -1.192  1.00  0.00     0.170 HD
BRANCH  17  19
ATOM     19  C   UNL     1       3.149  -0.242   1.113  1.00  0.00     0.155 C 
BRANCH  19  20
ATOM     20  C   UNL     1       3.923  -1.497   1.281  1.00  0.00     0.044 A 
ATOM     21  C   UNL     1       3.519  -2.812   1.382  1.00  0.00     0.045 A 
ATOM     22  N   UNL     1       5.287  -1.524   1.339  1.00  0.00    -0.282 N 
ATOM     23  C   UNL     1       4.714  -3.549   1.405  1.00  0.00     0.135 A 
ATOM     24  N   UNL     1       5.795  -2.765   1.376  1.00  0.00    -0.184 NA
ATOM     25  H   UNL     1       5.844  -0.712   1.353  1.00  0.00     0.190 HD
ENDBRANCH  19  20
ENDBRANCH  17  19
ENDBRANCH   8  15
ENDBRANCH   5   7
ENDBRANCH   4   5
ENDBRANCH   3   4
ENDBRANCH   2   3
ENDBRANCH   1   2
BRANCH   1  26
ATOM     26  C   UNL     1      -0.519   1.196   0.375  1.00  0.00     0.202 C 
BRANCH  26  27
ATOM     27  C   UNL     1      -1.543   0.189  -0.133  1.00  0.00     0.261 C 
BRANCH  27  28
ATOM     28  O   UNL     1      -2.517   0.737  -1.004  1.00  0.00    -0.460 OA
BRANCH  28  29
ATOM     29  C   UNL     1      -3.660   1.056  -0.366  1.00  0.00     0.338 C 
ATOM     30  O   UNL     1      -3.784   1.360   0.822  1.00  0.00    -0.246 OA
BRANCH  29  31
ATOM     31  C   UNL     1      -4.785   0.811  -1.262  1.00  0.00     0.060 A 
ATOM     32  C   UNL     1      -6.050   1.209  -0.842  1.00  0.00     0.016 A 
ATOM     33  C   UNL     1      -4.620  -0.038  -2.363  1.00  0.00     0.016 A 
ATOM     34  C   UNL     1      -7.141   0.508  -1.326  1.00  0.00     0.010 A 
ATOM     35  C   UNL     1      -5.720  -0.674  -2.889  1.00  0.00     0.010 A 
ATOM     36  C   UNL     1      -6.951  -0.535  -2.257  1.00  0.00    -0.014 A 
BRANCH  36  37
ATOM     37  C   UNL     1      -8.098  -1.213  -2.868  1.00  0.00     0.031 A 
ATOM     38  C   UNL     1      -8.813  -0.177  -3.672  1.00  0.00     0.074 A 
ATOM     39  C   UNL     1      -8.406  -2.540  -2.779  1.00  0.00     0.049 A 
ATOM     40  N   UNL     1      -9.848   0.482  -3.265  1.00  0.00    -0.248 NA
ATOM     41  C   UNL     1      -8.141   0.485  -4.815  1.00  0.00     0.031 C 
ATOM     42  C   UNL     1      -7.695  -3.631  -2.093  1.00  0.00     0.029 A 
ATOM     43  N   UNL     1      -9.466  -3.234  -3.341  1.00  0.00    -0.354 N 
ATOM     44  C   UNL     1     -10.173   1.330  -4.313  1.00  0.00     0.074 A 
ATOM     45  C   UNL     1      -8.962   1.513  -5.054  1.00  0.00     0.031 C 
ATOM     46  C   UNL     1      -8.161  -4.840  -2.510  1.00  0.00     0.029 A 
ATOM     47  C   UNL     1      -9.294  -4.648  -3.396  1.00  0.00     0.049 A 
ATOM     48  H   UNL     1     -10.275  -2.784  -3.676  1.00  0.00     0.167 HD
ATOM     49  C   UNL     1     -11.478   1.431  -4.681  1.00  0.00     0.037 A 
ATOM     50  C   UNL     1     -10.076  -5.563  -4.074  1.00  0.00     0.037 A 
ATOM     51  C   UNL     1     -12.318   0.955  -3.602  1.00  0.00     0.049 A 
ATOM     52  C   UNL     1     -11.395  -4.899  -4.291  1.00  0.00     0.074 A 
ATOM     53  C   UNL     1     -12.460   1.281  -2.266  1.00  0.00     0.029 A 
ATOM     54  N   UNL     1     -12.796  -0.324  -3.744  1.00  0.00    -0.354 N 
ATOM     55  N   UNL     1     -12.191  -4.601  -3.297  1.00  0.00    -0.248 NA
ATOM     56  C   UNL     1     -11.470  -4.034  -5.462  1.00  0.00     0.031 C 
ATOM     57  C   UNL     1     -12.589   0.032  -1.592  1.00  0.00     0.029 A 
ATOM     58  C   UNL     1     -12.695  -0.978  -2.546  1.00  0.00     0.049 A 
ATOM     59  H   UNL     1     -13.155  -0.709  -4.575  1.00  0.00     0.167 HD
ATOM     60  C   UNL     1     -12.467  -3.258  -3.493  1.00  0.00     0.074 A 
ATOM     61  C   UNL     1     -11.977  -2.961  -4.847  1.00  0.00     0.031 C 
ATOM     62  C   UNL     1     -12.733  -2.418  -2.448  1.00  0.00     0.037 A 
BRANCH  49  63
ATOM     63  C   UNL     1     -11.956   1.427  -6.119  1.00  0.00     0.058 A 
ATOM     64  C   UNL     1     -13.342   1.547  -6.354  1.00  0.00     0.135 A 
ATOM     65  C   UNL     1     -11.189   1.026  -7.238  1.00  0.00     0.135 A 
ATOM     66  F   UNL     1     -14.174   1.904  -5.362  1.00  0.00    -0.206 F 
ATOM     67  C   UNL     1     -13.926   1.237  -7.580  1.00  0.00     0.059 A 
ATOM     68  C   UNL     1     -11.746   0.758  -8.484  1.00  0.00     0.059 A 
ATOM     69  F   UNL     1      -9.873   0.801  -7.173  1.00  0.00    -0.206 F 
ATOM     70  C   UNL     1     -13.118   0.849  -8.642  1.00  0.00     0.060 A 
BRANCH  70  71
ATOM     71  S   UNL     1     -13.878   0.499 -10.234  1.00  0.00     0.124 S 
ATOM     72  O   UNL     1     -14.671  -0.686  -9.932  1.00  0.00    -0.237 OA
ATOM     73  O   UNL     1     -14.628   1.728 -10.475  1.00  0.00    -0.237 OA
ATOM     74  O   UNL     1     -12.733   0.289 -11.115  1.00  0.00    -0.744 OA
ENDBRANCH  70  71
ENDBRANCH  49  63
BRANCH  50  75
ATOM     75  C   UNL     1      -9.674  -6.758  -4.914  1.00  0.00     0.058 A 
ATOM     76  C   UNL     1     -10.597  -7.594  -5.602  1.00  0.00     0.135 A 
ATOM     77  C   UNL     1      -8.338  -6.907  -5.319  1.00  0.00     0.135 A 
ATOM     78  F   UNL     1     -11.905  -7.556  -5.296  1.00  0.00    -0.206 F 
ATOM     79  C   UNL     1     -10.221  -8.444  -6.671  1.00  0.00     0.059 A 
ATOM     80  C   UNL     1      -7.945  -7.735  -6.375  1.00  0.00     0.059 A 
ATOM     81  F   UNL     1      -7.370  -6.172  -4.759  1.00  0.00    -0.206 F 
ATOM     82  C   UNL     1      -8.889  -8.474  -7.076  1.00  0.00     0.060 A 
BRANCH  82  83
ATOM     83  S   UNL     1      -8.383  -9.343  -8.593  1.00  0.00     0.124 S 
ATOM     84  O   UNL     1      -8.550 -10.744  -8.223  1.00  0.00    -0.237 OA
ATOM     85  O   UNL     1      -9.324  -8.828  -9.581  1.00  0.00    -0.237 OA
ATOM     86  O   UNL     1      -6.998  -8.912  -8.780  1.00  0.00    -0.744 OA
ENDBRANCH  82  83
ENDBRANCH  50  75
BRANCH  62  87
ATOM     87  C   UNL     1     -13.000  -2.985  -1.079  1.00  0.00     0.058 A 
ATOM     88  C   UNL     1     -12.083  -3.691  -0.278  1.00  0.00     0.135 A 
ATOM     89  C   UNL     1     -14.218  -2.623  -0.485  1.00  0.00     0.135 A 
ATOM     90  F   UNL     1     -10.849  -3.971  -0.727  1.00  0.00    -0.206 F 
ATOM     91  C   UNL     1     -12.394  -4.066   1.036  1.00  0.00     0.059 A 
ATOM     92  C   UNL     1     -14.533  -2.951   0.825  1.00  0.00     0.059 A 
ATOM     93  F   UNL     1     -15.106  -1.883  -1.169  1.00  0.00    -0.206 F 
ATOM     94  C   UNL     1     -13.630  -3.696   1.575  1.00  0.00     0.060 A 
BRANCH  94  95
ATOM     95  S   UNL     1     -14.063  -4.178   3.261  1.00  0.00     0.124 S 
ATOM     96  O   UNL     1     -14.157  -5.630   3.148  1.00  0.00    -0.237 OA
ATOM     97  O   UNL     1     -12.934  -3.672   4.035  1.00  0.00    -0.237 OA
ATOM     98  O   UNL     1     -15.330  -3.490   3.499  1.00  0.00    -0.744 OA
ENDBRANCH  94  95
ENDBRANCH  62  87
ENDBRANCH  36  37
ENDBRANCH  29  31
ENDBRANCH  28  29
ENDBRANCH  27  28
ENDBRANCH  26  27
ENDBRANCH   1  26
TORSDOF 20
