REMARK SMILES Cc1ncc(CC(=O)N2CCC(Cc3cccc(C(=O)OCCOCCOC(=O)c4ccc(-c5c6nc(c(-c7c(F)cc(S(=O)(=O)[O-])cc7F)c7ccc([nH]7)c(-c7c(F)cc(S(=O)(=O)[O-])cc7F)c7nc(c(-c8c(F)cc(S(=O)(=O)[O-])cc8F)c8ccc5[nH]8)C=C7)C=C6)cc4)c3)CC2)c(=O)[nH]1
REMARK SMILES IDX 23 1 22 2 21 3 19 4 20 5 18 6 14 7 15 8 96 9 16 10 17 11
REMARK SMILES IDX 13 12 12 13 7 14 8 15 9 16 10 17 98 18 11 19 97 20 6 21 5 22
REMARK SMILES IDX 1 23 2 24 3 25 101 26 4 27 99 28 100 30 24 31 25 32 26 33
REMARK SMILES IDX 27 34 28 35 29 36 30 37 31 38 95 39 32 40 94 41 33 42 34 43
REMARK SMILES IDX 35 44 88 45 36 46 93 47 87 48 89 49 37 50 92 51 86 52 85 53
REMARK SMILES IDX 38 55 72 56 51 57 71 58 52 59 55 60 70 61 90 62 53 63 54 64
REMARK SMILES IDX 69 66 91 67 56 68 39 69 40 70 49 71 41 72 42 73 48 74 50 75
REMARK SMILES IDX 43 76 44 77 45 78 46 79 47 80 73 81 74 82 83 83 75 84 76 85
REMARK SMILES IDX 82 86 84 87 77 88 78 89 79 90 80 91 81 92 57 93 58 94 67 95
REMARK SMILES IDX 59 96 60 97 66 98 68 99 61 100 62 101 63 102 64 103 65 104
REMARK H PARENT 101 29 89 54 55 65
REMARK Flexibility Score: inf
ROOT
ATOM      1  C   UNL     1      -0.227   4.050  11.782  1.00  0.00     0.202 C 
ENDROOT
BRANCH   1   2
ATOM      2  C   UNL     1       0.662   4.702  10.717  1.00  0.00     0.261 C 
BRANCH   2   3
ATOM      3  O   UNL     1       1.229   3.713   9.844  1.00  0.00    -0.460 OA
BRANCH   3   4
ATOM      4  C   UNL     1       2.560   3.504   9.985  1.00  0.00     0.338 C 
ATOM      5  O   UNL     1       3.341   4.172  10.648  1.00  0.00    -0.246 OA
BRANCH   4   6
ATOM      6  C   UNL     1       2.934   2.215   9.353  1.00  0.00     0.060 A 
ATOM      7  C   UNL     1       2.636   0.476   7.677  1.00  0.00    -0.047 A 
ATOM      8  C   UNL     1       3.704  -0.231   8.247  1.00  0.00     0.004 A 
ATOM      9  C   UNL     1       2.225   1.681   8.271  1.00  0.00     0.019 A 
ATOM     10  C   UNL     1       4.383   0.278   9.355  1.00  0.00     0.001 A 
ATOM     11  C   UNL     1       4.011   1.508   9.895  1.00  0.00     0.016 A 
BRANCH   7  12
ATOM     12  C   UNL     1       1.970  -0.036   6.417  1.00  0.00     0.039 C 
BRANCH  12  13
ATOM     13  C   UNL     1       1.851   1.042   5.322  1.00  0.00    -0.003 C 
ATOM     14  C   UNL     1       2.947   1.928   1.447  1.00  0.00     0.227 C 
ATOM     15  O   UNL     1       4.183   1.874   1.390  1.00  0.00    -0.275 OA
ATOM     16  N   UNL     1       2.303   2.103   2.665  1.00  0.00    -0.342 N 
ATOM     17  C   UNL     1       3.079   2.622   3.787  1.00  0.00     0.120 C 
ATOM     18  C   UNL     1       0.971   1.626   3.038  1.00  0.00     0.120 C 
ATOM     19  C   UNL     1       3.231   1.574   4.883  1.00  0.00     0.025 C 
ATOM     20  C   UNL     1       1.089   0.521   4.095  1.00  0.00     0.025 C 
BRANCH  14  21
ATOM     21  C   UNL     1       2.163   2.060   0.133  1.00  0.00     0.143 C 
BRANCH  21  22
ATOM     22  C   UNL     1       0.983   1.180  -0.084  1.00  0.00     0.045 A 
ATOM     23  C   UNL     1      -2.408  -1.338  -0.126  1.00  0.00     0.087 C 
ATOM     24  C   UNL     1      -1.230  -0.413  -0.170  1.00  0.00     0.105 A 
ATOM     25  N   UNL     1      -1.392   0.861  -0.308  1.00  0.00    -0.243 NA
ATOM     26  N   UNL     1      -0.005  -1.004  -0.044  1.00  0.00    -0.311 N 
ATOM     27  C   UNL     1      -0.266   1.637  -0.263  1.00  0.00     0.123 A 
ATOM     28  C   UNL     1       1.155  -0.285  -0.028  1.00  0.00     0.254 A 
ATOM     29  H   UNL     1       0.043  -1.984   0.039  1.00  0.00     0.171 HD
ATOM     30  O   UNL     1       2.252  -0.823   0.054  1.00  0.00    -0.269 OA
ENDBRANCH  21  22
ENDBRANCH  14  21
ENDBRANCH  12  13
ENDBRANCH   7  12
ENDBRANCH   4   6
ENDBRANCH   3   4
ENDBRANCH   2   3
ENDBRANCH   1   2
BRANCH   1  31
ATOM     31  O   UNL     1       0.414   3.166  12.703  1.00  0.00    -0.374 OA
BRANCH  31  32
ATOM     32  C   UNL     1       0.687   1.838  12.254  1.00  0.00     0.202 C 
BRANCH  32  33
ATOM     33  C   UNL     1      -0.481   0.845  12.238  1.00  0.00     0.261 C 
BRANCH  33  34
ATOM     34  O   UNL     1      -1.513   1.219  11.309  1.00  0.00    -0.460 OA
BRANCH  34  35
ATOM     35  C   UNL     1      -2.639   1.704  11.884  1.00  0.00     0.338 C 
ATOM     36  O   UNL     1      -2.878   1.791  13.080  1.00  0.00    -0.246 OA
BRANCH  35  37
ATOM     37  C   UNL     1      -3.510   2.299  10.855  1.00  0.00     0.060 A 
ATOM     38  C   UNL     1      -3.919   3.626  11.040  1.00  0.00     0.016 A 
ATOM     39  C   UNL     1      -3.971   1.558   9.766  1.00  0.00     0.016 A 
ATOM     40  C   UNL     1      -4.827   4.205  10.158  1.00  0.00     0.010 A 
ATOM     41  C   UNL     1      -4.888   2.139   8.885  1.00  0.00     0.010 A 
ATOM     42  C   UNL     1      -5.345   3.454   9.094  1.00  0.00    -0.014 A 
BRANCH  42  43
ATOM     43  C   UNL     1      -6.450   4.003   8.272  1.00  0.00     0.031 A 
ATOM     44  C   UNL     1      -7.853   3.519   8.510  1.00  0.00     0.074 A 
ATOM     45  C   UNL     1      -6.203   4.926   7.326  1.00  0.00     0.049 A 
ATOM     46  N   UNL     1      -8.953   3.821   7.872  1.00  0.00    -0.248 NA
ATOM     47  C   UNL     1      -8.039   2.560   9.611  1.00  0.00     0.031 C 
ATOM     48  C   UNL     1      -4.889   5.490   7.021  1.00  0.00     0.029 A 
ATOM     49  N   UNL     1      -7.048   5.540   6.435  1.00  0.00    -0.354 N 
ATOM     50  C   UNL     1      -9.960   3.079   8.479  1.00  0.00     0.074 A 
ATOM     51  C   UNL     1      -9.333   2.292   9.521  1.00  0.00     0.031 C 
ATOM     52  C   UNL     1      -5.011   6.353   5.999  1.00  0.00     0.029 A 
ATOM     53  C   UNL     1      -6.404   6.375   5.555  1.00  0.00     0.049 A 
ATOM     54  H   UNL     1      -8.021   5.395   6.428  1.00  0.00     0.167 HD
ATOM     55  C   UNL     1     -11.284   3.058   8.196  1.00  0.00     0.037 A 
ATOM     56  C   UNL     1      -6.878   7.056   4.492  1.00  0.00     0.037 A 
ATOM     57  C   UNL     1     -11.898   3.850   7.160  1.00  0.00     0.049 A 
ATOM     58  C   UNL     1      -8.346   6.985   4.164  1.00  0.00     0.074 A 
ATOM     59  C   UNL     1     -13.238   3.937   6.825  1.00  0.00     0.029 A 
ATOM     60  N   UNL     1     -11.212   4.677   6.281  1.00  0.00    -0.354 N 
ATOM     61  N   UNL     1      -9.295   6.315   4.774  1.00  0.00    -0.248 NA
ATOM     62  C   UNL     1      -8.809   7.766   3.009  1.00  0.00     0.031 C 
ATOM     63  C   UNL     1     -13.355   4.767   5.705  1.00  0.00     0.029 A 
ATOM     64  C   UNL     1     -12.096   5.248   5.380  1.00  0.00     0.049 A 
ATOM     65  H   UNL     1     -10.241   4.834   6.296  1.00  0.00     0.167 HD
ATOM     66  C   UNL     1     -10.470   6.607   4.089  1.00  0.00     0.074 A 
ATOM     67  C   UNL     1     -10.114   7.527   3.027  1.00  0.00     0.031 C 
ATOM     68  C   UNL     1     -11.729   6.159   4.322  1.00  0.00     0.037 A 
BRANCH  55  69
ATOM     69  C   UNL     1     -12.153   2.120   8.990  1.00  0.00     0.058 A 
ATOM     70  C   UNL     1     -12.435   2.334  10.349  1.00  0.00     0.135 A 
ATOM     71  C   UNL     1     -12.729   0.998   8.372  1.00  0.00     0.135 A 
ATOM     72  F   UNL     1     -11.900   3.382  10.995  1.00  0.00    -0.206 F 
ATOM     73  C   UNL     1     -13.226   1.448  11.075  1.00  0.00     0.059 A 
ATOM     74  C   UNL     1     -13.548   0.116   9.071  1.00  0.00     0.059 A 
ATOM     75  F   UNL     1     -12.493   0.745   7.075  1.00  0.00    -0.206 F 
ATOM     76  C   UNL     1     -13.775   0.340  10.428  1.00  0.00     0.060 A 
BRANCH  76  77
ATOM     77  S   UNL     1     -14.786  -0.808  11.386  1.00  0.00     0.124 S 
ATOM     78  O   UNL     1     -13.775  -1.473  12.203  1.00  0.00    -0.237 OA
ATOM     79  O   UNL     1     -15.686   0.091  12.101  1.00  0.00    -0.237 OA
ATOM     80  O   UNL     1     -15.416  -1.641  10.367  1.00  0.00    -0.744 OA
ENDBRANCH  76  77
ENDBRANCH  55  69
BRANCH  56  81
ATOM     81  C   UNL     1      -5.939   7.848   3.654  1.00  0.00     0.058 A 
ATOM     82  C   UNL     1      -5.959   9.249   3.661  1.00  0.00     0.135 A 
ATOM     83  C   UNL     1      -4.973   7.211   2.857  1.00  0.00     0.135 A 
ATOM     84  F   UNL     1      -6.871   9.903   4.396  1.00  0.00    -0.206 F 
ATOM     85  C   UNL     1      -5.054   9.994   2.911  1.00  0.00     0.059 A 
ATOM     86  C   UNL     1      -4.042   7.933   2.119  1.00  0.00     0.059 A 
ATOM     87  F   UNL     1      -4.905   5.871   2.825  1.00  0.00    -0.206 F 
ATOM     88  C   UNL     1      -4.093   9.325   2.150  1.00  0.00     0.060 A 
BRANCH  88  89
ATOM     89  S   UNL     1      -2.868  10.300   1.250  1.00  0.00     0.124 S 
ATOM     90  O   UNL     1      -3.674  10.862   0.172  1.00  0.00    -0.237 OA
ATOM     91  O   UNL     1      -2.419  11.242   2.270  1.00  0.00    -0.237 OA
ATOM     92  O   UNL     1      -1.878   9.306   0.848  1.00  0.00    -0.744 OA
ENDBRANCH  88  89
ENDBRANCH  56  81
BRANCH  68  93
ATOM     93  C   UNL     1     -12.828   6.669   3.428  1.00  0.00     0.058 A 
ATOM     94  C   UNL     1     -12.950   6.251   2.094  1.00  0.00     0.135 A 
ATOM     95  C   UNL     1     -13.809   7.539   3.933  1.00  0.00     0.135 A 
ATOM     96  F   UNL     1     -12.037   5.426   1.558  1.00  0.00    -0.206 F 
ATOM     97  C   UNL     1     -13.995   6.691   1.286  1.00  0.00     0.059 A 
ATOM     98  C   UNL     1     -14.878   7.968   3.153  1.00  0.00     0.059 A 
ATOM     99  F   UNL     1     -13.747   7.962   5.205  1.00  0.00    -0.206 F 
ATOM    100  C   UNL     1     -14.957   7.547   1.827  1.00  0.00     0.060 A 
BRANCH 100 101
ATOM    101  S   UNL     1     -16.328   8.078   0.779  1.00  0.00     0.124 S 
ATOM    102  O   UNL     1     -15.665   9.014  -0.123  1.00  0.00    -0.237 OA
ATOM    103  O   UNL     1     -16.767   6.822   0.180  1.00  0.00    -0.237 OA
ATOM    104  O   UNL     1     -17.267   8.677   1.725  1.00  0.00    -0.744 OA
ENDBRANCH 100 101
ENDBRANCH  68  93
ENDBRANCH  42  43
ENDBRANCH  35  37
ENDBRANCH  34  35
ENDBRANCH  33  34
ENDBRANCH  32  33
ENDBRANCH  31  32
ENDBRANCH   1  31
TORSDOF 21
