REMARK SMILES O=C(OCCOCCOC(=O)c1ccccc1Nc1nc(Cl)nc(Nc2ccc(N3CCOCC3=O)cc2)n1)c1ccc(-c2c3nc(c(-c4c(F)cc(S(=O)(=O)[O-])cc4F)c4ccc([nH]4)c(-c4c(F)cc(S(=O)(=O)[O-])cc4F)c4nc(c(-c5c(F)cc(S(=O)(=O)[O-])cc5F)c5ccc2[nH]5)C=C4)C=C3)cc1
REMARK SMILES IDX 7 1 6 2 5 3 4 4 3 5 2 6 1 7 40 8 41 9 105 10 42 11 104 12
REMARK SMILES IDX 43 13 44 14 45 15 98 16 46 17 103 18 97 19 99 20 47 21
REMARK SMILES IDX 102 22 96 23 95 24 48 26 82 27 61 28 81 29 62 30 65 31 80 32
REMARK SMILES IDX 100 33 63 34 64 35 79 37 101 38 66 39 49 40 50 41 59 42
REMARK SMILES IDX 51 43 52 44 58 45 60 46 53 47 54 48 55 49 56 50 57 51 83 52
REMARK SMILES IDX 84 53 93 54 85 55 86 56 92 57 94 58 87 59 88 60 89 61 90 62
REMARK SMILES IDX 91 63 67 64 68 65 77 66 69 67 70 68 76 69 78 70 71 71 72 72
REMARK SMILES IDX 73 73 74 74 75 75 8 76 9 77 10 78 11 79 12 80 13 81 17 82
REMARK SMILES IDX 14 83 16 84 15 85 18 86 19 88 20 89 39 90 21 91 24 92 22 93
REMARK SMILES IDX 23 94 25 95 26 97 27 98 38 99 28 100 37 101 29 102 30 103
REMARK SMILES IDX 31 104 35 105 32 106 34 107 36 108 33 109
REMARK H PARENT 99 25 65 36 18 87 25 96
REMARK Flexibility Score: inf
ROOT
ATOM      1  C   UNL     1       2.798  -0.056   2.209  1.00  0.00     0.202 C 
ENDROOT
BRANCH   1   2
ATOM      2  O   UNL     1       4.100   0.239   1.695  1.00  0.00    -0.374 OA
BRANCH   2   3
ATOM      3  C   UNL     1       4.252   1.471   0.999  1.00  0.00     0.202 C 
BRANCH   3   4
ATOM      4  C   UNL     1       3.934   1.385  -0.494  1.00  0.00     0.261 C 
BRANCH   4   5
ATOM      5  O   UNL     1       2.559   1.009  -0.683  1.00  0.00    -0.460 OA
BRANCH   5   6
ATOM      6  C   UNL     1       2.068  -0.169  -1.136  1.00  0.00     0.338 C 
ATOM      7  O   UNL     1       0.860  -0.253  -1.356  1.00  0.00    -0.246 OA
BRANCH   6   8
ATOM      8  C   UNL     1       2.908  -1.384  -1.363  1.00  0.00     0.060 A 
ATOM      9  C   UNL     1       4.090  -1.668  -0.678  1.00  0.00     0.016 A 
ATOM     10  C   UNL     1       2.410  -2.358  -2.244  1.00  0.00     0.016 A 
ATOM     11  C   UNL     1       4.783  -2.849  -0.875  1.00  0.00     0.010 A 
ATOM     12  C   UNL     1       3.082  -3.572  -2.424  1.00  0.00     0.010 A 
ATOM     13  C   UNL     1       4.274  -3.815  -1.734  1.00  0.00    -0.014 A 
BRANCH  13  14
ATOM     14  C   UNL     1       5.069  -5.039  -1.919  1.00  0.00     0.031 A 
ATOM     15  C   UNL     1       5.887  -5.171  -3.163  1.00  0.00     0.074 A 
ATOM     16  C   UNL     1       5.150  -5.923  -0.908  1.00  0.00     0.049 A 
ATOM     17  N   UNL     1       6.636  -6.163  -3.552  1.00  0.00    -0.248 NA
ATOM     18  C   UNL     1       5.876  -4.022  -4.087  1.00  0.00     0.031 C 
ATOM     19  C   UNL     1       4.478  -5.784   0.389  1.00  0.00     0.029 A 
ATOM     20  N   UNL     1       5.852  -7.091  -0.791  1.00  0.00    -0.354 N 
ATOM     21  C   UNL     1       7.159  -5.777  -4.779  1.00  0.00     0.074 A 
ATOM     22  C   UNL     1       6.653  -4.455  -5.068  1.00  0.00     0.031 C 
ATOM     23  C   UNL     1       4.814  -6.821   1.173  1.00  0.00     0.029 A 
ATOM     24  C   UNL     1       5.662  -7.730   0.413  1.00  0.00     0.049 A 
ATOM     25  H   UNL     1       6.438  -7.442  -1.501  1.00  0.00     0.167 HD
ATOM     26  C   UNL     1       7.979  -6.484  -5.587  1.00  0.00     0.037 A 
ATOM     27  C   UNL     1       6.093  -8.937   0.825  1.00  0.00     0.037 A 
ATOM     28  C   UNL     1       8.464  -7.796  -5.254  1.00  0.00     0.049 A 
ATOM     29  C   UNL     1       6.932  -9.738  -0.136  1.00  0.00     0.074 A 
ATOM     30  C   UNL     1       9.254  -8.642  -6.008  1.00  0.00     0.029 A 
ATOM     31  N   UNL     1       8.198  -8.450  -4.057  1.00  0.00    -0.354 N 
ATOM     32  N   UNL     1       7.372  -9.396  -1.326  1.00  0.00    -0.248 NA
ATOM     33  C   UNL     1       7.315 -11.091   0.282  1.00  0.00     0.031 C 
ATOM     34  C   UNL     1       9.427  -9.827  -5.284  1.00  0.00     0.029 A 
ATOM     35  C   UNL     1       8.789  -9.699  -4.058  1.00  0.00     0.049 A 
ATOM     36  H   UNL     1       7.667  -8.077  -3.316  1.00  0.00     0.167 HD
ATOM     37  C   UNL     1       8.095 -10.485  -1.793  1.00  0.00     0.074 A 
ATOM     38  C   UNL     1       8.053 -11.488  -0.745  1.00  0.00     0.031 C 
ATOM     39  C   UNL     1       8.728 -10.655  -2.980  1.00  0.00     0.037 A 
BRANCH  26  40
ATOM     40  C   UNL     1       8.327  -5.888  -6.920  1.00  0.00     0.058 A 
ATOM     41  C   UNL     1       9.233  -4.825  -7.052  1.00  0.00     0.135 A 
ATOM     42  C   UNL     1       7.743  -6.402  -8.089  1.00  0.00     0.135 A 
ATOM     43  F   UNL     1       9.791  -4.273  -5.963  1.00  0.00    -0.206 F 
ATOM     44  C   UNL     1       9.543  -4.287  -8.298  1.00  0.00     0.059 A 
ATOM     45  C   UNL     1       8.055  -5.894  -9.346  1.00  0.00     0.059 A 
ATOM     46  F   UNL     1       6.854  -7.405  -8.016  1.00  0.00    -0.206 F 
ATOM     47  C   UNL     1       8.951  -4.831  -9.440  1.00  0.00     0.060 A 
BRANCH  47  48
ATOM     48  S   UNL     1       9.380  -4.137 -11.051  1.00  0.00     0.124 S 
ATOM     49  O   UNL     1       8.700  -2.846 -11.003  1.00  0.00    -0.237 OA
ATOM     50  O   UNL     1      10.837  -4.088 -10.990  1.00  0.00    -0.237 OA
ATOM     51  O   UNL     1       8.826  -5.102 -11.996  1.00  0.00    -0.744 OA
ENDBRANCH  47  48
ENDBRANCH  26  40
BRANCH  27  52
ATOM     52  C   UNL     1       5.681  -9.488   2.147  1.00  0.00     0.058 A 
ATOM     53  C   UNL     1       6.618  -9.781   3.148  1.00  0.00     0.135 A 
ATOM     54  C   UNL     1       4.331  -9.770   2.422  1.00  0.00     0.135 A 
ATOM     55  F   UNL     1       7.921  -9.538   2.939  1.00  0.00    -0.206 F 
ATOM     56  C   UNL     1       6.241 -10.363   4.356  1.00  0.00     0.059 A 
ATOM     57  C   UNL     1       3.925 -10.321   3.634  1.00  0.00     0.059 A 
ATOM     58  F   UNL     1       3.386  -9.502   1.508  1.00  0.00    -0.206 F 
ATOM     59  C   UNL     1       4.891 -10.635   4.587  1.00  0.00     0.060 A 
BRANCH  59  60
ATOM     60  S   UNL     1       4.407 -11.398   6.151  1.00  0.00     0.124 S 
ATOM     61  O   UNL     1       4.862 -12.771   5.959  1.00  0.00    -0.237 OA
ATOM     62  O   UNL     1       5.154 -10.608   7.125  1.00  0.00    -0.237 OA
ATOM     63  O   UNL     1       2.959 -11.212   6.182  1.00  0.00    -0.744 OA
ENDBRANCH  59  60
ENDBRANCH  27  52
BRANCH  39  64
ATOM     64  C   UNL     1       9.446 -11.956  -3.185  1.00  0.00     0.058 A 
ATOM     65  C   UNL     1       8.748 -13.145  -3.439  1.00  0.00     0.135 A 
ATOM     66  C   UNL     1      10.849 -11.994  -3.191  1.00  0.00     0.135 A 
ATOM     67  F   UNL     1       7.406 -13.157  -3.434  1.00  0.00    -0.206 F 
ATOM     68  C   UNL     1       9.420 -14.338  -3.675  1.00  0.00     0.059 A 
ATOM     69  C   UNL     1      11.540 -13.169  -3.454  1.00  0.00     0.059 A 
ATOM     70  F   UNL     1      11.558 -10.876  -2.965  1.00  0.00    -0.206 F 
ATOM     71  C   UNL     1      10.816 -14.338  -3.685  1.00  0.00     0.060 A 
BRANCH  71  72
ATOM     72  S   UNL     1      11.676 -15.883  -4.041  1.00  0.00     0.124 S 
ATOM     73  O   UNL     1      11.503 -16.610  -2.788  1.00  0.00    -0.237 OA
ATOM     74  O   UNL     1      10.930 -16.401  -5.184  1.00  0.00    -0.237 OA
ATOM     75  O   UNL     1      13.040 -15.452  -4.334  1.00  0.00    -0.744 OA
ENDBRANCH  71  72
ENDBRANCH  39  64
ENDBRANCH  13  14
ENDBRANCH   6   8
ENDBRANCH   5   6
ENDBRANCH   4   5
ENDBRANCH   3   4
ENDBRANCH   2   3
ENDBRANCH   1   2
BRANCH   1  76
ATOM     76  C   UNL     1       2.973  -0.706   3.586  1.00  0.00     0.261 C 
BRANCH  76  77
ATOM     77  O   UNL     1       3.559   0.275   4.460  1.00  0.00    -0.460 OA
BRANCH  77  78
ATOM     78  C   UNL     1       4.902   0.450   4.330  1.00  0.00     0.340 C 
ATOM     79  O   UNL     1       5.713  -0.420   4.055  1.00  0.00    -0.246 OA
BRANCH  78  80
ATOM     80  C   UNL     1       5.234   1.908   4.428  1.00  0.00     0.083 A 
ATOM     81  C   UNL     1       6.450   2.307   3.851  1.00  0.00     0.018 A 
ATOM     82  C   UNL     1       4.383   2.866   5.037  1.00  0.00     0.055 A 
ATOM     83  C   UNL     1       6.835   3.644   3.875  1.00  0.00     0.001 A 
ATOM     84  C   UNL     1       4.798   4.203   5.057  1.00  0.00     0.027 A 
ATOM     85  C   UNL     1       6.013   4.589   4.483  1.00  0.00     0.002 A 
BRANCH  82  86
ATOM     86  N   UNL     1       3.181   2.454   5.620  1.00  0.00    -0.323 N 
ATOM     87  H   UNL     1       2.871   1.583   5.280  1.00  0.00     0.170 HD
BRANCH  86  88
ATOM     88  C   UNL     1       2.331   2.990   6.564  1.00  0.00     0.233 A 
ATOM     89  N   UNL     1       1.937   4.248   6.550  1.00  0.00    -0.182 NA
ATOM     90  N   UNL     1       1.961   2.094   7.468  1.00  0.00    -0.176 NA
ATOM     91  C   UNL     1       1.076   4.522   7.517  1.00  0.00     0.228 A 
ATOM     92  C   UNL     1       1.181   2.512   8.445  1.00  0.00     0.233 A 
ATOM     93  Cl  UNL     1       0.447   6.111   7.534  1.00  0.00    -0.041 Cl
ATOM     94  N   UNL     1       0.663   3.728   8.493  1.00  0.00    -0.182 NA
BRANCH  92  95
ATOM     95  N   UNL     1       1.038   1.614   9.494  1.00  0.00    -0.324 N 
ATOM     96  H   UNL     1       1.531   0.766   9.405  1.00  0.00     0.170 HD
BRANCH  95  97
ATOM     97  C   UNL     1       0.286   1.761  10.653  1.00  0.00     0.041 A 
ATOM     98  C   UNL     1       0.900   1.647  11.903  1.00  0.00     0.028 A 
ATOM     99  C   UNL     1      -1.055   2.136  10.585  1.00  0.00     0.028 A 
ATOM    100  C   UNL     1       0.191   1.953  13.067  1.00  0.00     0.028 A 
ATOM    101  C   UNL     1      -1.781   2.383  11.744  1.00  0.00     0.028 A 
ATOM    102  C   UNL     1      -1.156   2.320  12.992  1.00  0.00     0.044 A 
BRANCH 102 103
ATOM    103  N   UNL     1      -1.868   2.716  14.157  1.00  0.00    -0.308 N 
ATOM    104  C   UNL     1      -1.284   3.820  14.927  1.00  0.00     0.154 C 
ATOM    105  C   UNL     1      -3.208   2.352  14.325  1.00  0.00     0.253 C 
ATOM    106  C   UNL     1      -1.997   4.072  16.248  1.00  0.00     0.183 C 
ATOM    107  C   UNL     1      -3.932   3.018  15.501  1.00  0.00     0.260 C 
ATOM    108  O   UNL     1      -3.789   1.492  13.660  1.00  0.00    -0.272 OA
ATOM    109  O   UNL     1      -3.394   4.227  16.015  1.00  0.00    -0.370 OA
ENDBRANCH 102 103
ENDBRANCH  95  97
ENDBRANCH  92  95
ENDBRANCH  86  88
ENDBRANCH  82  86
ENDBRANCH  78  80
ENDBRANCH  77  78
ENDBRANCH  76  77
ENDBRANCH   1  76
TORSDOF 22
