REMARK SMILES O=C(Nc1ccc(N2CC[NH+](CC(=O)N3CCOCC3)CC2)c(C(=O)OCCOCCOC(=O)c2ccc(-c3c4nc(c(-c5c(F)cc(S(=O)(=O)[O-])cc5F)c5ccc([nH]5)c(-c5c(F)cc(S(=O)(=O)[O-])cc5F)c5nc(c(-c6c(F)cc(S(=O)(=O)[O-])cc6F)c6ccc3[nH]6)C=C5)C=C4)cc2)c1)c1cccc(Cl)c1
REMARK SMILES IDX 29 1 28 2 27 3 26 4 24 5 25 6 23 7 4 8 5 9 101 10 6 11 7 12
REMARK SMILES IDX 3 13 1 14 2 15 102 17 103 18 108 19 104 20 106 21 105 22
REMARK SMILES IDX 107 23 8 24 9 25 22 26 10 27 21 28 11 29 12 31 13 32 14 33
REMARK SMILES IDX 15 34 16 35 20 36 17 37 19 38 18 39 30 40 31 41 32 42 33 43
REMARK SMILES IDX 34 44 35 45 36 46 100 47 37 48 99 49 38 50 39 51 40 52 93 53
REMARK SMILES IDX 41 54 98 55 92 56 94 57 42 58 97 59 91 60 90 61 43 63 77 64
REMARK SMILES IDX 56 65 76 66 57 67 60 68 75 69 95 70 58 71 59 72 74 74 96 75
REMARK SMILES IDX 61 76 44 77 45 78 54 79 46 80 47 81 53 82 55 83 48 84 49 85
REMARK SMILES IDX 50 86 51 87 52 88 78 89 79 90 88 91 80 92 81 93 87 94 89 95
REMARK SMILES IDX 82 96 83 97 84 98 85 99 86 100 62 101 63 102 72 103 64 104
REMARK SMILES IDX 65 105 71 106 73 107 66 108 67 109 68 110 69 111 70 112
REMARK H PARENT 3 16 11 30 94 62 60 73
REMARK Flexibility Score: inf
ROOT
ATOM      1  O   UNL     1       8.401  -2.080   3.860  1.00  0.00    -0.374 OA
ENDROOT
BRANCH   1   2
ATOM      2  C   UNL     1       7.575  -1.160   4.590  1.00  0.00     0.202 C 
BRANCH   2   3
ATOM      3  C   UNL     1       7.353   0.189   3.900  1.00  0.00     0.261 C 
BRANCH   3   4
ATOM      4  O   UNL     1       6.554  -0.026   2.727  1.00  0.00    -0.460 OA
BRANCH   4   5
ATOM      5  C   UNL     1       6.907   0.695   1.636  1.00  0.00     0.340 C 
ATOM      6  O   UNL     1       7.644   1.664   1.624  1.00  0.00    -0.246 OA
BRANCH   5   7
ATOM      7  C   UNL     1       6.345   0.016   0.434  1.00  0.00     0.085 A 
ATOM      8  C   UNL     1       4.326  -0.663  -0.692  1.00  0.00     0.042 A 
ATOM      9  C   UNL     1       5.057  -0.900  -1.853  1.00  0.00     0.028 A 
ATOM     10  C   UNL     1       5.002  -0.353   0.479  1.00  0.00     0.044 A 
ATOM     11  C   UNL     1       6.442  -0.661  -1.869  1.00  0.00     0.029 A 
ATOM     12  C   UNL     1       7.116  -0.175  -0.736  1.00  0.00     0.052 A 
BRANCH   8  13
ATOM     13  N   UNL     1       2.921  -0.613  -0.761  1.00  0.00    -0.322 N 
ATOM     14  O   UNL     1       0.842   0.041  -0.108  1.00  0.00    -0.269 OA
ATOM     15  C   UNL     1       2.057   0.197  -0.029  1.00  0.00     0.255 C 
ATOM     16  H   UNL     1       2.498  -1.225  -1.405  1.00  0.00     0.170 HD
BRANCH  15  17
ATOM     17  C   UNL     1       2.599   1.302   0.811  1.00  0.00     0.041 A 
ATOM     18  C   UNL     1       3.539   2.208   0.290  1.00  0.00     0.014 A 
ATOM     19  C   UNL     1       2.289   1.316   2.174  1.00  0.00     0.034 A 
ATOM     20  C   UNL     1       4.263   3.033   1.153  1.00  0.00     0.002 A 
ATOM     21  C   UNL     1       3.004   2.161   3.023  1.00  0.00     0.041 A 
ATOM     22  C   UNL     1       4.005   2.997   2.523  1.00  0.00     0.020 A 
ATOM     23  Cl  UNL     1       2.714   2.111   4.717  1.00  0.00    -0.084 Cl
ENDBRANCH  15  17
ENDBRANCH   8  13
BRANCH  12  24
ATOM     24  N   UNL     1       8.498  -0.015  -0.713  1.00  0.00    -0.360 N 
ATOM     25  C   UNL     1       9.329   0.270  -1.893  1.00  0.00     0.178 C 
ATOM     26  C   UNL     1       9.148  -0.883   0.265  1.00  0.00     0.178 C 
ATOM     27  C   UNL     1      10.804   0.603  -1.481  1.00  0.00     0.284 C 
ATOM     28  C   UNL     1      10.488  -0.325   0.719  1.00  0.00     0.284 C 
ATOM     29  N   UNL     1      11.427  -0.175  -0.388  1.00  0.00    -0.324 N 
ATOM     30  H   UNL     1      12.215   0.396  -0.084  1.00  0.00     0.348 HD
BRANCH  29  31
ATOM     31  C   UNL     1      12.164  -1.400  -0.737  1.00  0.00     0.363 C 
BRANCH  31  32
ATOM     32  C   UNL     1      11.447  -2.477  -1.564  1.00  0.00     0.277 C 
ATOM     33  O   UNL     1      11.248  -2.295  -2.771  1.00  0.00    -0.268 OA
ATOM     34  N   UNL     1      11.145  -3.704  -0.963  1.00  0.00    -0.333 N 
ATOM     35  C   UNL     1      10.663  -3.858   0.414  1.00  0.00     0.148 C 
ATOM     36  C   UNL     1      10.784  -4.821  -1.839  1.00  0.00     0.148 C 
ATOM     37  C   UNL     1      10.833  -5.262   0.996  1.00  0.00     0.181 C 
ATOM     38  C   UNL     1      11.030  -6.172  -1.161  1.00  0.00     0.181 C 
ATOM     39  O   UNL     1      10.335  -6.254   0.090  1.00  0.00    -0.378 OA
ENDBRANCH  31  32
ENDBRANCH  29  31
ENDBRANCH  12  24
ENDBRANCH   5   7
ENDBRANCH   4   5
ENDBRANCH   3   4
ENDBRANCH   2   3
ENDBRANCH   1   2
BRANCH   1  40
ATOM     40  C   UNL     1       7.761  -2.800   2.806  1.00  0.00     0.202 C 
BRANCH  40  41
ATOM     41  C   UNL     1       7.147  -4.152   3.155  1.00  0.00     0.261 C 
BRANCH  41  42
ATOM     42  O   UNL     1       6.072  -3.992   4.077  1.00  0.00    -0.460 OA
BRANCH  42  43
ATOM     43  C   UNL     1       6.431  -4.185   5.367  1.00  0.00     0.338 C 
ATOM     44  O   UNL     1       7.494  -4.618   5.782  1.00  0.00    -0.246 OA
BRANCH  43  45
ATOM     45  C   UNL     1       5.401  -3.581   6.226  1.00  0.00     0.060 A 
ATOM     46  C   UNL     1       5.846  -2.832   7.320  1.00  0.00     0.016 A 
ATOM     47  C   UNL     1       4.037  -3.725   5.954  1.00  0.00     0.016 A 
ATOM     48  C   UNL     1       4.921  -2.270   8.189  1.00  0.00     0.010 A 
ATOM     49  C   UNL     1       3.110  -3.166   6.829  1.00  0.00     0.010 A 
ATOM     50  C   UNL     1       3.554  -2.476   7.968  1.00  0.00    -0.014 A 
BRANCH  50  51
ATOM     51  C   UNL     1       2.600  -2.133   9.040  1.00  0.00     0.031 A 
ATOM     52  C   UNL     1       2.147  -3.230   9.959  1.00  0.00     0.074 A 
ATOM     53  C   UNL     1       2.188  -0.865   9.199  1.00  0.00     0.049 A 
ATOM     54  N   UNL     1       1.314  -3.178  10.962  1.00  0.00    -0.248 NA
ATOM     55  C   UNL     1       2.708  -4.571   9.710  1.00  0.00     0.031 C 
ATOM     56  C   UNL     1       2.602   0.267   8.371  1.00  0.00     0.029 A 
ATOM     57  N   UNL     1       1.326  -0.321  10.112  1.00  0.00    -0.354 N 
ATOM     58  C   UNL     1       1.242  -4.474  11.458  1.00  0.00     0.074 A 
ATOM     59  C   UNL     1       2.091  -5.298  10.628  1.00  0.00     0.031 C 
ATOM     60  C   UNL     1       1.986   1.377   8.813  1.00  0.00     0.029 A 
ATOM     61  C   UNL     1       1.117   1.025   9.933  1.00  0.00     0.049 A 
ATOM     62  H   UNL     1       0.897  -0.844  10.827  1.00  0.00     0.167 HD
ATOM     63  C   UNL     1       0.534  -4.929  12.517  1.00  0.00     0.037 A 
ATOM     64  C   UNL     1       0.299   1.865  10.596  1.00  0.00     0.037 A 
ATOM     65  C   UNL     1      -0.304  -4.088  13.329  1.00  0.00     0.049 A 
ATOM     66  C   UNL     1      -0.518   1.323  11.740  1.00  0.00     0.074 A 
ATOM     67  C   UNL     1      -1.052  -4.431  14.440  1.00  0.00     0.029 A 
ATOM     68  N   UNL     1      -0.512  -2.733  13.107  1.00  0.00    -0.354 N 
ATOM     69  N   UNL     1      -0.556   0.102  12.223  1.00  0.00    -0.248 NA
ATOM     70  C   UNL     1      -1.399   2.271  12.433  1.00  0.00     0.031 C 
ATOM     71  C   UNL     1      -1.752  -3.295  14.859  1.00  0.00     0.029 A 
ATOM     72  C   UNL     1      -1.397  -2.230  14.044  1.00  0.00     0.049 A 
ATOM     73  H   UNL     1      -0.092  -2.207  12.388  1.00  0.00     0.167 HD
ATOM     74  C   UNL     1      -1.444   0.142  13.293  1.00  0.00     0.074 A 
ATOM     75  C   UNL     1      -1.910   1.511  13.392  1.00  0.00     0.031 C 
ATOM     76  C   UNL     1      -1.838  -0.859  14.120  1.00  0.00     0.037 A 
BRANCH  63  77
ATOM     77  C   UNL     1       0.615  -6.397  12.831  1.00  0.00     0.058 A 
ATOM     78  C   UNL     1       1.779  -6.983  13.354  1.00  0.00     0.135 A 
ATOM     79  C   UNL     1      -0.497  -7.228  12.620  1.00  0.00     0.135 A 
ATOM     80  F   UNL     1       2.880  -6.240  13.553  1.00  0.00    -0.206 F 
ATOM     81  C   UNL     1       1.846  -8.344  13.633  1.00  0.00     0.059 A 
ATOM     82  C   UNL     1      -0.462  -8.587  12.918  1.00  0.00     0.059 A 
ATOM     83  F   UNL     1      -1.632  -6.723  12.113  1.00  0.00    -0.206 F 
ATOM     84  C   UNL     1       0.719  -9.139  13.412  1.00  0.00     0.060 A 
BRANCH  84  85
ATOM     85  S   UNL     1       0.819 -10.902  13.786  1.00  0.00     0.124 S 
ATOM     86  O   UNL     1       1.671 -11.382  12.702  1.00  0.00    -0.237 OA
ATOM     87  O   UNL     1       1.423 -10.905  15.114  1.00  0.00    -0.237 OA
ATOM     88  O   UNL     1      -0.572 -11.341  13.731  1.00  0.00    -0.744 OA
ENDBRANCH  84  85
ENDBRANCH  63  77
BRANCH  64  89
ATOM     89  C   UNL     1       0.217   3.294  10.195  1.00  0.00     0.058 A 
ATOM     90  C   UNL     1       0.714   4.309  11.026  1.00  0.00     0.135 A 
ATOM     91  C   UNL     1      -0.349   3.674   8.968  1.00  0.00     0.135 A 
ATOM     92  F   UNL     1       1.259   3.998  12.212  1.00  0.00    -0.206 F 
ATOM     93  C   UNL     1       0.638   5.650  10.663  1.00  0.00     0.059 A 
ATOM     94  C   UNL     1      -0.412   5.006   8.571  1.00  0.00     0.059 A 
ATOM     95  F   UNL     1      -0.829   2.740   8.131  1.00  0.00    -0.206 F 
ATOM     96  C   UNL     1       0.075   5.988   9.431  1.00  0.00     0.060 A 
BRANCH  96  97
ATOM     97  S   UNL     1       0.021   7.729   8.954  1.00  0.00     0.124 S 
ATOM     98  O   UNL     1      -1.016   8.245   9.840  1.00  0.00    -0.237 OA
ATOM     99  O   UNL     1       1.383   8.168   9.244  1.00  0.00    -0.237 OA
ATOM    100  O   UNL     1      -0.325   7.680   7.537  1.00  0.00    -0.744 OA
ENDBRANCH  96  97
ENDBRANCH  64  89
BRANCH  76 101
ATOM    101  C   UNL     1      -2.791  -0.501  15.226  1.00  0.00     0.058 A 
ATOM    102  C   UNL     1      -4.141  -0.211  14.974  1.00  0.00     0.135 A 
ATOM    103  C   UNL     1      -2.357  -0.501  16.562  1.00  0.00     0.135 A 
ATOM    104  F   UNL     1      -4.604  -0.193  13.714  1.00  0.00    -0.206 F 
ATOM    105  C   UNL     1      -5.022   0.094  16.006  1.00  0.00     0.059 A 
ATOM    106  C   UNL     1      -3.228  -0.230  17.612  1.00  0.00     0.059 A 
ATOM    107  F   UNL     1      -1.079  -0.787  16.859  1.00  0.00    -0.206 F 
ATOM    108  C   UNL     1      -4.556   0.081  17.322  1.00  0.00     0.060 A 
BRANCH 108 109
ATOM    109  S   UNL     1      -5.716   0.450  18.655  1.00  0.00     0.124 S 
ATOM    110  O   UNL     1      -5.877   1.893  18.512  1.00  0.00    -0.237 OA
ATOM    111  O   UNL     1      -6.876  -0.357  18.291  1.00  0.00    -0.237 OA
ATOM    112  O   UNL     1      -5.006   0.013  19.854  1.00  0.00    -0.744 OA
ENDBRANCH 108 109
ENDBRANCH  76 101
ENDBRANCH  50  51
ENDBRANCH  43  45
ENDBRANCH  42  43
ENDBRANCH  41  42
ENDBRANCH  40  41
ENDBRANCH   1  40
TORSDOF 22
