REMARK SMILES C[C@H]1CCc2sc3ncn4nc(/C=C\C(=O)OCCOCCOC(=O)c5ccc(-c6c7nc(c(-c8c(F)cc(S(=O)(=O)[O-])cc8F)c8ccc([nH]8)c(-c8c(F)cc(S(=O)(=O)[O-])cc8F)c8nc(c(-c9c(F)cc(S(=O)(=O)[O-])cc9F)c9ccc6[nH]9)C=C8)C=C7)cc5)nc4c3c2C1
REMARK SMILES IDX 21 1 20 2 19 3 18 4 17 5 15 6 16 7 14 8 13 9 12 10 1 11 2 12
REMARK SMILES IDX 3 13 96 14 4 15 95 16 5 17 94 18 6 19 7 20 93 21 8 22 10 23
REMARK SMILES IDX 92 24 9 25 11 26 22 27 23 28 24 29 25 30 26 31 27 32 91 33
REMARK SMILES IDX 28 34 90 35 29 36 30 37 31 38 84 39 32 40 89 41 83 42 85 43
REMARK SMILES IDX 33 44 88 45 82 46 81 47 34 49 68 50 47 51 67 52 48 53 51 54
REMARK SMILES IDX 66 55 86 56 49 57 50 58 65 60 87 61 52 62 35 63 36 64 45 65
REMARK SMILES IDX 37 66 38 67 44 68 46 69 39 70 40 71 41 72 42 73 43 74 69 75
REMARK SMILES IDX 70 76 79 77 71 78 72 79 78 80 80 81 73 82 74 83 75 84 76 85
REMARK SMILES IDX 77 86 53 87 54 88 63 89 55 90 56 91 62 92 64 93 57 94 58 95
REMARK SMILES IDX 59 96 60 97 61 98
REMARK H PARENT 85 48 51 59
REMARK Flexibility Score: inf
ROOT
ATOM      1  C   UNL     1       3.863  -3.713  -2.585  1.00  0.00     0.202 C 
ENDROOT
BRANCH   1   2
ATOM      2  O   UNL     1       3.123  -2.506  -2.747  1.00  0.00    -0.374 OA
BRANCH   2   3
ATOM      3  C   UNL     1       2.189  -2.162  -1.722  1.00  0.00     0.202 C 
BRANCH   3   4
ATOM      4  C   UNL     1       0.899  -2.977  -1.731  1.00  0.00     0.261 C 
BRANCH   4   5
ATOM      5  O   UNL     1       1.139  -4.279  -1.172  1.00  0.00    -0.460 OA
BRANCH   5   6
ATOM      6  C   UNL     1       0.885  -5.339  -1.956  1.00  0.00     0.330 C 
ATOM      7  O   UNL     1       0.419  -5.303  -3.088  1.00  0.00    -0.247 OA
BRANCH   6   8
ATOM      8  C   UNL     1       1.398  -6.608  -1.402  1.00  0.00     0.097 C 
ATOM      9  C   UNL     1       1.618  -7.054  -0.156  1.00  0.00     0.058 C 
BRANCH   9  10
ATOM     10  C   UNL     1       1.417  -6.464   1.125  1.00  0.00     0.175 A 
ATOM     11  C   UNL     1      -1.270  -0.271   1.649  1.00  0.00     0.008 C 
ATOM     12  C   UNL     1       0.255  -0.367   1.776  1.00  0.00    -0.009 C 
ATOM     13  C   UNL     1       0.786   0.388   3.014  1.00  0.00     0.009 C 
ATOM     14  C   UNL     1       0.725  -1.838   1.773  1.00  0.00     0.041 C 
ATOM     15  C   UNL     1       0.365  -0.250   4.349  1.00  0.00     0.047 C 
ATOM     16  C   UNL     1       0.708  -2.462   3.131  1.00  0.00    -0.020 A 
ATOM     17  C   UNL     1       0.551  -1.733   4.294  1.00  0.00     0.011 A 
ATOM     18  C   UNL     1       0.871  -3.827   3.441  1.00  0.00     0.060 A 
ATOM     19  S   UNL     1       0.551  -2.707   5.699  1.00  0.00    -0.120 S 
ATOM     20  C   UNL     1       0.787  -4.138   4.790  1.00  0.00     0.129 A 
ATOM     21  C   UNL     1       1.103  -4.989   2.575  1.00  0.00     0.168 A 
ATOM     22  N   UNL     1       0.870  -5.383   5.372  1.00  0.00    -0.225 NA
ATOM     23  N   UNL     1       1.206  -6.203   3.178  1.00  0.00    -0.201 N 
ATOM     24  N   UNL     1       1.228  -5.114   1.280  1.00  0.00    -0.207 NA
ATOM     25  C   UNL     1       1.079  -6.386   4.555  1.00  0.00     0.227 A 
ATOM     26  N   UNL     1       1.413  -7.174   2.271  1.00  0.00    -0.145 NA
ENDBRANCH   9  10
ENDBRANCH   6   8
ENDBRANCH   5   6
ENDBRANCH   4   5
ENDBRANCH   3   4
ENDBRANCH   2   3
ENDBRANCH   1   2
BRANCH   1  27
ATOM     27  C   UNL     1       4.985  -3.669  -1.560  1.00  0.00     0.261 C 
BRANCH  27  28
ATOM     28  O   UNL     1       4.482  -3.662  -0.228  1.00  0.00    -0.460 OA
BRANCH  28  29
ATOM     29  C   UNL     1       4.693  -2.507   0.449  1.00  0.00     0.338 C 
ATOM     30  O   UNL     1       4.783  -1.388  -0.021  1.00  0.00    -0.246 OA
BRANCH  29  31
ATOM     31  C   UNL     1       5.044  -2.851   1.835  1.00  0.00     0.060 A 
ATOM     32  C   UNL     1       5.519  -1.810   2.635  1.00  0.00     0.016 A 
ATOM     33  C   UNL     1       5.193  -4.197   2.204  1.00  0.00     0.016 A 
ATOM     34  C   UNL     1       6.322  -2.126   3.709  1.00  0.00     0.010 A 
ATOM     35  C   UNL     1       6.013  -4.510   3.261  1.00  0.00     0.010 A 
ATOM     36  C   UNL     1       6.629  -3.470   3.950  1.00  0.00    -0.014 A 
BRANCH  36  37
ATOM     37  C   UNL     1       7.550  -3.776   5.024  1.00  0.00     0.031 A 
ATOM     38  C   UNL     1       6.915  -3.647   6.352  1.00  0.00     0.074 A 
ATOM     39  C   UNL     1       8.798  -4.232   4.803  1.00  0.00     0.049 A 
ATOM     40  N   UNL     1       7.105  -2.714   7.223  1.00  0.00    -0.248 NA
ATOM     41  C   UNL     1       5.788  -4.542   6.666  1.00  0.00     0.031 C 
ATOM     42  C   UNL     1       9.373  -4.672   3.527  1.00  0.00     0.029 A 
ATOM     43  N   UNL     1       9.793  -4.497   5.693  1.00  0.00    -0.354 N 
ATOM     44  C   UNL     1       6.309  -3.067   8.306  1.00  0.00     0.074 A 
ATOM     45  C   UNL     1       5.364  -4.040   7.826  1.00  0.00     0.031 C 
ATOM     46  C   UNL     1      10.513  -5.363   3.765  1.00  0.00     0.029 A 
ATOM     47  C   UNL     1      10.822  -5.282   5.183  1.00  0.00     0.049 A 
ATOM     48  H   UNL     1       9.785  -4.161   6.619  1.00  0.00     0.167 HD
ATOM     49  C   UNL     1       6.702  -2.788   9.577  1.00  0.00     0.037 A 
ATOM     50  C   UNL     1      11.815  -5.862   5.903  1.00  0.00     0.037 A 
ATOM     51  C   UNL     1       7.813  -1.876   9.595  1.00  0.00     0.049 A 
ATOM     52  C   UNL     1      11.939  -5.097   7.170  1.00  0.00     0.074 A 
ATOM     53  C   UNL     1       7.992  -0.517   9.466  1.00  0.00     0.029 A 
ATOM     54  N   UNL     1       9.023  -2.476   9.362  1.00  0.00    -0.354 N 
ATOM     55  N   UNL     1      12.310  -3.846   7.220  1.00  0.00    -0.248 NA
ATOM     56  C   UNL     1      11.301  -5.606   8.381  1.00  0.00     0.031 C 
ATOM     57  C   UNL     1       9.332  -0.331   9.012  1.00  0.00     0.029 A 
ATOM     58  C   UNL     1       9.951  -1.575   8.910  1.00  0.00     0.049 A 
ATOM     59  H   UNL     1       9.204  -3.433   9.503  1.00  0.00     0.167 HD
ATOM     60  C   UNL     1      11.595  -3.316   8.276  1.00  0.00     0.074 A 
ATOM     61  C   UNL     1      11.131  -4.461   9.047  1.00  0.00     0.031 C 
ATOM     62  C   UNL     1      11.161  -2.024   8.254  1.00  0.00     0.037 A 
BRANCH  49  63
ATOM     63  C   UNL     1       6.405  -3.683  10.751  1.00  0.00     0.058 A 
ATOM     64  C   UNL     1       6.522  -3.190  12.062  1.00  0.00     0.135 A 
ATOM     65  C   UNL     1       6.258  -5.084  10.631  1.00  0.00     0.135 A 
ATOM     66  F   UNL     1       6.723  -1.881  12.282  1.00  0.00    -0.206 F 
ATOM     67  C   UNL     1       6.487  -4.031  13.177  1.00  0.00     0.059 A 
ATOM     68  C   UNL     1       6.161  -5.932  11.725  1.00  0.00     0.059 A 
ATOM     69  F   UNL     1       6.299  -5.700   9.441  1.00  0.00    -0.206 F 
ATOM     70  C   UNL     1       6.300  -5.401  12.997  1.00  0.00     0.060 A 
BRANCH  70  71
ATOM     71  S   UNL     1       6.278  -6.492  14.430  1.00  0.00     0.124 S 
ATOM     72  O   UNL     1       7.660  -6.407  14.887  1.00  0.00    -0.237 OA
ATOM     73  O   UNL     1       5.281  -5.851  15.281  1.00  0.00    -0.237 OA
ATOM     74  O   UNL     1       5.877  -7.779  13.867  1.00  0.00    -0.744 OA
ENDBRANCH  70  71
ENDBRANCH  49  63
BRANCH  50  75
ATOM     75  C   UNL     1      12.398  -7.223   5.744  1.00  0.00     0.058 A 
ATOM     76  C   UNL     1      13.555  -7.599   6.452  1.00  0.00     0.135 A 
ATOM     77  C   UNL     1      11.660  -8.271   5.159  1.00  0.00     0.135 A 
ATOM     78  F   UNL     1      14.315  -6.665   7.044  1.00  0.00    -0.206 F 
ATOM     79  C   UNL     1      13.911  -8.938   6.643  1.00  0.00     0.059 A 
ATOM     80  C   UNL     1      12.000  -9.613   5.329  1.00  0.00     0.059 A 
ATOM     81  F   UNL     1      10.525  -8.027   4.486  1.00  0.00    -0.206 F 
ATOM     82  C   UNL     1      13.107  -9.940   6.104  1.00  0.00     0.060 A 
BRANCH  82  83
ATOM     83  S   UNL     1      13.438 -11.667   6.531  1.00  0.00     0.124 S 
ATOM     84  O   UNL     1      14.713 -11.904   5.862  1.00  0.00    -0.237 OA
ATOM     85  O   UNL     1      13.481 -11.618   7.988  1.00  0.00    -0.237 OA
ATOM     86  O   UNL     1      12.296 -12.381   5.967  1.00  0.00    -0.744 OA
ENDBRANCH  82  83
ENDBRANCH  50  75
BRANCH  62  87
ATOM     87  C   UNL     1      11.911  -1.048   7.398  1.00  0.00     0.058 A 
ATOM     88  C   UNL     1      11.914  -1.036   5.994  1.00  0.00     0.135 A 
ATOM     89  C   UNL     1      12.597  -0.015   8.055  1.00  0.00     0.135 A 
ATOM     90  F   UNL     1      11.224  -1.950   5.296  1.00  0.00    -0.206 F 
ATOM     91  C   UNL     1      12.592  -0.048   5.275  1.00  0.00     0.059 A 
ATOM     92  C   UNL     1      13.253   0.993   7.362  1.00  0.00     0.059 A 
ATOM     93  F   UNL     1      12.595   0.045   9.397  1.00  0.00    -0.206 F 
ATOM     94  C   UNL     1      13.256   0.966   5.970  1.00  0.00     0.060 A 
BRANCH  94  95
ATOM     95  S   UNL     1      14.081   2.280   5.046  1.00  0.00     0.124 S 
ATOM     96  O   UNL     1      15.179   1.563   4.405  1.00  0.00    -0.237 OA
ATOM     97  O   UNL     1      13.023   2.749   4.156  1.00  0.00    -0.237 OA
ATOM     98  O   UNL     1      14.479   3.230   6.082  1.00  0.00    -0.744 OA
ENDBRANCH  94  95
ENDBRANCH  62  87
ENDBRANCH  36  37
ENDBRANCH  29  31
ENDBRANCH  28  29
ENDBRANCH  27  28
ENDBRANCH   1  27
TORSDOF 18
