REMARK SMILES Cc1cccc(-c2cccc(O)c2)c1C(=O)OCCOCCOC(=O)c1ccc(-c2c3nc(c(-c4c(F)cc(S(=O)(=O)[O-])cc4F)c4ccc([nH]4)c(-c4c(F)cc(S(=O)(=O)[O-])cc4F)c4nc(c(-c5c(F)cc(S(=O)(=O)[O-])cc5F)c5ccc2[nH]5)C=C4)C=C3)cc1
REMARK SMILES IDX 21 1 20 2 19 3 18 4 17 5 15 6 16 7 14 8 1 9 2 10 3 11 4 12
REMARK SMILES IDX 6 13 5 14 7 15 8 16 13 17 9 18 11 19 10 20 12 21 22 23 23 24
REMARK SMILES IDX 24 25 25 26 26 27 27 28 91 29 28 30 90 31 29 32 30 33 31 34
REMARK SMILES IDX 84 35 32 36 89 37 83 38 85 39 33 40 88 41 82 42 81 43 34 45
REMARK SMILES IDX 68 46 47 47 67 48 48 49 51 50 66 51 86 52 49 53 50 54 65 56
REMARK SMILES IDX 87 57 52 58 35 59 36 60 45 61 37 62 38 63 44 64 46 65 39 66
REMARK SMILES IDX 40 67 41 68 42 69 43 70 69 71 70 72 79 73 71 74 72 75 78 76
REMARK SMILES IDX 80 77 73 78 74 79 75 80 76 81 77 82 53 83 54 84 63 85 55 86
REMARK SMILES IDX 56 87 62 88 64 89 57 90 58 91 59 92 60 93 61 94
REMARK H PARENT 12 22 85 44 51 55
REMARK Flexibility Score: inf
ROOT
ATOM      1  C   UNL     1       0.446   3.490  -3.451  1.00  0.00     0.202 C 
ENDROOT
BRANCH   1   2
ATOM      2  O   UNL     1       1.212   3.301  -2.295  1.00  0.00    -0.374 OA
BRANCH   2   3
ATOM      3  C   UNL     1       2.421   2.568  -2.469  1.00  0.00     0.202 C 
BRANCH   3   4
ATOM      4  C   UNL     1       2.804   2.227  -1.077  1.00  0.00     0.261 C 
BRANCH   4   5
ATOM      5  O   UNL     1       1.822   1.311  -0.563  1.00  0.00    -0.460 OA
BRANCH   5   6
ATOM      6  C   UNL     1       0.680   1.704   0.048  1.00  0.00     0.339 C 
ATOM      7  O   UNL     1       0.404   2.813   0.430  1.00  0.00    -0.246 OA
BRANCH   6   8
ATOM      8  C   UNL     1      -0.216   0.508   0.092  1.00  0.00     0.070 A 
ATOM      9  C   UNL     1       1.771  -1.226   0.044  1.00  0.00     0.045 C 
ATOM     10  C   UNL     1       0.310  -0.820   0.044  1.00  0.00    -0.036 A 
ATOM     11  C   UNL     1      -0.586  -1.893  -0.066  1.00  0.00     0.004 A 
ATOM     12  C   UNL     1      -1.958  -1.687  -0.073  1.00  0.00     0.001 A 
ATOM     13  C   UNL     1      -1.627   0.727   0.110  1.00  0.00    -0.003 A 
ATOM     14  C   UNL     1      -2.471  -0.397   0.032  1.00  0.00     0.009 A 
BRANCH  13  15
ATOM     15  C   UNL     1      -2.283   2.057   0.143  1.00  0.00    -0.014 A 
ATOM     16  C   UNL     1      -2.329   2.865  -1.006  1.00  0.00     0.009 A 
ATOM     17  C   UNL     1      -2.905   2.542   1.306  1.00  0.00     0.055 A 
ATOM     18  C   UNL     1      -2.913   4.137  -0.980  1.00  0.00     0.004 A 
ATOM     19  C   UNL     1      -3.506   3.803   1.319  1.00  0.00     0.116 A 
ATOM     20  C   UNL     1      -3.498   4.614   0.190  1.00  0.00     0.046 A 
BRANCH  19  21
ATOM     21  O   UNL     1      -4.110   4.208   2.474  1.00  0.00    -0.508 OA
ATOM     22  H   UNL     1      -4.522   5.048   2.517  1.00  0.00     0.293 HD
ENDBRANCH  19  21
ENDBRANCH  13  15
ENDBRANCH   6   8
ENDBRANCH   5   6
ENDBRANCH   4   5
ENDBRANCH   3   4
ENDBRANCH   2   3
ENDBRANCH   1   2
BRANCH   1  23
ATOM     23  C   UNL     1       1.240   4.194  -4.544  1.00  0.00     0.261 C 
BRANCH  23  24
ATOM     24  O   UNL     1       1.473   5.582  -4.200  1.00  0.00    -0.460 OA
BRANCH  24  25
ATOM     25  C   UNL     1       2.714   5.909  -3.721  1.00  0.00     0.338 C 
ATOM     26  O   UNL     1       3.649   6.214  -4.441  1.00  0.00    -0.246 OA
BRANCH  25  27
ATOM     27  C   UNL     1       2.729   5.985  -2.229  1.00  0.00     0.060 A 
ATOM     28  C   UNL     1       3.921   5.855  -1.490  1.00  0.00     0.016 A 
ATOM     29  C   UNL     1       1.510   6.024  -1.561  1.00  0.00     0.016 A 
ATOM     30  C   UNL     1       3.878   5.615  -0.101  1.00  0.00     0.010 A 
ATOM     31  C   UNL     1       1.469   5.682  -0.226  1.00  0.00     0.010 A 
ATOM     32  C   UNL     1       2.641   5.453   0.517  1.00  0.00    -0.014 A 
BRANCH  32  33
ATOM     33  C   UNL     1       2.383   5.009   1.896  1.00  0.00     0.031 A 
ATOM     34  C   UNL     1       1.618   5.946   2.759  1.00  0.00     0.074 A 
ATOM     35  C   UNL     1       2.512   3.704   2.257  1.00  0.00     0.049 A 
ATOM     36  N   UNL     1       1.310   5.704   3.981  1.00  0.00    -0.248 NA
ATOM     37  C   UNL     1       1.148   7.267   2.331  1.00  0.00     0.031 C 
ATOM     38  C   UNL     1       1.782   2.965   3.294  1.00  0.00     0.029 A 
ATOM     39  N   UNL     1       3.318   2.696   1.710  1.00  0.00    -0.354 N 
ATOM     40  C   UNL     1       0.354   6.609   4.372  1.00  0.00     0.074 A 
ATOM     41  C   UNL     1       0.385   7.636   3.366  1.00  0.00     0.031 C 
ATOM     42  C   UNL     1       2.375   1.774   3.511  1.00  0.00     0.029 A 
ATOM     43  C   UNL     1       3.583   1.745   2.701  1.00  0.00     0.049 A 
ATOM     44  H   UNL     1       3.643   2.663   0.781  1.00  0.00     0.167 HD
ATOM     45  C   UNL     1      -0.414   6.287   5.451  1.00  0.00     0.037 A 
ATOM     46  C   UNL     1       4.862   1.532   3.111  1.00  0.00     0.037 A 
ATOM     47  C   UNL     1       0.146   5.096   6.110  1.00  0.00     0.049 A 
ATOM     48  C   UNL     1       4.944   2.017   4.529  1.00  0.00     0.074 A 
ATOM     49  C   UNL     1      -0.237   3.770   6.182  1.00  0.00     0.029 A 
ATOM     50  N   UNL     1       1.476   5.140   6.534  1.00  0.00    -0.354 N 
ATOM     51  N   UNL     1       4.153   2.950   4.992  1.00  0.00    -0.248 NA
ATOM     52  C   UNL     1       5.744   1.384   5.571  1.00  0.00     0.031 C 
ATOM     53  C   UNL     1       0.921   3.007   6.534  1.00  0.00     0.029 A 
ATOM     54  C   UNL     1       1.996   3.871   6.706  1.00  0.00     0.049 A 
ATOM     55  H   UNL     1       1.981   5.971   6.691  1.00  0.00     0.167 HD
ATOM     56  C   UNL     1       4.212   2.951   6.348  1.00  0.00     0.074 A 
ATOM     57  C   UNL     1       5.266   2.000   6.667  1.00  0.00     0.031 C 
ATOM     58  C   UNL     1       3.382   3.690   7.135  1.00  0.00     0.037 A 
BRANCH  45  59
ATOM     59  C   UNL     1      -1.730   6.931   5.850  1.00  0.00     0.058 A 
ATOM     60  C   UNL     1      -2.381   6.523   7.036  1.00  0.00     0.135 A 
ATOM     61  C   UNL     1      -2.453   7.882   5.092  1.00  0.00     0.135 A 
ATOM     62  F   UNL     1      -1.835   5.604   7.846  1.00  0.00    -0.206 F 
ATOM     63  C   UNL     1      -3.626   7.020   7.439  1.00  0.00     0.059 A 
ATOM     64  C   UNL     1      -3.677   8.426   5.498  1.00  0.00     0.059 A 
ATOM     65  F   UNL     1      -2.047   8.298   3.888  1.00  0.00    -0.206 F 
ATOM     66  C   UNL     1      -4.265   7.982   6.669  1.00  0.00     0.060 A 
BRANCH  66  67
ATOM     67  S   UNL     1      -5.862   8.627   7.202  1.00  0.00     0.124 S 
ATOM     68  O   UNL     1      -6.716   7.449   7.095  1.00  0.00    -0.237 OA
ATOM     69  O   UNL     1      -5.575   9.086   8.557  1.00  0.00    -0.237 OA
ATOM     70  O   UNL     1      -6.143   9.685   6.235  1.00  0.00    -0.744 OA
ENDBRANCH  66  67
ENDBRANCH  45  59
BRANCH  46  71
ATOM     71  C   UNL     1       5.841   1.621   1.977  1.00  0.00     0.058 A 
ATOM     72  C   UNL     1       5.844   0.543   1.060  1.00  0.00     0.135 A 
ATOM     73  C   UNL     1       6.324   2.849   1.495  1.00  0.00     0.135 A 
ATOM     74  F   UNL     1       5.377  -0.659   1.442  1.00  0.00    -0.206 F 
ATOM     75  C   UNL     1       6.162   0.704  -0.292  1.00  0.00     0.059 A 
ATOM     76  C   UNL     1       6.628   3.038   0.135  1.00  0.00     0.059 A 
ATOM     77  F   UNL     1       6.352   3.923   2.297  1.00  0.00    -0.206 F 
ATOM     78  C   UNL     1       6.491   1.974  -0.760  1.00  0.00     0.060 A 
BRANCH  78  79
ATOM     79  S   UNL     1       6.432   2.275  -2.557  1.00  0.00     0.124 S 
ATOM     80  O   UNL     1       7.748   1.825  -2.989  1.00  0.00    -0.237 OA
ATOM     81  O   UNL     1       5.308   1.442  -2.984  1.00  0.00    -0.237 OA
ATOM     82  O   UNL     1       6.184   3.709  -2.642  1.00  0.00    -0.744 OA
ENDBRANCH  78  79
ENDBRANCH  46  71
BRANCH  58  83
ATOM     83  C   UNL     1       3.862   4.264   8.435  1.00  0.00     0.058 A 
ATOM     84  C   UNL     1       5.229   4.440   8.725  1.00  0.00     0.135 A 
ATOM     85  C   UNL     1       2.958   4.824   9.364  1.00  0.00     0.135 A 
ATOM     86  F   UNL     1       6.191   4.100   7.853  1.00  0.00    -0.206 F 
ATOM     87  C   UNL     1       5.668   5.005   9.912  1.00  0.00     0.059 A 
ATOM     88  C   UNL     1       3.379   5.468  10.519  1.00  0.00     0.059 A 
ATOM     89  F   UNL     1       1.632   4.782   9.175  1.00  0.00    -0.206 F 
ATOM     90  C   UNL     1       4.734   5.503  10.809  1.00  0.00     0.060 A 
BRANCH  90  91
ATOM     91  S   UNL     1       5.311   6.191  12.360  1.00  0.00     0.124 S 
ATOM     92  O   UNL     1       5.506   4.979  13.150  1.00  0.00    -0.237 OA
ATOM     93  O   UNL     1       6.531   6.890  11.965  1.00  0.00    -0.237 OA
ATOM     94  O   UNL     1       4.210   7.051  12.779  1.00  0.00    -0.744 OA
ENDBRANCH  90  91
ENDBRANCH  58  83
ENDBRANCH  32  33
ENDBRANCH  25  27
ENDBRANCH  24  25
ENDBRANCH  23  24
ENDBRANCH   1  23
TORSDOF 19
