REMARK SMILES CC(C)CCN(C(=O)N[C@H](C(=O)OCCOCCOC(=O)c1ccc(-c2c3nc(c(-c4c(F)cc(S(=O)(=O)[O-])cc4F)c4ccc([nH]4)c(-c4c(F)cc(S(=O)(=O)[O-])cc4F)c4nc(c(-c5c(F)cc(S(=O)(=O)[O-])cc5F)c5ccc2[nH]5)C=C4)C=C3)cc1)[C@H](C)O)C1CCCC1
REMARK SMILES IDX 15 1 14 2 13 3 11 4 12 5 10 6 9 7 7 8 8 9 6 11 5 12 4 13
REMARK SMILES IDX 2 14 1 15 3 16 91 17 92 18 95 19 93 20 94 21 88 22 89 23
REMARK SMILES IDX 90 24 16 26 17 27 18 28 19 29 20 30 21 31 22 32 23 33 87 34
REMARK SMILES IDX 24 35 86 36 25 37 26 38 27 39 80 40 28 41 85 42 79 43 81 44
REMARK SMILES IDX 29 45 84 46 78 47 77 48 30 50 64 51 43 52 63 53 44 54 47 55
REMARK SMILES IDX 62 56 82 57 45 58 46 59 61 61 83 62 48 63 31 64 32 65 41 66
REMARK SMILES IDX 33 67 34 68 40 69 42 70 35 71 36 72 37 73 38 74 39 75 65 76
REMARK SMILES IDX 66 77 75 78 67 79 68 80 74 81 76 82 69 83 70 84 71 85 72 86
REMARK SMILES IDX 73 87 49 88 50 89 59 90 51 91 52 92 58 93 60 94 53 95 54 96
REMARK SMILES IDX 55 97 56 98 57 99
REMARK H PARENT 9 10 90 25 81 49 47 60
REMARK Flexibility Score: inf
ROOT
ATOM      1  C   UNL     1      -2.406   4.240   5.277  1.00  0.00     0.202 C 
ENDROOT
BRANCH   1   2
ATOM      2  C   UNL     1      -1.591   4.154   3.984  1.00  0.00     0.261 C 
BRANCH   2   3
ATOM      3  O   UNL     1      -2.486   4.058   2.869  1.00  0.00    -0.462 OA
BRANCH   3   4
ATOM      4  C   UNL     1      -2.296   3.005   2.030  1.00  0.00     0.331 C 
ATOM      5  O   UNL     1      -1.314   2.275   2.008  1.00  0.00    -0.250 OA
BRANCH   4   6
ATOM      6  C   UNL     1      -3.510   2.862   1.114  1.00  0.00     0.222 C 
BRANCH   6   7
ATOM      7  N   UNL     1      -3.016   2.955  -0.257  1.00  0.00    -0.322 N 
ATOM      8  C   UNL     1      -2.708   3.936  -1.117  1.00  0.00     0.318 C 
ATOM      9  O   UNL     1      -1.951   3.538  -2.012  1.00  0.00    -0.249 OA
ATOM     10  H   UNL     1      -2.871   2.066  -0.653  1.00  0.00     0.166 HD
BRANCH   8  11
ATOM     11  N   UNL     1      -3.173   5.230  -1.071  1.00  0.00    -0.322 N 
BRANCH  11  12
ATOM     12  C   UNL     1      -4.175   5.827  -0.156  1.00  0.00     0.122 C 
BRANCH  12  13
ATOM     13  C   UNL     1      -3.658   6.875   0.860  1.00  0.00     0.024 C 
BRANCH  13  14
ATOM     14  C   UNL     1      -3.811   8.357   0.429  1.00  0.00    -0.016 C 
ATOM     15  C   UNL     1      -5.271   8.801   0.308  1.00  0.00     0.007 C 
ATOM     16  C   UNL     1      -3.076   9.305   1.382  1.00  0.00     0.007 C 
ENDBRANCH  13  14
ENDBRANCH  12  13
ENDBRANCH  11  12
BRANCH  11  17
ATOM     17  C   UNL     1      -2.662   6.093  -2.168  1.00  0.00     0.087 C 
ATOM     18  C   UNL     1      -3.662   7.034  -2.842  1.00  0.00     0.025 C 
ATOM     19  C   UNL     1      -1.453   6.952  -1.785  1.00  0.00     0.025 C 
ATOM     20  C   UNL     1      -2.794   8.090  -3.505  1.00  0.00     0.002 C 
ATOM     21  C   UNL     1      -1.538   8.210  -2.648  1.00  0.00     0.002 C 
ENDBRANCH  11  17
ENDBRANCH   8  11
ENDBRANCH   6   7
BRANCH   6  22
ATOM     22  C   UNL     1      -4.319   1.556   1.352  1.00  0.00     0.145 C 
ATOM     23  C   UNL     1      -3.545   0.308   1.758  1.00  0.00     0.041 C 
BRANCH  22  24
ATOM     24  O   UNL     1      -5.100   1.229   0.191  1.00  0.00    -0.391 OA
ATOM     25  H   UNL     1      -4.508   1.009  -0.546  1.00  0.00     0.211 HD
ENDBRANCH  22  24
ENDBRANCH   6  22
ENDBRANCH   4   6
ENDBRANCH   3   4
ENDBRANCH   2   3
ENDBRANCH   1   2
BRANCH   1  26
ATOM     26  O   UNL     1      -3.175   3.082   5.619  1.00  0.00    -0.374 OA
BRANCH  26  27
ATOM     27  C   UNL     1      -4.354   2.818   4.864  1.00  0.00     0.202 C 
BRANCH  27  28
ATOM     28  C   UNL     1      -5.618   3.625   5.183  1.00  0.00     0.261 C 
BRANCH  28  29
ATOM     29  O   UNL     1      -5.412   5.042   5.112  1.00  0.00    -0.460 OA
BRANCH  29  30
ATOM     30  C   UNL     1      -5.319   5.638   6.324  1.00  0.00     0.338 C 
ATOM     31  O   UNL     1      -5.463   5.105   7.419  1.00  0.00    -0.246 OA
BRANCH  30  32
ATOM     32  C   UNL     1      -4.838   7.020   6.181  1.00  0.00     0.060 A 
ATOM     33  C   UNL     1      -3.728   7.388   6.950  1.00  0.00     0.016 A 
ATOM     34  C   UNL     1      -5.493   7.958   5.379  1.00  0.00     0.016 A 
ATOM     35  C   UNL     1      -3.301   8.710   6.964  1.00  0.00     0.010 A 
ATOM     36  C   UNL     1      -5.066   9.291   5.399  1.00  0.00     0.010 A 
ATOM     37  C   UNL     1      -3.992   9.677   6.220  1.00  0.00    -0.014 A 
BRANCH  37  38
ATOM     38  C   UNL     1      -3.641  11.104   6.414  1.00  0.00     0.031 A 
ATOM     39  C   UNL     1      -4.468  11.947   7.344  1.00  0.00     0.074 A 
ATOM     40  C   UNL     1      -2.545  11.613   5.825  1.00  0.00     0.049 A 
ATOM     41  N   UNL     1      -4.285  13.186   7.722  1.00  0.00    -0.248 NA
ATOM     42  C   UNL     1      -5.660  11.310   7.927  1.00  0.00     0.031 C 
ATOM     43  C   UNL     1      -1.655  10.881   4.925  1.00  0.00     0.029 A 
ATOM     44  N   UNL     1      -1.987  12.863   5.909  1.00  0.00    -0.354 N 
ATOM     45  C   UNL     1      -5.331  13.476   8.591  1.00  0.00     0.074 A 
ATOM     46  C   UNL     1      -6.167  12.296   8.653  1.00  0.00     0.031 C 
ATOM     47  C   UNL     1      -0.655  11.693   4.546  1.00  0.00     0.029 A 
ATOM     48  C   UNL     1      -0.844  13.006   5.161  1.00  0.00     0.049 A 
ATOM     49  H   UNL     1      -2.369  13.588   6.454  1.00  0.00     0.167 HD
ATOM     50  C   UNL     1      -5.565  14.617   9.283  1.00  0.00     0.037 A 
ATOM     51  C   UNL     1      -0.043  14.075   4.991  1.00  0.00     0.037 A 
ATOM     52  C   UNL     1      -4.731  15.790   9.210  1.00  0.00     0.049 A 
ATOM     53  C   UNL     1      -0.349  15.348   5.734  1.00  0.00     0.074 A 
ATOM     54  C   UNL     1      -4.869  16.989   9.887  1.00  0.00     0.029 A 
ATOM     55  N   UNL     1      -3.608  15.914   8.404  1.00  0.00    -0.354 N 
ATOM     56  N   UNL     1      -1.323  15.597   6.579  1.00  0.00    -0.248 NA
ATOM     57  C   UNL     1       0.555  16.482   5.506  1.00  0.00     0.031 C 
ATOM     58  C   UNL     1      -3.857  17.855   9.454  1.00  0.00     0.029 A 
ATOM     59  C   UNL     1      -3.060  17.179   8.544  1.00  0.00     0.049 A 
ATOM     60  H   UNL     1      -3.253  15.207   7.818  1.00  0.00     0.167 HD
ATOM     61  C   UNL     1      -1.138  16.912   6.995  1.00  0.00     0.074 A 
ATOM     62  C   UNL     1       0.051  17.396   6.324  1.00  0.00     0.031 C 
ATOM     63  C   UNL     1      -1.885  17.651   7.854  1.00  0.00     0.037 A 
BRANCH  50  64
ATOM     64  C   UNL     1      -6.787  14.656  10.158  1.00  0.00     0.058 A 
ATOM     65  C   UNL     1      -6.867  13.921  11.352  1.00  0.00     0.135 A 
ATOM     66  C   UNL     1      -7.891  15.449   9.805  1.00  0.00     0.135 A 
ATOM     67  F   UNL     1      -5.848  13.133  11.730  1.00  0.00    -0.206 F 
ATOM     68  C   UNL     1      -8.009  13.944  12.147  1.00  0.00     0.059 A 
ATOM     69  C   UNL     1      -9.034  15.507  10.597  1.00  0.00     0.059 A 
ATOM     70  F   UNL     1      -7.870  16.171   8.673  1.00  0.00    -0.206 F 
ATOM     71  C   UNL     1      -9.091  14.736  11.758  1.00  0.00     0.060 A 
BRANCH  71  72
ATOM     72  S   UNL     1     -10.573  14.744  12.789  1.00  0.00     0.124 S 
ATOM     73  O   UNL     1     -11.147  13.438  12.481  1.00  0.00    -0.237 OA
ATOM     74  O   UNL     1     -10.020  14.893  14.131  1.00  0.00    -0.237 OA
ATOM     75  O   UNL     1     -11.325  15.893  12.293  1.00  0.00    -0.744 OA
ENDBRANCH  71  72
ENDBRANCH  50  64
BRANCH  51  76
ATOM     76  C   UNL     1       1.131  13.979   4.085  1.00  0.00     0.058 A 
ATOM     77  C   UNL     1       2.439  13.966   4.590  1.00  0.00     0.135 A 
ATOM     78  C   UNL     1       0.963  13.871   2.696  1.00  0.00     0.135 A 
ATOM     79  F   UNL     1       2.649  14.077   5.911  1.00  0.00    -0.206 F 
ATOM     80  C   UNL     1       3.542  13.854   3.750  1.00  0.00     0.059 A 
ATOM     81  C   UNL     1       2.049  13.734   1.838  1.00  0.00     0.059 A 
ATOM     82  F   UNL     1      -0.269  13.866   2.165  1.00  0.00    -0.206 F 
ATOM     83  C   UNL     1       3.336  13.732   2.374  1.00  0.00     0.060 A 
BRANCH  83  84
ATOM     84  S   UNL     1       4.769  13.514   1.298  1.00  0.00     0.124 S 
ATOM     85  O   UNL     1       5.339  14.856   1.292  1.00  0.00    -0.237 OA
ATOM     86  O   UNL     1       5.535  12.497   2.012  1.00  0.00    -0.237 OA
ATOM     87  O   UNL     1       4.178  13.072   0.039  1.00  0.00    -0.744 OA
ENDBRANCH  83  84
ENDBRANCH  51  76
BRANCH  63  88
ATOM     88  C   UNL     1      -1.428  19.061   8.117  1.00  0.00     0.058 A 
ATOM     89  C   UNL     1      -1.553  20.068   7.147  1.00  0.00     0.135 A 
ATOM     90  C   UNL     1      -0.873  19.412   9.359  1.00  0.00     0.135 A 
ATOM     91  F   UNL     1      -2.073  19.784   5.942  1.00  0.00    -0.206 F 
ATOM     92  C   UNL     1      -1.110  21.365   7.385  1.00  0.00     0.059 A 
ATOM     93  C   UNL     1      -0.449  20.709   9.628  1.00  0.00     0.059 A 
ATOM     94  F   UNL     1      -0.743  18.491  10.327  1.00  0.00    -0.206 F 
ATOM     95  C   UNL     1      -0.553  21.675   8.627  1.00  0.00     0.060 A 
BRANCH  95  96
ATOM     96  S   UNL     1       0.020  23.361   8.925  1.00  0.00     0.124 S 
ATOM     97  O   UNL     1       1.271  23.381   8.174  1.00  0.00    -0.237 OA
ATOM     98  O   UNL     1      -1.065  24.164   8.370  1.00  0.00    -0.237 OA
ATOM     99  O   UNL     1       0.157  23.421  10.377  1.00  0.00    -0.744 OA
ENDBRANCH  95  96
ENDBRANCH  63  88
ENDBRANCH  37  38
ENDBRANCH  30  32
ENDBRANCH  29  30
ENDBRANCH  28  29
ENDBRANCH  27  28
ENDBRANCH  26  27
ENDBRANCH   1  26
TORSDOF 25
