REMARK SMILES O=C(CSc1nc2cccnc2n1C1CCCCCC1)OCCOCCOC(=O)c1ccc(-c2c3nc(c(-c4c(F)cc(S(=O)(=O)[O-])cc4F)c4ccc([nH]4)c(-c4c(F)cc(S(=O)(=O)[O-])cc4F)c4nc(c(-c5c(F)cc(S(=O)(=O)[O-])cc5F)c5ccc2[nH]5)C=C4)C=C3)cc1
REMARK SMILES IDX 22 1 21 2 2 3 1 4 3 5 4 6 5 7 6 8 13 9 7 10 12 11 8 12 11 13
REMARK SMILES IDX 9 14 10 15 14 16 15 17 16 18 17 19 18 20 20 22 19 23 23 25
REMARK SMILES IDX 24 26 25 27 26 28 27 29 28 30 29 31 30 32 31 33 95 34 32 35
REMARK SMILES IDX 94 36 33 37 34 38 35 39 88 40 36 41 93 42 87 43 89 44 37 45
REMARK SMILES IDX 92 46 86 47 85 48 38 50 72 51 51 52 71 53 52 54 55 55 70 56
REMARK SMILES IDX 90 57 53 58 54 59 69 61 91 62 56 63 39 64 40 65 49 66 41 67
REMARK SMILES IDX 42 68 48 69 50 70 43 71 44 72 45 73 46 74 47 75 73 76 74 77
REMARK SMILES IDX 83 78 75 79 76 80 82 81 84 82 77 83 78 84 79 85 80 86 81 87
REMARK SMILES IDX 57 88 58 89 67 90 59 91 60 92 66 93 68 94 61 95 62 96 63 97
REMARK SMILES IDX 64 98 65 99
REMARK H PARENT 89 49 55 60
REMARK Flexibility Score: 80.00
ROOT
ATOM      1  C   UNL     1       4.287   0.575  -0.508  1.00  0.00     0.261 C 
ENDROOT
BRANCH   1   2
ATOM      2  O   UNL     1       2.879   0.420  -0.308  1.00  0.00    -0.463 OA
BRANCH   2   3
ATOM      3  C   UNL     1       2.256  -0.684   0.158  1.00  0.00     0.316 C 
ATOM      4  O   UNL     1       1.047  -0.619   0.390  1.00  0.00    -0.251 OA
BRANCH   3   5
ATOM      5  C   UNL     1       3.021  -1.935   0.512  1.00  0.00     0.200 C 
BRANCH   5   6
ATOM      6  S   UNL     1       4.031  -2.616  -0.804  1.00  0.00    -0.076 SA
BRANCH   6   7
ATOM      7  C   UNL     1       2.862  -3.475  -1.726  1.00  0.00     0.171 A 
ATOM      8  N   UNL     1       2.856  -4.786  -1.724  1.00  0.00    -0.221 NA
ATOM      9  N   UNL     1       1.982  -2.926  -2.636  1.00  0.00    -0.301 N 
ATOM     10  C   UNL     1       1.985  -5.123  -2.711  1.00  0.00     0.109 A 
ATOM     11  C   UNL     1       1.381  -3.997  -3.258  1.00  0.00     0.160 A 
ATOM     12  C   UNL     1       1.680  -6.373  -3.252  1.00  0.00     0.034 A 
ATOM     13  N   UNL     1       0.474  -3.970  -4.251  1.00  0.00    -0.237 NA
ATOM     14  C   UNL     1       0.773  -6.397  -4.309  1.00  0.00     0.022 A 
ATOM     15  C   UNL     1       0.205  -5.203  -4.742  1.00  0.00     0.113 A 
BRANCH   9  16
ATOM     16  C   UNL     1       1.856  -1.528  -3.061  1.00  0.00     0.091 C 
BRANCH  16  17
ATOM     17  C   UNL     1       2.382  -1.302  -4.492  1.00  0.00     0.025 C 
BRANCH  17  18
ATOM     18  C   UNL     1       1.316  -1.079  -5.566  1.00  0.00     0.002 C 
BRANCH  18  19
ATOM     19  C   UNL     1       0.842   0.371  -5.654  1.00  0.00     0.000 C 
BRANCH  19  20
ATOM     20  C   UNL     1      -0.073   0.848  -4.529  1.00  0.00     0.000 CG0
ATOM     21  G   UNL     1       0.414   0.574  -3.109  1.00  0.00     0.000 G0
ENDBRANCH  19  20
ENDBRANCH  18  19
ENDBRANCH  17  18
ENDBRANCH  16  17
BRANCH  16  22
ATOM     22  C   UNL     1       0.469  -0.924  -2.783  1.00  0.00     0.025 C 
BRANCH  22  23
ATOM     23  C   UNL     1       0.414   0.574  -3.109  1.00  0.00     0.002 CG0
ATOM     24  G   UNL     1      -0.073   0.848  -4.529  1.00  0.00     0.000 G0
ENDBRANCH  22  23
ENDBRANCH  16  22
ENDBRANCH   9  16
ENDBRANCH   6   7
ENDBRANCH   5   6
ENDBRANCH   3   5
ENDBRANCH   2   3
ENDBRANCH   1   2
BRANCH   1  25
ATOM     25  C   UNL     1       5.155   0.731   0.740  1.00  0.00     0.202 C 
BRANCH  25  26
ATOM     26  O   UNL     1       4.738   0.258   2.012  1.00  0.00    -0.374 OA
BRANCH  26  27
ATOM     27  C   UNL     1       3.529   0.624   2.672  1.00  0.00     0.202 C 
BRANCH  27  28
ATOM     28  C   UNL     1       3.064   2.058   2.848  1.00  0.00     0.261 C 
BRANCH  28  29
ATOM     29  O   UNL     1       3.284   2.831   1.690  1.00  0.00    -0.460 OA
BRANCH  29  30
ATOM     30  C   UNL     1       4.477   3.461   1.766  1.00  0.00     0.338 C 
ATOM     31  O   UNL     1       5.364   3.246   2.572  1.00  0.00    -0.246 OA
BRANCH  30  32
ATOM     32  C   UNL     1       4.518   4.543   0.770  1.00  0.00     0.060 A 
ATOM     33  C   UNL     1       5.692   5.280   0.900  1.00  0.00     0.016 A 
ATOM     34  C   UNL     1       3.276   5.133   0.497  1.00  0.00     0.016 A 
ATOM     35  C   UNL     1       5.540   6.592   1.251  1.00  0.00     0.010 A 
ATOM     36  C   UNL     1       3.124   6.448   0.849  1.00  0.00     0.010 A 
ATOM     37  C   UNL     1       4.244   7.123   1.323  1.00  0.00    -0.014 A 
BRANCH  37  38
ATOM     38  C   UNL     1       4.143   8.508   1.699  1.00  0.00     0.031 A 
ATOM     39  C   UNL     1       4.641   9.354   0.598  1.00  0.00     0.074 A 
ATOM     40  C   UNL     1       3.642   8.946   2.864  1.00  0.00     0.049 A 
ATOM     41  N   UNL     1       5.799   9.918   0.517  1.00  0.00    -0.248 NA
ATOM     42  C   UNL     1       3.900   9.305  -0.674  1.00  0.00     0.031 C 
ATOM     43  C   UNL     1       2.907   8.216   3.897  1.00  0.00     0.029 A 
ATOM     44  N   UNL     1       3.644  10.218   3.332  1.00  0.00    -0.354 N 
ATOM     45  C   UNL     1       5.812  10.521  -0.731  1.00  0.00     0.074 A 
ATOM     46  C   UNL     1       4.768   9.894  -1.494  1.00  0.00     0.031 C 
ATOM     47  C   UNL     1       2.341   9.107   4.749  1.00  0.00     0.029 A 
ATOM     48  C   UNL     1       2.791  10.446   4.403  1.00  0.00     0.049 A 
ATOM     49  H   UNL     1       4.206  10.926   2.941  1.00  0.00     0.167 HD
ATOM     50  C   UNL     1       6.456  11.702  -0.914  1.00  0.00     0.037 A 
ATOM     51  C   UNL     1       2.446  11.672   4.875  1.00  0.00     0.037 A 
ATOM     52  C   UNL     1       7.443  11.916   0.118  1.00  0.00     0.049 A 
ATOM     53  C   UNL     1       3.510  12.617   4.422  1.00  0.00     0.074 A 
ATOM     54  C   UNL     1       8.560  11.221   0.544  1.00  0.00     0.029 A 
ATOM     55  N   UNL     1       7.113  12.761   1.152  1.00  0.00    -0.354 N 
ATOM     56  N   UNL     1       4.749  12.562   4.835  1.00  0.00    -0.248 NA
ATOM     57  C   UNL     1       3.311  13.298   3.150  1.00  0.00     0.031 C 
ATOM     58  C   UNL     1       8.557  11.342   1.964  1.00  0.00     0.029 A 
ATOM     59  C   UNL     1       7.484  12.157   2.327  1.00  0.00     0.049 A 
ATOM     60  H   UNL     1       6.686  13.644   1.065  1.00  0.00     0.167 HD
ATOM     61  C   UNL     1       5.518  12.822   3.708  1.00  0.00     0.074 A 
ATOM     62  C   UNL     1       4.573  13.330   2.715  1.00  0.00     0.031 C 
ATOM     63  C   UNL     1       6.789  12.336   3.586  1.00  0.00     0.037 A 
BRANCH  50  64
ATOM     64  C   UNL     1       5.882  12.817  -1.756  1.00  0.00     0.058 A 
ATOM     65  C   UNL     1       6.653  13.976  -1.962  1.00  0.00     0.135 A 
ATOM     66  C   UNL     1       4.521  12.918  -2.137  1.00  0.00     0.135 A 
ATOM     67  F   UNL     1       7.954  13.998  -1.634  1.00  0.00    -0.206 F 
ATOM     68  C   UNL     1       6.096  15.166  -2.431  1.00  0.00     0.059 A 
ATOM     69  C   UNL     1       3.962  14.073  -2.659  1.00  0.00     0.059 A 
ATOM     70  F   UNL     1       3.629  11.943  -1.937  1.00  0.00    -0.206 F 
ATOM     71  C   UNL     1       4.745  15.206  -2.762  1.00  0.00     0.060 A 
BRANCH  71  72
ATOM     72  S   UNL     1       3.997  16.760  -3.265  1.00  0.00     0.124 S 
ATOM     73  O   UNL     1       4.094  17.539  -2.036  1.00  0.00    -0.237 OA
ATOM     74  O   UNL     1       4.872  17.170  -4.358  1.00  0.00    -0.237 OA
ATOM     75  O   UNL     1       2.647  16.370  -3.662  1.00  0.00    -0.744 OA
ENDBRANCH  71  72
ENDBRANCH  50  64
BRANCH  51  76
ATOM     76  C   UNL     1       1.087  12.139   5.276  1.00  0.00     0.058 A 
ATOM     77  C   UNL     1       0.901  13.400   5.872  1.00  0.00     0.135 A 
ATOM     78  C   UNL     1      -0.082  11.496   4.818  1.00  0.00     0.135 A 
ATOM     79  F   UNL     1       1.958  14.095   6.321  1.00  0.00    -0.206 F 
ATOM     80  C   UNL     1      -0.356  14.012   5.957  1.00  0.00     0.059 A 
ATOM     81  C   UNL     1      -1.345  12.082   4.899  1.00  0.00     0.059 A 
ATOM     82  F   UNL     1      -0.022  10.313   4.189  1.00  0.00    -0.206 F 
ATOM     83  C   UNL     1      -1.472  13.353   5.444  1.00  0.00     0.060 A 
BRANCH  83  84
ATOM     84  S   UNL     1      -3.067  14.206   5.392  1.00  0.00     0.124 S 
ATOM     85  O   UNL     1      -3.392  14.327   6.809  1.00  0.00    -0.237 OA
ATOM     86  O   UNL     1      -2.728  15.449   4.708  1.00  0.00    -0.237 OA
ATOM     87  O   UNL     1      -3.917  13.292   4.634  1.00  0.00    -0.744 OA
ENDBRANCH  83  84
ENDBRANCH  51  76
BRANCH  63  88
ATOM     88  C   UNL     1       7.453  11.749   4.808  1.00  0.00     0.058 A 
ATOM     89  C   UNL     1       7.035  10.573   5.460  1.00  0.00     0.135 A 
ATOM     90  C   UNL     1       8.669  12.311   5.226  1.00  0.00     0.135 A 
ATOM     91  F   UNL     1       5.934   9.920   5.061  1.00  0.00    -0.206 F 
ATOM     92  C   UNL     1       7.780  10.000   6.495  1.00  0.00     0.059 A 
ATOM     93  C   UNL     1       9.442  11.741   6.233  1.00  0.00     0.059 A 
ATOM     94  F   UNL     1       9.152  13.400   4.606  1.00  0.00    -0.206 F 
ATOM     95  C   UNL     1       8.989  10.589   6.870  1.00  0.00     0.060 A 
BRANCH  95  96
ATOM     96  S   UNL     1       9.998   9.804   8.147  1.00  0.00     0.124 S 
ATOM     97  O   UNL     1       9.185   9.993   9.343  1.00  0.00    -0.237 OA
ATOM     98  O   UNL     1      10.107   8.430   7.665  1.00  0.00    -0.237 OA
ATOM     99  O   UNL     1      11.245  10.566   8.115  1.00  0.00    -0.744 OA
ENDBRANCH  95  96
ENDBRANCH  63  88
ENDBRANCH  37  38
ENDBRANCH  30  32
ENDBRANCH  29  30
ENDBRANCH  28  29
ENDBRANCH  27  28
ENDBRANCH  26  27
ENDBRANCH  25  26
ENDBRANCH   1  25
TORSDOF 20
