REMARK SMILES O=C(OCCOCCOC(=O)[C@@H]1[NH2+]CC[C@H]1c1ccc2c(c1)OCCCO2)c1ccc(-c2c3nc(c(-c4c(F)cc(S(=O)(=O)[O-])cc4F)c4ccc([nH]4)c(-c4c(F)cc(S(=O)(=O)[O-])cc4F)c4nc(c(-c5c(F)cc(S(=O)(=O)[O-])cc5F)c5ccc2[nH]5)C=C4)C=C3)cc1
REMARK SMILES IDX 7 1 6 2 5 3 4 4 3 5 2 6 1 7 28 8 29 9 93 10 30 11 92 12
REMARK SMILES IDX 31 13 32 14 33 15 86 16 34 17 91 18 85 19 87 20 35 21 90 22
REMARK SMILES IDX 84 23 83 24 36 26 70 27 49 28 69 29 50 30 53 31 68 32 88 33
REMARK SMILES IDX 51 34 52 35 67 37 89 38 54 39 37 40 38 41 47 42 39 43 40 44
REMARK SMILES IDX 46 45 48 46 41 47 42 48 43 49 44 50 45 51 71 52 72 53 81 54
REMARK SMILES IDX 73 55 74 56 80 57 82 58 75 59 76 60 77 61 78 62 79 63 55 64
REMARK SMILES IDX 56 65 65 66 57 67 58 68 64 69 66 70 59 71 60 72 61 73 62 74
REMARK SMILES IDX 63 75 8 76 9 77 10 78 11 79 12 80 13 81 16 82 14 83 15 86
REMARK SMILES IDX 17 87 18 88 22 89 19 90 21 91 20 92 23 93 24 94 27 96 26 97
REMARK SMILES IDX 25 98
REMARK H PARENT 87 25 53 36 13 84 13 85
REMARK Flexibility Score: 80.00
ROOT
ATOM      1  C   UNL     1       5.953   2.641  -2.352  1.00  0.00     0.202 C 
ENDROOT
BRANCH   1   2
ATOM      2  O   UNL     1       4.740   2.180  -1.746  1.00  0.00    -0.374 OA
BRANCH   2   3
ATOM      3  C   UNL     1       4.862   1.619  -0.439  1.00  0.00     0.202 C 
BRANCH   3   4
ATOM      4  C   UNL     1       4.942   0.092  -0.421  1.00  0.00     0.261 C 
BRANCH   4   5
ATOM      5  O   UNL     1       6.076  -0.385  -1.159  1.00  0.00    -0.460 OA
BRANCH   5   6
ATOM      6  C   UNL     1       6.210  -0.587  -2.490  1.00  0.00     0.338 C 
ATOM      7  O   UNL     1       7.332  -0.890  -2.899  1.00  0.00    -0.246 OA
BRANCH   6   8
ATOM      8  C   UNL     1       5.116  -0.430  -3.511  1.00  0.00     0.060 A 
ATOM      9  C   UNL     1       5.458  -0.761  -4.837  1.00  0.00     0.016 A 
ATOM     10  C   UNL     1       3.831   0.077  -3.290  1.00  0.00     0.016 A 
ATOM     11  C   UNL     1       4.561  -0.563  -5.889  1.00  0.00     0.010 A 
ATOM     12  C   UNL     1       2.941   0.305  -4.330  1.00  0.00     0.010 A 
ATOM     13  C   UNL     1       3.298  -0.024  -5.630  1.00  0.00    -0.014 A 
BRANCH  13  14
ATOM     14  C   UNL     1       2.240  -0.005  -6.647  1.00  0.00     0.031 A 
ATOM     15  C   UNL     1       1.807   1.270  -7.292  1.00  0.00     0.074 A 
ATOM     16  C   UNL     1       1.601  -1.172  -6.845  1.00  0.00     0.049 A 
ATOM     17  N   UNL     1       0.943   1.437  -8.255  1.00  0.00    -0.248 NA
ATOM     18  C   UNL     1       2.391   2.523  -6.782  1.00  0.00     0.031 C 
ATOM     19  C   UNL     1       1.889  -2.414  -6.114  1.00  0.00     0.029 A 
ATOM     20  N   UNL     1       0.582  -1.511  -7.685  1.00  0.00    -0.354 N 
ATOM     21  C   UNL     1       0.903   2.805  -8.495  1.00  0.00     0.074 A 
ATOM     22  C   UNL     1       1.780   3.433  -7.532  1.00  0.00     0.031 C 
ATOM     23  C   UNL     1       1.085  -3.386  -6.563  1.00  0.00     0.029 A 
ATOM     24  C   UNL     1       0.230  -2.837  -7.606  1.00  0.00     0.049 A 
ATOM     25  H   UNL     1       0.141  -0.870  -8.288  1.00  0.00     0.167 HD
ATOM     26  C   UNL     1       0.206   3.449  -9.459  1.00  0.00     0.037 A 
ATOM     27  C   UNL     1      -0.665  -3.533  -8.326  1.00  0.00     0.037 A 
ATOM     28  C   UNL     1      -0.672   2.761 -10.373  1.00  0.00     0.049 A 
ATOM     29  C   UNL     1      -1.381  -2.805  -9.425  1.00  0.00     0.074 A 
ATOM     30  C   UNL     1      -1.377   3.277 -11.444  1.00  0.00     0.029 A 
ATOM     31  N   UNL     1      -0.971   1.405 -10.308  1.00  0.00    -0.354 N 
ATOM     32  N   UNL     1      -1.299  -1.536  -9.751  1.00  0.00    -0.248 NA
ATOM     33  C   UNL     1      -2.285  -3.591 -10.268  1.00  0.00     0.031 C 
ATOM     34  C   UNL     1      -2.140   2.244 -11.996  1.00  0.00     0.029 A 
ATOM     35  C   UNL     1      -1.866   1.070 -11.307  1.00  0.00     0.049 A 
ATOM     36  H   UNL     1      -0.600   0.776  -9.648  1.00  0.00     0.167 HD
ATOM     37  C   UNL     1      -2.122  -1.373 -10.854  1.00  0.00     0.074 A 
ATOM     38  C   UNL     1      -2.683  -2.679 -11.146  1.00  0.00     0.031 C 
ATOM     39  C   UNL     1      -2.392  -0.250 -11.562  1.00  0.00     0.037 A 
BRANCH  26  40
ATOM     40  C   UNL     1       0.387   4.934  -9.625  1.00  0.00     0.058 A 
ATOM     41  C   UNL     1       1.588   5.465 -10.125  1.00  0.00     0.135 A 
ATOM     42  C   UNL     1      -0.682   5.824  -9.425  1.00  0.00     0.135 A 
ATOM     43  F   UNL     1       2.649   4.667 -10.325  1.00  0.00    -0.206 F 
ATOM     44  C   UNL     1       1.718   6.816 -10.434  1.00  0.00     0.059 A 
ATOM     45  C   UNL     1      -0.582   7.176  -9.749  1.00  0.00     0.059 A 
ATOM     46  F   UNL     1      -1.853   5.376  -8.944  1.00  0.00    -0.206 F 
ATOM     47  C   UNL     1       0.621   7.661 -10.259  1.00  0.00     0.060 A 
BRANCH  47  48
ATOM     48  S   UNL     1       0.789   9.392 -10.750  1.00  0.00     0.124 S 
ATOM     49  O   UNL     1       1.765   9.881  -9.781  1.00  0.00    -0.237 OA
ATOM     50  O   UNL     1       1.266   9.277 -12.125  1.00  0.00    -0.237 OA
ATOM     51  O   UNL     1      -0.562   9.924 -10.600  1.00  0.00    -0.744 OA
ENDBRANCH  47  48
ENDBRANCH  26  40
BRANCH  27  52
ATOM     52  C   UNL     1      -0.828  -4.988  -8.082  1.00  0.00     0.058 A 
ATOM     53  C   UNL     1      -0.340  -5.929  -9.000  1.00  0.00     0.135 A 
ATOM     54  C   UNL     1      -1.391  -5.470  -6.889  1.00  0.00     0.135 A 
ATOM     55  F   UNL     1       0.227  -5.518 -10.145  1.00  0.00    -0.206 F 
ATOM     56  C   UNL     1      -0.426  -7.296  -8.758  1.00  0.00     0.059 A 
ATOM     57  C   UNL     1      -1.464  -6.832  -6.613  1.00  0.00     0.059 A 
ATOM     58  F   UNL     1      -1.833  -4.610  -5.958  1.00  0.00    -0.206 F 
ATOM     59  C   UNL     1      -0.990  -7.738  -7.560  1.00  0.00     0.060 A 
BRANCH  59  60
ATOM     60  S   UNL     1      -1.069  -9.514  -7.248  1.00  0.00     0.124 S 
ATOM     61  O   UNL     1      -2.072  -9.937  -8.218  1.00  0.00    -0.237 OA
ATOM     62  O   UNL     1       0.302  -9.934  -7.522  1.00  0.00    -0.237 OA
ATOM     63  O   UNL     1      -1.473  -9.593  -5.847  1.00  0.00    -0.744 OA
ENDBRANCH  59  60
ENDBRANCH  27  52
BRANCH  39  64
ATOM     64  C   UNL     1      -3.326  -0.383 -12.727  1.00  0.00     0.058 A 
ATOM     65  C   UNL     1      -4.708  -0.519 -12.536  1.00  0.00     0.135 A 
ATOM     66  C   UNL     1      -2.844  -0.251 -14.038  1.00  0.00     0.135 A 
ATOM     67  F   UNL     1      -5.211  -0.660 -11.299  1.00  0.00    -0.206 F 
ATOM     68  C   UNL     1      -5.586  -0.515 -13.611  1.00  0.00     0.059 A 
ATOM     69  C   UNL     1      -3.707  -0.215 -15.126  1.00  0.00     0.059 A 
ATOM     70  F   UNL     1      -1.528  -0.111 -14.265  1.00  0.00    -0.206 F 
ATOM     71  C   UNL     1      -5.077  -0.346 -14.901  1.00  0.00     0.060 A 
BRANCH  71  72
ATOM     72  S   UNL     1      -6.242  -0.253 -16.274  1.00  0.00     0.124 S 
ATOM     73  O   UNL     1      -6.742  -1.623 -16.330  1.00  0.00    -0.237 OA
ATOM     74  O   UNL     1      -7.192   0.750 -15.804  1.00  0.00    -0.237 OA
ATOM     75  O   UNL     1      -5.410   0.158 -17.401  1.00  0.00    -0.744 OA
ENDBRANCH  71  72
ENDBRANCH  39  64
ENDBRANCH  13  14
ENDBRANCH   6   8
ENDBRANCH   5   6
ENDBRANCH   4   5
ENDBRANCH   3   4
ENDBRANCH   2   3
ENDBRANCH   1   2
BRANCH   1  76
ATOM     76  C   UNL     1       6.018   4.163  -2.313  1.00  0.00     0.261 C 
BRANCH  76  77
ATOM     77  O   UNL     1       6.010   4.559  -0.937  1.00  0.00    -0.459 OA
BRANCH  77  78
ATOM     78  C   UNL     1       4.782   4.788  -0.389  1.00  0.00     0.365 C 
ATOM     79  O   UNL     1       3.748   4.951  -1.030  1.00  0.00    -0.245 OA
BRANCH  78  80
ATOM     80  C   UNL     1       4.855   4.728   1.158  1.00  0.00     0.301 C 
ATOM     81  N   UNL     1       4.228   5.949   1.724  1.00  0.00    -0.334 N 
ATOM     82  C   UNL     1       6.287   4.780   1.725  1.00  0.00     0.095 C 
ATOM     83  C   UNL     1       5.263   6.986   1.611  1.00  0.00     0.262 C 
ATOM     84  H   UNL     1       3.971   5.802   2.700  1.00  0.00     0.347 HD
ATOM     85  H   UNL     1       3.370   6.205   1.234  1.00  0.00     0.347 HD
ATOM     86  C   UNL     1       6.610   6.266   1.490  1.00  0.00     0.076 C 
BRANCH  82  87
ATOM     87  C   UNL     1       6.388   4.315   3.182  1.00  0.00    -0.034 A 
ATOM     88  C   UNL     1       6.506   5.227   4.243  1.00  0.00     0.008 A 
ATOM     89  C   UNL     1       6.380   2.940   3.496  1.00  0.00     0.054 A 
ATOM     90  C   UNL     1       6.635   4.795   5.561  1.00  0.00     0.051 A 
ATOM     91  C   UNL     1       6.538   2.503   4.821  1.00  0.00     0.161 A 
ATOM     92  C   UNL     1       6.671   3.438   5.847  1.00  0.00     0.161 A 
BRANCH  91  93
ATOM     93  O   UNL     1       6.446   1.157   5.061  1.00  0.00    -0.490 OA
BRANCH  93  94
ATOM     94  C   UNL     1       7.622   0.610   5.663  1.00  0.00     0.233 CG0
ATOM     95  G   UNL     1       7.738   0.890   7.157  1.00  0.00     0.000 G0
ENDBRANCH  93  94
ENDBRANCH  91  93
BRANCH  92  96
ATOM     96  O   UNL     1       6.766   3.108   7.170  1.00  0.00    -0.490 OA
BRANCH  96  97
ATOM     97  C   UNL     1       7.957   2.368   7.426  1.00  0.00     0.233 C 
BRANCH  97  98
ATOM     98  C   UNL     1       7.738   0.890   7.157  1.00  0.00     0.083 CG0
ATOM     99  G   UNL     1       7.622   0.610   5.663  1.00  0.00     0.000 G0
ENDBRANCH  97  98
ENDBRANCH  96  97
ENDBRANCH  92  96
ENDBRANCH  82  87
ENDBRANCH  78  80
ENDBRANCH  77  78
ENDBRANCH  76  77
ENDBRANCH   1  76
TORSDOF 18
