REMARK SMILES Cc1ccc([C@@]23C[C@@H]4C[C@@H](C[C@@](C(=O)N5CCC(C(=O)OCCOCCOC(=O)c6ccc(-c7c8nc(c(-c9c(F)cc(S(=O)(=O)[O-])cc9F)c9ccc([nH]9)c(-c9c(F)cc(S(=O)(=O)[O-])cc9F)c9nc(c(-c%10c(F)cc(S(=O)(=O)[O-])cc%10F)c%10ccc7[nH]%10)C=C9)C=C8)cc6)CC5)(C4)C2)C3)cc1
REMARK SMILES IDX 25 1 24 2 23 3 22 4 21 5 19 6 20 7 18 8 13 9 14 10 15 11
REMARK SMILES IDX 16 12 97 13 17 14 96 15 12 16 6 17 7 18 99 19 100 20 8 21
REMARK SMILES IDX 10 22 9 23 98 24 11 25 5 26 1 27 2 28 3 29 102 30 4 31
REMARK SMILES IDX 101 32 26 33 27 34 28 35 29 36 30 37 31 38 95 39 32 40 94 41
REMARK SMILES IDX 33 42 34 43 35 44 88 45 36 46 93 47 87 48 89 49 37 50 92 51
REMARK SMILES IDX 86 52 85 53 38 55 72 56 51 57 71 58 52 59 55 60 70 61 90 62
REMARK SMILES IDX 53 63 54 64 69 66 91 67 56 68 39 69 40 70 49 71 41 72 42 73
REMARK SMILES IDX 48 74 50 75 43 76 44 77 45 78 46 79 47 80 73 81 74 82 83 83
REMARK SMILES IDX 75 84 76 85 82 86 84 87 77 88 78 89 79 90 80 91 81 92 57 93
REMARK SMILES IDX 58 94 67 95 59 96 60 97 66 98 68 99 61 100 62 101 63 102
REMARK SMILES IDX 64 103 65 104
REMARK H PARENT 89 54 55 65
REMARK Flexibility Score: inf
ROOT
ATOM      1  C   UNL     1      -5.590  -2.537  -7.854  1.00  0.00     0.202 C 
ENDROOT
BRANCH   1   2
ATOM      2  O   UNL     1      -5.488  -3.602  -6.899  1.00  0.00    -0.374 OA
BRANCH   2   3
ATOM      3  C   UNL     1      -6.652  -4.390  -6.790  1.00  0.00     0.202 C 
BRANCH   3   4
ATOM      4  C   UNL     1      -7.521  -3.793  -5.712  1.00  0.00     0.261 C 
BRANCH   4   5
ATOM      5  O   UNL     1      -7.086  -4.108  -4.376  1.00  0.00    -0.463 OA
BRANCH   5   6
ATOM      6  C   UNL     1      -6.173  -5.093  -4.160  1.00  0.00     0.309 C 
ATOM      7  O   UNL     1      -6.127  -6.188  -4.702  1.00  0.00    -0.252 OA
BRANCH   6   8
ATOM      8  C   UNL     1      -5.178  -4.673  -3.132  1.00  0.00     0.103 C 
ATOM      9  C   UNL     1      -5.594  -2.366   0.046  1.00  0.00     0.228 C 
ATOM     10  O   UNL     1      -6.420  -2.865   0.812  1.00  0.00    -0.274 OA
ATOM     11  N   UNL     1      -4.789  -3.150  -0.798  1.00  0.00    -0.342 N 
ATOM     12  C   UNL     1      -4.812  -4.593  -0.644  1.00  0.00     0.120 C 
ATOM     13  C   UNL     1      -4.119  -2.723  -2.040  1.00  0.00     0.120 C 
ATOM     14  C   UNL     1      -5.644  -5.175  -1.764  1.00  0.00     0.037 C 
ATOM     15  C   UNL     1      -4.966  -3.157  -3.201  1.00  0.00     0.037 C 
BRANCH   9  16
ATOM     16  C   UNL     1      -5.288  -0.862   0.103  1.00  0.00     0.051 C 
ATOM     17  C   UNL     1      -3.162   0.579   0.229  1.00  0.00    -0.003 C 
ATOM     18  C   UNL     1      -3.666   1.230  -1.095  1.00  0.00     0.015 C 
ATOM     19  C   UNL     1      -3.773  -0.810   0.334  1.00  0.00     0.028 C 
ATOM     20  C   UNL     1      -3.759   1.348   1.434  1.00  0.00     0.015 C 
ATOM     21  C   UNL     1      -5.205   1.317  -1.146  1.00  0.00    -0.009 C 
ATOM     22  C   UNL     1      -5.311   1.341   1.365  1.00  0.00    -0.009 C 
ATOM     23  C   UNL     1      -5.728   2.079   0.081  1.00  0.00     0.007 C 
ATOM     24  C   UNL     1      -5.800  -0.095  -1.132  1.00  0.00     0.020 C 
ATOM     25  C   UNL     1      -5.877  -0.111   1.327  1.00  0.00     0.020 C 
BRANCH  17  26
ATOM     26  C   UNL     1      -1.623   0.458   0.232  1.00  0.00    -0.042 A 
ATOM     27  C   UNL     1       2.699   0.098  -0.032  1.00  0.00     0.044 C 
ATOM     28  C   UNL     1       1.213   0.243   0.060  1.00  0.00    -0.051 A 
ATOM     29  C   UNL     1       0.430  -0.901   0.141  1.00  0.00     0.004 A 
ATOM     30  C   UNL     1       0.581   1.492   0.068  1.00  0.00     0.004 A 
ATOM     31  C   UNL     1      -0.955  -0.791   0.242  1.00  0.00     0.004 A 
ATOM     32  C   UNL     1      -0.817   1.598   0.150  1.00  0.00     0.004 A 
ENDBRANCH  17  26
ENDBRANCH   9  16
ENDBRANCH   6   8
ENDBRANCH   5   6
ENDBRANCH   4   5
ENDBRANCH   3   4
ENDBRANCH   2   3
ENDBRANCH   1   2
BRANCH   1  33
ATOM     33  C   UNL     1      -6.968  -1.928  -8.284  1.00  0.00     0.261 C 
BRANCH  33  34
ATOM     34  O   UNL     1      -7.802  -2.886  -8.986  1.00  0.00    -0.460 OA
BRANCH  34  35
ATOM     35  C   UNL     1      -9.164  -2.720  -8.878  1.00  0.00     0.338 C 
ATOM     36  O   UNL     1      -9.738  -1.666  -8.812  1.00  0.00    -0.246 OA
BRANCH  35  37
ATOM     37  C   UNL     1      -9.796  -4.061  -8.599  1.00  0.00     0.060 A 
ATOM     38  C   UNL     1     -10.873  -4.117  -7.699  1.00  0.00     0.016 A 
ATOM     39  C   UNL     1      -9.055  -5.210  -8.850  1.00  0.00     0.016 A 
ATOM     40  C   UNL     1     -10.986  -5.200  -6.817  1.00  0.00     0.010 A 
ATOM     41  C   UNL     1      -9.076  -6.203  -7.885  1.00  0.00     0.010 A 
ATOM     42  C   UNL     1      -9.980  -6.160  -6.810  1.00  0.00    -0.014 A 
BRANCH  42  43
ATOM     43  C   UNL     1      -9.648  -7.010  -5.655  1.00  0.00     0.031 A 
ATOM     44  C   UNL     1      -9.455  -8.462  -5.876  1.00  0.00     0.074 A 
ATOM     45  C   UNL     1      -9.297  -6.464  -4.456  1.00  0.00     0.049 A 
ATOM     46  N   UNL     1      -9.312  -9.299  -4.915  1.00  0.00    -0.248 NA
ATOM     47  C   UNL     1      -9.434  -9.129  -7.182  1.00  0.00     0.031 C 
ATOM     48  C   UNL     1      -8.579  -7.083  -3.336  1.00  0.00     0.029 A 
ATOM     49  N   UNL     1      -9.584  -5.185  -3.956  1.00  0.00    -0.354 N 
ATOM     50  C   UNL     1      -8.777 -10.445  -5.440  1.00  0.00     0.074 A 
ATOM     51  C   UNL     1      -9.040 -10.363  -6.849  1.00  0.00     0.031 C 
ATOM     52  C   UNL     1      -8.733  -6.334  -2.230  1.00  0.00     0.029 A 
ATOM     53  C   UNL     1      -9.642  -5.253  -2.555  1.00  0.00     0.049 A 
ATOM     54  H   UNL     1      -9.722  -4.375  -4.497  1.00  0.00     0.167 HD
ATOM     55  C   UNL     1      -8.043 -11.240  -4.613  1.00  0.00     0.037 A 
ATOM     56  C   UNL     1     -10.818  -4.939  -1.955  1.00  0.00     0.037 A 
ATOM     57  C   UNL     1      -8.256 -10.852  -3.199  1.00  0.00     0.049 A 
ATOM     58  C   UNL     1     -11.459  -6.237  -1.491  1.00  0.00     0.074 A 
ATOM     59  C   UNL     1      -7.489 -10.399  -2.142  1.00  0.00     0.029 A 
ATOM     60  N   UNL     1      -9.573 -10.629  -2.793  1.00  0.00    -0.354 N 
ATOM     61  N   UNL     1     -10.870  -7.397  -1.660  1.00  0.00    -0.248 NA
ATOM     62  C   UNL     1     -12.724  -6.403  -0.793  1.00  0.00     0.031 C 
ATOM     63  C   UNL     1      -8.380  -9.823  -1.157  1.00  0.00     0.029 A 
ATOM     64  C   UNL     1      -9.692  -9.973  -1.585  1.00  0.00     0.049 A 
ATOM     65  H   UNL     1     -10.351 -10.914  -3.324  1.00  0.00     0.167 HD
ATOM     66  C   UNL     1     -11.554  -8.418  -1.099  1.00  0.00     0.074 A 
ATOM     67  C   UNL     1     -12.765  -7.745  -0.627  1.00  0.00     0.031 C 
ATOM     68  C   UNL     1     -11.050  -9.698  -1.065  1.00  0.00     0.037 A 
BRANCH  55  69
ATOM     69  C   UNL     1      -7.073 -12.286  -5.136  1.00  0.00     0.058 A 
ATOM     70  C   UNL     1      -6.572 -13.296  -4.295  1.00  0.00     0.135 A 
ATOM     71  C   UNL     1      -6.545 -12.308  -6.454  1.00  0.00     0.135 A 
ATOM     72  F   UNL     1      -6.934 -13.353  -3.005  1.00  0.00    -0.206 F 
ATOM     73  C   UNL     1      -5.671 -14.279  -4.739  1.00  0.00     0.059 A 
ATOM     74  C   UNL     1      -5.694 -13.309  -6.934  1.00  0.00     0.059 A 
ATOM     75  F   UNL     1      -6.777 -11.322  -7.331  1.00  0.00    -0.206 F 
ATOM     76  C   UNL     1      -5.253 -14.291  -6.067  1.00  0.00     0.060 A 
BRANCH  76  77
ATOM     77  S   UNL     1      -4.121 -15.575  -6.643  1.00  0.00     0.124 S 
ATOM     78  O   UNL     1      -2.890 -15.232  -5.938  1.00  0.00    -0.237 OA
ATOM     79  O   UNL     1      -4.787 -16.797  -6.205  1.00  0.00    -0.237 OA
ATOM     80  O   UNL     1      -4.085 -15.376  -8.090  1.00  0.00    -0.744 OA
ENDBRANCH  76  77
ENDBRANCH  55  69
BRANCH  56  81
ATOM     81  C   UNL     1     -11.295  -3.612  -2.502  1.00  0.00     0.058 A 
ATOM     82  C   UNL     1     -10.483  -2.489  -2.172  1.00  0.00     0.135 A 
ATOM     83  C   UNL     1     -12.051  -3.475  -3.679  1.00  0.00     0.135 A 
ATOM     84  F   UNL     1      -9.718  -2.528  -1.069  1.00  0.00    -0.206 F 
ATOM     85  C   UNL     1     -10.316  -1.384  -3.015  1.00  0.00     0.059 A 
ATOM     86  C   UNL     1     -11.901  -2.366  -4.543  1.00  0.00     0.059 A 
ATOM     87  F   UNL     1     -12.848  -4.476  -4.082  1.00  0.00    -0.206 F 
ATOM     88  C   UNL     1     -10.993  -1.352  -4.227  1.00  0.00     0.060 A 
BRANCH  88  89
ATOM     89  S   UNL     1     -10.604  -0.007  -5.386  1.00  0.00     0.124 S 
ATOM     90  O   UNL     1     -10.846   1.180  -4.571  1.00  0.00    -0.237 OA
ATOM     91  O   UNL     1      -9.201  -0.278  -5.695  1.00  0.00    -0.237 OA
ATOM     92  O   UNL     1     -11.555  -0.220  -6.471  1.00  0.00    -0.744 OA
ENDBRANCH  88  89
ENDBRANCH  56  81
BRANCH  68  93
ATOM     93  C   UNL     1     -11.871 -10.865  -0.578  1.00  0.00     0.058 A 
ATOM     94  C   UNL     1     -12.744 -10.781   0.512  1.00  0.00     0.135 A 
ATOM     95  C   UNL     1     -11.793 -12.136  -1.200  1.00  0.00     0.135 A 
ATOM     96  F   UNL     1     -12.761  -9.696   1.303  1.00  0.00    -0.206 F 
ATOM     97  C   UNL     1     -13.617 -11.816   0.840  1.00  0.00     0.059 A 
ATOM     98  C   UNL     1     -12.599 -13.203  -0.845  1.00  0.00     0.059 A 
ATOM     99  F   UNL     1     -10.958 -12.405  -2.209  1.00  0.00    -0.206 F 
ATOM    100  C   UNL     1     -13.552 -13.015   0.135  1.00  0.00     0.060 A 
BRANCH 100 101
ATOM    101  S   UNL     1     -14.703 -14.338   0.512  1.00  0.00     0.124 S 
ATOM    102  O   UNL     1     -14.711 -14.333   1.972  1.00  0.00    -0.237 OA
ATOM    103  O   UNL     1     -15.920 -13.854  -0.132  1.00  0.00    -0.237 OA
ATOM    104  O   UNL     1     -14.090 -15.511  -0.103  1.00  0.00    -0.744 OA
ENDBRANCH 100 101
ENDBRANCH  68  93
ENDBRANCH  42  43
ENDBRANCH  35  37
ENDBRANCH  34  35
ENDBRANCH  33  34
ENDBRANCH   1  33
TORSDOF 19
