REMARK SMILES C[C@@H]1C[C@H](C)CN(S(=O)(=O)N[C@](C)(C(=O)OCCOCCOC(=O)c2ccc(-c3c4nc(c(-c5c(F)cc(S(=O)(=O)[O-])cc5F)c5ccc([nH]5)c(-c5c(F)cc(S(=O)(=O)[O-])cc5F)c5nc(c(-c6c(F)cc(S(=O)(=O)[O-])cc6F)c6ccc3[nH]6)C=C5)C=C4)cc2)C2CC2)C1
REMARK SMILES IDX 19 1 18 2 17 3 16 4 14 5 15 6 12 7 13 8 11 9 8 11 9 12 10 13
REMARK SMILES IDX 7 14 1 15 2 16 3 17 94 18 4 19 5 20 6 21 91 22 92 23 93 24
REMARK SMILES IDX 20 25 21 26 22 27 23 28 24 29 25 30 26 31 90 32 27 33 89 34
REMARK SMILES IDX 28 35 29 36 30 37 83 38 31 39 88 40 82 41 84 42 32 43 87 44
REMARK SMILES IDX 81 45 80 46 33 48 67 49 46 50 66 51 47 52 50 53 65 54 85 55
REMARK SMILES IDX 48 56 49 57 64 59 86 60 51 61 34 62 35 63 44 64 36 65 37 66
REMARK SMILES IDX 43 67 45 68 38 69 39 70 40 71 41 72 42 73 68 74 69 75 78 76
REMARK SMILES IDX 70 77 71 78 77 79 79 80 72 81 73 82 74 83 75 84 76 85 52 86
REMARK SMILES IDX 53 87 62 88 54 89 55 90 61 91 63 92 56 93 57 94 58 95 59 96
REMARK SMILES IDX 60 97
REMARK H PARENT 11 10 84 47 50 58
REMARK Flexibility Score: inf
ROOT
ATOM      1  O   UNL     1       5.049   5.306  -2.320  1.00  0.00    -0.374 OA
ENDROOT
BRANCH   1   2
ATOM      2  C   UNL     1       5.312   4.698  -3.584  1.00  0.00     0.202 C 
BRANCH   2   3
ATOM      3  C   UNL     1       5.215   3.176  -3.725  1.00  0.00     0.261 C 
BRANCH   3   4
ATOM      4  O   UNL     1       3.904   2.617  -3.525  1.00  0.00    -0.462 OA
BRANCH   4   5
ATOM      5  C   UNL     1       3.609   2.373  -2.221  1.00  0.00     0.327 C 
ATOM      6  O   UNL     1       4.235   2.866  -1.293  1.00  0.00    -0.250 OA
BRANCH   5   7
ATOM      7  C   UNL     1       2.422   1.426  -2.000  1.00  0.00     0.131 C 
ATOM      8  C   UNL     1       1.333   1.813  -3.031  1.00  0.00     0.042 C 
BRANCH   7   9
ATOM      9  N   UNL     1       2.798  -0.005  -2.151  1.00  0.00    -0.185 NA
ATOM     10  H   UNL     1       2.266  -0.508  -1.440  1.00  0.00     0.143 HD
BRANCH   9  11
ATOM     11  S   UNL     1       4.368  -0.578  -2.033  1.00  0.00     0.280 S 
ATOM     12  O   UNL     1       5.232   0.244  -2.843  1.00  0.00    -0.195 OA
ATOM     13  O   UNL     1       4.227  -1.978  -2.359  1.00  0.00    -0.195 OA
BRANCH  11  14
ATOM     14  N   UNL     1       4.865  -0.500  -0.423  1.00  0.00    -0.188 NA
ATOM     15  C   UNL     1       8.536  -1.600  -0.004  1.00  0.00     0.009 C 
ATOM     16  C   UNL     1       7.373  -0.695  -0.394  1.00  0.00     0.001 C 
ATOM     17  C   UNL     1       7.493   0.641   0.354  1.00  0.00     0.009 C 
ATOM     18  C   UNL     1       6.029  -1.388  -0.107  1.00  0.00     0.106 C 
ATOM     19  C   UNL     1       6.293   1.526   0.040  1.00  0.00     0.001 C 
ATOM     20  C   UNL     1       6.368   2.845   0.819  1.00  0.00     0.009 C 
ATOM     21  C   UNL     1       5.003   0.760   0.353  1.00  0.00     0.106 C 
ENDBRANCH  11  14
ENDBRANCH   9  11
ENDBRANCH   7   9
BRANCH   7  22
ATOM     22  C   UNL     1       1.788   1.630  -0.604  1.00  0.00     0.021 C 
ATOM     23  C   UNL     1       0.494   0.947  -0.195  1.00  0.00     0.006 C 
ATOM     24  C   UNL     1       1.769   0.560   0.480  1.00  0.00     0.006 C 
ENDBRANCH   7  22
ENDBRANCH   5   7
ENDBRANCH   4   5
ENDBRANCH   3   4
ENDBRANCH   2   3
ENDBRANCH   1   2
BRANCH   1  25
ATOM     25  C   UNL     1       3.688   5.488  -1.931  1.00  0.00     0.202 C 
BRANCH  25  26
ATOM     26  C   UNL     1       2.957   6.710  -2.476  1.00  0.00     0.261 C 
BRANCH  26  27
ATOM     27  O   UNL     1       2.780   6.599  -3.895  1.00  0.00    -0.460 OA
BRANCH  27  28
ATOM     28  C   UNL     1       3.671   7.323  -4.611  1.00  0.00     0.338 C 
ATOM     29  O   UNL     1       4.480   8.126  -4.178  1.00  0.00    -0.246 OA
BRANCH  28  30
ATOM     30  C   UNL     1       3.683   6.854  -6.010  1.00  0.00     0.060 A 
ATOM     31  C   UNL     1       4.937   6.710  -6.620  1.00  0.00     0.016 A 
ATOM     32  C   UNL     1       2.509   6.599  -6.721  1.00  0.00     0.016 A 
ATOM     33  C   UNL     1       5.021   6.416  -7.973  1.00  0.00     0.010 A 
ATOM     34  C   UNL     1       2.593   6.308  -8.083  1.00  0.00     0.010 A 
ATOM     35  C   UNL     1       3.846   6.278  -8.721  1.00  0.00    -0.014 A 
BRANCH  35  36
ATOM     36  C   UNL     1       3.928   6.312 -10.197  1.00  0.00     0.031 A 
ATOM     37  C   UNL     1       3.594   7.600 -10.899  1.00  0.00     0.074 A 
ATOM     38  C   UNL     1       4.332   5.232 -10.886  1.00  0.00     0.049 A 
ATOM     39  N   UNL     1       3.543   7.857 -12.178  1.00  0.00    -0.248 NA
ATOM     40  C   UNL     1       3.268   8.753 -10.041  1.00  0.00     0.031 C 
ATOM     41  C   UNL     1       4.726   3.954 -10.297  1.00  0.00     0.029 A 
ATOM     42  N   UNL     1       4.467   5.040 -12.236  1.00  0.00    -0.354 N 
ATOM     43  C   UNL     1       3.164   9.191 -12.280  1.00  0.00     0.074 A 
ATOM     44  C   UNL     1       2.969   9.683 -10.935  1.00  0.00     0.031 C 
ATOM     45  C   UNL     1       5.046   3.101 -11.284  1.00  0.00     0.029 A 
ATOM     46  C   UNL     1       4.841   3.762 -12.572  1.00  0.00     0.049 A 
ATOM     47  H   UNL     1       4.312   5.750 -12.900  1.00  0.00     0.167 HD
ATOM     48  C   UNL     1       3.002   9.937 -13.398  1.00  0.00     0.037 A 
ATOM     49  C   UNL     1       4.971   3.188 -13.783  1.00  0.00     0.037 A 
ATOM     50  C   UNL     1       3.210   9.431 -14.729  1.00  0.00     0.049 A 
ATOM     51  C   UNL     1       4.725   4.020 -15.014  1.00  0.00     0.074 A 
ATOM     52  C   UNL     1       3.098  10.104 -15.932  1.00  0.00     0.029 A 
ATOM     53  N   UNL     1       3.566   8.124 -15.033  1.00  0.00    -0.354 N 
ATOM     54  N   UNL     1       4.384   5.285 -15.101  1.00  0.00    -0.248 NA
ATOM     55  C   UNL     1       4.885   3.351 -16.312  1.00  0.00     0.031 C 
ATOM     56  C   UNL     1       3.325   9.189 -16.965  1.00  0.00     0.029 A 
ATOM     57  C   UNL     1       3.647   7.962 -16.406  1.00  0.00     0.049 A 
ATOM     58  H   UNL     1       3.736   7.416 -14.370  1.00  0.00     0.167 HD
ATOM     59  C   UNL     1       4.317   5.570 -16.461  1.00  0.00     0.074 A 
ATOM     60  C   UNL     1       4.665   4.348 -17.158  1.00  0.00     0.031 C 
ATOM     61  C   UNL     1       4.001   6.736 -17.079  1.00  0.00     0.037 A 
BRANCH  48  62
ATOM     62  C   UNL     1       2.548  11.362 -13.233  1.00  0.00     0.058 A 
ATOM     63  C   UNL     1       3.381  12.352 -12.688  1.00  0.00     0.135 A 
ATOM     64  C   UNL     1       1.269  11.750 -13.665  1.00  0.00     0.135 A 
ATOM     65  F   UNL     1       4.605  12.035 -12.238  1.00  0.00    -0.206 F 
ATOM     66  C   UNL     1       2.955  13.671 -12.558  1.00  0.00     0.059 A 
ATOM     67  C   UNL     1       0.833  13.068 -13.574  1.00  0.00     0.059 A 
ATOM     68  F   UNL     1       0.428  10.843 -14.188  1.00  0.00    -0.206 F 
ATOM     69  C   UNL     1       1.680  14.020 -13.008  1.00  0.00     0.060 A 
BRANCH  69  70
ATOM     70  S   UNL     1       1.149  15.738 -12.849  1.00  0.00     0.124 S 
ATOM     71  O   UNL     1       0.976  15.857 -11.404  1.00  0.00    -0.237 OA
ATOM     72  O   UNL     1       2.281  16.466 -13.413  1.00  0.00    -0.237 OA
ATOM     73  O   UNL     1      -0.081  15.790 -13.633  1.00  0.00    -0.744 OA
ENDBRANCH  69  70
ENDBRANCH  48  62
BRANCH  49  74
ATOM     74  C   UNL     1       5.334   1.749 -13.884  1.00  0.00     0.058 A 
ATOM     75  C   UNL     1       6.574   1.346 -14.400  1.00  0.00     0.135 A 
ATOM     76  C   UNL     1       4.449   0.748 -13.453  1.00  0.00     0.135 A 
ATOM     77  F   UNL     1       7.450   2.265 -14.834  1.00  0.00    -0.206 F 
ATOM     78  C   UNL     1       6.919   0.003 -14.500  1.00  0.00     0.059 A 
ATOM     79  C   UNL     1       4.783  -0.601 -13.515  1.00  0.00     0.059 A 
ATOM     80  F   UNL     1       3.254   1.080 -12.940  1.00  0.00    -0.206 F 
ATOM     81  C   UNL     1       6.018  -0.964 -14.050  1.00  0.00     0.060 A 
BRANCH  81  82
ATOM     82  S   UNL     1       6.497  -2.703 -14.141  1.00  0.00     0.124 S 
ATOM     83  O   UNL     1       6.448  -2.946 -15.578  1.00  0.00    -0.237 OA
ATOM     84  O   UNL     1       7.827  -2.683 -13.541  1.00  0.00    -0.237 OA
ATOM     85  O   UNL     1       5.470  -3.376 -13.352  1.00  0.00    -0.744 OA
ENDBRANCH  81  82
ENDBRANCH  49  74
BRANCH  61  86
ATOM     86  C   UNL     1       4.053   6.761 -18.583  1.00  0.00     0.058 A 
ATOM     87  C   UNL     1       3.101   6.095 -19.370  1.00  0.00     0.135 A 
ATOM     88  C   UNL     1       5.039   7.513 -19.244  1.00  0.00     0.135 A 
ATOM     89  F   UNL     1       2.140   5.358 -18.789  1.00  0.00    -0.206 F 
ATOM     90  C   UNL     1       3.140   6.151 -20.759  1.00  0.00     0.059 A 
ATOM     91  C   UNL     1       5.077   7.610 -20.631  1.00  0.00     0.059 A 
ATOM     92  F   UNL     1       5.967   8.181 -18.540  1.00  0.00    -0.206 F 
ATOM     93  C   UNL     1       4.130   6.914 -21.381  1.00  0.00     0.060 A 
BRANCH  93  94
ATOM     94  S   UNL     1       4.147   7.004 -23.183  1.00  0.00     0.124 S 
ATOM     95  O   UNL     1       4.607   5.666 -23.540  1.00  0.00    -0.237 OA
ATOM     96  O   UNL     1       2.752   7.300 -23.493  1.00  0.00    -0.237 OA
ATOM     97  O   UNL     1       5.088   8.086 -23.461  1.00  0.00    -0.744 OA
ENDBRANCH  93  94
ENDBRANCH  61  86
ENDBRANCH  35  36
ENDBRANCH  28  30
ENDBRANCH  27  28
ENDBRANCH  26  27
ENDBRANCH  25  26
ENDBRANCH   1  25
TORSDOF 21
