REMARK SMILES O=C(NCC(=O)OCCOCCOC(=O)c1ccc(-c2c3nc(c(-c4c(F)cc(S(=O)(=O)[O-])cc4F)c4ccc([nH]4)c(-c4c(F)cc(S(=O)(=O)[O-])cc4F)c4nc(c(-c5c(F)cc(S(=O)(=O)[O-])cc5F)c5ccc2[nH]5)C=C4)C=C3)cc1)Nc1cccc2c1CCCC2
REMARK SMILES IDX 11 1 10 2 9 3 8 4 7 5 5 6 6 7 4 8 3 9 1 10 2 11 82 12 83 15
REMARK SMILES IDX 84 16 88 17 85 18 87 19 89 20 86 21 92 22 90 23 91 24 12 25
REMARK SMILES IDX 13 26 14 27 15 28 16 29 17 30 81 31 18 32 80 33 19 34 20 35
REMARK SMILES IDX 21 36 74 37 22 38 79 39 73 40 75 41 23 42 78 43 72 44 71 45
REMARK SMILES IDX 24 47 58 48 37 49 57 50 38 51 41 52 56 53 76 54 39 55 40 56
REMARK SMILES IDX 55 58 77 59 42 60 25 61 26 62 35 63 27 64 28 65 34 66 36 67
REMARK SMILES IDX 29 68 30 69 31 70 32 71 33 72 59 73 60 74 69 75 61 76 62 77
REMARK SMILES IDX 68 78 70 79 63 80 64 81 65 82 66 83 67 84 43 85 44 86 53 87
REMARK SMILES IDX 45 88 46 89 52 90 54 91 47 92 48 93 49 94 50 95 51 96
REMARK H PARENT 3 13 82 14 75 46 41 57
REMARK Flexibility Score: inf
ROOT
ATOM      1  C   UNL     1       4.375  -1.466  -3.929  1.00  0.00     0.202 C 
ENDROOT
BRANCH   1   2
ATOM      2  O   UNL     1       5.412  -2.426  -4.120  1.00  0.00    -0.374 OA
BRANCH   2   3
ATOM      3  C   UNL     1       5.477  -3.537  -3.228  1.00  0.00     0.202 C 
BRANCH   3   4
ATOM      4  C   UNL     1       5.946  -3.249  -1.798  1.00  0.00     0.261 C 
BRANCH   4   5
ATOM      5  O   UNL     1       5.076  -2.335  -1.113  1.00  0.00    -0.462 OA
BRANCH   5   6
ATOM      6  C   UNL     1       5.656  -1.191  -0.652  1.00  0.00     0.325 C 
ATOM      7  O   UNL     1       6.841  -0.900  -0.766  1.00  0.00    -0.250 OA
BRANCH   6   8
ATOM      8  C   UNL     1       4.627  -0.196  -0.127  1.00  0.00     0.240 C 
BRANCH   8   9
ATOM      9  N   UNL     1       3.335  -0.774   0.203  1.00  0.00    -0.327 N 
ATOM     10  O   UNL     1       1.589  -1.485   1.343  1.00  0.00    -0.248 OA
ATOM     11  C   UNL     1       2.679  -0.920   1.388  1.00  0.00     0.319 C 
ATOM     12  N   UNL     1       3.254  -0.328   2.494  1.00  0.00    -0.308 N 
ATOM     13  H   UNL     1       2.842  -1.124  -0.574  1.00  0.00     0.166 HD
ATOM     14  H   UNL     1       4.218  -0.124   2.486  1.00  0.00     0.171 HD
BRANCH  12  15
ATOM     15  C   UNL     1       2.484  -0.005   3.645  1.00  0.00     0.046 A 
ATOM     16  C   UNL     1       2.354   1.359   3.887  1.00  0.00     0.026 A 
ATOM     17  C   UNL     1       1.504  -0.862   4.146  1.00  0.00    -0.021 A 
ATOM     18  C   UNL     1       1.106   1.854   4.266  1.00  0.00     0.002 A 
ATOM     19  C   UNL     1       0.199  -0.388   4.284  1.00  0.00    -0.043 A 
ATOM     20  C   UNL     1       1.901  -1.946   5.144  1.00  0.00     0.038 C 
ATOM     21  C   UNL     1       0.006   0.991   4.348  1.00  0.00     0.004 A 
ATOM     22  C   UNL     1      -0.924  -1.387   4.397  1.00  0.00     0.036 C 
ATOM     23  C   UNL     1       0.748  -2.863   5.575  1.00  0.00     0.005 C 
ATOM     24  C   UNL     1      -0.415  -2.824   4.592  1.00  0.00     0.005 C 
ENDBRANCH  12  15
ENDBRANCH   8   9
ENDBRANCH   6   8
ENDBRANCH   5   6
ENDBRANCH   4   5
ENDBRANCH   3   4
ENDBRANCH   2   3
ENDBRANCH   1   2
BRANCH   1  25
ATOM     25  C   UNL     1       2.934  -1.903  -4.228  1.00  0.00     0.261 C 
BRANCH  25  26
ATOM     26  O   UNL     1       2.463  -2.934  -3.342  1.00  0.00    -0.460 OA
BRANCH  26  27
ATOM     27  C   UNL     1       2.188  -4.112  -3.962  1.00  0.00     0.338 C 
ATOM     28  O   UNL     1       2.272  -4.347  -5.154  1.00  0.00    -0.246 OA
BRANCH  27  29
ATOM     29  C   UNL     1       1.925  -5.180  -2.977  1.00  0.00     0.060 A 
ATOM     30  C   UNL     1       2.676  -6.357  -3.096  1.00  0.00     0.016 A 
ATOM     31  C   UNL     1       0.878  -5.096  -2.059  1.00  0.00     0.016 A 
ATOM     32  C   UNL     1       2.333  -7.482  -2.352  1.00  0.00     0.010 A 
ATOM     33  C   UNL     1       0.531  -6.231  -1.315  1.00  0.00     0.010 A 
ATOM     34  C   UNL     1       1.223  -7.443  -1.498  1.00  0.00    -0.014 A 
BRANCH  34  35
ATOM     35  C   UNL     1       0.687  -8.718  -0.956  1.00  0.00     0.031 A 
ATOM     36  C   UNL     1      -0.500  -9.352  -1.635  1.00  0.00     0.074 A 
ATOM     37  C   UNL     1       1.284  -9.337   0.078  1.00  0.00     0.049 A 
ATOM     38  N   UNL     1      -1.126 -10.465  -1.346  1.00  0.00    -0.248 NA
ATOM     39  C   UNL     1      -1.056  -8.636  -2.795  1.00  0.00     0.031 C 
ATOM     40  C   UNL     1       2.461  -8.845   0.791  1.00  0.00     0.029 A 
ATOM     41  N   UNL     1       0.978 -10.519   0.706  1.00  0.00    -0.354 N 
ATOM     42  C   UNL     1      -2.150 -10.578  -2.281  1.00  0.00     0.074 A 
ATOM     43  C   UNL     1      -2.082  -9.406  -3.126  1.00  0.00     0.031 C 
ATOM     44  C   UNL     1       2.776  -9.717   1.765  1.00  0.00     0.029 A 
ATOM     45  C   UNL     1       1.810 -10.814   1.760  1.00  0.00     0.049 A 
ATOM     46  H   UNL     1       0.234 -11.100   0.428  1.00  0.00     0.167 HD
ATOM     47  C   UNL     1      -3.057 -11.573  -2.430  1.00  0.00     0.037 A 
ATOM     48  C   UNL     1       1.784 -11.844   2.629  1.00  0.00     0.037 A 
ATOM     49  C   UNL     1      -3.117 -12.742  -1.591  1.00  0.00     0.049 A 
ATOM     50  C   UNL     1       0.736 -12.916   2.474  1.00  0.00     0.074 A 
ATOM     51  C   UNL     1      -3.993 -13.811  -1.666  1.00  0.00     0.029 A 
ATOM     52  N   UNL     1      -2.270 -12.994  -0.522  1.00  0.00    -0.354 N 
ATOM     53  N   UNL     1      -0.216 -13.018   1.576  1.00  0.00    -0.248 NA
ATOM     54  C   UNL     1       0.764 -14.020   3.444  1.00  0.00     0.031 C 
ATOM     55  C   UNL     1      -3.703 -14.688  -0.616  1.00  0.00     0.029 A 
ATOM     56  C   UNL     1      -2.612 -14.193   0.080  1.00  0.00     0.049 A 
ATOM     57  H   UNL     1      -1.534 -12.406  -0.234  1.00  0.00     0.167 HD
ATOM     58  C   UNL     1      -0.875 -14.212   1.851  1.00  0.00     0.074 A 
ATOM     59  C   UNL     1      -0.210 -14.800   2.996  1.00  0.00     0.031 C 
ATOM     60  C   UNL     1      -1.931 -14.774   1.211  1.00  0.00     0.037 A 
BRANCH  47  61
ATOM     61  C   UNL     1      -4.074 -11.429  -3.530  1.00  0.00     0.058 A 
ATOM     62  C   UNL     1      -3.725 -11.558  -4.884  1.00  0.00     0.135 A 
ATOM     63  C   UNL     1      -5.422 -11.184  -3.223  1.00  0.00     0.135 A 
ATOM     64  F   UNL     1      -2.447 -11.774  -5.235  1.00  0.00    -0.206 F 
ATOM     65  C   UNL     1      -4.671 -11.422  -5.895  1.00  0.00     0.059 A 
ATOM     66  C   UNL     1      -6.390 -11.072  -4.217  1.00  0.00     0.059 A 
ATOM     67  F   UNL     1      -5.812 -11.051  -1.945  1.00  0.00    -0.206 F 
ATOM     68  C   UNL     1      -6.002 -11.178  -5.552  1.00  0.00     0.060 A 
BRANCH  68  69
ATOM     69  S   UNL     1      -7.218 -11.006  -6.875  1.00  0.00     0.124 S 
ATOM     70  O   UNL     1      -6.881  -9.692  -7.412  1.00  0.00    -0.237 OA
ATOM     71  O   UNL     1      -6.905 -12.142  -7.737  1.00  0.00    -0.237 OA
ATOM     72  O   UNL     1      -8.496 -11.089  -6.175  1.00  0.00    -0.744 OA
ENDBRANCH  68  69
ENDBRANCH  47  61
BRANCH  48  73
ATOM     73  C   UNL     1       2.785 -11.914   3.728  1.00  0.00     0.058 A 
ATOM     74  C   UNL     1       3.790 -12.892   3.735  1.00  0.00     0.135 A 
ATOM     75  C   UNL     1       2.753 -11.002   4.794  1.00  0.00     0.135 A 
ATOM     76  F   UNL     1       3.856 -13.793   2.744  1.00  0.00    -0.206 F 
ATOM     77  C   UNL     1       4.719 -12.975   4.768  1.00  0.00     0.059 A 
ATOM     78  C   UNL     1       3.687 -11.048   5.825  1.00  0.00     0.059 A 
ATOM     79  F   UNL     1       1.818 -10.040   4.830  1.00  0.00    -0.206 F 
ATOM     80  C   UNL     1       4.661 -12.045   5.808  1.00  0.00     0.060 A 
BRANCH  80  81
ATOM     81  S   UNL     1       5.900 -12.131   7.119  1.00  0.00     0.124 S 
ATOM     82  O   UNL     1       5.460 -13.305   7.863  1.00  0.00    -0.237 OA
ATOM     83  O   UNL     1       7.138 -12.282   6.361  1.00  0.00    -0.237 OA
ATOM     84  O   UNL     1       5.749 -10.852   7.807  1.00  0.00    -0.744 OA
ENDBRANCH  80  81
ENDBRANCH  48  73
BRANCH  60  85
ATOM     85  C   UNL     1      -2.403 -16.119   1.695  1.00  0.00     0.058 A 
ATOM     86  C   UNL     1      -3.096 -16.273   2.905  1.00  0.00     0.135 A 
ATOM     87  C   UNL     1      -2.198 -17.265   0.908  1.00  0.00     0.135 A 
ATOM     88  F   UNL     1      -3.317 -15.211   3.697  1.00  0.00    -0.206 F 
ATOM     89  C   UNL     1      -3.544 -17.519   3.333  1.00  0.00     0.059 A 
ATOM     90  C   UNL     1      -2.661 -18.516   1.302  1.00  0.00     0.059 A 
ATOM     91  F   UNL     1      -1.552 -17.172  -0.266  1.00  0.00    -0.206 F 
ATOM     92  C   UNL     1      -3.321 -18.636   2.524  1.00  0.00     0.060 A 
BRANCH  92  93
ATOM     93  S   UNL     1      -3.925 -20.244   3.078  1.00  0.00     0.124 S 
ATOM     94  O   UNL     1      -2.962 -20.576   4.122  1.00  0.00    -0.237 OA
ATOM     95  O   UNL     1      -5.275 -19.931   3.538  1.00  0.00    -0.237 OA
ATOM     96  O   UNL     1      -3.856 -21.067   1.874  1.00  0.00    -0.744 OA
ENDBRANCH  92  93
ENDBRANCH  60  85
ENDBRANCH  34  35
ENDBRANCH  27  29
ENDBRANCH  26  27
ENDBRANCH  25  26
ENDBRANCH   1  25
TORSDOF 19
