REMARK SMILES O=C(COc1ccc(Br)cc1/C=C1\C(=O)Nc2ccc(Br)cc21)OCCOCCOC(=O)c1ccc(-c2c3nc(c(-c4c(F)cc(S(=O)(=O)[O-])cc4F)c4ccc([nH]4)c(-c4c(F)cc(S(=O)(=O)[O-])cc4F)c4nc(c(-c5c(F)cc(S(=O)(=O)[O-])cc5F)c5ccc2[nH]5)C=C4)C=C3)cc1
REMARK SMILES IDX 27 1 26 2 25 3 24 4 2 5 1 6 3 7 4 8 5 9 6 10 11 11 7 12
REMARK SMILES IDX 10 13 8 14 9 15 12 16 13 17 14 18 23 19 15 20 16 21 17 22
REMARK SMILES IDX 22 23 18 25 20 26 19 27 21 28 28 29 29 30 30 31 31 32 32 33
REMARK SMILES IDX 33 34 34 35 98 36 35 37 97 38 36 39 37 40 38 41 91 42 39 43
REMARK SMILES IDX 96 44 90 45 92 46 40 47 95 48 89 49 88 50 41 52 75 53 54 54
REMARK SMILES IDX 74 55 55 56 58 57 73 58 93 59 56 60 57 61 72 63 94 64 59 65
REMARK SMILES IDX 42 66 43 67 52 68 44 69 45 70 51 71 53 72 46 73 47 74 48 75
REMARK SMILES IDX 49 76 50 77 76 78 77 79 86 80 78 81 79 82 85 83 87 84 80 85
REMARK SMILES IDX 81 86 82 87 83 88 84 89 60 90 61 91 70 92 62 93 63 94 69 95
REMARK SMILES IDX 71 96 64 97 65 98 66 99 67 100 68 101
REMARK H PARENT 16 24 92 51 58 62
REMARK Flexibility Score: inf
ROOT
ATOM      1  O   UNL     1       4.239   0.605   1.837  1.00  0.00    -0.374 OA
ENDROOT
BRANCH   1   2
ATOM      2  C   UNL     1       4.813   0.937   0.572  1.00  0.00     0.202 C 
BRANCH   2   3
ATOM      3  C   UNL     1       4.403  -0.000  -0.557  1.00  0.00     0.261 C 
BRANCH   3   4
ATOM      4  O   UNL     1       2.981  -0.206  -0.557  1.00  0.00    -0.461 OA
BRANCH   4   5
ATOM      5  C   UNL     1       2.411  -1.220   0.143  1.00  0.00     0.344 C 
ATOM      6  O   UNL     1       1.231  -1.153   0.484  1.00  0.00    -0.248 OA
BRANCH   5   7
ATOM      7  C   UNL     1       3.273  -2.446   0.460  1.00  0.00     0.351 C 
BRANCH   7   8
ATOM      8  O   UNL     1       4.086  -3.018  -0.573  1.00  0.00    -0.481 OA
BRANCH   8   9
ATOM      9  C   UNL     1       3.315  -3.661  -1.514  1.00  0.00     0.127 A 
ATOM     10  C   UNL     1       2.525  -2.877  -2.374  1.00  0.00     0.048 A 
ATOM     11  C   UNL     1       3.318  -5.070  -1.593  1.00  0.00     0.018 A 
ATOM     12  C   UNL     1       1.575  -3.465  -3.194  1.00  0.00     0.019 A 
ATOM     13  C   UNL     1       2.345  -5.623  -2.436  1.00  0.00     0.027 A 
ATOM     14  C   UNL     1       1.462  -4.841  -3.188  1.00  0.00     0.018 A 
ATOM     15  Br  UNL     1       0.102  -5.678  -4.201  1.00  0.00    -0.051 Br
BRANCH  11  16
ATOM     16  C   UNL     1       4.296  -5.884  -0.803  1.00  0.00     0.026 C 
ATOM     17  C   UNL     1       4.329  -7.201  -0.505  1.00  0.00     0.050 C 
ATOM     18  C   UNL     1       3.326  -8.269  -0.857  1.00  0.00     0.256 C 
ATOM     19  C   UNL     1       5.116  -7.780   0.604  1.00  0.00     0.012 A 
ATOM     20  O   UNL     1       2.817  -8.544  -1.923  1.00  0.00    -0.269 OA
ATOM     21  N   UNL     1       3.225  -9.038   0.285  1.00  0.00    -0.321 N 
ATOM     22  C   UNL     1       4.298  -8.793   1.129  1.00  0.00     0.049 A 
ATOM     23  C   UNL     1       6.397  -7.614   1.101  1.00  0.00     0.026 A 
ATOM     24  H   UNL     1       2.495  -9.671   0.473  1.00  0.00     0.170 HD
ATOM     25  C   UNL     1       4.625  -9.545   2.235  1.00  0.00     0.028 A 
ATOM     26  C   UNL     1       6.785  -8.437   2.172  1.00  0.00     0.018 A 
ATOM     27  C   UNL     1       5.897  -9.356   2.767  1.00  0.00     0.018 A 
ATOM     28  Br  UNL     1       8.572  -8.384   2.799  1.00  0.00    -0.051 Br
ENDBRANCH  11  16
ENDBRANCH   8   9
ENDBRANCH   7   8
ENDBRANCH   5   7
ENDBRANCH   4   5
ENDBRANCH   3   4
ENDBRANCH   2   3
ENDBRANCH   1   2
BRANCH   1  29
ATOM     29  C   UNL     1       3.026   1.313   2.151  1.00  0.00     0.202 C 
BRANCH  29  30
ATOM     30  C   UNL     1       3.235   2.755   2.637  1.00  0.00     0.261 C 
BRANCH  30  31
ATOM     31  O   UNL     1       3.393   3.648   1.516  1.00  0.00    -0.460 OA
BRANCH  31  32
ATOM     32  C   UNL     1       4.639   4.142   1.314  1.00  0.00     0.338 C 
ATOM     33  O   UNL     1       5.606   4.011   2.046  1.00  0.00    -0.246 OA
BRANCH  32  34
ATOM     34  C   UNL     1       4.726   4.656  -0.073  1.00  0.00     0.060 A 
ATOM     35  C   UNL     1       3.702   5.413  -0.647  1.00  0.00     0.016 A 
ATOM     36  C   UNL     1       5.871   4.336  -0.818  1.00  0.00     0.016 A 
ATOM     37  C   UNL     1       3.842   5.879  -1.957  1.00  0.00     0.010 A 
ATOM     38  C   UNL     1       6.006   4.795  -2.128  1.00  0.00     0.010 A 
ATOM     39  C   UNL     1       5.002   5.588  -2.698  1.00  0.00    -0.014 A 
BRANCH  39  40
ATOM     40  C   UNL     1       5.232   6.249  -4.004  1.00  0.00     0.031 A 
ATOM     41  C   UNL     1       4.978   5.545  -5.300  1.00  0.00     0.074 A 
ATOM     42  C   UNL     1       5.681   7.517  -3.994  1.00  0.00     0.049 A 
ATOM     43  N   UNL     1       5.048   6.019  -6.517  1.00  0.00    -0.248 NA
ATOM     44  C   UNL     1       4.603   4.127  -5.222  1.00  0.00     0.031 C 
ATOM     45  C   UNL     1       5.979   8.288  -2.784  1.00  0.00     0.029 A 
ATOM     46  N   UNL     1       5.949   8.384  -5.020  1.00  0.00    -0.354 N 
ATOM     47  C   UNL     1       4.689   4.972  -7.355  1.00  0.00     0.074 A 
ATOM     48  C   UNL     1       4.460   3.819  -6.505  1.00  0.00     0.031 C 
ATOM     49  C   UNL     1       6.350   9.527  -3.137  1.00  0.00     0.029 A 
ATOM     50  C   UNL     1       6.336   9.631  -4.593  1.00  0.00     0.049 A 
ATOM     51  H   UNL     1       5.872   8.137  -5.970  1.00  0.00     0.167 HD
ATOM     52  C   UNL     1       4.545   4.981  -8.703  1.00  0.00     0.037 A 
ATOM     53  C   UNL     1       6.629  10.741  -5.295  1.00  0.00     0.037 A 
ATOM     54  C   UNL     1       4.821   6.122  -9.541  1.00  0.00     0.049 A 
ATOM     55  C   UNL     1       6.526  10.708  -6.792  1.00  0.00     0.074 A 
ATOM     56  C   UNL     1       4.713   6.231 -10.917  1.00  0.00     0.029 A 
ATOM     57  N   UNL     1       5.275   7.352  -9.081  1.00  0.00    -0.354 N 
ATOM     58  N   UNL     1       6.151   9.720  -7.569  1.00  0.00    -0.248 NA
ATOM     59  C   UNL     1       6.883  11.940  -7.506  1.00  0.00     0.031 C 
ATOM     60  C   UNL     1       5.138   7.513 -11.291  1.00  0.00     0.029 A 
ATOM     61  C   UNL     1       5.472   8.218 -10.146  1.00  0.00     0.049 A 
ATOM     62  H   UNL     1       5.433   7.577  -8.136  1.00  0.00     0.167 HD
ATOM     63  C   UNL     1       6.214  10.213  -8.866  1.00  0.00     0.074 A 
ATOM     64  C   UNL     1       6.650  11.593  -8.765  1.00  0.00     0.031 C 
ATOM     65  C   UNL     1       5.933   9.581 -10.033  1.00  0.00     0.037 A 
BRANCH  52  66
ATOM     66  C   UNL     1       4.066   3.709  -9.348  1.00  0.00     0.058 A 
ATOM     67  C   UNL     1       2.740   3.269  -9.191  1.00  0.00     0.135 A 
ATOM     68  C   UNL     1       4.926   2.923 -10.131  1.00  0.00     0.135 A 
ATOM     69  F   UNL     1       1.878   3.977  -8.444  1.00  0.00    -0.206 F 
ATOM     70  C   UNL     1       2.297   2.076  -9.752  1.00  0.00     0.059 A 
ATOM     71  C   UNL     1       4.497   1.737 -10.722  1.00  0.00     0.059 A 
ATOM     72  F   UNL     1       6.201   3.298 -10.318  1.00  0.00    -0.206 F 
ATOM     73  C   UNL     1       3.186   1.312 -10.508  1.00  0.00     0.060 A 
BRANCH  73  74
ATOM     74  S   UNL     1       2.607  -0.256 -11.193  1.00  0.00     0.124 S 
ATOM     75  O   UNL     1       2.546  -1.087  -9.994  1.00  0.00    -0.237 OA
ATOM     76  O   UNL     1       1.321   0.113 -11.775  1.00  0.00    -0.237 OA
ATOM     77  O   UNL     1       3.648  -0.613 -12.152  1.00  0.00    -0.744 OA
ENDBRANCH  73  74
ENDBRANCH  52  66
BRANCH  53  78
ATOM     78  C   UNL     1       6.978  11.985  -4.566  1.00  0.00     0.058 A 
ATOM     79  C   UNL     1       6.047  13.027  -4.452  1.00  0.00     0.135 A 
ATOM     80  C   UNL     1       8.203  12.120  -3.895  1.00  0.00     0.135 A 
ATOM     81  F   UNL     1       4.864  12.941  -5.079  1.00  0.00    -0.206 F 
ATOM     82  C   UNL     1       6.312  14.156  -3.685  1.00  0.00     0.059 A 
ATOM     83  C   UNL     1       8.483  13.231  -3.107  1.00  0.00     0.059 A 
ATOM     84  F   UNL     1       9.117  11.140  -3.962  1.00  0.00    -0.206 F 
ATOM     85  C   UNL     1       7.528  14.242  -3.005  1.00  0.00     0.060 A 
BRANCH  85  86
ATOM     86  S   UNL     1       7.814  15.664  -1.929  1.00  0.00     0.124 S 
ATOM     87  O   UNL     1       7.990  16.738  -2.899  1.00  0.00    -0.237 OA
ATOM     88  O   UNL     1       6.582  15.706  -1.147  1.00  0.00    -0.237 OA
ATOM     89  O   UNL     1       9.009  15.285  -1.181  1.00  0.00    -0.744 OA
ENDBRANCH  85  86
ENDBRANCH  53  78
BRANCH  65  90
ATOM     90  C   UNL     1       6.099  10.380 -11.296  1.00  0.00     0.058 A 
ATOM     91  C   UNL     1       7.370  10.690 -11.804  1.00  0.00     0.135 A 
ATOM     92  C   UNL     1       4.978  10.820 -12.017  1.00  0.00     0.135 A 
ATOM     93  F   UNL     1       8.474  10.300 -11.147  1.00  0.00    -0.206 F 
ATOM     94  C   UNL     1       7.525  11.432 -12.970  1.00  0.00     0.059 A 
ATOM     95  C   UNL     1       5.109  11.544 -13.198  1.00  0.00     0.059 A 
ATOM     96  F   UNL     1       3.740  10.545 -11.577  1.00  0.00    -0.206 F 
ATOM     97  C   UNL     1       6.387  11.857 -13.660  1.00  0.00     0.060 A 
BRANCH  97  98
ATOM     98  S   UNL     1       6.603  12.806 -15.181  1.00  0.00     0.124 S 
ATOM     99  O   UNL     1       7.017  14.104 -14.660  1.00  0.00    -0.237 OA
ATOM    100  O   UNL     1       7.633  12.046 -15.881  1.00  0.00    -0.237 OA
ATOM    101  O   UNL     1       5.279  12.769 -15.794  1.00  0.00    -0.744 OA
ENDBRANCH  97  98
ENDBRANCH  65  90
ENDBRANCH  39  40
ENDBRANCH  32  34
ENDBRANCH  31  32
ENDBRANCH  30  31
ENDBRANCH  29  30
ENDBRANCH   1  29
TORSDOF 20
