REMARK SMILES Cc1cc(C)c2c(OCCCC(=O)OCCOCCOC(=O)c3ccc(-c4c5nc(c(-c6c(F)cc(S(=O)(=O)[O-])cc6F)c6ccc([nH]6)c(-c6c(F)cc(S(=O)(=O)[O-])cc6F)c6nc(c(-c7c(F)cc(S(=O)(=O)[O-])cc7F)c7ccc4[nH]7)C=C6)C=C5)cc3)nsc2n1
REMARK SMILES IDX 16 1 15 2 14 3 12 4 13 5 11 6 10 7 9 8 8 9 7 10 1 11 2 12
REMARK SMILES IDX 3 13 92 14 4 15 91 16 5 17 6 18 90 19 89 20 17 21 18 22
REMARK SMILES IDX 19 23 20 24 21 25 22 26 23 27 24 28 88 29 25 30 87 31 26 32
REMARK SMILES IDX 27 33 28 34 81 35 29 36 86 37 80 38 82 39 30 40 85 41 79 42
REMARK SMILES IDX 78 43 31 45 65 46 44 47 64 48 45 49 48 50 63 51 83 52 46 53
REMARK SMILES IDX 47 54 62 56 84 57 49 58 32 59 33 60 42 61 34 62 35 63 41 64
REMARK SMILES IDX 43 65 36 66 37 67 38 68 39 69 40 70 66 71 67 72 76 73 68 74
REMARK SMILES IDX 69 75 75 76 77 77 70 78 71 79 72 80 73 81 74 82 50 83 51 84
REMARK SMILES IDX 60 85 52 86 53 87 59 88 61 89 54 90 55 91 56 92 57 93 58 94
REMARK H PARENT 82 44 48 55
REMARK Flexibility Score: inf
ROOT
ATOM      1  C   UNL     1      -2.834  -1.554  -2.833  1.00  0.00     0.202 C 
ENDROOT
BRANCH   1   2
ATOM      2  C   UNL     1      -1.540  -0.828  -2.490  1.00  0.00     0.261 C 
BRANCH   2   3
ATOM      3  O   UNL     1      -1.026   0.016  -3.560  1.00  0.00    -0.463 OA
BRANCH   3   4
ATOM      4  C   UNL     1       0.329   0.037  -3.654  1.00  0.00     0.305 C 
ATOM      5  O   UNL     1       1.060  -0.705  -2.999  1.00  0.00    -0.252 OA
BRANCH   4   6
ATOM      6  C   UNL     1       0.942   1.109  -4.543  1.00  0.00     0.126 C 
BRANCH   6   7
ATOM      7  C   UNL     1       0.205   1.751  -5.718  1.00  0.00     0.053 C 
BRANCH   7   8
ATOM      8  C   UNL     1      -0.657   3.015  -5.535  1.00  0.00     0.232 C 
BRANCH   8   9
ATOM      9  O   UNL     1      -0.053   4.252  -5.180  1.00  0.00    -0.477 OA
BRANCH   9  10
ATOM     10  C   UNL     1       0.472   4.397  -3.942  1.00  0.00     0.235 A 
ATOM     11  C   UNL     1       1.179   1.125   0.439  1.00  0.00     0.067 C 
ATOM     12  C   UNL     1       0.739   2.221  -0.487  1.00  0.00     0.039 A 
ATOM     13  C   UNL     1      -0.550   2.203  -1.006  1.00  0.00     0.027 A 
ATOM     14  N   UNL     1       1.656   3.140  -0.827  1.00  0.00    -0.240 NA
ATOM     15  C   UNL     1      -0.891   2.985  -2.126  1.00  0.00    -0.034 A 
ATOM     16  C   UNL     1       1.315   3.871  -1.903  1.00  0.00     0.147 A 
ATOM     17  C   UNL     1      -2.297   2.882  -2.653  1.00  0.00     0.045 C 
ATOM     18  C   UNL     1       0.161   3.758  -2.683  1.00  0.00     0.078 A 
ATOM     19  S   UNL     1       2.331   5.078  -2.538  1.00  0.00    -0.012 S 
ATOM     20  N   UNL     1       1.501   5.244  -3.959  1.00  0.00    -0.153 NA
ENDBRANCH   9  10
ENDBRANCH   8   9
ENDBRANCH   7   8
ENDBRANCH   6   7
ENDBRANCH   4   6
ENDBRANCH   3   4
ENDBRANCH   2   3
ENDBRANCH   1   2
BRANCH   1  21
ATOM     21  O   UNL     1      -2.688  -2.742  -3.606  1.00  0.00    -0.374 OA
BRANCH  21  22
ATOM     22  C   UNL     1      -1.915  -2.673  -4.798  1.00  0.00     0.202 C 
BRANCH  22  23
ATOM     23  C   UNL     1      -2.567  -2.001  -6.000  1.00  0.00     0.261 C 
BRANCH  23  24
ATOM     24  O   UNL     1      -3.088  -0.708  -5.715  1.00  0.00    -0.460 OA
BRANCH  24  25
ATOM     25  C   UNL     1      -4.404  -0.737  -5.383  1.00  0.00     0.338 C 
ATOM     26  O   UNL     1      -5.040  -1.701  -5.000  1.00  0.00    -0.246 OA
BRANCH  25  27
ATOM     27  C   UNL     1      -5.023   0.549  -5.730  1.00  0.00     0.060 A 
ATOM     28  C   UNL     1      -6.417   0.545  -5.679  1.00  0.00     0.016 A 
ATOM     29  C   UNL     1      -4.303   1.486  -6.486  1.00  0.00     0.016 A 
ATOM     30  C   UNL     1      -7.084   1.252  -6.647  1.00  0.00     0.010 A 
ATOM     31  C   UNL     1      -4.977   2.206  -7.446  1.00  0.00     0.010 A 
ATOM     32  C   UNL     1      -6.339   1.972  -7.591  1.00  0.00    -0.014 A 
BRANCH  32  33
ATOM     33  C   UNL     1      -7.057   2.382  -8.777  1.00  0.00     0.031 A 
ATOM     34  C   UNL     1      -8.087   3.407  -8.535  1.00  0.00     0.074 A 
ATOM     35  C   UNL     1      -6.846   1.836  -9.987  1.00  0.00     0.049 A 
ATOM     36  N   UNL     1      -9.369   3.264  -8.552  1.00  0.00    -0.248 NA
ATOM     37  C   UNL     1      -7.618   4.712  -8.060  1.00  0.00     0.031 C 
ATOM     38  C   UNL     1      -5.735   1.002 -10.451  1.00  0.00     0.029 A 
ATOM     39  N   UNL     1      -7.603   1.995 -11.103  1.00  0.00    -0.354 N 
ATOM     40  C   UNL     1      -9.886   4.520  -8.265  1.00  0.00     0.074 A 
ATOM     41  C   UNL     1      -8.776   5.326  -7.823  1.00  0.00     0.031 C 
ATOM     42  C   UNL     1      -5.787   0.912 -11.801  1.00  0.00     0.029 A 
ATOM     43  C   UNL     1      -7.004   1.556 -12.270  1.00  0.00     0.049 A 
ATOM     44  H   UNL     1      -8.504   2.391 -11.083  1.00  0.00     0.167 HD
ATOM     45  C   UNL     1     -11.159   4.865  -8.594  1.00  0.00     0.037 A 
ATOM     46  C   UNL     1      -7.455   1.788 -13.526  1.00  0.00     0.037 A 
ATOM     47  C   UNL     1     -11.983   3.708  -8.833  1.00  0.00     0.049 A 
ATOM     48  C   UNL     1      -8.911   2.086 -13.427  1.00  0.00     0.074 A 
ATOM     49  C   UNL     1     -12.394   2.640  -8.058  1.00  0.00     0.029 A 
ATOM     50  N   UNL     1     -12.239   3.340 -10.133  1.00  0.00    -0.354 N 
ATOM     51  N   UNL     1      -9.813   1.207 -13.079  1.00  0.00    -0.248 NA
ATOM     52  C   UNL     1      -9.319   3.477 -13.285  1.00  0.00     0.031 C 
ATOM     53  C   UNL     1     -12.426   1.523  -8.944  1.00  0.00     0.029 A 
ATOM     54  C   UNL     1     -12.059   1.980 -10.210  1.00  0.00     0.049 A 
ATOM     55  H   UNL     1     -12.501   3.938 -10.870  1.00  0.00     0.167 HD
ATOM     56  C   UNL     1     -10.732   1.911 -12.313  1.00  0.00     0.074 A 
ATOM     57  C   UNL     1     -10.425   3.318 -12.552  1.00  0.00     0.031 C 
ATOM     58  C   UNL     1     -11.482   1.297 -11.349  1.00  0.00     0.037 A 
BRANCH  45  59
ATOM     59  C   UNL     1     -11.560   6.261  -8.989  1.00  0.00     0.058 A 
ATOM     60  C   UNL     1     -12.924   6.588  -9.115  1.00  0.00     0.135 A 
ATOM     61  C   UNL     1     -10.652   7.215  -9.503  1.00  0.00     0.135 A 
ATOM     62  F   UNL     1     -13.872   5.749  -8.668  1.00  0.00    -0.206 F 
ATOM     63  C   UNL     1     -13.353   7.742  -9.771  1.00  0.00     0.059 A 
ATOM     64  C   UNL     1     -11.056   8.399 -10.103  1.00  0.00     0.059 A 
ATOM     65  F   UNL     1      -9.331   6.999  -9.544  1.00  0.00    -0.206 F 
ATOM     66  C   UNL     1     -12.409   8.629 -10.280  1.00  0.00     0.060 A 
BRANCH  66  67
ATOM     67  S   UNL     1     -12.952  10.034 -11.266  1.00  0.00     0.124 S 
ATOM     68  O   UNL     1     -13.449   9.367 -12.464  1.00  0.00    -0.237 OA
ATOM     69  O   UNL     1     -13.960  10.640 -10.403  1.00  0.00    -0.237 OA
ATOM     70  O   UNL     1     -11.730  10.814 -11.439  1.00  0.00    -0.744 OA
ENDBRANCH  66  67
ENDBRANCH  45  59
BRANCH  46  71
ATOM     71  C   UNL     1      -6.634   2.111 -14.719  1.00  0.00     0.058 A 
ATOM     72  C   UNL     1      -7.178   2.081 -16.013  1.00  0.00     0.135 A 
ATOM     73  C   UNL     1      -5.362   2.709 -14.592  1.00  0.00     0.135 A 
ATOM     74  F   UNL     1      -8.398   1.562 -16.220  1.00  0.00    -0.206 F 
ATOM     75  C   UNL     1      -6.515   2.638 -17.112  1.00  0.00     0.059 A 
ATOM     76  C   UNL     1      -4.677   3.259 -15.672  1.00  0.00     0.059 A 
ATOM     77  F   UNL     1      -4.782   2.859 -13.391  1.00  0.00    -0.206 F 
ATOM     78  C   UNL     1      -5.270   3.240 -16.927  1.00  0.00     0.060 A 
BRANCH  78  79
ATOM     79  S   UNL     1      -4.477   4.090 -18.311  1.00  0.00     0.124 S 
ATOM     80  O   UNL     1      -4.182   2.983 -19.215  1.00  0.00    -0.237 OA
ATOM     81  O   UNL     1      -5.523   5.008 -18.746  1.00  0.00    -0.237 OA
ATOM     82  O   UNL     1      -3.311   4.722 -17.699  1.00  0.00    -0.744 OA
ENDBRANCH  78  79
ENDBRANCH  46  71
BRANCH  58  83
ATOM     83  C   UNL     1     -11.482  -0.211 -11.304  1.00  0.00     0.058 A 
ATOM     84  C   UNL     1     -10.344  -0.980 -11.000  1.00  0.00     0.135 A 
ATOM     85  C   UNL     1     -12.705  -0.893 -11.403  1.00  0.00     0.135 A 
ATOM     86  F   UNL     1      -9.158  -0.395 -10.782  1.00  0.00    -0.206 F 
ATOM     87  C   UNL     1     -10.411  -2.365 -10.838  1.00  0.00     0.059 A 
ATOM     88  C   UNL     1     -12.800  -2.271 -11.216  1.00  0.00     0.059 A 
ATOM     89  F   UNL     1     -13.840  -0.209 -11.625  1.00  0.00    -0.206 F 
ATOM     90  C   UNL     1     -11.646  -3.003 -10.943  1.00  0.00     0.060 A 
BRANCH  90  91
ATOM     91  S   UNL     1     -11.742  -4.780 -10.633  1.00  0.00     0.124 S 
ATOM     92  O   UNL     1     -11.103  -5.335 -11.821  1.00  0.00    -0.237 OA
ATOM     93  O   UNL     1     -10.997  -4.926  -9.386  1.00  0.00    -0.237 OA
ATOM     94  O   UNL     1     -13.177  -5.031 -10.521  1.00  0.00    -0.744 OA
ENDBRANCH  90  91
ENDBRANCH  58  83
ENDBRANCH  32  33
ENDBRANCH  25  27
ENDBRANCH  24  25
ENDBRANCH  23  24
ENDBRANCH  22  23
ENDBRANCH  21  22
ENDBRANCH   1  21
TORSDOF 21
