REMARK SMILES CC1=C(C#N)C(=O)N(C)C(=O)/C1=C\Nc1ccc(C(=O)OCCOCCOC(=O)c2ccc(-c3c4nc(c(-c5c(F)cc(S(=O)(=O)[O-])cc5F)c5ccc([nH]5)c(-c5c(F)cc(S(=O)(=O)[O-])cc5F)c5nc(c(-c6c(F)cc(S(=O)(=O)[O-])cc6F)c6ccc3[nH]6)C=C5)C=C4)cc2)c(O)c1
REMARK SMILES IDX 24 1 23 2 22 3 21 4 19 5 20 6 18 7 15 8 16 9 98 10 17 11
REMARK SMILES IDX 96 12 14 13 13 15 1 16 2 17 3 18 12 19 6 20 10 21 7 22 8 23
REMARK SMILES IDX 11 24 9 25 4 26 5 27 97 28 25 30 26 31 27 32 28 33 29 34
REMARK SMILES IDX 30 35 31 36 95 37 32 38 94 39 33 40 34 41 35 42 88 43 36 44
REMARK SMILES IDX 93 45 87 46 89 47 37 48 92 49 86 50 85 51 38 53 72 54 51 55
REMARK SMILES IDX 71 56 52 57 55 58 70 59 90 60 53 61 54 62 69 64 91 65 56 66
REMARK SMILES IDX 39 67 40 68 49 69 41 70 42 71 48 72 50 73 43 74 44 75 45 76
REMARK SMILES IDX 46 77 47 78 73 79 74 80 83 81 75 82 76 83 82 84 84 85 77 86
REMARK SMILES IDX 78 87 79 88 80 89 81 90 57 91 58 92 67 93 59 94 60 95 66 96
REMARK SMILES IDX 68 97 61 98 62 99 63 100 64 101 65 102
REMARK H PARENT 14 14 97 29 89 52 55 63
REMARK Flexibility Score: inf
ROOT
ATOM      1  O   UNL     1      -1.015  10.101   0.141  1.00  0.00    -0.374 OA
ENDROOT
BRANCH   1   2
ATOM      2  C   UNL     1      -1.188  10.837   1.349  1.00  0.00     0.202 C 
BRANCH   2   3
ATOM      3  C   UNL     1      -2.092  10.264   2.446  1.00  0.00     0.261 C 
BRANCH   3   4
ATOM      4  O   UNL     1      -1.696   8.947   2.860  1.00  0.00    -0.460 OA
BRANCH   4   5
ATOM      5  C   UNL     1      -2.481   7.955   2.365  1.00  0.00     0.341 C 
ATOM      6  O   UNL     1      -3.507   8.091   1.718  1.00  0.00    -0.246 OA
BRANCH   5   7
ATOM      7  C   UNL     1      -1.825   6.642   2.549  1.00  0.00     0.101 A 
ATOM      8  C   UNL     1      -0.827   4.022   2.795  1.00  0.00     0.042 A 
ATOM      9  C   UNL     1      -1.503   4.411   1.637  1.00  0.00     0.027 A 
ATOM     10  C   UNL     1      -0.571   4.989   3.780  1.00  0.00     0.073 A 
ATOM     11  C   UNL     1      -2.027   5.700   1.529  1.00  0.00     0.022 A 
ATOM     12  C   UNL     1      -1.039   6.298   3.647  1.00  0.00     0.132 A 
BRANCH   8  13
ATOM     13  N   UNL     1      -0.377   2.712   3.005  1.00  0.00    -0.361 N 
ATOM     14  H   UNL     1      -0.273   2.449   3.948  1.00  0.00     0.166 HD
BRANCH  13  15
ATOM     15  C   UNL     1      -0.060   1.738   2.087  1.00  0.00     0.097 C 
ATOM     16  C   UNL     1       0.906  -0.030  -0.109  1.00  0.00     0.047 C 
ATOM     17  C   UNL     1       0.493  -0.550   1.255  1.00  0.00    -0.013 C 
ATOM     18  C   UNL     1       0.569  -1.868   1.543  1.00  0.00     0.121 C 
ATOM     19  C   UNL     1       0.048   0.404   2.278  1.00  0.00     0.060 C 
ATOM     20  C   UNL     1       0.178  -2.395   2.877  1.00  0.00     0.271 C 
ATOM     21  C   UNL     1      -0.320  -0.110   3.651  1.00  0.00     0.262 C 
ATOM     22  O   UNL     1       0.245  -3.603   3.103  1.00  0.00    -0.268 OA
ATOM     23  N   UNL     1      -0.250  -1.483   3.827  1.00  0.00    -0.277 N 
ATOM     24  O   UNL     1      -0.662   0.654   4.555  1.00  0.00    -0.269 OA
ATOM     25  C   UNL     1      -0.622  -2.027   5.124  1.00  0.00     0.157 C 
BRANCH  18  26
ATOM     26  C   UNL     1       1.056  -2.827   0.606  1.00  0.00     0.105 C 
ATOM     27  N   UNL     1       1.466  -3.563  -0.196  1.00  0.00    -0.192 NA
ENDBRANCH  18  26
ENDBRANCH  13  15
ENDBRANCH   8  13
BRANCH  12  28
ATOM     28  O   UNL     1      -0.683   7.168   4.638  1.00  0.00    -0.507 OA
ATOM     29  H   UNL     1      -0.968   8.060   4.602  1.00  0.00     0.293 HD
ENDBRANCH  12  28
ENDBRANCH   5   7
ENDBRANCH   4   5
ENDBRANCH   3   4
ENDBRANCH   2   3
ENDBRANCH   1   2
BRANCH   1  30
ATOM     30  C   UNL     1      -0.199   8.933   0.160  1.00  0.00     0.202 C 
BRANCH  30  31
ATOM     31  C   UNL     1       1.318   9.065   0.356  1.00  0.00     0.261 C 
BRANCH  31  32
ATOM     32  O   UNL     1       1.693   9.719   1.577  1.00  0.00    -0.460 OA
BRANCH  32  33
ATOM     33  C   UNL     1       2.132  10.993   1.411  1.00  0.00     0.338 C 
ATOM     34  O   UNL     1       2.241  11.604   0.361  1.00  0.00    -0.246 OA
BRANCH  33  35
ATOM     35  C   UNL     1       2.286  11.638   2.727  1.00  0.00     0.060 A 
ATOM     36  C   UNL     1       1.536  12.793   2.985  1.00  0.00     0.016 A 
ATOM     37  C   UNL     1       3.204  11.159   3.661  1.00  0.00     0.016 A 
ATOM     38  C   UNL     1       1.731  13.499   4.169  1.00  0.00     0.010 A 
ATOM     39  C   UNL     1       3.402  11.874   4.844  1.00  0.00     0.010 A 
ATOM     40  C   UNL     1       2.691  13.064   5.091  1.00  0.00    -0.014 A 
BRANCH  40  41
ATOM     41  C   UNL     1       3.037  13.910   6.259  1.00  0.00     0.031 A 
ATOM     42  C   UNL     1       4.339  14.664   6.260  1.00  0.00     0.074 A 
ATOM     43  C   UNL     1       2.196  14.005   7.305  1.00  0.00     0.049 A 
ATOM     44  N   UNL     1       4.872  15.394   7.204  1.00  0.00    -0.248 NA
ATOM     45  C   UNL     1       5.151  14.575   5.035  1.00  0.00     0.031 C 
ATOM     46  C   UNL     1       0.892  13.351   7.400  1.00  0.00     0.029 A 
ATOM     47  N   UNL     1       2.322  14.680   8.493  1.00  0.00    -0.354 N 
ATOM     48  C   UNL     1       6.087  15.842   6.696  1.00  0.00     0.074 A 
ATOM     49  C   UNL     1       6.227  15.271   5.374  1.00  0.00     0.031 C 
ATOM     50  C   UNL     1       0.341  13.648   8.589  1.00  0.00     0.029 A 
ATOM     51  C   UNL     1       1.272  14.473   9.356  1.00  0.00     0.049 A 
ATOM     52  H   UNL     1       3.091  15.256   8.707  1.00  0.00     0.167 HD
ATOM     53  C   UNL     1       6.996  16.660   7.278  1.00  0.00     0.037 A 
ATOM     54  C   UNL     1       1.096  14.879  10.629  1.00  0.00     0.037 A 
ATOM     55  C   UNL     1       6.845  17.219   8.598  1.00  0.00     0.049 A 
ATOM     56  C   UNL     1       2.158  15.724  11.285  1.00  0.00     0.074 A 
ATOM     57  C   UNL     1       7.698  18.077   9.270  1.00  0.00     0.029 A 
ATOM     58  N   UNL     1       5.780  16.967   9.451  1.00  0.00    -0.354 N 
ATOM     59  N   UNL     1       3.289  16.164  10.785  1.00  0.00    -0.248 NA
ATOM     60  C   UNL     1       1.919  16.131  12.676  1.00  0.00     0.031 C 
ATOM     61  C   UNL     1       7.186  18.286  10.554  1.00  0.00     0.029 A 
ATOM     62  C   UNL     1       5.972  17.624  10.656  1.00  0.00     0.049 A 
ATOM     63  H   UNL     1       5.003  16.404   9.233  1.00  0.00     0.167 HD
ATOM     64  C   UNL     1       3.878  16.927  11.789  1.00  0.00     0.074 A 
ATOM     65  C   UNL     1       2.973  16.898  12.918  1.00  0.00     0.031 C 
ATOM     66  C   UNL     1       5.059  17.595  11.774  1.00  0.00     0.037 A 
BRANCH  53  67
ATOM     67  C   UNL     1       8.252  16.976   6.508  1.00  0.00     0.058 A 
ATOM     68  C   UNL     1       8.235  17.765   5.346  1.00  0.00     0.135 A 
ATOM     69  C   UNL     1       9.499  16.516   6.964  1.00  0.00     0.135 A 
ATOM     70  F   UNL     1       7.072  18.220   4.853  1.00  0.00    -0.206 F 
ATOM     71  C   UNL     1       9.403  18.059   4.648  1.00  0.00     0.059 A 
ATOM     72  C   UNL     1      10.683  16.828   6.303  1.00  0.00     0.059 A 
ATOM     73  F   UNL     1       9.577  15.757   8.069  1.00  0.00    -0.206 F 
ATOM     74  C   UNL     1      10.623  17.588   5.136  1.00  0.00     0.060 A 
BRANCH  74  75
ATOM     75  S   UNL     1      12.127  17.986   4.222  1.00  0.00     0.124 S 
ATOM     76  O   UNL     1      11.951  17.190   3.011  1.00  0.00    -0.237 OA
ATOM     77  O   UNL     1      12.014  19.431   4.052  1.00  0.00    -0.237 OA
ATOM     78  O   UNL     1      13.196  17.543   5.112  1.00  0.00    -0.744 OA
ENDBRANCH  74  75
ENDBRANCH  53  67
BRANCH  54  79
ATOM     79  C   UNL     1      -0.130  14.480  11.373  1.00  0.00     0.058 A 
ATOM     80  C   UNL     1      -1.086  15.432  11.757  1.00  0.00     0.135 A 
ATOM     81  C   UNL     1      -0.372  13.139  11.713  1.00  0.00     0.135 A 
ATOM     82  F   UNL     1      -0.897  16.728  11.467  1.00  0.00    -0.206 F 
ATOM     83  C   UNL     1      -2.230  15.073  12.463  1.00  0.00     0.059 A 
ATOM     84  C   UNL     1      -1.524  12.751  12.389  1.00  0.00     0.059 A 
ATOM     85  F   UNL     1       0.505  12.187  11.361  1.00  0.00    -0.206 F 
ATOM     86  C   UNL     1      -2.443  13.728  12.768  1.00  0.00     0.060 A 
BRANCH  86  87
ATOM     87  S   UNL     1      -3.958  13.270  13.637  1.00  0.00     0.124 S 
ATOM     88  O   UNL     1      -3.724  13.840  14.959  1.00  0.00    -0.237 OA
ATOM     89  O   UNL     1      -4.980  13.927  12.829  1.00  0.00    -0.237 OA
ATOM     90  O   UNL     1      -3.957  11.812  13.570  1.00  0.00    -0.744 OA
ENDBRANCH  86  87
ENDBRANCH  54  79
BRANCH  66  91
ATOM     91  C   UNL     1       5.428  18.393  12.998  1.00  0.00     0.058 A 
ATOM     92  C   UNL     1       5.780  17.780  14.210  1.00  0.00     0.135 A 
ATOM     93  C   UNL     1       5.488  19.796  12.935  1.00  0.00     0.135 A 
ATOM     94  F   UNL     1       5.735  16.444  14.331  1.00  0.00    -0.206 F 
ATOM     95  C   UNL     1       6.154  18.529  15.323  1.00  0.00     0.059 A 
ATOM     96  C   UNL     1       5.894  20.562  14.023  1.00  0.00     0.059 A 
ATOM     97  F   UNL     1       5.171  20.437  11.799  1.00  0.00    -0.206 F 
ATOM     98  C   UNL     1       6.214  19.920  15.217  1.00  0.00     0.060 A 
BRANCH  98  99
ATOM     99  S   UNL     1       6.742  20.873  16.656  1.00  0.00     0.124 S 
ATOM    100  O   UNL     1       5.605  20.704  17.556  1.00  0.00    -0.237 OA
ATOM    101  O   UNL     1       7.969  20.188  17.049  1.00  0.00    -0.237 OA
ATOM    102  O   UNL     1       6.925  22.221  16.125  1.00  0.00    -0.744 OA
ENDBRANCH  98  99
ENDBRANCH  66  91
ENDBRANCH  40  41
ENDBRANCH  33  35
ENDBRANCH  32  33
ENDBRANCH  31  32
ENDBRANCH  30  31
ENDBRANCH   1  30
TORSDOF 21
