REMARK SMILES O=C(CCOCc1ccccc1)OCCOCCOC(=O)c1ccc(-c2c3nc(c(-c4c(F)cc(S(=O)(=O)[O-])cc4F)c4ccc([nH]4)c(-c4c(F)cc(S(=O)(=O)[O-])cc4F)c4nc(c(-c5c(F)cc(S(=O)(=O)[O-])cc5F)c5ccc2[nH]5)C=C4)C=C3)cc1
REMARK SMILES IDX 15 1 14 2 13 3 2 4 1 5 3 6 4 7 5 8 6 9 7 10 8 11 12 12 9 13
REMARK SMILES IDX 11 14 10 15 16 16 17 17 18 18 19 19 20 20 21 21 22 22 23 23
REMARK SMILES IDX 87 24 24 25 86 26 25 27 26 28 27 29 80 30 28 31 85 32 79 33
REMARK SMILES IDX 81 34 29 35 84 36 78 37 77 38 30 40 64 41 43 42 63 43 44 44
REMARK SMILES IDX 47 45 62 46 82 47 45 48 46 49 61 51 83 52 48 53 31 54 32 55
REMARK SMILES IDX 41 56 33 57 34 58 40 59 42 60 35 61 36 62 37 63 38 64 39 65
REMARK SMILES IDX 65 66 66 67 75 68 67 69 68 70 74 71 76 72 69 73 70 74 71 75
REMARK SMILES IDX 72 76 73 77 49 78 50 79 59 80 51 81 52 82 58 83 60 84 53 85
REMARK SMILES IDX 54 86 55 87 56 88 57 89
REMARK H PARENT 81 39 47 50
REMARK Flexibility Score: inf
ROOT
ATOM      1  C   UNL     1       4.830  -0.170  -1.653  1.00  0.00     0.202 C 
ENDROOT
BRANCH   1   2
ATOM      2  C   UNL     1       4.231  -1.008  -0.517  1.00  0.00     0.261 C 
BRANCH   2   3
ATOM      3  O   UNL     1       2.879  -0.791  -0.069  1.00  0.00    -0.463 OA
BRANCH   3   4
ATOM      4  C   UNL     1       2.325   0.316   0.458  1.00  0.00     0.308 C 
ATOM      5  O   UNL     1       1.206   0.262   0.964  1.00  0.00    -0.252 OA
BRANCH   4   6
ATOM      6  C   UNL     1       3.046   1.614   0.337  1.00  0.00     0.151 C 
BRANCH   6   7
ATOM      7  C   UNL     1       3.754   2.068   1.591  1.00  0.00     0.172 C 
BRANCH   7   8
ATOM      8  O   UNL     1       4.776   1.232   2.114  1.00  0.00    -0.376 OA
BRANCH   8   9
ATOM      9  C   UNL     1       4.422   0.078   2.882  1.00  0.00     0.195 C 
BRANCH   9  10
ATOM     10  C   UNL     1       3.304   0.145   3.893  1.00  0.00    -0.022 A 
ATOM     11  C   UNL     1       3.010   1.294   4.631  1.00  0.00     0.006 A 
ATOM     12  C   UNL     1       2.574  -1.028   4.155  1.00  0.00     0.006 A 
ATOM     13  C   UNL     1       1.950   1.299   5.539  1.00  0.00     0.000 A 
ATOM     14  C   UNL     1       1.542  -1.035   5.091  1.00  0.00     0.000 A 
ATOM     15  C   UNL     1       1.219   0.135   5.770  1.00  0.00     0.000 A 
ENDBRANCH   9  10
ENDBRANCH   8   9
ENDBRANCH   7   8
ENDBRANCH   6   7
ENDBRANCH   4   6
ENDBRANCH   3   4
ENDBRANCH   2   3
ENDBRANCH   1   2
BRANCH   1  16
ATOM     16  O   UNL     1       4.015   0.487  -2.611  1.00  0.00    -0.374 OA
BRANCH  16  17
ATOM     17  C   UNL     1       2.749  -0.033  -2.983  1.00  0.00     0.202 C 
BRANCH  17  18
ATOM     18  C   UNL     1       2.731  -1.290  -3.847  1.00  0.00     0.261 C 
BRANCH  18  19
ATOM     19  O   UNL     1       3.224  -2.448  -3.161  1.00  0.00    -0.460 OA
BRANCH  19  20
ATOM     20  C   UNL     1       4.469  -2.836  -3.513  1.00  0.00     0.338 C 
ATOM     21  O   UNL     1       5.221  -2.280  -4.305  1.00  0.00    -0.246 OA
BRANCH  20  22
ATOM     22  C   UNL     1       4.883  -3.979  -2.685  1.00  0.00     0.060 A 
ATOM     23  C   UNL     1       6.127  -3.913  -2.044  1.00  0.00     0.016 A 
ATOM     24  C   UNL     1       4.089  -5.124  -2.590  1.00  0.00     0.016 A 
ATOM     25  C   UNL     1       6.605  -5.018  -1.345  1.00  0.00     0.010 A 
ATOM     26  C   UNL     1       4.576  -6.236  -1.900  1.00  0.00     0.010 A 
ATOM     27  C   UNL     1       5.852  -6.199  -1.310  1.00  0.00    -0.014 A 
BRANCH  27  28
ATOM     28  C   UNL     1       6.473  -7.446  -0.809  1.00  0.00     0.031 A 
ATOM     29  C   UNL     1       7.028  -8.424  -1.809  1.00  0.00     0.074 A 
ATOM     30  C   UNL     1       6.561  -7.686   0.511  1.00  0.00     0.049 A 
ATOM     31  N   UNL     1       7.574  -9.594  -1.609  1.00  0.00    -0.248 NA
ATOM     32  C   UNL     1       6.956  -8.028  -3.226  1.00  0.00     0.031 C 
ATOM     33  C   UNL     1       6.085  -6.791   1.566  1.00  0.00     0.029 A 
ATOM     34  N   UNL     1       7.074  -8.762   1.188  1.00  0.00    -0.354 N 
ATOM     35  C   UNL     1       7.909 -10.075  -2.870  1.00  0.00     0.074 A 
ATOM     36  C   UNL     1       7.474  -9.087  -3.832  1.00  0.00     0.031 C 
ATOM     37  C   UNL     1       6.315  -7.364   2.760  1.00  0.00     0.029 A 
ATOM     38  C   UNL     1       6.924  -8.676   2.552  1.00  0.00     0.049 A 
ATOM     39  H   UNL     1       7.508  -9.524   0.741  1.00  0.00     0.167 HD
ATOM     40  C   UNL     1       8.533 -11.232  -3.192  1.00  0.00     0.037 A 
ATOM     41  C   UNL     1       7.222  -9.570   3.515  1.00  0.00     0.037 A 
ATOM     42  C   UNL     1       8.957 -12.210  -2.224  1.00  0.00     0.049 A 
ATOM     43  C   UNL     1       7.856 -10.881   3.123  1.00  0.00     0.074 A 
ATOM     44  C   UNL     1       9.605 -13.413  -2.442  1.00  0.00     0.029 A 
ATOM     45  N   UNL     1       8.772 -12.099  -0.854  1.00  0.00    -0.354 N 
ATOM     46  N   UNL     1       8.187 -11.315   1.929  1.00  0.00    -0.248 NA
ATOM     47  C   UNL     1       8.163 -11.822   4.210  1.00  0.00     0.031 C 
ATOM     48  C   UNL     1       9.767 -14.051  -1.209  1.00  0.00     0.029 A 
ATOM     49  C   UNL     1       9.273 -13.221  -0.215  1.00  0.00     0.049 A 
ATOM     50  H   UNL     1       8.347 -11.334  -0.401  1.00  0.00     0.167 HD
ATOM     51  C   UNL     1       8.765 -12.566   2.125  1.00  0.00     0.074 A 
ATOM     52  C   UNL     1       8.757 -12.808   3.553  1.00  0.00     0.031 C 
ATOM     53  C   UNL     1       9.258 -13.438   1.210  1.00  0.00     0.037 A 
BRANCH  40  54
ATOM     54  C   UNL     1       8.782 -11.514  -4.648  1.00  0.00     0.058 A 
ATOM     55  C   UNL     1       9.746 -10.806  -5.383  1.00  0.00     0.135 A 
ATOM     56  C   UNL     1       8.086 -12.544  -5.304  1.00  0.00     0.135 A 
ATOM     57  F   UNL     1      10.424  -9.797  -4.813  1.00  0.00    -0.206 F 
ATOM     58  C   UNL     1      10.005 -11.101  -6.718  1.00  0.00     0.059 A 
ATOM     59  C   UNL     1       8.348 -12.874  -6.631  1.00  0.00     0.059 A 
ATOM     60  F   UNL     1       7.148 -13.247  -4.652  1.00  0.00    -0.206 F 
ATOM     61  C   UNL     1       9.305 -12.141  -7.332  1.00  0.00     0.060 A 
BRANCH  61  62
ATOM     62  S   UNL     1       9.680 -12.533  -9.054  1.00  0.00     0.124 S 
ATOM     63  O   UNL     1       9.115 -11.379  -9.746  1.00  0.00    -0.237 OA
ATOM     64  O   UNL     1      11.137 -12.615  -9.043  1.00  0.00    -0.237 OA
ATOM     65  O   UNL     1       8.986 -13.798  -9.274  1.00  0.00    -0.744 OA
ENDBRANCH  61  62
ENDBRANCH  40  54
BRANCH  41  66
ATOM     66  C   UNL     1       6.908  -9.273   4.940  1.00  0.00     0.058 A 
ATOM     67  C   UNL     1       7.926  -9.096   5.888  1.00  0.00     0.135 A 
ATOM     68  C   UNL     1       5.579  -9.188   5.386  1.00  0.00     0.135 A 
ATOM     69  F   UNL     1       9.212  -9.175   5.514  1.00  0.00    -0.206 F 
ATOM     70  C   UNL     1       7.641  -8.875   7.232  1.00  0.00     0.059 A 
ATOM     71  C   UNL     1       5.269  -8.938   6.719  1.00  0.00     0.059 A 
ATOM     72  F   UNL     1       4.566  -9.337   4.518  1.00  0.00    -0.206 F 
ATOM     73  C   UNL     1       6.307  -8.799   7.638  1.00  0.00     0.060 A 
BRANCH  73  74
ATOM     74  S   UNL     1       5.947  -8.492   9.381  1.00  0.00     0.124 S 
ATOM     75  O   UNL     1       6.293  -9.775   9.982  1.00  0.00    -0.237 OA
ATOM     76  O   UNL     1       6.842  -7.380   9.687  1.00  0.00    -0.237 OA
ATOM     77  O   UNL     1       4.525  -8.159   9.375  1.00  0.00    -0.744 OA
ENDBRANCH  73  74
ENDBRANCH  41  66
BRANCH  53  78
ATOM     78  C   UNL     1       9.860 -14.716   1.730  1.00  0.00     0.058 A 
ATOM     79  C   UNL     1       9.069 -15.736   2.281  1.00  0.00     0.135 A 
ATOM     80  C   UNL     1      11.245 -14.935   1.645  1.00  0.00     0.135 A 
ATOM     81  F   UNL     1       7.740 -15.577   2.389  1.00  0.00    -0.206 F 
ATOM     82  C   UNL     1       9.633 -16.911   2.767  1.00  0.00     0.059 A 
ATOM     83  C   UNL     1      11.827 -16.116   2.094  1.00  0.00     0.059 A 
ATOM     84  F   UNL     1      12.047 -13.999   1.112  1.00  0.00    -0.206 F 
ATOM     85  C   UNL     1      11.014 -17.090   2.670  1.00  0.00     0.060 A 
BRANCH  85  86
ATOM     86  S   UNL     1      11.733 -18.624   3.296  1.00  0.00     0.124 S 
ATOM     87  O   UNL     1      11.642 -18.423   4.738  1.00  0.00    -0.237 OA
ATOM     88  O   UNL     1      10.841 -19.637   2.739  1.00  0.00    -0.237 OA
ATOM     89  O   UNL     1      13.084 -18.616   2.744  1.00  0.00    -0.744 OA
ENDBRANCH  85  86
ENDBRANCH  53  78
ENDBRANCH  27  28
ENDBRANCH  20  22
ENDBRANCH  19  20
ENDBRANCH  18  19
ENDBRANCH  17  18
ENDBRANCH  16  17
ENDBRANCH   1  16
TORSDOF 21
