REMARK SMILES CCc1c([N+](=O)[O-])cc(C(=O)OCCOCCOC(=O)c2ccc(-c3c4nc(c(-c5c(F)cc(S(=O)(=O)[O-])cc5F)c5ccc([nH]5)c(-c5c(F)cc(S(=O)(=O)[O-])cc5F)c5nc(c(-c6c(F)cc(S(=O)(=O)[O-])cc6F)c6ccc3[nH]6)C=C5)C=C4)cc2)n1C
REMARK SMILES IDX 16 1 15 2 14 3 13 4 12 5 10 6 11 7 9 8 3 9 4 10 87 11 8 12
REMARK SMILES IDX 88 13 2 14 1 15 5 16 6 17 7 18 17 19 18 20 19 21 20 22 21 23
REMARK SMILES IDX 22 24 86 25 23 26 85 27 24 28 25 29 26 30 79 31 27 32 84 33
REMARK SMILES IDX 78 34 80 35 28 36 83 37 77 38 76 39 29 41 63 42 42 43 62 44
REMARK SMILES IDX 43 45 46 46 61 47 81 48 44 49 45 50 60 52 82 53 47 54 30 55
REMARK SMILES IDX 31 56 40 57 32 58 33 59 39 60 41 61 34 62 35 63 36 64 37 65
REMARK SMILES IDX 38 66 64 67 65 68 74 69 66 70 67 71 73 72 75 73 68 74 69 75
REMARK SMILES IDX 70 76 71 77 72 78 48 79 49 80 58 81 50 82 51 83 57 84 59 85
REMARK SMILES IDX 52 86 53 87 54 88 55 89 56 90
REMARK H PARENT 80 40 46 51
REMARK Flexibility Score: inf
ROOT
ATOM      1  C   UNL     1      -0.269   3.701   5.839  1.00  0.00     0.202 C 
ENDROOT
BRANCH   1   2
ATOM      2  O   UNL     1       0.399   4.943   6.082  1.00  0.00    -0.374 OA
BRANCH   2   3
ATOM      3  C   UNL     1       0.496   5.832   4.966  1.00  0.00     0.202 C 
BRANCH   3   4
ATOM      4  C   UNL     1       1.751   5.620   4.116  1.00  0.00     0.261 C 
BRANCH   4   5
ATOM      5  O   UNL     1       1.658   4.362   3.424  1.00  0.00    -0.459 OA
BRANCH   5   6
ATOM      6  C   UNL     1       2.519   3.398   3.837  1.00  0.00     0.355 C 
ATOM      7  O   UNL     1       3.483   3.588   4.568  1.00  0.00    -0.244 OA
BRANCH   6   8
ATOM      8  C   UNL     1       2.076   2.080   3.415  1.00  0.00     0.134 A 
ATOM      9  C   UNL     1       1.157   0.312   2.304  1.00  0.00     0.096 A 
ATOM     10  C   UNL     1       1.887  -0.195   3.378  1.00  0.00     0.291 A 
ATOM     11  N   UNL     1       1.201   1.703   2.403  1.00  0.00    -0.336 N 
ATOM     12  C   UNL     1       2.466   0.909   4.045  1.00  0.00     0.121 A 
ATOM     13  C   UNL     1       0.468   2.626   1.553  1.00  0.00     0.150 C 
BRANCH   9  14
ATOM     14  C   UNL     1       0.425  -0.408   1.202  1.00  0.00     0.058 C 
ATOM     15  C   UNL     1       1.141  -0.270  -0.136  1.00  0.00     0.011 C 
ENDBRANCH   9  14
BRANCH  10  16
ATOM     16  N   UNL     1       2.073  -1.575   3.776  1.00  0.00     0.064 N 
ATOM     17  O   UNL     1       1.833  -2.462   2.949  1.00  0.00    -0.258 OA
ATOM     18  O   UNL     1       2.468  -1.765   4.935  1.00  0.00    -0.258 OA
ENDBRANCH  10  16
ENDBRANCH   6   8
ENDBRANCH   5   6
ENDBRANCH   4   5
ENDBRANCH   3   4
ENDBRANCH   2   3
ENDBRANCH   1   2
BRANCH   1  19
ATOM     19  C   UNL     1      -1.794   3.763   5.975  1.00  0.00     0.261 C 
BRANCH  19  20
ATOM     20  O   UNL     1      -2.377   4.450   4.852  1.00  0.00    -0.460 OA
BRANCH  20  21
ATOM     21  C   UNL     1      -2.897   5.672   5.126  1.00  0.00     0.338 C 
ATOM     22  O   UNL     1      -3.020   6.192   6.221  1.00  0.00    -0.246 OA
BRANCH  21  23
ATOM     23  C   UNL     1      -3.129   6.393   3.858  1.00  0.00     0.060 A 
ATOM     24  C   UNL     1      -2.633   7.699   3.755  1.00  0.00     0.016 A 
ATOM     25  C   UNL     1      -3.825   5.814   2.794  1.00  0.00     0.016 A 
ATOM     26  C   UNL     1      -2.845   8.438   2.591  1.00  0.00     0.010 A 
ATOM     27  C   UNL     1      -4.049   6.562   1.633  1.00  0.00     0.010 A 
ATOM     28  C   UNL     1      -3.573   7.881   1.532  1.00  0.00    -0.014 A 
BRANCH  28  29
ATOM     29  C   UNL     1      -3.914   8.702   0.346  1.00  0.00     0.031 A 
ATOM     30  C   UNL     1      -5.267   9.350   0.264  1.00  0.00     0.074 A 
ATOM     31  C   UNL     1      -3.026   8.856  -0.652  1.00  0.00     0.049 A 
ATOM     32  N   UNL     1      -5.799  10.028  -0.719  1.00  0.00    -0.248 NA
ATOM     33  C   UNL     1      -6.133   9.214   1.445  1.00  0.00     0.031 C 
ATOM     34  C   UNL     1      -1.669   8.312  -0.666  1.00  0.00     0.029 A 
ATOM     35  N   UNL     1      -3.142   9.502  -1.857  1.00  0.00    -0.354 N 
ATOM     36  C   UNL     1      -7.064  10.398  -0.279  1.00  0.00     0.074 A 
ATOM     37  C   UNL     1      -7.227   9.852   1.051  1.00  0.00     0.031 C 
ATOM     38  C   UNL     1      -1.085   8.627  -1.835  1.00  0.00     0.029 A 
ATOM     39  C   UNL     1      -2.039   9.363  -2.664  1.00  0.00     0.049 A 
ATOM     40  H   UNL     1      -3.940  10.016  -2.119  1.00  0.00     0.167 HD
ATOM     41  C   UNL     1      -8.001  11.131  -0.926  1.00  0.00     0.037 A 
ATOM     42  C   UNL     1      -1.835   9.753  -3.938  1.00  0.00     0.037 A 
ATOM     43  C   UNL     1      -7.836  11.668  -2.251  1.00  0.00     0.049 A 
ATOM     44  C   UNL     1      -2.927  10.483  -4.673  1.00  0.00     0.074 A 
ATOM     45  C   UNL     1      -8.716  12.450  -2.979  1.00  0.00     0.029 A 
ATOM     46  N   UNL     1      -6.723  11.466  -3.053  1.00  0.00    -0.354 N 
ATOM     47  N   UNL     1      -4.109  10.849  -4.238  1.00  0.00    -0.248 NA
ATOM     48  C   UNL     1      -2.664  10.843  -6.074  1.00  0.00     0.031 C 
ATOM     49  C   UNL     1      -8.154  12.682  -4.239  1.00  0.00     0.029 A 
ATOM     50  C   UNL     1      -6.907  12.078  -4.282  1.00  0.00     0.049 A 
ATOM     51  H   UNL     1      -5.920  10.962  -2.788  1.00  0.00     0.167 HD
ATOM     52  C   UNL     1      -4.726  11.492  -5.306  1.00  0.00     0.074 A 
ATOM     53  C   UNL     1      -3.783  11.476  -6.405  1.00  0.00     0.031 C 
ATOM     54  C   UNL     1      -5.961  12.047  -5.369  1.00  0.00     0.037 A 
BRANCH  41  55
ATOM     55  C   UNL     1      -9.302  11.374  -0.217  1.00  0.00     0.058 A 
ATOM     56  C   UNL     1      -9.402  12.287   0.844  1.00  0.00     0.135 A 
ATOM     57  C   UNL     1     -10.468  10.705  -0.622  1.00  0.00     0.135 A 
ATOM     58  F   UNL     1      -8.313  12.939   1.280  1.00  0.00    -0.206 F 
ATOM     59  C   UNL     1     -10.610  12.512   1.495  1.00  0.00     0.059 A 
ATOM     60  C   UNL     1     -11.691  10.931   0.002  1.00  0.00     0.059 A 
ATOM     61  F   UNL     1     -10.424   9.819  -1.629  1.00  0.00    -0.206 F 
ATOM     62  C   UNL     1     -11.749  11.826   1.069  1.00  0.00     0.060 A 
BRANCH  62  63
ATOM     63  S   UNL     1     -13.310  12.123   1.927  1.00  0.00     0.124 S 
ATOM     64  O   UNL     1     -13.100  11.390   3.171  1.00  0.00    -0.237 OA
ATOM     65  O   UNL     1     -13.331  13.578   2.045  1.00  0.00    -0.237 OA
ATOM     66  O   UNL     1     -14.306  11.556   1.024  1.00  0.00    -0.744 OA
ENDBRANCH  62  63
ENDBRANCH  41  55
BRANCH  42  67
ATOM     67  C   UNL     1      -0.553   9.425  -4.614  1.00  0.00     0.058 A 
ATOM     68  C   UNL     1       0.390  10.422  -4.901  1.00  0.00     0.135 A 
ATOM     69  C   UNL     1      -0.242   8.104  -4.973  1.00  0.00     0.135 A 
ATOM     70  F   UNL     1       0.131  11.700  -4.588  1.00  0.00    -0.206 F 
ATOM     71  C   UNL     1       1.598  10.122  -5.523  1.00  0.00     0.059 A 
ATOM     72  C   UNL     1       0.967   7.777  -5.578  1.00  0.00     0.059 A 
ATOM     73  F   UNL     1      -1.109   7.114  -4.711  1.00  0.00    -0.206 F 
ATOM     74  C   UNL     1       1.879   8.795  -5.854  1.00  0.00     0.060 A 
BRANCH  74  75
ATOM     75  S   UNL     1       3.477   8.402  -6.599  1.00  0.00     0.124 S 
ATOM     76  O   UNL     1       3.282   8.863  -7.968  1.00  0.00    -0.237 OA
ATOM     77  O   UNL     1       4.397   9.189  -5.784  1.00  0.00    -0.237 OA
ATOM     78  O   UNL     1       3.578   6.957  -6.424  1.00  0.00    -0.744 OA
ENDBRANCH  74  75
ENDBRANCH  42  67
BRANCH  54  79
ATOM     79  C   UNL     1      -6.371  12.689  -6.664  1.00  0.00     0.058 A 
ATOM     80  C   UNL     1      -6.764  11.918  -7.768  1.00  0.00     0.135 A 
ATOM     81  C   UNL     1      -6.447  14.087  -6.776  1.00  0.00     0.135 A 
ATOM     82  F   UNL     1      -6.700  10.579  -7.714  1.00  0.00    -0.206 F 
ATOM     83  C   UNL     1      -7.215  12.511  -8.943  1.00  0.00     0.059 A 
ATOM     84  C   UNL     1      -6.915  14.701  -7.934  1.00  0.00     0.059 A 
ATOM     85  F   UNL     1      -6.088  14.868  -5.745  1.00  0.00    -0.206 F 
ATOM     86  C   UNL     1      -7.293  13.904  -9.014  1.00  0.00     0.060 A 
BRANCH  86  87
ATOM     87  S   UNL     1      -7.938  14.660 -10.522  1.00  0.00     0.124 S 
ATOM     88  O   UNL     1      -6.811  14.505 -11.434  1.00  0.00    -0.237 OA
ATOM     89  O   UNL     1      -9.106  13.833 -10.812  1.00  0.00    -0.237 OA
ATOM     90  O   UNL     1      -8.234  16.030 -10.114  1.00  0.00    -0.744 OA
ENDBRANCH  86  87
ENDBRANCH  54  79
ENDBRANCH  28  29
ENDBRANCH  21  23
ENDBRANCH  20  21
ENDBRANCH  19  20
ENDBRANCH   1  19
TORSDOF 19
