REMARK SMILES C=C(C(=O)OCCOCCOC(=O)c1ccc(-c2c3nc(c(-c4c(F)cc(S(=O)(=O)[O-])cc4F)c4ccc([nH]4)c(-c4c(F)cc(S(=O)(=O)[O-])cc4F)c4nc(c(-c5c(F)cc(S(=O)(=O)[O-])cc5F)c5ccc2[nH]5)C=C4)C=C3)cc1)[C@@H]1CC[C@]2(C)CCCC(=C)[C@H]2[C@H]1O
REMARK SMILES IDX 9 1 8 2 7 3 6 4 5 5 3 6 4 7 2 8 1 9 80 10 81 11 91 12 82 13
REMARK SMILES IDX 90 14 83 15 88 16 84 17 85 18 87 19 89 20 86 21 92 22 10 24
REMARK SMILES IDX 11 25 12 26 13 27 14 28 15 29 79 30 16 31 78 32 17 33 18 34
REMARK SMILES IDX 19 35 72 36 20 37 77 38 71 39 73 40 21 41 76 42 70 43 69 44
REMARK SMILES IDX 22 46 56 47 35 48 55 49 36 50 39 51 54 52 74 53 37 54 38 55
REMARK SMILES IDX 53 57 75 58 40 59 23 60 24 61 33 62 25 63 26 64 32 65 34 66
REMARK SMILES IDX 27 67 28 68 29 69 30 70 31 71 57 72 58 73 67 74 59 75 60 76
REMARK SMILES IDX 66 77 68 78 61 79 62 80 63 81 64 82 65 83 41 84 42 85 51 86
REMARK SMILES IDX 43 87 44 88 50 89 52 90 45 91 46 92 47 93 48 94 49 95
REMARK H PARENT 92 23 73 45 39 56
REMARK Flexibility Score: inf
ROOT
ATOM      1  C   UNL     1      -2.471   0.115  -2.899  1.00  0.00     0.202 C 
ENDROOT
BRANCH   1   2
ATOM      2  O   UNL     1      -3.793  -0.269  -2.535  1.00  0.00    -0.374 OA
BRANCH   2   3
ATOM      3  C   UNL     1      -4.231  -0.027  -1.196  1.00  0.00     0.202 C 
BRANCH   3   4
ATOM      4  C   UNL     1      -3.525  -0.777  -0.064  1.00  0.00     0.261 C 
BRANCH   4   5
ATOM      5  O   UNL     1      -2.175  -0.306   0.050  1.00  0.00    -0.460 OA
BRANCH   5   6
ATOM      6  C   UNL     1      -1.206  -1.253  -0.020  1.00  0.00     0.333 C 
ATOM      7  O   UNL     1      -1.382  -2.458   0.062  1.00  0.00    -0.247 OA
BRANCH   6   8
ATOM      8  C   UNL     1       0.087  -0.600  -0.409  1.00  0.00     0.036 C 
ATOM      9  C   UNL     1       0.361   0.564   0.214  1.00  0.00     0.020 C 
BRANCH   8  10
ATOM     10  C   UNL     1       0.933  -1.246  -1.527  1.00  0.00     0.055 C 
ATOM     11  C   UNL     1       1.016  -2.792  -1.490  1.00  0.00     0.012 C 
ATOM     12  C   UNL     1       2.392  -0.699  -1.623  1.00  0.00     0.129 C 
ATOM     13  C   UNL     1       1.796  -3.292  -0.276  1.00  0.00     0.008 C 
ATOM     14  C   UNL     1       3.211  -1.174  -0.389  1.00  0.00     0.050 C 
ATOM     15  C   UNL     1       3.239  -2.727  -0.205  1.00  0.00    -0.024 C 
ATOM     16  C   UNL     1       4.598  -0.582  -0.176  1.00  0.00    -0.071 C 
ATOM     17  C   UNL     1       4.111  -3.445  -1.262  1.00  0.00     0.012 C 
ATOM     18  C   UNL     1       3.809  -3.039   1.210  1.00  0.00     0.008 C 
ATOM     19  C   UNL     1       5.132  -0.857   1.211  1.00  0.00     0.031 C 
ATOM     20  C   UNL     1       5.308   0.118  -1.074  1.00  0.00     0.008 C 
ATOM     21  C   UNL     1       5.152  -2.358   1.502  1.00  0.00     0.005 C 
BRANCH  12  22
ATOM     22  O   UNL     1       3.020  -1.068  -2.858  1.00  0.00    -0.392 OA
ATOM     23  H   UNL     1       3.077  -2.035  -2.915  1.00  0.00     0.211 HD
ENDBRANCH  12  22
ENDBRANCH   8  10
ENDBRANCH   6   8
ENDBRANCH   5   6
ENDBRANCH   4   5
ENDBRANCH   3   4
ENDBRANCH   2   3
ENDBRANCH   1   2
BRANCH   1  24
ATOM     24  C   UNL     1      -2.133   1.607  -3.044  1.00  0.00     0.261 C 
BRANCH  24  25
ATOM     25  O   UNL     1      -2.477   2.409  -1.904  1.00  0.00    -0.460 OA
BRANCH  25  26
ATOM     26  C   UNL     1      -3.584   3.172  -2.088  1.00  0.00     0.338 C 
ATOM     27  O   UNL     1      -4.258   3.258  -3.102  1.00  0.00    -0.246 OA
BRANCH  26  28
ATOM     28  C   UNL     1      -4.008   3.777  -0.814  1.00  0.00     0.060 A 
ATOM     29  C   UNL     1      -5.287   3.450  -0.349  1.00  0.00     0.016 A 
ATOM     30  C   UNL     1      -3.227   4.721  -0.145  1.00  0.00     0.016 A 
ATOM     31  C   UNL     1      -5.809   4.098   0.763  1.00  0.00     0.010 A 
ATOM     32  C   UNL     1      -3.759   5.379   0.971  1.00  0.00     0.010 A 
ATOM     33  C   UNL     1      -5.066   5.097   1.407  1.00  0.00    -0.014 A 
BRANCH  33  34
ATOM     34  C   UNL     1      -5.737   5.908   2.453  1.00  0.00     0.031 A 
ATOM     35  C   UNL     1      -6.226   7.291   2.119  1.00  0.00     0.074 A 
ATOM     36  C   UNL     1      -5.994   5.369   3.659  1.00  0.00     0.049 A 
ATOM     37  N   UNL     1      -6.902   8.131   2.860  1.00  0.00    -0.248 NA
ATOM     38  C   UNL     1      -5.917   7.794   0.770  1.00  0.00     0.031 C 
ATOM     39  C   UNL     1      -5.587   4.030   4.087  1.00  0.00     0.029 A 
ATOM     40  N   UNL     1      -6.668   5.877   4.740  1.00  0.00    -0.354 N 
ATOM     41  C   UNL     1      -7.110   9.255   2.067  1.00  0.00     0.074 A 
ATOM     42  C   UNL     1      -6.446   9.010   0.806  1.00  0.00     0.031 C 
ATOM     43  C   UNL     1      -6.023   3.821   5.340  1.00  0.00     0.029 A 
ATOM     44  C   UNL     1      -6.716   5.018   5.812  1.00  0.00     0.049 A 
ATOM     45  H   UNL     1      -7.079   6.771   4.747  1.00  0.00     0.167 HD
ATOM     46  C   UNL     1      -7.809  10.379   2.358  1.00  0.00     0.037 A 
ATOM     47  C   UNL     1      -7.247   5.184   7.039  1.00  0.00     0.037 A 
ATOM     48  C   UNL     1      -8.463  10.618   3.620  1.00  0.00     0.049 A 
ATOM     49  C   UNL     1      -7.975   6.464   7.356  1.00  0.00     0.074 A 
ATOM     50  C   UNL     1      -9.195  11.725   4.015  1.00  0.00     0.029 A 
ATOM     51  N   UNL     1      -8.463   9.739   4.694  1.00  0.00    -0.354 N 
ATOM     52  N   UNL     1      -8.181   7.508   6.588  1.00  0.00    -0.248 NA
ATOM     53  C   UNL     1      -8.556   6.581   8.699  1.00  0.00     0.031 C 
ATOM     54  C   UNL     1      -9.594  11.537   5.343  1.00  0.00     0.029 A 
ATOM     55  C   UNL     1      -9.163  10.287   5.758  1.00  0.00     0.049 A 
ATOM     56  H   UNL     1      -8.028   8.856   4.700  1.00  0.00     0.167 HD
ATOM     57  C   UNL     1      -8.931   8.399   7.350  1.00  0.00     0.074 A 
ATOM     58  C   UNL     1      -9.167   7.755   8.626  1.00  0.00     0.031 C 
ATOM     59  C   UNL     1      -9.381   9.638   7.027  1.00  0.00     0.037 A 
BRANCH  46  60
ATOM     60  C   UNL     1      -7.898  11.442   1.295  1.00  0.00     0.058 A 
ATOM     61  C   UNL     1      -8.659  11.258   0.129  1.00  0.00     0.135 A 
ATOM     62  C   UNL     1      -7.254  12.679   1.465  1.00  0.00     0.135 A 
ATOM     63  F   UNL     1      -9.281  10.090  -0.095  1.00  0.00    -0.206 F 
ATOM     64  C   UNL     1      -8.763  12.253  -0.838  1.00  0.00     0.059 A 
ATOM     65  C   UNL     1      -7.367  13.699   0.524  1.00  0.00     0.059 A 
ATOM     66  F   UNL     1      -6.509  12.909   2.558  1.00  0.00    -0.206 F 
ATOM     67  C   UNL     1      -8.116  13.473  -0.630  1.00  0.00     0.060 A 
BRANCH  67  68
ATOM     68  S   UNL     1      -8.280  14.760  -1.885  1.00  0.00     0.124 S 
ATOM     69  O   UNL     1      -7.485  14.205  -2.977  1.00  0.00    -0.237 OA
ATOM     70  O   UNL     1      -9.722  14.797  -2.106  1.00  0.00    -0.237 OA
ATOM     71  O   UNL     1      -7.716  15.941  -1.238  1.00  0.00    -0.744 OA
ENDBRANCH  67  68
ENDBRANCH  46  60
BRANCH  47  72
ATOM     72  C   UNL     1      -7.092   4.117   8.065  1.00  0.00     0.058 A 
ATOM     73  C   UNL     1      -8.191   3.389   8.543  1.00  0.00     0.135 A 
ATOM     74  C   UNL     1      -5.827   3.811   8.595  1.00  0.00     0.135 A 
ATOM     75  F   UNL     1      -9.422   3.648   8.075  1.00  0.00    -0.206 F 
ATOM     76  C   UNL     1      -8.049   2.414   9.525  1.00  0.00     0.059 A 
ATOM     77  C   UNL     1      -5.655   2.818   9.553  1.00  0.00     0.059 A 
ATOM     78  F   UNL     1      -4.739   4.467   8.163  1.00  0.00    -0.206 F 
ATOM     79  C   UNL     1      -6.774   2.134  10.022  1.00  0.00     0.060 A 
BRANCH  79  80
ATOM     80  S   UNL     1      -6.593   0.840  11.268  1.00  0.00     0.124 S 
ATOM     81  O   UNL     1      -7.163   1.483  12.445  1.00  0.00    -0.237 OA
ATOM     82  O   UNL     1      -7.374  -0.250  10.692  1.00  0.00    -0.237 OA
ATOM     83  O   UNL     1      -5.151   0.614  11.308  1.00  0.00    -0.744 OA
ENDBRANCH  79  80
ENDBRANCH  47  72
BRANCH  59  84
ATOM     84  C   UNL     1     -10.193  10.365   8.068  1.00  0.00     0.058 A 
ATOM     85  C   UNL     1      -9.617  10.839   9.258  1.00  0.00     0.135 A 
ATOM     86  C   UNL     1     -11.565  10.593   7.871  1.00  0.00     0.135 A 
ATOM     87  F   UNL     1      -8.310  10.648   9.499  1.00  0.00    -0.206 F 
ATOM     88  C   UNL     1     -10.382  11.464  10.238  1.00  0.00     0.059 A 
ATOM     89  C   UNL     1     -12.342  11.248   8.822  1.00  0.00     0.059 A 
ATOM     90  F   UNL     1     -12.166  10.178   6.745  1.00  0.00    -0.206 F 
ATOM     91  C   UNL     1     -11.745  11.658  10.014  1.00  0.00     0.060 A 
BRANCH  91  92
ATOM     92  S   UNL     1     -12.729  12.454  11.300  1.00  0.00     0.124 S 
ATOM     93  O   UNL     1     -12.820  11.394  12.299  1.00  0.00    -0.237 OA
ATOM     94  O   UNL     1     -11.900  13.600  11.664  1.00  0.00    -0.237 OA
ATOM     95  O   UNL     1     -13.978  12.783  10.619  1.00  0.00    -0.744 OA
ENDBRANCH  91  92
ENDBRANCH  59  84
ENDBRANCH  33  34
ENDBRANCH  26  28
ENDBRANCH  25  26
ENDBRANCH  24  25
ENDBRANCH   1  24
TORSDOF 19
