REMARK SMILES CCc1cccc(C)c1Nc1ccccc1CC(=O)OCCOCCOC(=O)c1ccc(-c2c3nc(c(-c4c(F)cc(S(=O)(=O)[O-])cc4F)c4ccc([nH]4)c(-c4c(F)cc(S(=O)(=O)[O-])cc4F)c4nc(c(-c5c(F)cc(S(=O)(=O)[O-])cc5F)c5ccc2[nH]5)C=C4)C=C3)cc1
REMARK SMILES IDX 22 1 21 2 20 3 18 4 19 5 17 6 16 7 11 8 12 9 13 10 15 11
REMARK SMILES IDX 14 12 10 13 9 15 3 16 4 17 5 18 7 19 6 20 8 21 2 22 1 23
REMARK SMILES IDX 23 24 24 25 25 26 26 27 27 28 28 29 29 30 30 31 94 32 31 33
REMARK SMILES IDX 93 34 32 35 33 36 34 37 87 38 35 39 92 40 86 41 88 42 36 43
REMARK SMILES IDX 91 44 85 45 84 46 37 48 71 49 50 50 70 51 51 52 54 53 69 54
REMARK SMILES IDX 89 55 52 56 53 57 68 59 90 60 55 61 38 62 39 63 48 64 40 65
REMARK SMILES IDX 41 66 47 67 49 68 42 69 43 70 44 71 45 72 46 73 72 74 73 75
REMARK SMILES IDX 82 76 74 77 75 78 81 79 83 80 76 81 77 82 78 83 79 84 80 85
REMARK SMILES IDX 56 86 57 87 66 88 58 89 59 90 65 91 67 92 60 93 61 94 62 95
REMARK SMILES IDX 63 96 64 97
REMARK H PARENT 10 14 88 47 54 58
REMARK Flexibility Score: inf
ROOT
ATOM      1  C   UNL     1      -0.218   4.394  -2.210  1.00  0.00     0.202 C 
ENDROOT
BRANCH   1   2
ATOM      2  C   UNL     1       0.178   5.945  -0.722  1.00  0.00     0.261 C 
BRANCH   2   3
ATOM      3  O   UNL     1       0.181   5.356   1.109  1.00  0.00    -0.463 OA
BRANCH   3   4
ATOM      4  C   UNL     1      -0.626   4.412   1.931  1.00  0.00     0.310 C 
ATOM      5  O   UNL     1      -1.865   4.445   1.994  1.00  0.00    -0.252 OA
BRANCH   4   6
ATOM      6  C   UNL     1      -0.103   3.151   2.690  1.00  0.00     0.160 C 
BRANCH   6   7
ATOM      7  C   UNL     1       1.316   2.506   2.762  1.00  0.00    -0.013 A 
ATOM      8  C   UNL     1       1.950   1.201   2.242  1.00  0.00     0.042 A 
ATOM      9  C   UNL     1       3.160   0.845   2.896  1.00  0.00     0.026 A 
ATOM     10  C   UNL     1       3.769   1.689   3.862  1.00  0.00     0.002 A 
ATOM     11  C   UNL     1       1.999   3.283   3.751  1.00  0.00     0.006 A 
ATOM     12  C   UNL     1       3.209   2.893   4.276  1.00  0.00     0.000 A 
BRANCH   8  13
ATOM     13  N   UNL     1       1.876   0.378   0.761  1.00  0.00    -0.355 N 
ATOM     14  H   UNL     1       1.658  -0.571   0.904  1.00  0.00     0.167 HD
BRANCH  13  15
ATOM     15  C   UNL     1       2.081   0.730  -1.019  1.00  0.00     0.045 A 
ATOM     16  C   UNL     1       1.440  -0.171  -1.872  1.00  0.00    -0.024 A 
ATOM     17  C   UNL     1       1.392   0.264  -3.225  1.00  0.00     0.006 A 
ATOM     18  C   UNL     1       1.863   1.504  -3.736  1.00  0.00     0.001 A 
ATOM     19  C   UNL     1       2.325   2.434  -1.532  1.00  0.00    -0.027 A 
ATOM     20  C   UNL     1       2.310   2.570  -2.948  1.00  0.00     0.005 A 
ATOM     21  C   UNL     1       2.642   3.899  -0.084  1.00  0.00     0.046 C 
BRANCH  16  22
ATOM     22  C   UNL     1       0.374  -1.178  -1.513  1.00  0.00     0.034 C 
ATOM     23  C   UNL     1       0.414  -1.903  -0.187  1.00  0.00     0.009 C 
ENDBRANCH  16  22
ENDBRANCH  13  15
ENDBRANCH   8  13
ENDBRANCH   6   7
ENDBRANCH   4   6
ENDBRANCH   3   4
ENDBRANCH   2   3
ENDBRANCH   1   2
BRANCH   1  24
ATOM     24  O   UNL     1       0.017   2.626  -1.580  1.00  0.00    -0.374 OA
BRANCH  24  25
ATOM     25  C   UNL     1       1.008   2.177  -0.049  1.00  0.00     0.202 C 
BRANCH  25  26
ATOM     26  C   UNL     1       3.137   2.105   0.197  1.00  0.00     0.261 C 
BRANCH  26  27
ATOM     27  O   UNL     1       4.132   3.156  -1.082  1.00  0.00    -0.460 OA
BRANCH  27  28
ATOM     28  C   UNL     1       3.515   4.515  -1.943  1.00  0.00     0.338 C 
ATOM     29  O   UNL     1       4.170   5.028  -2.846  1.00  0.00    -0.246 OA
BRANCH  28  30
ATOM     30  C   UNL     1       1.742   4.991  -1.833  1.00  0.00     0.060 A 
ATOM     31  C   UNL     1       0.966   6.207  -2.790  1.00  0.00     0.016 A 
ATOM     32  C   UNL     1       0.589   4.211  -0.602  1.00  0.00     0.016 A 
ATOM     33  C   UNL     1      -0.744   6.582  -2.599  1.00  0.00     0.010 A 
ATOM     34  C   UNL     1      -1.216   4.483  -0.528  1.00  0.00     0.010 A 
ATOM     35  C   UNL     1      -1.768   5.802  -1.413  1.00  0.00    -0.014 A 
BRANCH  35  36
ATOM     36  C   UNL     1      -2.781   6.386  -0.478  1.00  0.00     0.031 A 
ATOM     37  C   UNL     1      -4.001   6.030  -1.219  1.00  0.00     0.074 A 
ATOM     38  C   UNL     1      -2.369   6.766   0.808  1.00  0.00     0.049 A 
ATOM     39  N   UNL     1      -4.793   6.883  -1.813  1.00  0.00    -0.248 NA
ATOM     40  C   UNL     1      -4.172   4.644  -1.789  1.00  0.00     0.031 C 
ATOM     41  C   UNL     1      -2.843   6.824   2.215  1.00  0.00     0.029 A 
ATOM     42  N   UNL     1      -1.083   7.189   1.113  1.00  0.00    -0.354 N 
ATOM     43  C   UNL     1      -5.856   6.057  -2.112  1.00  0.00     0.074 A 
ATOM     44  C   UNL     1      -5.188   4.885  -2.615  1.00  0.00     0.031 C 
ATOM     45  C   UNL     1      -1.938   7.409   3.062  1.00  0.00     0.029 A 
ATOM     46  C   UNL     1      -0.702   7.667   2.349  1.00  0.00     0.049 A 
ATOM     47  H   UNL     1      -0.402   7.145   0.404  1.00  0.00     0.167 HD
ATOM     48  C   UNL     1      -6.839   5.925  -1.149  1.00  0.00     0.037 A 
ATOM     49  C   UNL     1       0.172   8.700   2.176  1.00  0.00     0.037 A 
ATOM     50  C   UNL     1      -6.460   6.677   0.103  1.00  0.00     0.049 A 
ATOM     51  C   UNL     1      -0.927   9.725   1.716  1.00  0.00     0.074 A 
ATOM     52  C   UNL     1      -6.237   6.312   1.419  1.00  0.00     0.029 A 
ATOM     53  N   UNL     1      -5.875   7.964   0.006  1.00  0.00    -0.354 N 
ATOM     54  N   UNL     1      -1.931   9.478   0.876  1.00  0.00    -0.248 NA
ATOM     55  C   UNL     1      -1.281  10.757   2.694  1.00  0.00     0.031 C 
ATOM     56  C   UNL     1      -5.589   7.417   2.081  1.00  0.00     0.029 A 
ATOM     57  C   UNL     1      -5.133   8.342   1.131  1.00  0.00     0.049 A 
ATOM     58  H   UNL     1      -5.981   8.541  -0.784  1.00  0.00     0.167 HD
ATOM     59  C   UNL     1      -3.109   9.952   1.456  1.00  0.00     0.074 A 
ATOM     60  C   UNL     1      -2.611  10.830   2.527  1.00  0.00     0.031 C 
ATOM     61  C   UNL     1      -4.446   9.676   1.187  1.00  0.00     0.037 A 
BRANCH  48  62
ATOM     62  C   UNL     1      -7.897   4.805  -1.254  1.00  0.00     0.058 A 
ATOM     63  C   UNL     1      -8.867   4.654  -0.247  1.00  0.00     0.135 A 
ATOM     64  C   UNL     1      -8.074   3.907  -2.351  1.00  0.00     0.135 A 
ATOM     65  F   UNL     1      -8.860   5.440   0.837  1.00  0.00    -0.206 F 
ATOM     66  C   UNL     1      -9.921   3.730  -0.329  1.00  0.00     0.059 A 
ATOM     67  C   UNL     1      -9.085   2.944  -2.430  1.00  0.00     0.059 A 
ATOM     68  F   UNL     1      -7.318   3.947  -3.453  1.00  0.00    -0.206 F 
ATOM     69  C   UNL     1     -10.033   2.889  -1.430  1.00  0.00     0.060 A 
BRANCH  69  70
ATOM     70  S   UNL     1     -11.482   1.829  -1.602  1.00  0.00     0.124 S 
ATOM     71  O   UNL     1     -11.390   0.989  -0.413  1.00  0.00    -0.237 OA
ATOM     72  O   UNL     1     -12.567   2.804  -1.613  1.00  0.00    -0.237 OA
ATOM     73  O   UNL     1     -11.257   1.139  -2.870  1.00  0.00    -0.744 OA
ENDBRANCH  69  70
ENDBRANCH  48  62
BRANCH  49  74
ATOM     74  C   UNL     1       1.618   8.242   1.605  1.00  0.00     0.058 A 
ATOM     75  C   UNL     1       2.415   7.337   2.390  1.00  0.00     0.135 A 
ATOM     76  C   UNL     1       2.239   8.496   0.354  1.00  0.00     0.135 A 
ATOM     77  F   UNL     1       1.976   6.953   3.601  1.00  0.00    -0.206 F 
ATOM     78  C   UNL     1       3.664   6.757   1.995  1.00  0.00     0.059 A 
ATOM     79  C   UNL     1       3.501   7.903  -0.081  1.00  0.00     0.059 A 
ATOM     80  F   UNL     1       1.609   9.266  -0.545  1.00  0.00    -0.206 F 
ATOM     81  C   UNL     1       4.230   7.060   0.764  1.00  0.00     0.060 A 
BRANCH  81  82
ATOM     82  S   UNL     1       5.857   6.274   0.316  1.00  0.00     0.124 S 
ATOM     83  O   UNL     1       6.822   7.226   0.853  1.00  0.00    -0.237 OA
ATOM     84  O   UNL     1       5.804   4.994   1.019  1.00  0.00    -0.237 OA
ATOM     85  O   UNL     1       5.819   6.201  -1.134  1.00  0.00    -0.744 OA
ENDBRANCH  81  82
ENDBRANCH  49  74
BRANCH  61  86
ATOM     86  C   UNL     1      -5.324  10.886   1.008  1.00  0.00     0.058 A 
ATOM     87  C   UNL     1      -4.791  12.170   0.793  1.00  0.00     0.135 A 
ATOM     88  C   UNL     1      -6.728  10.770   0.895  1.00  0.00     0.135 A 
ATOM     89  F   UNL     1      -3.473  12.403   0.707  1.00  0.00    -0.206 F 
ATOM     90  C   UNL     1      -5.597  13.277   0.643  1.00  0.00     0.059 A 
ATOM     91  C   UNL     1      -7.540  11.847   0.609  1.00  0.00     0.059 A 
ATOM     92  F   UNL     1      -7.384   9.612   1.051  1.00  0.00    -0.206 F 
ATOM     93  C   UNL     1      -6.968  13.103   0.550  1.00  0.00     0.060 A 
BRANCH  93  94
ATOM     94  S   UNL     1      -7.995  14.547   0.353  1.00  0.00     0.124 S 
ATOM     95  O   UNL     1      -8.005  15.068   1.717  1.00  0.00    -0.237 OA
ATOM     96  O   UNL     1      -7.241  15.330  -0.621  1.00  0.00    -0.237 OA
ATOM     97  O   UNL     1      -9.258  14.000  -0.127  1.00  0.00    -0.744 OA
ENDBRANCH  93  94
ENDBRANCH  61  86
ENDBRANCH  35  36
ENDBRANCH  28  30
ENDBRANCH  27  28
ENDBRANCH  26  27
ENDBRANCH  25  26
ENDBRANCH  24  25
ENDBRANCH   1  24
TORSDOF 21
