REMARK SMILES O=C(OCCOCCOC(=O)c1cc(-c2cccc(OC(F)(F)F)c2)cnc1Cl)c1ccc(-c2c3nc(c(-c4c(F)cc(S(=O)(=O)[O-])cc4F)c4ccc([nH]4)c(-c4c(F)cc(S(=O)(=O)[O-])cc4F)c4nc(c(-c5c(F)cc(S(=O)(=O)[O-])cc5F)c5ccc2[nH]5)C=C4)C=C3)cc1
REMARK SMILES IDX 6 1 5 2 4 3 3 4 2 5 1 6 30 7 31 8 95 9 32 10 94 11 33 12
REMARK SMILES IDX 34 13 35 14 88 15 36 16 93 17 87 18 89 19 37 20 92 21 86 22
REMARK SMILES IDX 85 23 38 25 72 26 51 27 71 28 52 29 55 30 70 31 90 32 53 33
REMARK SMILES IDX 54 34 69 36 91 37 56 38 39 39 40 40 49 41 41 42 42 43 48 44
REMARK SMILES IDX 50 45 43 46 44 47 45 48 46 49 47 50 73 51 74 52 83 53 75 54
REMARK SMILES IDX 76 55 82 56 84 57 77 58 78 59 79 60 80 61 81 62 57 63 58 64
REMARK SMILES IDX 67 65 59 66 60 67 66 68 68 69 61 70 62 71 63 72 64 73 65 74
REMARK SMILES IDX 7 75 8 76 9 77 10 78 11 79 12 80 13 81 28 82 14 83 27 84
REMARK SMILES IDX 29 85 26 86 15 87 16 88 25 89 17 90 19 91 18 92 20 93 21 94
REMARK SMILES IDX 22 95 23 96 24 97
REMARK H PARENT 89 24 55 35
REMARK Flexibility Score: inf
ROOT
ATOM      1  O   UNL     1       4.163   1.532  -0.618  1.00  0.00    -0.374 OA
ENDROOT
BRANCH   1   2
ATOM      2  C   UNL     1       4.349   0.515  -1.602  1.00  0.00     0.202 C 
BRANCH   2   3
ATOM      3  C   UNL     1       4.011  -0.902  -1.131  1.00  0.00     0.261 C 
BRANCH   3   4
ATOM      4  O   UNL     1       2.624  -0.983  -0.759  1.00  0.00    -0.460 OA
BRANCH   4   5
ATOM      5  C   UNL     1       2.090  -1.087   0.481  1.00  0.00     0.338 C 
ATOM      6  O   UNL     1       0.875  -1.248   0.583  1.00  0.00    -0.246 OA
BRANCH   5   7
ATOM      7  C   UNL     1       2.897  -1.012   1.736  1.00  0.00     0.060 A 
ATOM      8  C   UNL     1       4.094  -0.308   1.868  1.00  0.00     0.016 A 
ATOM      9  C   UNL     1       2.358  -1.615   2.885  1.00  0.00     0.016 A 
ATOM     10  C   UNL     1       4.777  -0.254   3.072  1.00  0.00     0.010 A 
ATOM     11  C   UNL     1       3.015  -1.527   4.117  1.00  0.00     0.010 A 
ATOM     12  C   UNL     1       4.238  -0.855   4.205  1.00  0.00    -0.014 A 
BRANCH  12  13
ATOM     13  C   UNL     1       5.033  -0.815   5.443  1.00  0.00     0.031 A 
ATOM     14  C   UNL     1       5.782  -2.046   5.849  1.00  0.00     0.074 A 
ATOM     15  C   UNL     1       5.182   0.356   6.090  1.00  0.00     0.049 A 
ATOM     16  N   UNL     1       6.536  -2.245   6.894  1.00  0.00    -0.248 NA
ATOM     17  C   UNL     1       5.680  -3.205   4.946  1.00  0.00     0.031 C 
ATOM     18  C   UNL     1       4.577   1.627   5.678  1.00  0.00     0.029 A 
ATOM     19  N   UNL     1       5.911   0.680   7.201  1.00  0.00    -0.354 N 
ATOM     20  C   UNL     1       6.984  -3.555   6.787  1.00  0.00     0.074 A 
ATOM     21  C   UNL     1       6.414  -4.108   5.579  1.00  0.00     0.031 C 
ATOM     22  C   UNL     1       4.981   2.597   6.513  1.00  0.00     0.029 A 
ATOM     23  C   UNL     1       5.815   2.006   7.553  1.00  0.00     0.049 A 
ATOM     24  H   UNL     1       6.452   0.027   7.701  1.00  0.00     0.167 HD
ATOM     25  C   UNL     1       7.795  -4.229   7.634  1.00  0.00     0.037 A 
ATOM     26  C   UNL     1       6.322   2.654   8.619  1.00  0.00     0.037 A 
ATOM     27  C   UNL     1       8.334  -3.646   8.833  1.00  0.00     0.049 A 
ATOM     28  C   UNL     1       7.143   1.856   9.596  1.00  0.00     0.074 A 
ATOM     29  C   UNL     1       9.099  -4.241   9.818  1.00  0.00     0.029 A 
ATOM     30  N   UNL     1       8.158  -2.318   9.204  1.00  0.00    -0.354 N 
ATOM     31  N   UNL     1       7.500   0.593   9.530  1.00  0.00    -0.248 NA
ATOM     32  C   UNL     1       7.615   2.555  10.796  1.00  0.00     0.031 C 
ATOM     33  C   UNL     1       9.353  -3.281  10.804  1.00  0.00     0.029 A 
ATOM     34  C   UNL     1       8.787  -2.076  10.411  1.00  0.00     0.049 A 
ATOM     35  H   UNL     1       7.657  -1.648   8.684  1.00  0.00     0.167 HD
ATOM     36  C   UNL     1       8.247   0.347  10.675  1.00  0.00     0.074 A 
ATOM     37  C   UNL     1       8.308   1.601  11.404  1.00  0.00     0.031 C 
ATOM     38  C   UNL     1       8.826  -0.805  11.094  1.00  0.00     0.037 A 
BRANCH  25  39
ATOM     39  C   UNL     1       8.068  -5.672   7.318  1.00  0.00     0.058 A 
ATOM     40  C   UNL     1       8.907  -6.056   6.260  1.00  0.00     0.135 A 
ATOM     41  C   UNL     1       7.444  -6.688   8.060  1.00  0.00     0.135 A 
ATOM     42  F   UNL     1       9.503  -5.126   5.497  1.00  0.00    -0.206 F 
ATOM     43  C   UNL     1       9.092  -7.396   5.928  1.00  0.00     0.059 A 
ATOM     44  C   UNL     1       7.633  -8.034   7.761  1.00  0.00     0.059 A 
ATOM     45  F   UNL     1       6.621  -6.376   9.073  1.00  0.00    -0.206 F 
ATOM     46  C   UNL     1       8.444  -8.377   6.681  1.00  0.00     0.060 A 
BRANCH  46  47
ATOM     47  S   UNL     1       8.664 -10.109   6.219  1.00  0.00     0.124 S 
ATOM     48  O   UNL     1       7.858 -10.190   5.004  1.00  0.00    -0.237 OA
ATOM     49  O   UNL     1      10.108 -10.201   6.028  1.00  0.00    -0.237 OA
ATOM     50  O   UNL     1       8.139 -10.838   7.369  1.00  0.00    -0.744 OA
ENDBRANCH  46  47
ENDBRANCH  25  39
BRANCH  26  51
ATOM     51  C   UNL     1       6.024   4.096   8.840  1.00  0.00     0.058 A 
ATOM     52  C   UNL     1       7.033   5.070   8.797  1.00  0.00     0.135 A 
ATOM     53  C   UNL     1       4.714   4.532   9.100  1.00  0.00     0.135 A 
ATOM     54  F   UNL     1       8.303   4.709   8.559  1.00  0.00    -0.206 F 
ATOM     55  C   UNL     1       6.758   6.418   9.020  1.00  0.00     0.059 A 
ATOM     56  C   UNL     1       4.410   5.875   9.298  1.00  0.00     0.059 A 
ATOM     57  F   UNL     1       3.706   3.646   9.143  1.00  0.00    -0.206 F 
ATOM     58  C   UNL     1       5.442   6.810   9.270  1.00  0.00     0.060 A 
BRANCH  58  59
ATOM     59  S   UNL     1       5.087   8.562   9.532  1.00  0.00     0.124 S 
ATOM     60  O   UNL     1       5.611   8.769  10.877  1.00  0.00    -0.237 OA
ATOM     61  O   UNL     1       5.836   9.194   8.450  1.00  0.00    -0.237 OA
ATOM     62  O   UNL     1       3.635   8.633   9.402  1.00  0.00    -0.744 OA
ENDBRANCH  58  59
ENDBRANCH  26  51
BRANCH  38  63
ATOM     63  C   UNL     1       9.592  -0.748  12.382  1.00  0.00     0.058 A 
ATOM     64  C   UNL     1       8.938  -0.699  13.622  1.00  0.00     0.135 A 
ATOM     65  C   UNL     1      10.994  -0.809  12.373  1.00  0.00     0.135 A 
ATOM     66  F   UNL     1       7.599  -0.633  13.678  1.00  0.00    -0.206 F 
ATOM     67  C   UNL     1       9.652  -0.696  14.814  1.00  0.00     0.059 A 
ATOM     68  C   UNL     1      11.727  -0.832  13.553  1.00  0.00     0.059 A 
ATOM     69  F   UNL     1      11.662  -0.867  11.210  1.00  0.00    -0.206 F 
ATOM     70  C   UNL     1      11.046  -0.766  14.769  1.00  0.00     0.060 A 
BRANCH  70  71
ATOM     71  S   UNL     1      11.960  -0.811  16.324  1.00  0.00     0.124 S 
ATOM     72  O   UNL     1      11.885   0.583  16.748  1.00  0.00    -0.237 OA
ATOM     73  O   UNL     1      11.184  -1.760  17.117  1.00  0.00    -0.237 OA
ATOM     74  O   UNL     1      13.285  -1.276  15.924  1.00  0.00    -0.744 OA
ENDBRANCH  70  71
ENDBRANCH  38  63
ENDBRANCH  12  13
ENDBRANCH   5   7
ENDBRANCH   4   5
ENDBRANCH   3   4
ENDBRANCH   2   3
ENDBRANCH   1   2
BRANCH   1  75
ATOM     75  C   UNL     1       2.830   2.050  -0.501  1.00  0.00     0.202 C 
BRANCH  75  76
ATOM     76  C   UNL     1       2.872   3.570  -0.643  1.00  0.00     0.261 C 
BRANCH  76  77
ATOM     77  O   UNL     1       3.340   3.867  -1.969  1.00  0.00    -0.460 OA
BRANCH  77  78
ATOM     78  C   UNL     1       4.673   4.067  -2.095  1.00  0.00     0.341 C 
ATOM     79  O   UNL     1       5.486   4.292  -1.215  1.00  0.00    -0.246 OA
BRANCH  78  80
ATOM     80  C   UNL     1       5.049   3.697  -3.463  1.00  0.00     0.098 A 
ATOM     81  C   UNL     1       6.088   2.768  -3.638  1.00  0.00     0.029 A 
ATOM     82  C   UNL     1       4.379   4.160  -4.583  1.00  0.00     0.143 A 
ATOM     83  C   UNL     1       6.383   2.288  -4.917  1.00  0.00     0.001 A 
ATOM     84  N   UNL     1       4.647   3.731  -5.838  1.00  0.00    -0.243 NA
ATOM     85  Cl  UNL     1       3.168   5.382  -4.556  1.00  0.00    -0.061 Cl
ATOM     86  C   UNL     1       5.625   2.804  -5.969  1.00  0.00     0.121 A 
BRANCH  83  87
ATOM     87  C   UNL     1       7.444   1.314  -5.180  1.00  0.00    -0.013 A 
ATOM     88  C   UNL     1       8.700   1.761  -5.617  1.00  0.00     0.009 A 
ATOM     89  C   UNL     1       7.209  -0.073  -5.090  1.00  0.00     0.055 A 
ATOM     90  C   UNL     1       9.688   0.853  -5.987  1.00  0.00     0.004 A 
ATOM     91  C   UNL     1       8.198  -0.989  -5.468  1.00  0.00     0.130 A 
ATOM     92  C   UNL     1       9.432  -0.514  -5.920  1.00  0.00     0.047 A 
BRANCH  91  93
ATOM     93  O   UNL     1       8.098  -2.351  -5.471  1.00  0.00    -0.406 OA
BRANCH  93  94
ATOM     94  C   UNL     1       6.881  -2.939  -5.050  1.00  0.00     0.573 C 
ATOM     95  F   UNL     1       6.617  -2.639  -3.761  1.00  0.00    -0.132 F 
ATOM     96  F   UNL     1       5.852  -2.529  -5.824  1.00  0.00    -0.132 F 
ATOM     97  F   UNL     1       6.983  -4.280  -5.166  1.00  0.00    -0.132 F 
ENDBRANCH  93  94
ENDBRANCH  91  93
ENDBRANCH  83  87
ENDBRANCH  78  80
ENDBRANCH  77  78
ENDBRANCH  76  77
ENDBRANCH  75  76
ENDBRANCH   1  75
TORSDOF 20
