REMARK SMILES Cc1cc(C)c2c(CCCC(=O)OCCOCCOC(=O)c3ccc(-c4c5nc(c(-c6c(F)cc(S(=O)(=O)[O-])cc6F)c6ccc([nH]6)c(-c6c(F)cc(S(=O)(=O)[O-])cc6F)c6nc(c(-c7c(F)cc(S(=O)(=O)[O-])cc7F)c7ccc4[nH]7)C=C6)C=C5)cc3)c(-c3ccccn3)[nH]c2c1
REMARK SMILES IDX 15 1 14 2 13 3 11 4 12 5 10 6 9 7 8 8 7 9 1 10 2 11 3 12
REMARK SMILES IDX 97 13 4 14 96 15 5 16 6 17 95 18 88 19 89 21 90 22 94 23
REMARK SMILES IDX 91 24 93 25 92 26 16 27 17 28 18 29 19 30 20 31 21 32 22 33
REMARK SMILES IDX 23 34 87 35 24 36 86 37 25 38 26 39 27 40 80 41 28 42 85 43
REMARK SMILES IDX 79 44 81 45 29 46 84 47 78 48 77 49 30 51 64 52 43 53 63 54
REMARK SMILES IDX 44 55 47 56 62 57 82 58 45 59 46 60 61 62 83 63 48 64 31 65
REMARK SMILES IDX 32 66 41 67 33 68 34 69 40 70 42 71 35 72 36 73 37 74 38 75
REMARK SMILES IDX 39 76 65 77 66 78 75 79 67 80 68 81 74 82 76 83 69 84 70 85
REMARK SMILES IDX 71 86 72 87 73 88 49 89 50 90 59 91 51 92 52 93 58 94 60 95
REMARK SMILES IDX 53 96 54 97 55 98 56 99 57 100
REMARK H PARENT 95 20 81 50 47 61
REMARK Flexibility Score: inf
ROOT
ATOM      1  C   UNL     1      -3.809   5.081   8.809  1.00  0.00     0.202 C 
ENDROOT
BRANCH   1   2
ATOM      2  C   UNL     1      -2.787   5.534   7.776  1.00  0.00     0.261 C 
BRANCH   2   3
ATOM      3  O   UNL     1      -1.764   4.548   7.584  1.00  0.00    -0.463 OA
BRANCH   3   4
ATOM      4  C   UNL     1      -0.529   4.810   8.074  1.00  0.00     0.305 C 
ATOM      5  O   UNL     1      -0.230   5.827   8.694  1.00  0.00    -0.252 OA
BRANCH   4   6
ATOM      6  C   UNL     1       0.444   3.665   7.869  1.00  0.00     0.123 C 
BRANCH   6   7
ATOM      7  C   UNL     1      -0.081   2.322   7.367  1.00  0.00     0.017 C 
BRANCH   7   8
ATOM      8  C   UNL     1      -0.969   2.274   6.121  1.00  0.00     0.039 C 
BRANCH   8   9
ATOM      9  C   UNL     1      -0.347   2.631   4.801  1.00  0.00    -0.013 A 
ATOM     10  C   UNL     1       0.936  -0.096  -0.093  1.00  0.00     0.044 C 
ATOM     11  C   UNL     1       0.553   0.529   1.215  1.00  0.00    -0.049 A 
ATOM     12  C   UNL     1       0.057  -0.254   2.258  1.00  0.00     0.007 A 
ATOM     13  C   UNL     1       0.739   1.897   1.409  1.00  0.00     0.030 A 
ATOM     14  C   UNL     1      -0.287   0.290   3.518  1.00  0.00    -0.041 A 
ATOM     15  C   UNL     1       0.403   2.440   2.652  1.00  0.00     0.047 A 
ATOM     16  C   UNL     1      -0.829  -0.670   4.548  1.00  0.00     0.045 C 
ATOM     17  C   UNL     1      -0.105   1.693   3.715  1.00  0.00     0.006 A 
ATOM     18  N   UNL     1       0.496   3.740   3.066  1.00  0.00    -0.353 N 
ATOM     19  C   UNL     1      -0.000   3.902   4.331  1.00  0.00     0.068 A 
ATOM     20  H   UNL     1       0.874   4.469   2.522  1.00  0.00     0.167 HD
BRANCH  19  21
ATOM     21  C   UNL     1      -0.055   5.247   4.888  1.00  0.00     0.087 A 
ATOM     22  C   UNL     1      -1.166   6.067   4.749  1.00  0.00     0.030 A 
ATOM     23  N   UNL     1       1.074   5.638   5.518  1.00  0.00    -0.255 NA
ATOM     24  C   UNL     1      -1.150   7.315   5.374  1.00  0.00     0.004 A 
ATOM     25  C   UNL     1       1.047   6.836   6.146  1.00  0.00     0.112 A 
ATOM     26  C   UNL     1      -0.037   7.695   6.116  1.00  0.00     0.020 A 
ENDBRANCH  19  21
ENDBRANCH   8   9
ENDBRANCH   7   8
ENDBRANCH   6   7
ENDBRANCH   4   6
ENDBRANCH   3   4
ENDBRANCH   2   3
ENDBRANCH   1   2
BRANCH   1  27
ATOM     27  O   UNL     1      -3.363   4.966  10.158  1.00  0.00    -0.374 OA
BRANCH  27  28
ATOM     28  C   UNL     1      -2.432   3.949  10.511  1.00  0.00     0.202 C 
BRANCH  28  29
ATOM     29  C   UNL     1      -2.904   2.505  10.539  1.00  0.00     0.261 C 
BRANCH  29  30
ATOM     30  O   UNL     1      -3.343   2.043   9.269  1.00  0.00    -0.460 OA
BRANCH  30  31
ATOM     31  C   UNL     1      -4.694   2.025   9.157  1.00  0.00     0.338 C 
ATOM     32  O   UNL     1      -5.489   2.647   9.832  1.00  0.00    -0.246 OA
BRANCH  31  33
ATOM     33  C   UNL     1      -5.077   0.975   8.208  1.00  0.00     0.060 A 
ATOM     34  C   UNL     1      -6.436   0.674   8.184  1.00  0.00     0.016 A 
ATOM     35  C   UNL     1      -4.115   0.131   7.630  1.00  0.00     0.016 A 
ATOM     36  C   UNL     1      -6.804  -0.593   7.805  1.00  0.00     0.010 A 
ATOM     37  C   UNL     1      -4.491  -1.133   7.230  1.00  0.00     0.010 A 
ATOM     38  C   UNL     1      -5.815  -1.510   7.414  1.00  0.00    -0.014 A 
BRANCH  38  39
ATOM     39  C   UNL     1      -6.267  -2.837   7.050  1.00  0.00     0.031 A 
ATOM     40  C   UNL     1      -7.139  -2.784   5.860  1.00  0.00     0.074 A 
ATOM     41  C   UNL     1      -5.955  -3.965   7.715  1.00  0.00     0.049 A 
ATOM     42  N   UNL     1      -8.428  -2.813   5.863  1.00  0.00    -0.248 NA
ATOM     43  C   UNL     1      -6.548  -2.374   4.578  1.00  0.00     0.031 C 
ATOM     44  C   UNL     1      -4.961  -4.167   8.770  1.00  0.00     0.029 A 
ATOM     45  N   UNL     1      -6.460  -5.217   7.534  1.00  0.00    -0.354 N 
ATOM     46  C   UNL     1      -8.802  -2.697   4.533  1.00  0.00     0.074 A 
ATOM     47  C   UNL     1      -7.644  -2.205   3.836  1.00  0.00     0.031 C 
ATOM     48  C   UNL     1      -4.782  -5.496   8.970  1.00  0.00     0.029 A 
ATOM     49  C   UNL     1      -5.749  -6.230   8.171  1.00  0.00     0.049 A 
ATOM     50  H   UNL     1      -7.265  -5.391   6.995  1.00  0.00     0.167 HD
ATOM     51  C   UNL     1      -9.935  -3.310   4.098  1.00  0.00     0.037 A 
ATOM     52  C   UNL     1      -5.940  -7.569   8.021  1.00  0.00     0.037 A 
ATOM     53  C   UNL     1     -10.801  -3.624   5.213  1.00  0.00     0.049 A 
ATOM     54  C   UNL     1      -7.341  -7.747   7.552  1.00  0.00     0.074 A 
ATOM     55  C   UNL     1     -11.455  -2.891   6.184  1.00  0.00     0.029 A 
ATOM     56  N   UNL     1     -10.774  -4.920   5.671  1.00  0.00    -0.354 N 
ATOM     57  N   UNL     1      -8.386  -7.466   8.283  1.00  0.00    -0.248 NA
ATOM     58  C   UNL     1      -7.575  -7.776   6.117  1.00  0.00     0.031 C 
ATOM     59  C   UNL     1     -11.400  -3.693   7.362  1.00  0.00     0.029 A 
ATOM     60  C   UNL     1     -10.783  -4.903   7.039  1.00  0.00     0.049 A 
ATOM     61  H   UNL     1     -10.751  -5.727   5.107  1.00  0.00     0.167 HD
ATOM     62  C   UNL     1      -9.274  -6.854   7.411  1.00  0.00     0.074 A 
ATOM     63  C   UNL     1      -8.753  -7.149   6.076  1.00  0.00     0.031 C 
ATOM     64  C   UNL     1     -10.178  -5.932   7.859  1.00  0.00     0.037 A 
BRANCH  51  65
ATOM     65  C   UNL     1     -10.027  -4.045   2.778  1.00  0.00     0.058 A 
ATOM     66  C   UNL     1     -11.248  -4.667   2.444  1.00  0.00     0.135 A 
ATOM     67  C   UNL     1      -8.916  -4.436   1.996  1.00  0.00     0.135 A 
ATOM     68  F   UNL     1     -12.376  -4.363   3.107  1.00  0.00    -0.206 F 
ATOM     69  C   UNL     1     -11.334  -5.680   1.491  1.00  0.00     0.059 A 
ATOM     70  C   UNL     1      -8.990  -5.409   1.008  1.00  0.00     0.059 A 
ATOM     71  F   UNL     1      -7.680  -3.968   2.197  1.00  0.00    -0.206 F 
ATOM     72  C   UNL     1     -10.192  -6.057   0.793  1.00  0.00     0.060 A 
BRANCH  72  73
ATOM     73  S   UNL     1     -10.277  -7.429  -0.365  1.00  0.00     0.124 S 
ATOM     74  O   UNL     1     -10.544  -8.548   0.531  1.00  0.00    -0.237 OA
ATOM     75  O   UNL     1     -11.380  -7.019  -1.228  1.00  0.00    -0.237 OA
ATOM     76  O   UNL     1      -8.959  -7.420  -0.993  1.00  0.00    -0.744 OA
ENDBRANCH  72  73
ENDBRANCH  51  65
BRANCH  52  77
ATOM     77  C   UNL     1      -4.902  -8.629   7.840  1.00  0.00     0.058 A 
ATOM     78  C   UNL     1      -5.252  -9.994   7.784  1.00  0.00     0.135 A 
ATOM     79  C   UNL     1      -3.594  -8.315   7.422  1.00  0.00     0.135 A 
ATOM     80  F   UNL     1      -6.482 -10.391   8.144  1.00  0.00    -0.206 F 
ATOM     81  C   UNL     1      -4.380 -10.976   7.290  1.00  0.00     0.059 A 
ATOM     82  C   UNL     1      -2.707  -9.276   6.933  1.00  0.00     0.059 A 
ATOM     83  F   UNL     1      -3.164  -7.046   7.391  1.00  0.00    -0.206 F 
ATOM     84  C   UNL     1      -3.114 -10.601   6.844  1.00  0.00     0.060 A 
BRANCH  84  85
ATOM     85  S   UNL     1      -2.041 -11.828   6.055  1.00  0.00     0.124 S 
ATOM     86  O   UNL     1      -1.739 -12.726   7.165  1.00  0.00    -0.237 OA
ATOM     87  O   UNL     1      -2.906 -12.371   5.013  1.00  0.00    -0.237 OA
ATOM     88  O   UNL     1      -0.913 -11.034   5.573  1.00  0.00    -0.744 OA
ENDBRANCH  84  85
ENDBRANCH  52  77
BRANCH  64  89
ATOM     89  C   UNL     1     -10.443  -5.849   9.341  1.00  0.00     0.058 A 
ATOM     90  C   UNL     1      -9.508  -5.443  10.311  1.00  0.00     0.135 A 
ATOM     91  C   UNL     1     -11.767  -6.041   9.769  1.00  0.00     0.135 A 
ATOM     92  F   UNL     1      -8.244  -5.153   9.972  1.00  0.00    -0.206 F 
ATOM     93  C   UNL     1      -9.873  -5.261  11.649  1.00  0.00     0.059 A 
ATOM     94  C   UNL     1     -12.158  -5.835  11.087  1.00  0.00     0.059 A 
ATOM     95  F   UNL     1     -12.716  -6.379   8.881  1.00  0.00    -0.206 F 
ATOM     96  C   UNL     1     -11.204  -5.453  12.026  1.00  0.00     0.060 A 
BRANCH  96  97
ATOM     97  S   UNL     1     -11.695  -5.145  13.737  1.00  0.00     0.124 S 
ATOM     98  O   UNL     1     -11.006  -6.213  14.453  1.00  0.00    -0.237 OA
ATOM     99  O   UNL     1     -11.192  -3.795  13.972  1.00  0.00    -0.237 OA
ATOM    100  O   UNL     1     -13.152  -5.260  13.701  1.00  0.00    -0.744 OA
ENDBRANCH  96  97
ENDBRANCH  64  89
ENDBRANCH  38  39
ENDBRANCH  31  33
ENDBRANCH  30  31
ENDBRANCH  29  30
ENDBRANCH  28  29
ENDBRANCH  27  28
ENDBRANCH   1  27
TORSDOF 21
