REMARK SMILES O=C(OCCOCCOC(=O)c1cc(Br)ccc1OCc1ccccc1F)c1ccc(-c2c3nc(c(-c4c(F)cc(S(=O)(=O)[O-])cc4F)c4ccc([nH]4)c(-c4c(F)cc(S(=O)(=O)[O-])cc4F)c4nc(c(-c5c(F)cc(S(=O)(=O)[O-])cc5F)c5ccc2[nH]5)C=C4)C=C3)cc1
REMARK SMILES IDX 6 1 5 2 4 3 3 4 2 5 1 6 28 7 29 8 93 9 30 10 92 11 31 12
REMARK SMILES IDX 32 13 33 14 86 15 34 16 91 17 85 18 87 19 35 20 90 21 84 22
REMARK SMILES IDX 83 23 36 25 70 26 49 27 69 28 50 29 53 30 68 31 88 32 51 33
REMARK SMILES IDX 52 34 67 36 89 37 54 38 37 39 38 40 47 41 39 42 40 43 46 44
REMARK SMILES IDX 48 45 41 46 42 47 43 48 44 49 45 50 71 51 72 52 81 53 73 54
REMARK SMILES IDX 74 55 80 56 82 57 75 58 76 59 77 60 78 61 79 62 55 63 56 64
REMARK SMILES IDX 65 65 57 66 58 67 64 68 66 69 59 70 60 71 61 72 62 73 63 74
REMARK SMILES IDX 7 75 8 76 9 77 10 78 11 79 12 80 13 81 18 82 14 83 17 84
REMARK SMILES IDX 15 85 16 86 19 87 20 88 21 89 22 90 26 91 23 92 25 93 27 94
REMARK SMILES IDX 24 95
REMARK H PARENT 87 24 53 35
REMARK Flexibility Score: inf
ROOT
ATOM      1  O   UNL     1       3.096  -1.419  -0.566  1.00  0.00    -0.374 OA
ENDROOT
BRANCH   1   2
ATOM      2  C   UNL     1       3.597  -1.244   0.759  1.00  0.00     0.202 C 
BRANCH   2   3
ATOM      3  C   UNL     1       3.250   0.110   1.382  1.00  0.00     0.261 C 
BRANCH   3   4
ATOM      4  O   UNL     1       1.872   0.435   1.169  1.00  0.00    -0.460 OA
BRANCH   4   5
ATOM      5  C   UNL     1       1.383   1.227   0.183  1.00  0.00     0.338 C 
ATOM      6  O   UNL     1       0.166   1.382   0.098  1.00  0.00    -0.246 OA
BRANCH   5   7
ATOM      7  C   UNL     1       2.256   1.985  -0.763  1.00  0.00     0.060 A 
ATOM      8  C   UNL     1       3.420   1.485  -1.357  1.00  0.00     0.016 A 
ATOM      9  C   UNL     1       1.807   3.255  -1.150  1.00  0.00     0.016 A 
ATOM     10  C   UNL     1       4.150   2.235  -2.271  1.00  0.00     0.010 A 
ATOM     11  C   UNL     1       2.513   4.000  -2.097  1.00  0.00     0.010 A 
ATOM     12  C   UNL     1       3.690   3.488  -2.657  1.00  0.00    -0.014 A 
BRANCH  12  13
ATOM     13  C   UNL     1       4.471   4.286  -3.615  1.00  0.00     0.031 A 
ATOM     14  C   UNL     1       5.252   5.449  -3.102  1.00  0.00     0.074 A 
ATOM     15  C   UNL     1       4.486   3.943  -4.915  1.00  0.00     0.049 A 
ATOM     16  N   UNL     1       5.813   6.421  -3.763  1.00  0.00    -0.248 NA
ATOM     17  C   UNL     1       5.421   5.526  -1.641  1.00  0.00     0.031 C 
ATOM     18  C   UNL     1       3.860   2.746  -5.479  1.00  0.00     0.029 A 
ATOM     19  N   UNL     1       5.048   4.569  -5.995  1.00  0.00    -0.354 N 
ATOM     20  C   UNL     1       6.352   7.261  -2.799  1.00  0.00     0.074 A 
ATOM     21  C   UNL     1       6.079   6.669  -1.509  1.00  0.00     0.031 C 
ATOM     22  C   UNL     1       4.075   2.722  -6.803  1.00  0.00     0.029 A 
ATOM     23  C   UNL     1       4.778   3.942  -7.189  1.00  0.00     0.049 A 
ATOM     24  H   UNL     1       5.592   5.386  -5.925  1.00  0.00     0.167 HD
ATOM     25  C   UNL     1       6.988   8.439  -2.992  1.00  0.00     0.037 A 
ATOM     26  C   UNL     1       5.022   4.346  -8.450  1.00  0.00     0.037 A 
ATOM     27  C   UNL     1       7.236   8.988  -4.297  1.00  0.00     0.049 A 
ATOM     28  C   UNL     1       5.668   5.688  -8.651  1.00  0.00     0.074 A 
ATOM     29  C   UNL     1       7.808  10.199  -4.632  1.00  0.00     0.029 A 
ATOM     30  N   UNL     1       6.920   8.344  -5.488  1.00  0.00    -0.354 N 
ATOM     31  N   UNL     1       6.087   6.538  -7.741  1.00  0.00    -0.248 NA
ATOM     32  C   UNL     1       5.844   6.149 -10.033  1.00  0.00     0.031 C 
ATOM     33  C   UNL     1       7.810  10.300  -6.028  1.00  0.00     0.029 A 
ATOM     34  C   UNL     1       7.274   9.135  -6.563  1.00  0.00     0.049 A 
ATOM     35  H   UNL     1       6.506   7.453  -5.555  1.00  0.00     0.167 HD
ATOM     36  C   UNL     1       6.574   7.636  -8.436  1.00  0.00     0.074 A 
ATOM     37  C   UNL     1       6.410   7.337  -9.847  1.00  0.00     0.031 C 
ATOM     38  C   UNL     1       7.099   8.790  -7.955  1.00  0.00     0.037 A 
BRANCH  25  39
ATOM     39  C   UNL     1       7.354   9.223  -1.767  1.00  0.00     0.058 A 
ATOM     40  C   UNL     1       6.585  10.337  -1.393  1.00  0.00     0.135 A 
ATOM     41  C   UNL     1       8.414   8.847  -0.927  1.00  0.00     0.135 A 
ATOM     42  F   UNL     1       5.550  10.729  -2.150  1.00  0.00    -0.206 F 
ATOM     43  C   UNL     1       6.844  11.041  -0.222  1.00  0.00     0.059 A 
ATOM     44  C   UNL     1       8.679   9.525   0.260  1.00  0.00     0.059 A 
ATOM     45  F   UNL     1       9.157   7.768  -1.221  1.00  0.00    -0.206 F 
ATOM     46  C   UNL     1       7.888  10.622   0.605  1.00  0.00     0.060 A 
BRANCH  46  47
ATOM     47  S   UNL     1       8.135  11.468   2.182  1.00  0.00     0.124 S 
ATOM     48  O   UNL     1       8.791  12.700   1.762  1.00  0.00    -0.237 OA
ATOM     49  O   UNL     1       6.768  11.609   2.677  1.00  0.00    -0.237 OA
ATOM     50  O   UNL     1       8.967  10.534   2.936  1.00  0.00    -0.744 OA
ENDBRANCH  46  47
ENDBRANCH  25  39
BRANCH  26  51
ATOM     51  C   UNL     1       4.603   3.482  -9.585  1.00  0.00     0.058 A 
ATOM     52  C   UNL     1       3.245   3.265  -9.872  1.00  0.00     0.135 A 
ATOM     53  C   UNL     1       5.548   2.769 -10.337  1.00  0.00     0.135 A 
ATOM     54  F   UNL     1       2.299   3.919  -9.181  1.00  0.00    -0.206 F 
ATOM     55  C   UNL     1       2.837   2.333 -10.821  1.00  0.00     0.059 A 
ATOM     56  C   UNL     1       5.165   1.846 -11.308  1.00  0.00     0.059 A 
ATOM     57  F   UNL     1       6.858   2.954 -10.113  1.00  0.00    -0.206 F 
ATOM     58  C   UNL     1       3.806   1.615 -11.522  1.00  0.00     0.060 A 
BRANCH  58  59
ATOM     59  S   UNL     1       3.259   0.355 -12.697  1.00  0.00     0.124 S 
ATOM     60  O   UNL     1       2.733  -0.669 -11.801  1.00  0.00    -0.237 OA
ATOM     61  O   UNL     1       2.268   1.080 -13.485  1.00  0.00    -0.237 OA
ATOM     62  O   UNL     1       4.484   0.000 -13.406  1.00  0.00    -0.744 OA
ENDBRANCH  58  59
ENDBRANCH  26  51
BRANCH  38  63
ATOM     63  C   UNL     1       7.550   9.817  -8.949  1.00  0.00     0.058 A 
ATOM     64  C   UNL     1       8.919  10.015  -9.184  1.00  0.00     0.135 A 
ATOM     65  C   UNL     1       6.638  10.708  -9.531  1.00  0.00     0.135 A 
ATOM     66  F   UNL     1       9.826   9.186  -8.643  1.00  0.00    -0.206 F 
ATOM     67  C   UNL     1       9.372  11.097  -9.928  1.00  0.00     0.059 A 
ATOM     68  C   UNL     1       7.069  11.788 -10.293  1.00  0.00     0.059 A 
ATOM     69  F   UNL     1       5.319  10.546  -9.339  1.00  0.00    -0.206 F 
ATOM     70  C   UNL     1       8.440  11.990 -10.460  1.00  0.00     0.060 A 
BRANCH  70  71
ATOM     71  S   UNL     1       9.050  13.432 -11.357  1.00  0.00     0.124 S 
ATOM     72  O   UNL     1       9.598  14.244 -10.276  1.00  0.00    -0.237 OA
ATOM     73  O   UNL     1      10.027  12.840 -12.265  1.00  0.00    -0.237 OA
ATOM     74  O   UNL     1       7.851  13.963 -11.998  1.00  0.00    -0.744 OA
ENDBRANCH  70  71
ENDBRANCH  38  63
ENDBRANCH  12  13
ENDBRANCH   5   7
ENDBRANCH   4   5
ENDBRANCH   3   4
ENDBRANCH   2   3
ENDBRANCH   1   2
BRANCH   1  75
ATOM     75  C   UNL     1       1.797  -2.007  -0.647  1.00  0.00     0.202 C 
BRANCH  75  76
ATOM     76  C   UNL     1       1.914  -3.413  -1.227  1.00  0.00     0.261 C 
BRANCH  76  77
ATOM     77  O   UNL     1       2.753  -4.195  -0.358  1.00  0.00    -0.460 OA
BRANCH  77  78
ATOM     78  C   UNL     1       3.992  -4.456  -0.843  1.00  0.00     0.342 C 
ATOM     79  O   UNL     1       4.393  -4.321  -1.982  1.00  0.00    -0.246 OA
BRANCH  78  80
ATOM     80  C   UNL     1       4.795  -5.023   0.249  1.00  0.00     0.103 A 
ATOM     81  C   UNL     1       4.449  -6.294   0.717  1.00  0.00     0.035 A 
ATOM     82  C   UNL     1       5.878  -4.325   0.802  1.00  0.00     0.134 A 
ATOM     83  C   UNL     1       5.179  -6.854   1.759  1.00  0.00     0.019 A 
ATOM     84  C   UNL     1       6.597  -4.895   1.854  1.00  0.00     0.048 A 
ATOM     85  Br  UNL     1       4.691  -8.551   2.431  1.00  0.00    -0.051 Br
ATOM     86  C   UNL     1       6.250  -6.163   2.329  1.00  0.00     0.019 A 
BRANCH  82  87
ATOM     87  O   UNL     1       6.098  -3.024   0.457  1.00  0.00    -0.488 OA
BRANCH  87  88
ATOM     88  C   UNL     1       7.369  -2.725  -0.130  1.00  0.00     0.268 C 
BRANCH  88  89
ATOM     89  C   UNL     1       7.236  -2.731  -1.624  1.00  0.00     0.025 A 
ATOM     90  C   UNL     1       7.548  -3.881  -2.361  1.00  0.00     0.010 A 
ATOM     91  C   UNL     1       6.698  -1.627  -2.295  1.00  0.00     0.129 A 
ATOM     92  C   UNL     1       7.309  -3.922  -3.736  1.00  0.00     0.001 A 
ATOM     93  C   UNL     1       6.466  -1.660  -3.667  1.00  0.00     0.039 A 
ATOM     94  F   UNL     1       6.386  -0.515  -1.611  1.00  0.00    -0.207 F 
ATOM     95  C   UNL     1       6.765  -2.815  -4.388  1.00  0.00     0.003 A 
ENDBRANCH  88  89
ENDBRANCH  87  88
ENDBRANCH  82  87
ENDBRANCH  78  80
ENDBRANCH  77  78
ENDBRANCH  76  77
ENDBRANCH  75  76
ENDBRANCH   1  75
TORSDOF 20
