REMARK SMILES CC(C)C[C@H](CNC(=O)[C@H]1CCO[C@@H]1C)C(=O)OCCOCCOC(=O)c1ccc(-c2c3nc(c(-c4c(F)cc(S(=O)(=O)[O-])cc4F)c4ccc([nH]4)c(-c4c(F)cc(S(=O)(=O)[O-])cc4F)c4nc(c(-c5c(F)cc(S(=O)(=O)[O-])cc5F)c5ccc2[nH]5)C=C4)C=C3)cc1
REMARK SMILES IDX 21 1 20 2 19 3 18 4 16 5 17 6 5 7 4 8 2 9 1 10 3 11 6 12
REMARK SMILES IDX 7 13 8 14 9 16 10 17 11 18 14 19 12 20 13 21 15 22 22 23
REMARK SMILES IDX 23 24 24 25 25 26 26 27 27 28 28 29 92 30 29 31 91 32 30 33
REMARK SMILES IDX 31 34 32 35 85 36 33 37 90 38 84 39 86 40 34 41 89 42 83 43
REMARK SMILES IDX 82 44 35 46 69 47 48 48 68 49 49 50 52 51 67 52 87 53 50 54
REMARK SMILES IDX 51 55 66 57 88 58 53 59 36 60 37 61 46 62 38 63 39 64 45 65
REMARK SMILES IDX 47 66 40 67 41 68 42 69 43 70 44 71 70 72 71 73 80 74 72 75
REMARK SMILES IDX 73 76 79 77 81 78 74 79 75 80 76 81 77 82 78 83 54 84 55 85
REMARK SMILES IDX 64 86 56 87 57 88 63 89 65 90 58 91 59 92 60 93 61 94 62 95
REMARK H PARENT 7 15 86 45 52 56
REMARK Flexibility Score: inf
ROOT
ATOM      1  O   UNL     1      -5.473   0.327  -0.260  1.00  0.00    -0.374 OA
ENDROOT
BRANCH   1   2
ATOM      2  C   UNL     1      -5.867  -0.839   0.462  1.00  0.00     0.202 C 
BRANCH   2   3
ATOM      3  C   UNL     1      -5.094  -2.123   0.154  1.00  0.00     0.261 C 
BRANCH   3   4
ATOM      4  O   UNL     1      -3.704  -2.011   0.514  1.00  0.00    -0.463 OA
BRANCH   4   5
ATOM      5  C   UNL     1      -2.819  -2.134  -0.509  1.00  0.00     0.310 C 
ATOM      6  O   UNL     1      -3.118  -2.342  -1.680  1.00  0.00    -0.252 OA
BRANCH   5   7
ATOM      7  C   UNL     1      -1.376  -2.006  -0.067  1.00  0.00     0.118 C 
BRANCH   7   8
ATOM      8  C   UNL     1      -0.606  -3.327  -0.224  1.00  0.00     0.020 C 
BRANCH   8   9
ATOM      9  C   UNL     1      -1.032  -4.547   0.615  1.00  0.00    -0.017 C 
ATOM     10  C   UNL     1      -2.385  -5.139   0.215  1.00  0.00     0.007 C 
ATOM     11  C   UNL     1       0.033  -5.642   0.463  1.00  0.00     0.007 C 
ENDBRANCH   8   9
ENDBRANCH   7   8
BRANCH   7  12
ATOM     12  C   UNL     1      -1.095  -1.228   1.227  1.00  0.00     0.131 C 
BRANCH  12  13
ATOM     13  N   UNL     1      -1.604  -1.806   2.453  1.00  0.00    -0.355 N 
ATOM     14  C   UNL     1      -1.022  -1.953   3.676  1.00  0.00     0.225 C 
ATOM     15  H   UNL     1      -2.525  -2.151   2.392  1.00  0.00     0.163 HD
ATOM     16  O   UNL     1      -1.752  -2.248   4.623  1.00  0.00    -0.275 OA
BRANCH  14  17
ATOM     17  C   UNL     1       0.475  -1.767   3.851  1.00  0.00     0.109 C 
ATOM     18  C   UNL     1       0.799  -0.702   4.882  1.00  0.00     0.044 C 
ATOM     19  C   UNL     1       1.116  -3.005   4.480  1.00  0.00     0.127 C 
ATOM     20  C   UNL     1       2.166  -1.124   5.368  1.00  0.00     0.161 C 
ATOM     21  O   UNL     1       2.210  -2.551   5.300  1.00  0.00    -0.378 OA
ATOM     22  C   UNL     1       1.674  -3.967   3.447  1.00  0.00     0.039 C 
ENDBRANCH  14  17
ENDBRANCH  12  13
ENDBRANCH   7  12
ENDBRANCH   5   7
ENDBRANCH   4   5
ENDBRANCH   3   4
ENDBRANCH   2   3
ENDBRANCH   1   2
BRANCH   1  23
ATOM     23  C   UNL     1      -4.245   0.953   0.103  1.00  0.00     0.202 C 
BRANCH  23  24
ATOM     24  C   UNL     1      -4.216   1.730   1.425  1.00  0.00     0.261 C 
BRANCH  24  25
ATOM     25  O   UNL     1      -4.441   0.893   2.574  1.00  0.00    -0.460 OA
BRANCH  25  26
ATOM     26  C   UNL     1      -5.597   1.159   3.230  1.00  0.00     0.338 C 
ATOM     27  O   UNL     1      -6.397   2.051   2.966  1.00  0.00    -0.246 OA
BRANCH  26  28
ATOM     28  C   UNL     1      -5.900   0.130   4.240  1.00  0.00     0.060 A 
ATOM     29  C   UNL     1      -7.184  -0.429   4.208  1.00  0.00     0.016 A 
ATOM     30  C   UNL     1      -5.016  -0.185   5.276  1.00  0.00     0.016 A 
ATOM     31  C   UNL     1      -7.622  -1.233   5.256  1.00  0.00     0.010 A 
ATOM     32  C   UNL     1      -5.463  -0.990   6.333  1.00  0.00     0.010 A 
ATOM     33  C   UNL     1      -6.785  -1.469   6.354  1.00  0.00    -0.014 A 
BRANCH  33  34
ATOM     34  C   UNL     1      -7.380  -2.052   7.583  1.00  0.00     0.031 A 
ATOM     35  C   UNL     1      -7.823  -1.126   8.687  1.00  0.00     0.074 A 
ATOM     36  C   UNL     1      -7.611  -3.374   7.678  1.00  0.00     0.049 A 
ATOM     37  N   UNL     1      -8.448  -1.403   9.803  1.00  0.00    -0.248 NA
ATOM     38  C   UNL     1      -7.527   0.304   8.505  1.00  0.00     0.031 C 
ATOM     39  C   UNL     1      -7.261  -4.366   6.663  1.00  0.00     0.029 A 
ATOM     40  N   UNL     1      -8.209  -4.105   8.673  1.00  0.00    -0.354 N 
ATOM     41  C   UNL     1      -8.616  -0.187  10.456  1.00  0.00     0.074 A 
ATOM     42  C   UNL     1      -8.002   0.827   9.626  1.00  0.00     0.031 C 
ATOM     43  C   UNL     1      -7.660  -5.579   7.084  1.00  0.00     0.029 A 
ATOM     44  C   UNL     1      -8.276  -5.451   8.404  1.00  0.00     0.049 A 
ATOM     45  H   UNL     1      -8.557  -3.703   9.501  1.00  0.00     0.167 HD
ATOM     46  C   UNL     1      -9.235   0.066  11.635  1.00  0.00     0.037 A 
ATOM     47  C   UNL     1      -8.777  -6.463   9.140  1.00  0.00     0.037 A 
ATOM     48  C   UNL     1      -9.851  -0.943  12.456  1.00  0.00     0.049 A 
ATOM     49  C   UNL     1      -9.420  -6.163  10.469  1.00  0.00     0.074 A 
ATOM     50  C   UNL     1     -10.527  -0.785  13.654  1.00  0.00     0.029 A 
ATOM     51  N   UNL     1      -9.861  -2.300  12.169  1.00  0.00    -0.354 N 
ATOM     52  N   UNL     1      -9.604  -5.004  11.056  1.00  0.00    -0.248 NA
ATOM     53  C   UNL     1      -9.932  -7.310  11.232  1.00  0.00     0.031 C 
ATOM     54  C   UNL     1     -10.908  -2.051  14.112  1.00  0.00     0.029 A 
ATOM     55  C   UNL     1     -10.509  -2.994  13.178  1.00  0.00     0.049 A 
ATOM     56  H   UNL     1      -9.464  -2.710  11.367  1.00  0.00     0.167 HD
ATOM     57  C   UNL     1     -10.280  -5.279  12.241  1.00  0.00     0.074 A 
ATOM     58  C   UNL     1     -10.478  -6.714  12.284  1.00  0.00     0.031 C 
ATOM     59  C   UNL     1     -10.705  -4.422  13.203  1.00  0.00     0.037 A 
BRANCH  46  60
ATOM     60  C   UNL     1      -9.248   1.489  12.118  1.00  0.00     0.058 A 
ATOM     61  C   UNL     1     -10.057   2.468  11.519  1.00  0.00     0.135 A 
ATOM     62  C   UNL     1      -8.453   1.876  13.209  1.00  0.00     0.135 A 
ATOM     63  F   UNL     1     -10.825   2.157  10.462  1.00  0.00    -0.206 F 
ATOM     64  C   UNL     1     -10.052   3.787  11.963  1.00  0.00     0.059 A 
ATOM     65  C   UNL     1      -8.450   3.184  13.685  1.00  0.00     0.059 A 
ATOM     66  F   UNL     1      -7.660   0.980  13.819  1.00  0.00    -0.206 F 
ATOM     67  C   UNL     1      -9.241   4.136  13.044  1.00  0.00     0.060 A 
BRANCH  67  68
ATOM     68  S   UNL     1      -9.235   5.853  13.604  1.00  0.00     0.124 S 
ATOM     69  O   UNL     1      -8.441   6.496  12.562  1.00  0.00    -0.237 OA
ATOM     70  O   UNL     1     -10.656   6.186  13.614  1.00  0.00    -0.237 OA
ATOM     71  O   UNL     1      -8.603   5.779  14.918  1.00  0.00    -0.744 OA
ENDBRANCH  67  68
ENDBRANCH  46  60
BRANCH  47  72
ATOM     72  C   UNL     1      -8.705  -7.857   8.630  1.00  0.00     0.058 A 
ATOM     73  C   UNL     1      -9.859  -8.536   8.212  1.00  0.00     0.135 A 
ATOM     74  C   UNL     1      -7.481  -8.538   8.551  1.00  0.00     0.135 A 
ATOM     75  F   UNL     1     -11.055  -7.930   8.280  1.00  0.00    -0.206 F 
ATOM     76  C   UNL     1      -9.805  -9.845   7.743  1.00  0.00     0.059 A 
ATOM     77  C   UNL     1      -7.398  -9.839   8.064  1.00  0.00     0.059 A 
ATOM     78  F   UNL     1      -6.347  -7.929   8.931  1.00  0.00    -0.206 F 
ATOM     79  C   UNL     1      -8.568 -10.487   7.671  1.00  0.00     0.060 A 
BRANCH  79  80
ATOM     80  S   UNL     1      -8.499 -12.167   7.011  1.00  0.00     0.124 S 
ATOM     81  O   UNL     1      -9.036 -12.942   8.124  1.00  0.00    -0.237 OA
ATOM     82  O   UNL     1      -9.352 -12.069   5.831  1.00  0.00    -0.237 OA
ATOM     83  O   UNL     1      -7.079 -12.360   6.733  1.00  0.00    -0.744 OA
ENDBRANCH  79  80
ENDBRANCH  47  72
BRANCH  59  84
ATOM     84  C   UNL     1     -11.460  -5.006  14.364  1.00  0.00     0.058 A 
ATOM     85  C   UNL     1     -10.818  -5.750  15.366  1.00  0.00     0.135 A 
ATOM     86  C   UNL     1     -12.842  -4.788  14.493  1.00  0.00     0.135 A 
ATOM     87  F   UNL     1      -9.500  -5.991  15.289  1.00  0.00    -0.206 F 
ATOM     88  C   UNL     1     -11.524  -6.285  16.439  1.00  0.00     0.059 A 
ATOM     89  C   UNL     1     -13.563  -5.292  15.571  1.00  0.00     0.059 A 
ATOM     90  F   UNL     1     -13.503  -4.072  13.570  1.00  0.00    -0.206 F 
ATOM     91  C   UNL     1     -12.898  -6.053  16.531  1.00  0.00     0.060 A 
BRANCH  91  92
ATOM     92  S   UNL     1     -13.804  -6.738  17.935  1.00  0.00     0.124 S 
ATOM     93  O   UNL     1     -13.926  -8.140  17.550  1.00  0.00    -0.237 OA
ATOM     94  O   UNL     1     -12.908  -6.464  19.054  1.00  0.00    -0.237 OA
ATOM     95  O   UNL     1     -15.050  -5.976  17.938  1.00  0.00    -0.744 OA
ENDBRANCH  91  92
ENDBRANCH  59  84
ENDBRANCH  33  34
ENDBRANCH  26  28
ENDBRANCH  25  26
ENDBRANCH  24  25
ENDBRANCH  23  24
ENDBRANCH   1  23
TORSDOF 22
