REMARK SMILES C=Cc1cccc(-c2ccc([C@@H](C)C(=O)OCCOCCOC(=O)c3ccc(-c4c5nc(c(-c6c(F)cc(S(=O)(=O)[O-])cc6F)c6ccc([nH]6)c(-c6c(F)cc(S(=O)(=O)[O-])cc6F)c6nc(c(-c7c(F)cc(S(=O)(=O)[O-])cc7F)c7ccc4[nH]7)C=C6)C=C5)cc3)cc2)c1
REMARK SMILES IDX 19 1 18 2 17 3 16 4 14 5 15 6 12 7 13 8 11 9 8 10 9 11 92 12
REMARK SMILES IDX 10 13 91 14 7 15 3 16 4 17 93 18 5 19 6 20 2 21 1 22 20 23
REMARK SMILES IDX 21 24 22 25 23 26 24 27 25 28 26 29 90 30 27 31 89 32 28 33
REMARK SMILES IDX 29 34 30 35 83 36 31 37 88 38 82 39 84 40 32 41 87 42 81 43
REMARK SMILES IDX 80 44 33 46 67 47 46 48 66 49 47 50 50 51 65 52 85 53 48 54
REMARK SMILES IDX 49 55 64 57 86 58 51 59 34 60 35 61 44 62 36 63 37 64 43 65
REMARK SMILES IDX 45 66 38 67 39 68 40 69 41 70 42 71 68 72 69 73 78 74 70 75
REMARK SMILES IDX 71 76 77 77 79 78 72 79 73 80 74 81 75 82 76 83 52 84 53 85
REMARK SMILES IDX 62 86 54 87 55 88 61 89 63 90 56 91 57 92 58 93 59 94 60 95
REMARK H PARENT 84 45 50 56
REMARK Flexibility Score: inf
ROOT
ATOM      1  O   UNL     1      -4.004   7.443  -0.306  1.00  0.00    -0.374 OA
ENDROOT
BRANCH   1   2
ATOM      2  C   UNL     1      -5.081   7.222   0.607  1.00  0.00     0.202 C 
BRANCH   2   3
ATOM      3  C   UNL     1      -6.468   7.077  -0.023  1.00  0.00     0.261 C 
BRANCH   3   4
ATOM      4  O   UNL     1      -6.572   5.844  -0.760  1.00  0.00    -0.463 OA
BRANCH   4   5
ATOM      5  C   UNL     1      -6.787   5.958  -2.096  1.00  0.00     0.313 C 
ATOM      6  O   UNL     1      -7.029   7.015  -2.674  1.00  0.00    -0.252 OA
BRANCH   5   7
ATOM      7  C   UNL     1      -6.737   4.633  -2.841  1.00  0.00     0.126 C 
ATOM      8  C   UNL     1      -8.159   4.113  -3.036  1.00  0.00     0.025 C 
BRANCH   7   9
ATOM      9  C   UNL     1      -5.800   3.552  -2.312  1.00  0.00    -0.034 A 
ATOM     10  C   UNL     1      -4.145   1.376  -1.500  1.00  0.00    -0.018 A 
ATOM     11  C   UNL     1      -5.210   1.819  -0.701  1.00  0.00     0.009 A 
ATOM     12  C   UNL     1      -3.892   2.072  -2.690  1.00  0.00     0.009 A 
ATOM     13  C   UNL     1      -6.026   2.888  -1.099  1.00  0.00     0.005 A 
ATOM     14  C   UNL     1      -4.705   3.141  -3.090  1.00  0.00     0.005 A 
BRANCH  10  15
ATOM     15  C   UNL     1      -3.364   0.179  -1.136  1.00  0.00    -0.018 A 
ATOM     16  C   UNL     1      -1.223  -0.943  -0.718  1.00  0.00    -0.026 A 
ATOM     17  C   UNL     1      -1.902  -2.150  -0.516  1.00  0.00     0.008 A 
ATOM     18  C   UNL     1      -1.960   0.210  -1.039  1.00  0.00     0.016 A 
ATOM     19  C   UNL     1      -3.291  -2.201  -0.604  1.00  0.00     0.001 A 
ATOM     20  C   UNL     1      -4.013  -1.046  -0.909  1.00  0.00     0.009 A 
BRANCH  16  21
ATOM     21  C   UNL     1       0.243  -0.945  -0.637  1.00  0.00     0.000 C 
ATOM     22  C   UNL     1       0.963   0.025  -0.060  1.00  0.00     0.009 C 
ENDBRANCH  16  21
ENDBRANCH  10  15
ENDBRANCH   7   9
ENDBRANCH   5   7
ENDBRANCH   4   5
ENDBRANCH   3   4
ENDBRANCH   2   3
ENDBRANCH   1   2
BRANCH   1  23
ATOM     23  C   UNL     1      -3.526   6.313  -1.036  1.00  0.00     0.202 C 
BRANCH  23  24
ATOM     24  C   UNL     1      -2.598   5.355  -0.282  1.00  0.00     0.261 C 
BRANCH  24  25
ATOM     25  O   UNL     1      -3.261   4.695   0.810  1.00  0.00    -0.460 OA
BRANCH  25  26
ATOM     26  C   UNL     1      -2.842   5.081   2.037  1.00  0.00     0.338 C 
ATOM     27  O   UNL     1      -1.927   5.854   2.291  1.00  0.00    -0.246 OA
BRANCH  26  28
ATOM     28  C   UNL     1      -3.750   4.573   3.083  1.00  0.00     0.060 A 
ATOM     29  C   UNL     1      -4.177   5.491   4.051  1.00  0.00     0.016 A 
ATOM     30  C   UNL     1      -4.100   3.224   3.182  1.00  0.00     0.016 A 
ATOM     31  C   UNL     1      -4.884   5.051   5.165  1.00  0.00     0.010 A 
ATOM     32  C   UNL     1      -4.810   2.782   4.307  1.00  0.00     0.010 A 
ATOM     33  C   UNL     1      -5.159   3.686   5.328  1.00  0.00    -0.014 A 
BRANCH  33  34
ATOM     34  C   UNL     1      -5.636   3.214   6.652  1.00  0.00     0.031 A 
ATOM     35  C   UNL     1      -4.637   2.638   7.622  1.00  0.00     0.074 A 
ATOM     36  C   UNL     1      -6.919   3.380   7.024  1.00  0.00     0.049 A 
ATOM     37  N   UNL     1      -4.813   2.238   8.855  1.00  0.00    -0.248 NA
ATOM     38  C   UNL     1      -3.254   2.500   7.138  1.00  0.00     0.031 C 
ATOM     39  C   UNL     1      -7.973   3.954   6.190  1.00  0.00     0.029 A 
ATOM     40  N   UNL     1      -7.547   3.091   8.209  1.00  0.00    -0.354 N 
ATOM     41  C   UNL     1      -3.567   1.804   9.295  1.00  0.00     0.074 A 
ATOM     42  C   UNL     1      -2.652   1.954   8.184  1.00  0.00     0.031 C 
ATOM     43  C   UNL     1      -9.120   3.978   6.891  1.00  0.00     0.029 A 
ATOM     44  C   UNL     1      -8.884   3.408   8.217  1.00  0.00     0.049 A 
ATOM     45  H   UNL     1      -7.084   2.693   8.982  1.00  0.00     0.167 HD
ATOM     46  C   UNL     1      -3.212   1.337  10.516  1.00  0.00     0.037 A 
ATOM     47  C   UNL     1      -9.812   3.255   9.183  1.00  0.00     0.037 A 
ATOM     48  C   UNL     1      -4.121   1.192  11.622  1.00  0.00     0.049 A 
ATOM     49  C   UNL     1      -9.402   2.696  10.521  1.00  0.00     0.074 A 
ATOM     50  C   UNL     1      -3.855   0.738  12.902  1.00  0.00     0.029 A 
ATOM     51  N   UNL     1      -5.473   1.497  11.580  1.00  0.00    -0.354 N 
ATOM     52  N   UNL     1      -8.215   2.312  10.927  1.00  0.00    -0.248 NA
ATOM     53  C   UNL     1     -10.457   2.561  11.536  1.00  0.00     0.031 C 
ATOM     54  C   UNL     1      -5.055   0.731  13.623  1.00  0.00     0.029 A 
ATOM     55  C   UNL     1      -6.059   1.224  12.805  1.00  0.00     0.049 A 
ATOM     56  H   UNL     1      -5.947   1.854  10.794  1.00  0.00     0.167 HD
ATOM     57  C   UNL     1      -8.375   1.917  12.252  1.00  0.00     0.074 A 
ATOM     58  C   UNL     1      -9.772   2.118  12.581  1.00  0.00     0.031 C 
ATOM     59  C   UNL     1      -7.450   1.434  13.119  1.00  0.00     0.037 A 
BRANCH  46  60
ATOM     60  C   UNL     1      -1.777   0.932  10.710  1.00  0.00     0.058 A 
ATOM     61  C   UNL     1      -0.748   1.883  10.802  1.00  0.00     0.135 A 
ATOM     62  C   UNL     1      -1.429  -0.423  10.827  1.00  0.00     0.135 A 
ATOM     63  F   UNL     1      -1.023   3.191  10.678  1.00  0.00    -0.206 F 
ATOM     64  C   UNL     1       0.580   1.503  10.974  1.00  0.00     0.059 A 
ATOM     65  C   UNL     1      -0.111  -0.824  11.024  1.00  0.00     0.059 A 
ATOM     66  F   UNL     1      -2.374  -1.373  10.744  1.00  0.00    -0.206 F 
ATOM     67  C   UNL     1       0.889   0.146  11.081  1.00  0.00     0.060 A 
BRANCH  67  68
ATOM     68  S   UNL     1       2.615  -0.334  11.302  1.00  0.00     0.124 S 
ATOM     69  O   UNL     1       3.150  -0.119   9.961  1.00  0.00    -0.237 OA
ATOM     70  O   UNL     1       3.073   0.601  12.324  1.00  0.00    -0.237 OA
ATOM     71  O   UNL     1       2.528  -1.728  11.725  1.00  0.00    -0.744 OA
ENDBRANCH  67  68
ENDBRANCH  46  60
BRANCH  47  72
ATOM     72  C   UNL     1     -11.223   3.643   8.923  1.00  0.00     0.058 A 
ATOM     73  C   UNL     1     -11.798   4.760   9.547  1.00  0.00     0.135 A 
ATOM     74  C   UNL     1     -12.026   2.900   8.044  1.00  0.00     0.135 A 
ATOM     75  F   UNL     1     -11.074   5.496  10.404  1.00  0.00    -0.206 F 
ATOM     76  C   UNL     1     -13.123   5.120   9.320  1.00  0.00     0.059 A 
ATOM     77  C   UNL     1     -13.346   3.253   7.783  1.00  0.00     0.059 A 
ATOM     78  F   UNL     1     -11.520   1.828   7.415  1.00  0.00    -0.206 F 
ATOM     79  C   UNL     1     -13.889   4.360   8.434  1.00  0.00     0.060 A 
BRANCH  79  80
ATOM     80  S   UNL     1     -15.592   4.864   8.104  1.00  0.00     0.124 S 
ATOM     81  O   UNL     1     -16.266   4.434   9.323  1.00  0.00    -0.237 OA
ATOM     82  O   UNL     1     -15.457   6.305   7.923  1.00  0.00    -0.237 OA
ATOM     83  O   UNL     1     -15.932   4.117   6.896  1.00  0.00    -0.744 OA
ENDBRANCH  79  80
ENDBRANCH  47  72
BRANCH  59  84
ATOM     84  C   UNL     1      -7.910   1.122  14.517  1.00  0.00     0.058 A 
ATOM     85  C   UNL     1      -8.710   0.005  14.800  1.00  0.00     0.135 A 
ATOM     86  C   UNL     1      -7.517   1.937  15.592  1.00  0.00     0.135 A 
ATOM     87  F   UNL     1      -9.116  -0.804  13.808  1.00  0.00    -0.206 F 
ATOM     88  C   UNL     1      -9.133  -0.277  16.095  1.00  0.00     0.059 A 
ATOM     89  C   UNL     1      -7.907   1.659  16.898  1.00  0.00     0.059 A 
ATOM     90  F   UNL     1      -6.740   3.010  15.378  1.00  0.00    -0.206 F 
ATOM     91  C   UNL     1      -8.730   0.560  17.138  1.00  0.00     0.060 A 
BRANCH  91  92
ATOM     92  S   UNL     1      -9.276   0.181  18.817  1.00  0.00     0.124 S 
ATOM     93  O   UNL     1     -10.659   0.645  18.787  1.00  0.00    -0.237 OA
ATOM     94  O   UNL     1      -9.094  -1.266  18.889  1.00  0.00    -0.237 OA
ATOM     95  O   UNL     1      -8.368   0.962  19.652  1.00  0.00    -0.744 OA
ENDBRANCH  91  92
ENDBRANCH  59  84
ENDBRANCH  33  34
ENDBRANCH  26  28
ENDBRANCH  25  26
ENDBRANCH  24  25
ENDBRANCH  23  24
ENDBRANCH   1  23
TORSDOF 20
