REMARK SMILES C[C@@H]1CC[N@@H+]1[C@@H](CO)C(=O)OCCOCCOC(=O)c1ccc(-c2c3nc(c(-c4c(F)cc(S(=O)(=O)[O-])cc4F)c4ccc([nH]4)c(-c4c(F)cc(S(=O)(=O)[O-])cc4F)c4nc(c(-c5c(F)cc(S(=O)(=O)[O-])cc5F)c5ccc2[nH]5)C=C4)C=C3)cc1
REMARK SMILES IDX 15 1 14 2 13 3 12 4 11 5 9 6 10 7 6 8 5 9 1 10 2 11 3 12
REMARK SMILES IDX 4 13 7 15 8 16 16 18 17 19 18 20 19 21 20 22 21 23 85 24
REMARK SMILES IDX 22 25 84 26 23 27 24 28 25 29 78 30 26 31 83 32 77 33 79 34
REMARK SMILES IDX 27 35 82 36 76 37 75 38 28 40 62 41 41 42 61 43 42 44 45 45
REMARK SMILES IDX 60 46 80 47 43 48 44 49 59 51 81 52 46 53 29 54 30 55 39 56
REMARK SMILES IDX 31 57 32 58 38 59 40 60 33 61 34 62 35 63 36 64 37 65 63 66
REMARK SMILES IDX 64 67 73 68 65 69 66 70 72 71 74 72 67 73 68 74 69 75 70 76
REMARK SMILES IDX 71 77 47 78 48 79 57 80 49 81 50 82 56 83 58 84 51 85 52 86
REMARK SMILES IDX 53 87 54 88 55 89
REMARK H PARENT 5 14 8 17 79 39 45 50
REMARK Flexibility Score: inf
ROOT
ATOM      1  C   UNL     1       0.347  -5.704   0.976  1.00  0.00     0.202 C 
ENDROOT
BRANCH   1   2
ATOM      2  O   UNL     1       1.335  -6.734   1.021  1.00  0.00    -0.374 OA
BRANCH   2   3
ATOM      3  C   UNL     1       2.418  -6.552   1.932  1.00  0.00     0.202 C 
BRANCH   3   4
ATOM      4  C   UNL     1       3.540  -5.620   1.466  1.00  0.00     0.261 C 
BRANCH   4   5
ATOM      5  O   UNL     1       3.121  -4.243   1.449  1.00  0.00    -0.459 OA
BRANCH   5   6
ATOM      6  C   UNL     1       2.955  -3.675   0.220  1.00  0.00     0.367 C 
ATOM      7  O   UNL     1       3.215  -4.228  -0.844  1.00  0.00    -0.245 OA
BRANCH   6   8
ATOM      8  C   UNL     1       2.464  -2.222   0.304  1.00  0.00     0.321 C 
BRANCH   8   9
ATOM      9  N   UNL     1       1.216  -2.136   1.109  1.00  0.00    -0.319 N 
ATOM     10  C   UNL     1       0.609   0.063  -0.113  1.00  0.00     0.075 C 
ATOM     11  C   UNL     1       0.483  -0.841   1.095  1.00  0.00     0.187 C 
ATOM     12  C   UNL     1       1.189  -0.458   2.411  1.00  0.00     0.126 C 
ATOM     13  C   UNL     1       1.418  -1.973   2.569  1.00  0.00     0.269 C 
ATOM     14  H   UNL     1       0.779  -2.970   0.716  1.00  0.00     0.349 HD
ENDBRANCH   8   9
BRANCH   8  15
ATOM     15  C   UNL     1       3.717  -1.346   0.522  1.00  0.00     0.233 C 
BRANCH  15  16
ATOM     16  O   UNL     1       4.224  -1.327   1.850  1.00  0.00    -0.390 OA
ATOM     17  H   UNL     1       3.560  -0.941   2.443  1.00  0.00     0.210 HD
ENDBRANCH  15  16
ENDBRANCH   8  15
ENDBRANCH   6   8
ENDBRANCH   5   6
ENDBRANCH   4   5
ENDBRANCH   3   4
ENDBRANCH   2   3
ENDBRANCH   1   2
BRANCH   1  18
ATOM     18  C   UNL     1      -0.699  -5.714   2.097  1.00  0.00     0.261 C 
BRANCH  18  19
ATOM     19  O   UNL     1      -0.128  -5.417   3.385  1.00  0.00    -0.460 OA
BRANCH  19  20
ATOM     20  C   UNL     1      -0.064  -6.468   4.235  1.00  0.00     0.338 C 
ATOM     21  O   UNL     1      -0.491  -7.599   4.043  1.00  0.00    -0.246 OA
BRANCH  20  22
ATOM     22  C   UNL     1       0.766  -6.125   5.405  1.00  0.00     0.060 A 
ATOM     23  C   UNL     1       1.792  -7.014   5.750  1.00  0.00     0.016 A 
ATOM     24  C   UNL     1       0.504  -5.003   6.195  1.00  0.00     0.016 A 
ATOM     25  C   UNL     1       2.525  -6.814   6.918  1.00  0.00     0.010 A 
ATOM     26  C   UNL     1       1.237  -4.809   7.372  1.00  0.00     0.010 A 
ATOM     27  C   UNL     1       2.224  -5.734   7.758  1.00  0.00    -0.014 A 
BRANCH  27  28
ATOM     28  C   UNL     1       2.844  -5.661   9.104  1.00  0.00     0.031 A 
ATOM     29  C   UNL     1       2.053  -6.124  10.298  1.00  0.00     0.074 A 
ATOM     30  C   UNL     1       4.105  -5.220   9.258  1.00  0.00     0.049 A 
ATOM     31  N   UNL     1       2.388  -6.132  11.562  1.00  0.00    -0.248 NA
ATOM     32  C   UNL     1       0.703  -6.647  10.029  1.00  0.00     0.031 C 
ATOM     33  C   UNL     1       4.982  -4.775   8.176  1.00  0.00     0.029 A 
ATOM     34  N   UNL     1       4.865  -5.068  10.391  1.00  0.00    -0.354 N 
ATOM     35  C   UNL     1       1.291  -6.651  12.241  1.00  0.00     0.074 A 
ATOM     36  C   UNL     1       0.270  -6.919  11.251  1.00  0.00     0.031 C 
ATOM     37  C   UNL     1       6.158  -4.387   8.699  1.00  0.00     0.029 A 
ATOM     38  C   UNL     1       6.107  -4.531  10.153  1.00  0.00     0.049 A 
ATOM     39  H   UNL     1       4.550  -5.319  11.289  1.00  0.00     0.167 HD
ATOM     40  C   UNL     1       1.151  -6.889  13.567  1.00  0.00     0.037 A 
ATOM     41  C   UNL     1       7.083  -4.176  11.012  1.00  0.00     0.037 A 
ATOM     42  C   UNL     1       2.172  -6.624  14.547  1.00  0.00     0.049 A 
ATOM     43  C   UNL     1       6.887  -4.402  12.489  1.00  0.00     0.074 A 
ATOM     44  C   UNL     1       2.137  -6.857  15.911  1.00  0.00     0.029 A 
ATOM     45  N   UNL     1       3.409  -6.061  14.270  1.00  0.00    -0.354 N 
ATOM     46  N   UNL     1       5.856  -4.921  13.114  1.00  0.00    -0.248 NA
ATOM     47  C   UNL     1       7.987  -4.000  13.377  1.00  0.00     0.031 C 
ATOM     48  C   UNL     1       3.333  -6.390  16.465  1.00  0.00     0.029 A 
ATOM     49  C   UNL     1       4.136  -5.914  15.440  1.00  0.00     0.049 A 
ATOM     50  H   UNL     1       3.724  -5.803  13.374  1.00  0.00     0.167 HD
ATOM     51  C   UNL     1       6.193  -4.930  14.464  1.00  0.00     0.074 A 
ATOM     52  C   UNL     1       7.527  -4.374  14.564  1.00  0.00     0.031 C 
ATOM     53  C   UNL     1       5.465  -5.362  15.524  1.00  0.00     0.037 A 
BRANCH  40  54
ATOM     54  C   UNL     1      -0.166  -7.441  14.039  1.00  0.00     0.058 A 
ATOM     55  C   UNL     1      -0.550  -8.766  13.778  1.00  0.00     0.135 A 
ATOM     56  C   UNL     1      -1.045  -6.639  14.785  1.00  0.00     0.135 A 
ATOM     57  F   UNL     1       0.245  -9.570  13.055  1.00  0.00    -0.206 F 
ATOM     58  C   UNL     1      -1.771  -9.268  14.217  1.00  0.00     0.059 A 
ATOM     59  C   UNL     1      -2.260  -7.128  15.256  1.00  0.00     0.059 A 
ATOM     60  F   UNL     1      -0.728  -5.364  15.061  1.00  0.00    -0.206 F 
ATOM     61  C   UNL     1      -2.621  -8.440  14.954  1.00  0.00     0.060 A 
BRANCH  61  62
ATOM     62  S   UNL     1      -4.203  -9.105  15.515  1.00  0.00     0.124 S 
ATOM     63  O   UNL     1      -4.962  -9.140  14.268  1.00  0.00    -0.237 OA
ATOM     64  O   UNL     1      -3.821 -10.403  16.061  1.00  0.00    -0.237 OA
ATOM     65  O   UNL     1      -4.655  -8.124  16.497  1.00  0.00    -0.744 OA
ENDBRANCH  61  62
ENDBRANCH  40  54
BRANCH  41  66
ATOM     66  C   UNL     1       8.334  -3.560  10.496  1.00  0.00     0.058 A 
ATOM     67  C   UNL     1       9.552  -4.254  10.524  1.00  0.00     0.135 A 
ATOM     68  C   UNL     1       8.331  -2.265   9.953  1.00  0.00     0.135 A 
ATOM     69  F   UNL     1       9.608  -5.490  11.044  1.00  0.00    -0.206 F 
ATOM     70  C   UNL     1      10.726  -3.685  10.040  1.00  0.00     0.059 A 
ATOM     71  C   UNL     1       9.486  -1.684   9.440  1.00  0.00     0.059 A 
ATOM     72  F   UNL     1       7.189  -1.563   9.895  1.00  0.00    -0.206 F 
ATOM     73  C   UNL     1      10.681  -2.400   9.495  1.00  0.00     0.060 A 
BRANCH  73  74
ATOM     74  S   UNL     1      12.197  -1.694   8.813  1.00  0.00     0.124 S 
ATOM     75  O   UNL     1      12.944  -1.375  10.024  1.00  0.00    -0.237 OA
ATOM     76  O   UNL     1      12.718  -2.800   8.014  1.00  0.00    -0.237 OA
ATOM     77  O   UNL     1      11.718  -0.549   8.045  1.00  0.00    -0.744 OA
ENDBRANCH  73  74
ENDBRANCH  41  66
BRANCH  53  78
ATOM     78  C   UNL     1       6.104  -5.282  16.884  1.00  0.00     0.058 A 
ATOM     79  C   UNL     1       6.272  -4.059  17.551  1.00  0.00     0.135 A 
ATOM     80  C   UNL     1       6.501  -6.453  17.551  1.00  0.00     0.135 A 
ATOM     81  F   UNL     1       5.913  -2.910  16.957  1.00  0.00    -0.206 F 
ATOM     82  C   UNL     1       6.832  -3.997  18.823  1.00  0.00     0.059 A 
ATOM     83  C   UNL     1       7.040  -6.416  18.834  1.00  0.00     0.059 A 
ATOM     84  F   UNL     1       6.352  -7.650  16.963  1.00  0.00    -0.206 F 
ATOM     85  C   UNL     1       7.212  -5.181  19.457  1.00  0.00     0.060 A 
BRANCH  85  86
ATOM     86  S   UNL     1       7.908  -5.090  21.121  1.00  0.00     0.124 S 
ATOM     87  O   UNL     1       9.250  -4.585  20.851  1.00  0.00    -0.237 OA
ATOM     88  O   UNL     1       7.003  -4.160  21.789  1.00  0.00    -0.237 OA
ATOM     89  O   UNL     1       7.839  -6.470  21.594  1.00  0.00    -0.744 OA
ENDBRANCH  85  86
ENDBRANCH  53  78
ENDBRANCH  27  28
ENDBRANCH  20  22
ENDBRANCH  19  20
ENDBRANCH  18  19
ENDBRANCH   1  18
TORSDOF 20
