REMARK SMILES CCOC(=O)C1=NN(c2ccc(OC(F)(F)F)cc2)[C@@](C)(C(=O)OCCOCCOC(=O)c2ccc(-c3c4nc(c(-c5c(F)cc(S(=O)(=O)[O-])cc5F)c5ccc([nH]5)c(-c5c(F)cc(S(=O)(=O)[O-])cc5F)c5nc(c(-c6c(F)cc(S(=O)(=O)[O-])cc6F)c6ccc3[nH]6)C=C5)C=C4)cc2)C1
REMARK SMILES IDX 27 1 26 2 25 3 24 4 22 5 23 6 20 7 6 8 7 9 99 10 8 11 21 12
REMARK SMILES IDX 4 13 5 14 3 15 2 16 1 17 9 18 10 19 19 20 11 21 18 22 12 23
REMARK SMILES IDX 13 24 14 25 15 26 16 27 17 28 28 29 29 30 30 31 31 32 32 33
REMARK SMILES IDX 33 34 34 35 98 36 35 37 97 38 36 39 37 40 38 41 91 42 39 43
REMARK SMILES IDX 96 44 90 45 92 46 40 47 95 48 89 49 88 50 41 52 75 53 54 54
REMARK SMILES IDX 74 55 55 56 58 57 73 58 93 59 56 60 57 61 72 63 94 64 59 65
REMARK SMILES IDX 42 66 43 67 52 68 44 69 45 70 51 71 53 72 46 73 47 74 48 75
REMARK SMILES IDX 49 76 50 77 76 78 77 79 86 80 78 81 79 82 85 83 87 84 80 85
REMARK SMILES IDX 81 86 82 87 83 88 84 89 60 90 61 91 70 92 62 93 63 94 69 95
REMARK SMILES IDX 71 96 64 97 65 98 66 99 67 100 68 101
REMARK H PARENT 92 51 58 62
REMARK Flexibility Score: inf
ROOT
ATOM      1  O   UNL     1       6.292   0.833  -5.746  1.00  0.00    -0.374 OA
ENDROOT
BRANCH   1   2
ATOM      2  C   UNL     1       6.995   0.093  -6.742  1.00  0.00     0.202 C 
BRANCH   2   3
ATOM      3  C   UNL     1       7.315  -1.370  -6.417  1.00  0.00     0.261 C 
BRANCH   3   4
ATOM      4  O   UNL     1       6.136  -2.155  -6.160  1.00  0.00    -0.461 OA
BRANCH   4   5
ATOM      5  C   UNL     1       6.019  -2.636  -4.894  1.00  0.00     0.334 C 
ATOM      6  O   UNL     1       6.888  -2.509  -4.032  1.00  0.00    -0.249 OA
BRANCH   5   7
ATOM      7  C   UNL     1       4.714  -3.407  -4.608  1.00  0.00     0.163 C 
ATOM      8  C   UNL     1       3.190  -1.934  -3.706  1.00  0.00     0.149 C 
ATOM      9  N   UNL     1       2.803  -2.038  -4.939  1.00  0.00    -0.169 NA
ATOM     10  C   UNL     1       4.198  -2.924  -3.236  1.00  0.00     0.108 C 
ATOM     11  N   UNL     1       3.568  -3.043  -5.484  1.00  0.00    -0.248 N 
ATOM     12  C   UNL     1       5.088  -4.882  -4.558  1.00  0.00     0.050 C 
BRANCH   8  13
ATOM     13  C   UNL     1       2.688  -0.880  -2.766  1.00  0.00     0.354 C 
ATOM     14  O   UNL     1       3.434  -0.013  -2.341  1.00  0.00    -0.245 OA
BRANCH  13  15
ATOM     15  O   UNL     1       1.388  -1.068  -2.486  1.00  0.00    -0.461 OA
BRANCH  15  16
ATOM     16  C   UNL     1       0.791  -0.042  -1.680  1.00  0.00     0.230 C 
ATOM     17  C   UNL     1       1.045  -0.295  -0.205  1.00  0.00     0.049 C 
ENDBRANCH  15  16
ENDBRANCH  13  15
ENDBRANCH   8  13
BRANCH  11  18
ATOM     18  C   UNL     1       3.167  -3.578  -6.700  1.00  0.00     0.061 A 
ATOM     19  C   UNL     1       2.747  -2.743  -7.747  1.00  0.00     0.032 A 
ATOM     20  C   UNL     1       3.059  -4.954  -6.929  1.00  0.00     0.032 A 
ATOM     21  C   UNL     1       2.309  -3.259  -8.976  1.00  0.00     0.049 A 
ATOM     22  C   UNL     1       2.617  -5.481  -8.152  1.00  0.00     0.049 A 
ATOM     23  C   UNL     1       2.258  -4.635  -9.193  1.00  0.00     0.129 A 
BRANCH  23  24
ATOM     24  O   UNL     1       1.829  -5.015 -10.432  1.00  0.00    -0.406 OA
BRANCH  24  25
ATOM     25  C   UNL     1       1.895  -6.396 -10.751  1.00  0.00     0.573 C 
ATOM     26  F   UNL     1       3.143  -6.883 -10.590  1.00  0.00    -0.132 F 
ATOM     27  F   UNL     1       1.037  -7.107  -9.983  1.00  0.00    -0.132 F 
ATOM     28  F   UNL     1       1.534  -6.567 -12.041  1.00  0.00    -0.132 F 
ENDBRANCH  24  25
ENDBRANCH  23  24
ENDBRANCH  11  18
ENDBRANCH   5   7
ENDBRANCH   4   5
ENDBRANCH   3   4
ENDBRANCH   2   3
ENDBRANCH   1   2
BRANCH   1  29
ATOM     29  C   UNL     1       4.887   0.598  -5.649  1.00  0.00     0.202 C 
BRANCH  29  30
ATOM     30  C   UNL     1       3.996   1.233  -6.723  1.00  0.00     0.261 C 
BRANCH  30  31
ATOM     31  O   UNL     1       4.209   0.644  -8.018  1.00  0.00    -0.460 OA
BRANCH  31  32
ATOM     32  C   UNL     1       4.761   1.468  -8.940  1.00  0.00     0.338 C 
ATOM     33  O   UNL     1       4.997   2.660  -8.815  1.00  0.00    -0.246 OA
BRANCH  32  34
ATOM     34  C   UNL     1       5.237   0.681 -10.095  1.00  0.00     0.060 A 
ATOM     35  C   UNL     1       6.561   0.878 -10.508  1.00  0.00     0.016 A 
ATOM     36  C   UNL     1       4.398  -0.190 -10.795  1.00  0.00     0.016 A 
ATOM     37  C   UNL     1       7.037   0.244 -11.654  1.00  0.00     0.010 A 
ATOM     38  C   UNL     1       4.875  -0.817 -11.951  1.00  0.00     0.010 A 
ATOM     39  C   UNL     1       6.185  -0.576 -12.404  1.00  0.00    -0.014 A 
BRANCH  39  40
ATOM     40  C   UNL     1       6.618  -1.051 -13.741  1.00  0.00     0.031 A 
ATOM     41  C   UNL     1       6.171  -0.289 -14.960  1.00  0.00     0.074 A 
ATOM     42  C   UNL     1       7.427  -2.119 -13.867  1.00  0.00     0.049 A 
ATOM     43  N   UNL     1       6.385  -0.547 -16.224  1.00  0.00    -0.248 NA
ATOM     44  C   UNL     1       5.380   0.930 -14.720  1.00  0.00     0.031 C 
ATOM     45  C   UNL     1       7.971  -2.902 -12.759  1.00  0.00     0.029 A 
ATOM     46  N   UNL     1       7.928  -2.730 -14.989  1.00  0.00    -0.354 N 
ATOM     47  C   UNL     1       5.762   0.476 -16.929  1.00  0.00     0.074 A 
ATOM     48  C   UNL     1       5.135   1.342 -15.955  1.00  0.00     0.031 C 
ATOM     49  C   UNL     1       8.724  -3.898 -13.258  1.00  0.00     0.029 A 
ATOM     50  C   UNL     1       8.686  -3.845 -14.718  1.00  0.00     0.049 A 
ATOM     51  H   UNL     1       7.761  -2.401 -15.902  1.00  0.00     0.167 HD
ATOM     52  C   UNL     1       5.728   0.682 -18.267  1.00  0.00     0.037 A 
ATOM     53  C   UNL     1       9.259  -4.732 -15.556  1.00  0.00     0.037 A 
ATOM     54  C   UNL     1       6.347  -0.186 -19.233  1.00  0.00     0.049 A 
ATOM     55  C   UNL     1       9.113  -4.542 -17.044  1.00  0.00     0.074 A 
ATOM     56  C   UNL     1       6.360  -0.070 -20.612  1.00  0.00     0.029 A 
ATOM     57  N   UNL     1       7.059  -1.335 -18.921  1.00  0.00    -0.354 N 
ATOM     58  N   UNL     1       8.522  -3.570 -17.698  1.00  0.00    -0.248 NA
ATOM     59  C   UNL     1       9.705  -5.574 -17.910  1.00  0.00     0.031 C 
ATOM     60  C   UNL     1       7.047  -1.170 -21.136  1.00  0.00     0.029 A 
ATOM     61  C   UNL     1       7.498  -1.949 -20.082  1.00  0.00     0.049 A 
ATOM     62  H   UNL     1       7.228  -1.664 -18.009  1.00  0.00     0.167 HD
ATOM     63  C   UNL     1       8.693  -3.861 -19.048  1.00  0.00     0.074 A 
ATOM     64  C   UNL     1       9.449  -5.093 -19.119  1.00  0.00     0.031 C 
ATOM     65  C   UNL     1       8.261  -3.170 -20.132  1.00  0.00     0.037 A 
BRANCH  52  66
ATOM     66  C   UNL     1       4.983   1.887 -18.766  1.00  0.00     0.058 A 
ATOM     67  C   UNL     1       5.506   3.182 -18.625  1.00  0.00     0.135 A 
ATOM     68  C   UNL     1       3.753   1.745 -19.428  1.00  0.00     0.135 A 
ATOM     69  F   UNL     1       6.669   3.375 -17.983  1.00  0.00    -0.206 F 
ATOM     70  C   UNL     1       4.826   4.297 -19.106  1.00  0.00     0.059 A 
ATOM     71  C   UNL     1       3.067   2.844 -19.938  1.00  0.00     0.059 A 
ATOM     72  F   UNL     1       3.207   0.529 -19.586  1.00  0.00    -0.206 F 
ATOM     73  C   UNL     1       3.607   4.117 -19.762  1.00  0.00     0.060 A 
BRANCH  73  74
ATOM     74  S   UNL     1       2.743   5.572 -20.391  1.00  0.00     0.124 S 
ATOM     75  O   UNL     1       2.244   6.170 -19.156  1.00  0.00    -0.237 OA
ATOM     76  O   UNL     1       3.811   6.304 -21.063  1.00  0.00    -0.237 OA
ATOM     77  O   UNL     1       1.724   5.009 -21.271  1.00  0.00    -0.744 OA
ENDBRANCH  73  74
ENDBRANCH  52  66
BRANCH  53  78
ATOM     78  C   UNL     1       9.999  -5.904 -15.015  1.00  0.00     0.058 A 
ATOM     79  C   UNL     1      11.389  -6.017 -15.169  1.00  0.00     0.135 A 
ATOM     80  C   UNL     1       9.328  -6.947 -14.359  1.00  0.00     0.135 A 
ATOM     81  F   UNL     1      12.074  -5.051 -15.801  1.00  0.00    -0.206 F 
ATOM     82  C   UNL     1      12.085  -7.131 -14.710  1.00  0.00     0.059 A 
ATOM     83  C   UNL     1      10.005  -8.060 -13.870  1.00  0.00     0.059 A 
ATOM     84  F   UNL     1       7.999  -6.885 -14.179  1.00  0.00    -0.206 F 
ATOM     85  C   UNL     1      11.382  -8.149 -14.063  1.00  0.00     0.060 A 
BRANCH  85  86
ATOM     86  S   UNL     1      12.296  -9.581 -13.447  1.00  0.00     0.124 S 
ATOM     87  O   UNL     1      12.557 -10.314 -14.680  1.00  0.00    -0.237 OA
ATOM     88  O   UNL     1      13.455  -8.959 -12.815  1.00  0.00    -0.237 OA
ATOM     89  O   UNL     1      11.352 -10.208 -12.526  1.00  0.00    -0.744 OA
ENDBRANCH  85  86
ENDBRANCH  53  78
BRANCH  65  90
ATOM     90  C   UNL     1       8.618  -3.708 -21.490  1.00  0.00     0.058 A 
ATOM     91  C   UNL     1       7.960  -4.820 -22.035  1.00  0.00     0.135 A 
ATOM     92  C   UNL     1       9.576  -3.056 -22.284  1.00  0.00     0.135 A 
ATOM     93  F   UNL     1       7.042  -5.483 -21.312  1.00  0.00    -0.206 F 
ATOM     94  C   UNL     1       8.244  -5.274 -23.318  1.00  0.00     0.059 A 
ATOM     95  C   UNL     1       9.859  -3.478 -23.579  1.00  0.00     0.059 A 
ATOM     96  F   UNL     1      10.228  -1.981 -21.812  1.00  0.00    -0.206 F 
ATOM     97  C   UNL     1       9.192  -4.593 -24.085  1.00  0.00     0.060 A 
BRANCH  97  98
ATOM     98  S   UNL     1       9.509  -5.157 -25.771  1.00  0.00     0.124 S 
ATOM     99  O   UNL     1      10.294  -6.364 -25.535  1.00  0.00    -0.237 OA
ATOM    100  O   UNL     1       8.161  -5.369 -26.289  1.00  0.00    -0.237 OA
ATOM    101  O   UNL     1      10.235  -4.043 -26.372  1.00  0.00    -0.744 OA
ENDBRANCH  97  98
ENDBRANCH  65  90
ENDBRANCH  39  40
ENDBRANCH  32  34
ENDBRANCH  31  32
ENDBRANCH  30  31
ENDBRANCH  29  30
ENDBRANCH   1  29
TORSDOF 23
