REMARK SMILES COc1cccc(-c2c(C(=O)OCCOCCOC(=O)c3ccc(-c4c5nc(c(-c6c(F)cc(S(=O)(=O)[O-])cc6F)c6ccc([nH]6)c(-c6c(F)cc(S(=O)(=O)[O-])cc6F)c6nc(c(-c7c(F)cc(S(=O)(=O)[O-])cc7F)c7ccc4[nH]7)C=C6)C=C5)cc3)nnn2Cc2ccc(OC(F)(F)F)cc2)c1
REMARK SMILES IDX 14 1 13 2 12 3 10 4 11 5 9 6 8 7 89 8 87 9 88 10 7 11 3 12
REMARK SMILES IDX 4 13 102 14 5 15 6 16 2 17 1 18 90 19 91 20 92 21 101 22
REMARK SMILES IDX 93 23 100 24 94 25 95 26 96 27 97 28 98 29 99 30 15 31 16 32
REMARK SMILES IDX 17 33 18 34 19 35 20 36 21 37 22 38 86 39 23 40 85 41 24 42
REMARK SMILES IDX 25 43 26 44 79 45 27 46 84 47 78 48 80 49 28 50 83 51 77 52
REMARK SMILES IDX 76 53 29 55 63 56 42 57 62 58 43 59 46 60 61 61 81 62 44 63
REMARK SMILES IDX 45 64 60 66 82 67 47 68 30 69 31 70 40 71 32 72 33 73 39 74
REMARK SMILES IDX 41 75 34 76 35 77 36 78 37 79 38 80 64 81 65 82 74 83 66 84
REMARK SMILES IDX 67 85 73 86 75 87 68 88 69 89 70 90 71 91 72 92 48 93 49 94
REMARK SMILES IDX 58 95 50 96 51 97 57 98 59 99 52 100 53 101 54 102 55 103
REMARK SMILES IDX 56 104
REMARK H PARENT 80 54 46 65
REMARK Flexibility Score: inf
ROOT
ATOM      1  C   UNL     1       3.174   7.784   0.901  1.00  0.00     0.202 C 
ENDROOT
BRANCH   1   2
ATOM      2  C   UNL     1       2.815   7.524  -0.563  1.00  0.00     0.261 C 
BRANCH   2   3
ATOM      3  O   UNL     1       3.158   6.197  -0.993  1.00  0.00    -0.458 OA
BRANCH   3   4
ATOM      4  C   UNL     1       4.192   6.137  -1.885  1.00  0.00     0.361 C 
ATOM      5  O   UNL     1       4.730   7.120  -2.380  1.00  0.00    -0.244 OA
BRANCH   4   6
ATOM      6  C   UNL     1       4.690   4.790  -2.106  1.00  0.00     0.198 A 
ATOM      7  C   UNL     1       4.025   3.575  -2.270  1.00  0.00     0.104 A 
ATOM      8  N   UNL     1       5.063   2.730  -2.627  1.00  0.00    -0.239 N 
ATOM      9  N   UNL     1       6.048   4.577  -2.155  1.00  0.00    -0.122 NA
ATOM     10  N   UNL     1       6.258   3.295  -2.368  1.00  0.00    -0.066 NA
BRANCH   7  11
ATOM     11  C   UNL     1       2.611   3.203  -2.263  1.00  0.00     0.006 A 
ATOM     12  C   UNL     1       0.855   1.617  -1.683  1.00  0.00     0.119 A 
ATOM     13  C   UNL     1      -0.060   2.378  -2.408  1.00  0.00     0.046 A 
ATOM     14  C   UNL     1       2.183   2.041  -1.592  1.00  0.00     0.056 A 
ATOM     15  C   UNL     1       0.338   3.562  -3.026  1.00  0.00     0.005 A 
ATOM     16  C   UNL     1       1.671   3.969  -2.961  1.00  0.00     0.011 A 
BRANCH  12  17
ATOM     17  O   UNL     1       0.365   0.439  -1.193  1.00  0.00    -0.497 OA
ATOM     18  C   UNL     1       0.949  -0.037   0.014  1.00  0.00     0.278 C 
ENDBRANCH  12  17
ENDBRANCH   7  11
BRANCH   8  19
ATOM     19  C   UNL     1       5.031   1.415  -3.257  1.00  0.00     0.182 C 
BRANCH  19  20
ATOM     20  C   UNL     1       5.603   1.435  -4.662  1.00  0.00    -0.026 A 
ATOM     21  C   UNL     1       4.785   1.223  -5.778  1.00  0.00     0.009 A 
ATOM     22  C   UNL     1       6.972   1.658  -4.877  1.00  0.00     0.009 A 
ATOM     23  C   UNL     1       5.327   1.248  -7.069  1.00  0.00     0.047 A 
ATOM     24  C   UNL     1       7.509   1.701  -6.168  1.00  0.00     0.047 A 
ATOM     25  C   UNL     1       6.688   1.498  -7.274  1.00  0.00     0.129 A 
BRANCH  25  26
ATOM     26  O   UNL     1       7.079   1.508  -8.582  1.00  0.00    -0.406 OA
BRANCH  26  27
ATOM     27  C   UNL     1       8.415   1.887  -8.864  1.00  0.00     0.573 C 
ATOM     28  F   UNL     1       8.682   3.130  -8.409  1.00  0.00    -0.132 F 
ATOM     29  F   UNL     1       9.297   1.012  -8.334  1.00  0.00    -0.132 F 
ATOM     30  F   UNL     1       8.591   1.890 -10.206  1.00  0.00    -0.132 F 
ENDBRANCH  26  27
ENDBRANCH  25  26
ENDBRANCH  19  20
ENDBRANCH   8  19
ENDBRANCH   4   6
ENDBRANCH   3   4
ENDBRANCH   2   3
ENDBRANCH   1   2
BRANCH   1  31
ATOM     31  O   UNL     1       4.550   7.761   1.276  1.00  0.00    -0.374 OA
BRANCH  31  32
ATOM     32  C   UNL     1       5.284   6.541   1.246  1.00  0.00     0.202 C 
BRANCH  32  33
ATOM     33  C   UNL     1       4.926   5.446   2.239  1.00  0.00     0.261 C 
BRANCH  33  34
ATOM     34  O   UNL     1       3.568   5.048   2.141  1.00  0.00    -0.460 OA
BRANCH  34  35
ATOM     35  C   UNL     1       2.783   5.546   3.127  1.00  0.00     0.338 C 
ATOM     36  O   UNL     1       3.022   6.488   3.855  1.00  0.00    -0.246 OA
BRANCH  35  37
ATOM     37  C   UNL     1       1.633   4.652   3.293  1.00  0.00     0.060 A 
ATOM     38  C   UNL     1       0.765   4.952   4.345  1.00  0.00     0.016 A 
ATOM     39  C   UNL     1       1.647   3.400   2.664  1.00  0.00     0.016 A 
ATOM     40  C   UNL     1       0.083   3.916   4.936  1.00  0.00     0.010 A 
ATOM     41  C   UNL     1       0.998   2.364   3.280  1.00  0.00     0.010 A 
ATOM     42  C   UNL     1       0.299   2.623   4.454  1.00  0.00    -0.014 A 
BRANCH  42  43
ATOM     43  C   UNL     1      -0.327   1.516   5.136  1.00  0.00     0.031 A 
ATOM     44  C   UNL     1      -1.776   1.449   4.848  1.00  0.00     0.074 A 
ATOM     45  C   UNL     1       0.391   0.596   5.809  1.00  0.00     0.049 A 
ATOM     46  N   UNL     1      -2.750   1.714   5.651  1.00  0.00    -0.248 NA
ATOM     47  C   UNL     1      -2.185   1.310   3.437  1.00  0.00     0.031 C 
ATOM     48  C   UNL     1       1.848   0.450   5.878  1.00  0.00     0.029 A 
ATOM     49  N   UNL     1      -0.052  -0.493   6.488  1.00  0.00    -0.354 N 
ATOM     50  C   UNL     1      -3.900   1.491   4.904  1.00  0.00     0.074 A 
ATOM     51  C   UNL     1      -3.499   1.515   3.525  1.00  0.00     0.031 C 
ATOM     52  C   UNL     1       2.150  -0.783   6.348  1.00  0.00     0.029 A 
ATOM     53  C   UNL     1       0.923  -1.460   6.726  1.00  0.00     0.049 A 
ATOM     54  H   UNL     1      -0.985  -0.591   6.788  1.00  0.00     0.167 HD
ATOM     55  C   UNL     1      -5.015   0.974   5.486  1.00  0.00     0.037 A 
ATOM     56  C   UNL     1       0.670  -2.747   7.092  1.00  0.00     0.037 A 
ATOM     57  C   UNL     1      -4.982   1.151   6.918  1.00  0.00     0.049 A 
ATOM     58  C   UNL     1      -0.717  -2.764   7.648  1.00  0.00     0.074 A 
ATOM     59  C   UNL     1      -4.832   2.249   7.746  1.00  0.00     0.029 A 
ATOM     60  N   UNL     1      -4.685   0.057   7.696  1.00  0.00    -0.354 N 
ATOM     61  N   UNL     1      -1.060  -2.155   8.753  1.00  0.00    -0.248 NA
ATOM     62  C   UNL     1      -1.806  -3.012   6.711  1.00  0.00     0.031 C 
ATOM     63  C   UNL     1      -3.973   1.805   8.794  1.00  0.00     0.029 A 
ATOM     64  C   UNL     1      -3.725   0.447   8.598  1.00  0.00     0.049 A 
ATOM     65  H   UNL     1      -5.085  -0.839   7.620  1.00  0.00     0.167 HD
ATOM     66  C   UNL     1      -2.288  -1.571   8.472  1.00  0.00     0.074 A 
ATOM     67  C   UNL     1      -2.716  -2.171   7.209  1.00  0.00     0.031 C 
ATOM     68  C   UNL     1      -2.711  -0.443   9.118  1.00  0.00     0.037 A 
BRANCH  55  69
ATOM     69  C   UNL     1      -5.904  -0.038   4.803  1.00  0.00     0.058 A 
ATOM     70  C   UNL     1      -7.117  -0.404   5.415  1.00  0.00     0.135 A 
ATOM     71  C   UNL     1      -5.497  -0.859   3.723  1.00  0.00     0.135 A 
ATOM     72  F   UNL     1      -7.590   0.292   6.461  1.00  0.00    -0.206 F 
ATOM     73  C   UNL     1      -7.837  -1.534   5.027  1.00  0.00     0.059 A 
ATOM     74  C   UNL     1      -6.229  -1.951   3.281  1.00  0.00     0.059 A 
ATOM     75  F   UNL     1      -4.324  -0.710   3.099  1.00  0.00    -0.206 F 
ATOM     76  C   UNL     1      -7.377  -2.306   3.964  1.00  0.00     0.060 A 
BRANCH  76  77
ATOM     77  S   UNL     1      -8.254  -3.809   3.511  1.00  0.00     0.124 S 
ATOM     78  O   UNL     1      -7.985  -4.659   4.664  1.00  0.00    -0.237 OA
ATOM     79  O   UNL     1      -9.624  -3.325   3.375  1.00  0.00    -0.237 OA
ATOM     80  O   UNL     1      -7.610  -4.210   2.263  1.00  0.00    -0.744 OA
ENDBRANCH  76  77
ENDBRANCH  55  69
BRANCH  56  81
ATOM     81  C   UNL     1       1.340  -3.986   6.596  1.00  0.00     0.058 A 
ATOM     82  C   UNL     1       1.041  -5.244   7.155  1.00  0.00     0.135 A 
ATOM     83  C   UNL     1       2.053  -4.009   5.380  1.00  0.00     0.135 A 
ATOM     84  F   UNL     1       0.358  -5.324   8.308  1.00  0.00    -0.206 F 
ATOM     85  C   UNL     1       1.364  -6.447   6.513  1.00  0.00     0.059 A 
ATOM     86  C   UNL     1       2.395  -5.194   4.729  1.00  0.00     0.059 A 
ATOM     87  F   UNL     1       2.356  -2.879   4.727  1.00  0.00    -0.206 F 
ATOM     88  C   UNL     1       2.018  -6.410   5.283  1.00  0.00     0.060 A 
BRANCH  88  89
ATOM     89  S   UNL     1       2.253  -7.938   4.341  1.00  0.00     0.124 S 
ATOM     90  O   UNL     1       3.263  -8.630   5.133  1.00  0.00    -0.237 OA
ATOM     91  O   UNL     1       0.916  -8.521   4.361  1.00  0.00    -0.237 OA
ATOM     92  O   UNL     1       2.702  -7.463   3.035  1.00  0.00    -0.744 OA
ENDBRANCH  88  89
ENDBRANCH  56  81
BRANCH  68  93
ATOM     93  C   UNL     1      -1.961   0.022  10.341  1.00  0.00     0.058 A 
ATOM     94  C   UNL     1      -0.605   0.397  10.365  1.00  0.00     0.135 A 
ATOM     95  C   UNL     1      -2.699   0.232  11.516  1.00  0.00     0.135 A 
ATOM     96  F   UNL     1       0.146   0.339   9.255  1.00  0.00    -0.206 F 
ATOM     97  C   UNL     1      -0.001   0.902  11.520  1.00  0.00     0.059 A 
ATOM     98  C   UNL     1      -2.129   0.766  12.666  1.00  0.00     0.059 A 
ATOM     99  F   UNL     1      -4.014  -0.044  11.542  1.00  0.00    -0.206 F 
ATOM    100  C   UNL     1      -0.773   1.080  12.669  1.00  0.00     0.060 A 
BRANCH 100 101
ATOM    101  S   UNL     1      -0.009   1.758  14.158  1.00  0.00     0.124 S 
ATOM    102  O   UNL     1       0.882   0.676  14.564  1.00  0.00    -0.237 OA
ATOM    103  O   UNL     1       0.644   2.964  13.657  1.00  0.00    -0.237 OA
ATOM    104  O   UNL     1      -1.143   1.998  15.046  1.00  0.00    -0.744 OA
ENDBRANCH 100 101
ENDBRANCH  68  93
ENDBRANCH  42  43
ENDBRANCH  35  37
ENDBRANCH  34  35
ENDBRANCH  33  34
ENDBRANCH  32  33
ENDBRANCH  31  32
ENDBRANCH   1  31
TORSDOF 23
