REMARK SMILES Cc1c(NC(=O)[C@@H]2CC=CC[C@@H]2C(=O)OCCOCCOC(=O)c2ccc(-c3c4nc(c(-c5c(F)cc(S(=O)(=O)[O-])cc5F)c5ccc([nH]5)c(-c5c(F)cc(S(=O)(=O)[O-])cc5F)c5nc(c(-c6c(F)cc(S(=O)(=O)[O-])cc6F)c6ccc3[nH]6)C=C5)C=C4)cc2)cccc1C(=O)N1CCOCC1
REMARK SMILES IDX 18 1 17 2 16 3 15 4 13 5 14 6 12 7 7 8 8 9 9 10 11 11 10 12
REMARK SMILES IDX 5 13 4 14 6 16 3 17 1 18 2 19 93 20 90 21 92 22 91 23 94 24
REMARK SMILES IDX 95 25 96 26 97 27 101 28 98 29 100 30 99 31 19 32 20 33
REMARK SMILES IDX 21 34 22 35 23 36 24 37 25 38 89 39 26 40 88 41 27 42 28 43
REMARK SMILES IDX 29 44 82 45 30 46 87 47 81 48 83 49 31 50 86 51 80 52 79 53
REMARK SMILES IDX 32 55 66 56 45 57 65 58 46 59 49 60 64 61 84 62 47 63 48 64
REMARK SMILES IDX 63 66 85 67 50 68 33 69 34 70 43 71 35 72 36 73 42 74 44 75
REMARK SMILES IDX 37 76 38 77 39 78 40 79 41 80 67 81 68 82 77 83 69 84 70 85
REMARK SMILES IDX 76 86 78 87 71 88 72 89 73 90 74 91 75 92 51 93 52 94 61 95
REMARK SMILES IDX 53 96 54 97 60 98 62 99 55 100 56 101 57 102 58 103 59 104
REMARK H PARENT 4 15 83 54 49 65
REMARK Flexibility Score: inf
ROOT
ATOM      1  O   UNL     1      -4.379   0.787  -0.032  1.00  0.00    -0.374 OA
ENDROOT
BRANCH   1   2
ATOM      2  C   UNL     1      -4.924  -0.071  -1.002  1.00  0.00     0.202 C 
BRANCH   2   3
ATOM      3  C   UNL     1      -4.384  -1.488  -1.077  1.00  0.00     0.261 C 
BRANCH   3   4
ATOM      4  O   UNL     1      -3.023  -1.668  -0.690  1.00  0.00    -0.463 OA
BRANCH   4   5
ATOM      5  C   UNL     1      -2.115  -1.753  -1.689  1.00  0.00     0.310 C 
ATOM      6  O   UNL     1      -2.385  -1.631  -2.879  1.00  0.00    -0.252 OA
BRANCH   5   7
ATOM      7  C   UNL     1      -0.687  -1.803  -1.169  1.00  0.00     0.116 C 
ATOM      8  C   UNL     1      -0.299  -2.844  -0.087  1.00  0.00     0.097 C 
ATOM      9  C   UNL     1      -1.036  -2.610   1.233  1.00  0.00     0.041 C 
ATOM     10  C   UNL     1      -0.846  -1.180   1.659  1.00  0.00    -0.030 C 
ATOM     11  C   UNL     1      -0.331  -0.392  -0.678  1.00  0.00     0.043 C 
ATOM     12  C   UNL     1      -0.503  -0.199   0.808  1.00  0.00    -0.030 C 
BRANCH   8  13
ATOM     13  C   UNL     1      -0.348  -4.262  -0.587  1.00  0.00     0.228 C 
ATOM     14  N   UNL     1      -0.040  -5.360   0.154  1.00  0.00    -0.326 N 
ATOM     15  H   UNL     1      -0.627  -6.128  -0.028  1.00  0.00     0.169 HD
ATOM     16  O   UNL     1      -0.584  -4.477  -1.778  1.00  0.00    -0.274 OA
BRANCH  14  17
ATOM     17  C   UNL     1       0.949  -5.631   1.135  1.00  0.00     0.044 A 
ATOM     18  C   UNL     1       0.415  -8.103   0.904  1.00  0.00     0.047 C 
ATOM     19  C   UNL     1       1.260  -6.993   1.445  1.00  0.00    -0.015 A 
ATOM     20  C   UNL     1       2.405  -7.299   2.236  1.00  0.00     0.045 A 
ATOM     21  C   UNL     1       1.720  -4.621   1.710  1.00  0.00     0.026 A 
ATOM     22  C   UNL     1       3.170  -6.232   2.743  1.00  0.00     0.014 A 
ATOM     23  C   UNL     1       2.820  -4.912   2.505  1.00  0.00     0.003 A 
BRANCH  20  24
ATOM     24  C   UNL     1       2.874  -8.662   2.712  1.00  0.00     0.254 C 
ATOM     25  O   UNL     1       3.735  -8.717   3.594  1.00  0.00    -0.269 OA
ATOM     26  N   UNL     1       2.251  -9.829   2.296  1.00  0.00    -0.334 N 
ATOM     27  C   UNL     1       2.407 -10.408   0.956  1.00  0.00     0.148 C 
ATOM     28  C   UNL     1       1.983 -10.839   3.313  1.00  0.00     0.148 C 
ATOM     29  C   UNL     1       1.197 -11.303   0.611  1.00  0.00     0.181 C 
ATOM     30  C   UNL     1       0.745 -11.641   2.916  1.00  0.00     0.181 C 
ATOM     31  O   UNL     1       0.951 -12.279   1.642  1.00  0.00    -0.378 OA
ENDBRANCH  20  24
ENDBRANCH  14  17
ENDBRANCH   8  13
ENDBRANCH   5   7
ENDBRANCH   4   5
ENDBRANCH   3   4
ENDBRANCH   2   3
ENDBRANCH   1   2
BRANCH   1  32
ATOM     32  C   UNL     1      -4.236   0.290   1.296  1.00  0.00     0.202 C 
BRANCH  32  33
ATOM     33  C   UNL     1      -5.204  -0.766   1.906  1.00  0.00     0.261 C 
BRANCH  33  34
ATOM     34  O   UNL     1      -6.587  -0.582   1.512  1.00  0.00    -0.460 OA
BRANCH  34  35
ATOM     35  C   UNL     1      -7.460  -1.620   1.723  1.00  0.00     0.338 C 
ATOM     36  O   UNL     1      -8.168  -1.762   2.720  1.00  0.00    -0.246 OA
BRANCH  35  37
ATOM     37  C   UNL     1      -7.750  -2.321   0.448  1.00  0.00     0.060 A 
ATOM     38  C   UNL     1      -7.750  -3.704   0.298  1.00  0.00     0.016 A 
ATOM     39  C   UNL     1      -7.926  -1.552  -0.687  1.00  0.00     0.016 A 
ATOM     40  C   UNL     1      -7.423  -4.249  -0.946  1.00  0.00     0.010 A 
ATOM     41  C   UNL     1      -7.606  -2.097  -1.917  1.00  0.00     0.010 A 
ATOM     42  C   UNL     1      -7.093  -3.392  -1.981  1.00  0.00    -0.014 A 
BRANCH  42  43
ATOM     43  C   UNL     1      -6.018  -3.724  -2.947  1.00  0.00     0.031 A 
ATOM     44  C   UNL     1      -6.189  -3.289  -4.331  1.00  0.00     0.074 A 
ATOM     45  C   UNL     1      -4.822  -4.225  -2.560  1.00  0.00     0.049 A 
ATOM     46  N   UNL     1      -6.698  -3.991  -5.295  1.00  0.00    -0.248 NA
ATOM     47  C   UNL     1      -6.030  -1.849  -4.613  1.00  0.00     0.031 C 
ATOM     48  C   UNL     1      -3.659  -4.526  -3.383  1.00  0.00     0.029 A 
ATOM     49  N   UNL     1      -4.464  -4.689  -1.286  1.00  0.00    -0.354 N 
ATOM     50  C   UNL     1      -6.649  -3.113  -6.362  1.00  0.00     0.074 A 
ATOM     51  C   UNL     1      -6.777  -1.834  -5.713  1.00  0.00     0.031 C 
ATOM     52  C   UNL     1      -2.931  -5.455  -2.735  1.00  0.00     0.029 A 
ATOM     53  C   UNL     1      -3.587  -5.769  -1.467  1.00  0.00     0.049 A 
ATOM     54  H   UNL     1      -4.772  -4.325  -0.425  1.00  0.00     0.167 HD
ATOM     55  C   UNL     1      -5.793  -3.300  -7.424  1.00  0.00     0.037 A 
ATOM     56  C   UNL     1      -4.049  -6.990  -1.075  1.00  0.00     0.037 A 
ATOM     57  C   UNL     1      -4.867  -4.434  -7.180  1.00  0.00     0.049 A 
ATOM     58  C   UNL     1      -4.510  -7.758  -2.307  1.00  0.00     0.074 A 
ATOM     59  C   UNL     1      -3.489  -4.579  -7.113  1.00  0.00     0.029 A 
ATOM     60  N   UNL     1      -5.367  -5.626  -6.668  1.00  0.00    -0.354 N 
ATOM     61  N   UNL     1      -4.594  -7.206  -3.497  1.00  0.00    -0.248 NA
ATOM     62  C   UNL     1      -4.833  -9.176  -2.366  1.00  0.00     0.031 C 
ATOM     63  C   UNL     1      -3.194  -5.867  -6.539  1.00  0.00     0.029 A 
ATOM     64  C   UNL     1      -4.389  -6.513  -6.265  1.00  0.00     0.049 A 
ATOM     65  H   UNL     1      -6.330  -5.819  -6.598  1.00  0.00     0.167 HD
ATOM     66  C   UNL     1      -4.839  -8.132  -4.462  1.00  0.00     0.074 A 
ATOM     67  C   UNL     1      -5.075  -9.345  -3.683  1.00  0.00     0.031 C 
ATOM     68  C   UNL     1      -4.796  -7.847  -5.806  1.00  0.00     0.037 A 
BRANCH  55  69
ATOM     69  C   UNL     1      -5.630  -2.243  -8.544  1.00  0.00     0.058 A 
ATOM     70  C   UNL     1      -4.807  -2.491  -9.662  1.00  0.00     0.135 A 
ATOM     71  C   UNL     1      -6.313  -0.998  -8.628  1.00  0.00     0.135 A 
ATOM     72  F   UNL     1      -4.153  -3.655  -9.786  1.00  0.00    -0.206 F 
ATOM     73  C   UNL     1      -4.656  -1.581 -10.730  1.00  0.00     0.059 A 
ATOM     74  C   UNL     1      -6.142  -0.060  -9.646  1.00  0.00     0.059 A 
ATOM     75  F   UNL     1      -7.259  -0.615  -7.772  1.00  0.00    -0.206 F 
ATOM     76  C   UNL     1      -5.323  -0.360 -10.708  1.00  0.00     0.060 A 
BRANCH  76  77
ATOM     77  S   UNL     1      -5.206   0.792 -12.089  1.00  0.00     0.124 S 
ATOM     78  O   UNL     1      -3.793   1.156 -12.064  1.00  0.00    -0.237 OA
ATOM     79  O   UNL     1      -5.637  -0.029 -13.214  1.00  0.00    -0.237 OA
ATOM     80  O   UNL     1      -6.127   1.866 -11.722  1.00  0.00    -0.744 OA
ENDBRANCH  76  77
ENDBRANCH  55  69
BRANCH  56  81
ATOM     81  C   UNL     1      -4.448  -6.953   0.391  1.00  0.00     0.058 A 
ATOM     82  C   UNL     1      -3.382  -6.733   1.288  1.00  0.00     0.135 A 
ATOM     83  C   UNL     1      -5.688  -6.564   0.898  1.00  0.00     0.135 A 
ATOM     84  F   UNL     1      -2.192  -7.225   0.980  1.00  0.00    -0.206 F 
ATOM     85  C   UNL     1      -3.448  -5.949   2.438  1.00  0.00     0.059 A 
ATOM     86  C   UNL     1      -5.801  -5.782   2.075  1.00  0.00     0.059 A 
ATOM     87  F   UNL     1      -6.806  -6.892   0.240  1.00  0.00    -0.206 F 
ATOM     88  C   UNL     1      -4.662  -5.399   2.780  1.00  0.00     0.060 A 
BRANCH  88  89
ATOM     89  S   UNL     1      -4.682  -4.121   4.059  1.00  0.00     0.124 S 
ATOM     90  O   UNL     1      -4.452  -4.897   5.268  1.00  0.00    -0.237 OA
ATOM     91  O   UNL     1      -3.587  -3.248   3.640  1.00  0.00    -0.237 OA
ATOM     92  O   UNL     1      -6.009  -3.536   3.912  1.00  0.00    -0.744 OA
ENDBRANCH  88  89
ENDBRANCH  56  81
BRANCH  68  93
ATOM     93  C   UNL     1      -5.218  -8.845  -6.854  1.00  0.00     0.058 A 
ATOM     94  C   UNL     1      -4.883 -10.203  -6.803  1.00  0.00     0.135 A 
ATOM     95  C   UNL     1      -5.990  -8.443  -7.971  1.00  0.00     0.135 A 
ATOM     96  F   UNL     1      -4.011 -10.665  -5.893  1.00  0.00    -0.206 F 
ATOM     97  C   UNL     1      -5.441 -11.129  -7.684  1.00  0.00     0.059 A 
ATOM     98  C   UNL     1      -6.498  -9.336  -8.899  1.00  0.00     0.059 A 
ATOM     99  F   UNL     1      -6.331  -7.168  -8.192  1.00  0.00    -0.206 F 
ATOM    100  C   UNL     1      -6.278 -10.686  -8.705  1.00  0.00     0.060 A 
BRANCH 100 101
ATOM    101  S   UNL     1      -7.104 -11.875  -9.767  1.00  0.00     0.124 S 
ATOM    102  O   UNL     1      -6.054 -12.858 -10.012  1.00  0.00    -0.237 OA
ATOM    103  O   UNL     1      -8.197 -12.315  -8.906  1.00  0.00    -0.237 OA
ATOM    104  O   UNL     1      -7.497 -11.081 -10.928  1.00  0.00    -0.744 OA
ENDBRANCH 100 101
ENDBRANCH  68  93
ENDBRANCH  42  43
ENDBRANCH  35  37
ENDBRANCH  34  35
ENDBRANCH  33  34
ENDBRANCH  32  33
ENDBRANCH   1  32
TORSDOF 20
