REMARK SMILES CS(=O)(=O)Nc1ccc(-c2cc(Cl)cc3c2O[C@@H](C(F)(F)F)C(C(=O)OCCOCCOC(=O)c2ccc(-c4c5nc(c(-c6c(F)cc(S(=O)(=O)[O-])cc6F)c6ccc([nH]6)c(-c6c(F)cc(S(=O)(=O)[O-])cc6F)c6nc(c(-c7c(F)cc(S(=O)(=O)[O-])cc7F)c7ccc4[nH]7)C=C6)C=C5)cc2)=C3)cc1
REMARK SMILES IDX 29 1 28 2 27 3 26 4 24 5 25 6 23 7 10 8 11 9 16 10 12 11
REMARK SMILES IDX 15 12 17 13 13 14 14 15 101 16 18 17 9 18 6 19 7 20 103 21
REMARK SMILES IDX 8 22 102 23 5 24 2 26 1 27 3 28 4 29 19 30 20 31 21 32 22 33
REMARK SMILES IDX 30 34 31 35 32 36 33 37 34 38 35 39 36 40 100 41 37 42 99 43
REMARK SMILES IDX 38 44 39 45 40 46 93 47 41 48 98 49 92 50 94 51 42 52 97 53
REMARK SMILES IDX 91 54 90 55 43 57 77 58 56 59 76 60 57 61 60 62 75 63 95 64
REMARK SMILES IDX 58 65 59 66 74 68 96 69 61 70 44 71 45 72 54 73 46 74 47 75
REMARK SMILES IDX 53 76 55 77 48 78 49 79 50 80 51 81 52 82 78 83 79 84 88 85
REMARK SMILES IDX 80 86 81 87 87 88 89 89 82 90 83 91 84 92 85 93 86 94 62 95
REMARK SMILES IDX 63 96 72 97 64 98 65 99 71 100 73 101 66 102 67 103 68 104
REMARK SMILES IDX 69 105 70 106
REMARK H PARENT 5 25 94 56 60 67
REMARK Flexibility Score: inf
ROOT
ATOM      1  O   UNL     1       5.540 -10.378  -0.103  1.00  0.00    -0.374 OA
ENDROOT
BRANCH   1   2
ATOM      2  C   UNL     1       6.380 -11.103  -0.993  1.00  0.00     0.202 C 
BRANCH   2   3
ATOM      3  C   UNL     1       7.537 -10.360  -1.682  1.00  0.00     0.261 C 
BRANCH   3   4
ATOM      4  O   UNL     1       7.896  -9.134  -1.024  1.00  0.00    -0.460 OA
BRANCH   4   5
ATOM      5  C   UNL     1       8.204  -8.101  -1.830  1.00  0.00     0.338 C 
ATOM      6  O   UNL     1       8.302  -8.159  -3.048  1.00  0.00    -0.246 OA
BRANCH   5   7
ATOM      7  C   UNL     1       8.244  -6.806  -1.108  1.00  0.00     0.087 C 
ATOM      8  C   UNL     1       4.926  -5.904   1.224  1.00  0.00     0.026 A 
ATOM      9  C   UNL     1       3.929  -6.764   0.705  1.00  0.00     0.033 A 
ATOM     10  C   UNL     1       6.144  -5.922   0.512  1.00  0.00     0.135 A 
ATOM     11  C   UNL     1       4.001  -7.239  -0.605  1.00  0.00     0.042 A 
ATOM     12  C   UNL     1       6.119  -6.165  -0.872  1.00  0.00     0.019 A 
ATOM     13  O   UNL     1       7.316  -6.342   1.191  1.00  0.00    -0.475 OA
ATOM     14  Cl  UNL     1       2.723  -8.202  -1.229  1.00  0.00    -0.084 Cl
ATOM     15  C   UNL     1       5.046  -6.853  -1.431  1.00  0.00     0.032 A 
ATOM     16  C   UNL     1       7.358  -5.953  -1.650  1.00  0.00     0.027 C 
ATOM     17  C   UNL     1       8.535  -6.556   0.357  1.00  0.00     0.316 C 
BRANCH   8  18
ATOM     18  C   UNL     1       4.332  -4.665   1.873  1.00  0.00    -0.014 A 
ATOM     19  C   UNL     1       2.491  -2.507   2.369  1.00  0.00     0.048 A 
ATOM     20  C   UNL     1       2.365  -3.736   3.022  1.00  0.00     0.027 A 
ATOM     21  C   UNL     1       3.611  -2.313   1.567  1.00  0.00     0.027 A 
ATOM     22  C   UNL     1       3.280  -4.783   2.801  1.00  0.00     0.011 A 
ATOM     23  C   UNL     1       4.520  -3.377   1.324  1.00  0.00     0.011 A 
BRANCH  19  24
ATOM     24  N   UNL     1       1.358  -1.642   2.442  1.00  0.00    -0.284 N 
ATOM     25  H   UNL     1       0.585  -1.992   2.941  1.00  0.00     0.180 HD
BRANCH  24  26
ATOM     26  S   UNL     1       1.169  -0.124   1.796  1.00  0.00     0.229 S 
ATOM     27  C   UNL     1       1.122  -0.396   0.033  1.00  0.00     0.183 C 
ATOM     28  O   UNL     1       2.314   0.694   2.121  1.00  0.00    -0.207 OA
ATOM     29  O   UNL     1      -0.167   0.279   2.193  1.00  0.00    -0.207 OA
ENDBRANCH  24  26
ENDBRANCH  19  24
ENDBRANCH   8  18
BRANCH  17  30
ATOM     30  C   UNL     1       9.647  -7.436   0.974  1.00  0.00     0.430 C 
ATOM     31  F   UNL     1      10.845  -7.085   0.430  1.00  0.00    -0.167 F 
ATOM     32  F   UNL     1       9.760  -7.231   2.308  1.00  0.00    -0.167 F 
ATOM     33  F   UNL     1       9.506  -8.760   0.787  1.00  0.00    -0.167 F 
ENDBRANCH  17  30
ENDBRANCH   5   7
ENDBRANCH   4   5
ENDBRANCH   3   4
ENDBRANCH   2   3
ENDBRANCH   1   2
BRANCH   1  34
ATOM     34  C   UNL     1       6.112  -9.882   1.105  1.00  0.00     0.202 C 
BRANCH  34  35
ATOM     35  C   UNL     1       6.582 -10.883   2.165  1.00  0.00     0.261 C 
BRANCH  35  36
ATOM     36  O   UNL     1       7.609 -11.774   1.705  1.00  0.00    -0.460 OA
BRANCH  36  37
ATOM     37  C   UNL     1       7.238 -13.075   1.645  1.00  0.00     0.338 C 
ATOM     38  O   UNL     1       6.146 -13.550   1.928  1.00  0.00    -0.246 OA
BRANCH  37  39
ATOM     39  C   UNL     1       8.305 -13.869   1.020  1.00  0.00     0.060 A 
ATOM     40  C   UNL     1       8.014 -14.543  -0.172  1.00  0.00     0.016 A 
ATOM     41  C   UNL     1       9.543 -14.023   1.646  1.00  0.00     0.016 A 
ATOM     42  C   UNL     1       8.956 -15.402  -0.731  1.00  0.00     0.010 A 
ATOM     43  C   UNL     1      10.483 -14.892   1.087  1.00  0.00     0.010 A 
ATOM     44  C   UNL     1      10.183 -15.606  -0.087  1.00  0.00    -0.014 A 
BRANCH  44  45
ATOM     45  C   UNL     1      11.111 -16.648  -0.585  1.00  0.00     0.031 A 
ATOM     46  C   UNL     1      11.198 -17.962   0.137  1.00  0.00     0.074 A 
ATOM     47  C   UNL     1      11.867 -16.415  -1.671  1.00  0.00     0.049 A 
ATOM     48  N   UNL     1      11.975 -18.987  -0.099  1.00  0.00    -0.248 NA
ATOM     49  C   UNL     1      10.295 -18.139   1.284  1.00  0.00     0.031 C 
ATOM     50  C   UNL     1      11.850 -15.182  -2.458  1.00  0.00     0.029 A 
ATOM     51  N   UNL     1      12.809 -17.198  -2.288  1.00  0.00    -0.354 N 
ATOM     52  C   UNL     1      11.667 -19.926   0.878  1.00  0.00     0.074 A 
ATOM     53  C   UNL     1      10.654 -19.335   1.726  1.00  0.00     0.031 C 
ATOM     54  C   UNL     1      12.758 -15.283  -3.442  1.00  0.00     0.029 A 
ATOM     55  C   UNL     1      13.443 -16.570  -3.332  1.00  0.00     0.049 A 
ATOM     56  H   UNL     1      13.011 -18.120  -2.009  1.00  0.00     0.167 HD
ATOM     57  C   UNL     1      12.181 -21.169   1.048  1.00  0.00     0.037 A 
ATOM     58  C   UNL     1      14.479 -16.974  -4.092  1.00  0.00     0.037 A 
ATOM     59  C   UNL     1      13.197 -21.738   0.199  1.00  0.00     0.049 A 
ATOM     60  C   UNL     1      15.070 -18.338  -3.863  1.00  0.00     0.074 A 
ATOM     61  C   UNL     1      13.757 -23.002   0.253  1.00  0.00     0.029 A 
ATOM     62  N   UNL     1      13.824 -21.070  -0.846  1.00  0.00    -0.354 N 
ATOM     63  N   UNL     1      14.737 -19.240  -2.970  1.00  0.00    -0.248 NA
ATOM     64  C   UNL     1      16.171 -18.743  -4.746  1.00  0.00     0.031 C 
ATOM     65  C   UNL     1      14.766 -23.075  -0.714  1.00  0.00     0.029 A 
ATOM     66  C   UNL     1      14.792 -21.881  -1.418  1.00  0.00     0.049 A 
ATOM     67  H   UNL     1      13.611 -20.154  -1.138  1.00  0.00     0.167 HD
ATOM     68  C   UNL     1      15.577 -20.326  -3.191  1.00  0.00     0.074 A 
ATOM     69  C   UNL     1      16.423 -19.972  -4.314  1.00  0.00     0.031 C 
ATOM     70  C   UNL     1      15.640 -21.508  -2.526  1.00  0.00     0.037 A 
BRANCH  57  71
ATOM     71  C   UNL     1      11.686 -21.967   2.226  1.00  0.00     0.058 A 
ATOM     72  C   UNL     1      10.368 -22.446   2.304  1.00  0.00     0.135 A 
ATOM     73  C   UNL     1      12.543 -22.243   3.304  1.00  0.00     0.135 A 
ATOM     74  F   UNL     1       9.499 -22.203   1.309  1.00  0.00    -0.206 F 
ATOM     75  C   UNL     1       9.902 -23.119   3.430  1.00  0.00     0.059 A 
ATOM     76  C   UNL     1      12.108 -22.944   4.426  1.00  0.00     0.059 A 
ATOM     77  F   UNL     1      13.815 -21.815   3.284  1.00  0.00    -0.206 F 
ATOM     78  C   UNL     1      10.778 -23.354   4.490  1.00  0.00     0.060 A 
BRANCH  78  79
ATOM     79  S   UNL     1      10.149 -24.186   5.964  1.00  0.00     0.124 S 
ATOM     80  O   UNL     1       9.322 -23.139   6.557  1.00  0.00    -0.237 OA
ATOM     81  O   UNL     1       9.425 -25.320   5.397  1.00  0.00    -0.237 OA
ATOM     82  O   UNL     1      11.358 -24.526   6.706  1.00  0.00    -0.744 OA
ENDBRANCH  78  79
ENDBRANCH  57  71
BRANCH  58  83
ATOM     83  C   UNL     1      15.017 -16.052  -5.127  1.00  0.00     0.058 A 
ATOM     84  C   UNL     1      14.798 -16.282  -6.491  1.00  0.00     0.135 A 
ATOM     85  C   UNL     1      15.695 -14.878  -4.760  1.00  0.00     0.135 A 
ATOM     86  F   UNL     1      14.166 -17.395  -6.892  1.00  0.00    -0.206 F 
ATOM     87  C   UNL     1      15.218 -15.372  -7.457  1.00  0.00     0.059 A 
ATOM     88  C   UNL     1      16.103 -13.943  -5.705  1.00  0.00     0.059 A 
ATOM     89  F   UNL     1      15.920 -14.608  -3.464  1.00  0.00    -0.206 F 
ATOM     90  C   UNL     1      15.856 -14.198  -7.052  1.00  0.00     0.060 A 
BRANCH  90  91
ATOM     91  S   UNL     1      16.294 -12.974  -8.307  1.00  0.00     0.124 S 
ATOM     92  O   UNL     1      17.397 -13.637  -8.993  1.00  0.00    -0.237 OA
ATOM     93  O   UNL     1      15.051 -12.856  -9.062  1.00  0.00    -0.237 OA
ATOM     94  O   UNL     1      16.654 -11.799  -7.520  1.00  0.00    -0.744 OA
ENDBRANCH  90  91
ENDBRANCH  58  83
BRANCH  70  95
ATOM     95  C   UNL     1      16.652 -22.517  -3.002  1.00  0.00     0.058 A 
ATOM     96  C   UNL     1      18.029 -22.336  -2.798  1.00  0.00     0.135 A 
ATOM     97  C   UNL     1      16.234 -23.707  -3.621  1.00  0.00     0.135 A 
ATOM     98  F   UNL     1      18.485 -21.215  -2.218  1.00  0.00    -0.206 F 
ATOM     99  C   UNL     1      18.957 -23.287  -3.212  1.00  0.00     0.059 A 
ATOM    100  C   UNL     1      17.142 -24.686  -4.015  1.00  0.00     0.059 A 
ATOM    101  F   UNL     1      14.928 -23.938  -3.832  1.00  0.00    -0.206 F 
ATOM    102  C   UNL     1      18.503 -24.461  -3.817  1.00  0.00     0.060 A 
BRANCH 102 103
ATOM    103  S   UNL     1      19.716 -25.701  -4.320  1.00  0.00     0.124 S 
ATOM    104  O   UNL     1      20.334 -25.056  -5.474  1.00  0.00    -0.237 OA
ATOM    105  O   UNL     1      20.556 -25.814  -3.132  1.00  0.00    -0.237 OA
ATOM    106  O   UNL     1      18.900 -26.874  -4.618  1.00  0.00    -0.744 OA
ENDBRANCH 102 103
ENDBRANCH  70  95
ENDBRANCH  44  45
ENDBRANCH  37  39
ENDBRANCH  36  37
ENDBRANCH  35  36
ENDBRANCH  34  35
ENDBRANCH   1  34
TORSDOF 21
