REMARK SMILES O=C(N[C@@H](Cc1c[nH]c2ccccc12)C(=O)N[C@@H](CO)C(=O)OCCOCCOC(=O)c1ccc(-c2c3nc(c(-c4c(F)cc(S(=O)(=O)[O-])cc4F)c4ccc([nH]4)c(-c4c(F)cc(S(=O)(=O)[O-])cc4F)c4nc(c(-c5c(F)cc(S(=O)(=O)[O-])cc5F)c5ccc2[nH]5)C=C4)C=C3)cc1)c1ccc(F)cc1
REMARK SMILES IDX 25 1 24 2 23 3 21 4 22 5 18 6 17 7 15 8 16 9 4 11 3 12 1 13
REMARK SMILES IDX 2 14 98 16 99 17 104 18 100 19 103 20 101 21 102 22 5 23
REMARK SMILES IDX 6 24 7 25 14 26 8 27 9 28 13 29 10 31 12 32 11 33 19 34
REMARK SMILES IDX 20 35 26 37 27 38 28 39 29 40 30 41 31 42 32 43 33 44 97 45
REMARK SMILES IDX 34 46 96 47 35 48 36 49 37 50 90 51 38 52 95 53 89 54 91 55
REMARK SMILES IDX 39 56 94 57 88 58 87 59 40 61 74 62 53 63 73 64 54 65 57 66
REMARK SMILES IDX 72 67 92 68 55 69 56 70 71 72 93 73 58 74 41 75 42 76 51 77
REMARK SMILES IDX 43 78 44 79 50 80 52 81 45 82 46 83 47 84 48 85 49 86 75 87
REMARK SMILES IDX 76 88 85 89 77 90 78 91 84 92 86 93 79 94 80 95 81 96 82 97
REMARK SMILES IDX 83 98 59 99 60 100 69 101 61 102 62 103 68 104 70 105 63 106
REMARK SMILES IDX 64 107 65 108 66 109 67 110
REMARK H PARENT 17 10 3 15 8 30 20 36 91 60 57 71
REMARK Flexibility Score: inf
ROOT
ATOM      1  C   UNL     1       6.408   0.661   7.179  1.00  0.00     0.202 C 
ENDROOT
BRANCH   1   2
ATOM      2  C   UNL     1       4.966   0.144   7.142  1.00  0.00     0.261 C 
BRANCH   2   3
ATOM      3  O   UNL     1       4.714  -0.647   5.963  1.00  0.00    -0.462 OA
BRANCH   3   4
ATOM      4  C   UNL     1       3.397  -0.854   5.676  1.00  0.00     0.331 C 
ATOM      5  O   UNL     1       2.468  -0.512   6.404  1.00  0.00    -0.250 OA
BRANCH   4   6
ATOM      6  C   UNL     1       3.180  -1.545   4.306  1.00  0.00     0.218 C 
BRANCH   6   7
ATOM      7  N   UNL     1       4.400  -1.617   3.484  1.00  0.00    -0.339 N 
ATOM      8  C   UNL     1       4.938  -0.856   2.494  1.00  0.00     0.243 C 
ATOM      9  O   UNL     1       6.138  -1.078   2.269  1.00  0.00    -0.273 OA
ATOM     10  H   UNL     1       4.956  -2.400   3.703  1.00  0.00     0.164 HD
BRANCH   8  11
ATOM     11  C   UNL     1       4.245   0.270   1.655  1.00  0.00     0.176 C 
BRANCH  11  12
ATOM     12  N   UNL     1       2.851   0.038   1.274  1.00  0.00    -0.340 N 
ATOM     13  O   UNL     1       1.057  -0.088  -0.066  1.00  0.00    -0.269 OA
ATOM     14  C   UNL     1       2.281  -0.045   0.028  1.00  0.00     0.251 C 
ATOM     15  H   UNL     1       2.227  -0.076   2.026  1.00  0.00     0.164 HD
BRANCH  14  16
ATOM     16  C   UNL     1       3.090  -0.030  -1.216  1.00  0.00     0.040 A 
ATOM     17  C   UNL     1       4.130  -0.941  -1.443  1.00  0.00     0.017 A 
ATOM     18  C   UNL     1       2.722   0.874  -2.224  1.00  0.00     0.017 A 
ATOM     19  C   UNL     1       4.830  -0.908  -2.653  1.00  0.00     0.040 A 
ATOM     20  C   UNL     1       3.418   0.897  -3.435  1.00  0.00     0.040 A 
ATOM     21  C   UNL     1       4.470   0.010  -3.636  1.00  0.00     0.123 A 
ATOM     22  F   UNL     1       5.137   0.032  -4.797  1.00  0.00    -0.207 F 
ENDBRANCH  14  16
ENDBRANCH  11  12
BRANCH  11  23
ATOM     23  C   UNL     1       4.563   1.751   2.030  1.00  0.00     0.072 C 
BRANCH  23  24
ATOM     24  C   UNL     1       3.885   2.366   3.227  1.00  0.00    -0.020 A 
ATOM     25  C   UNL     1       2.938   1.780   4.029  1.00  0.00     0.087 A 
ATOM     26  C   UNL     1       4.022   3.710   3.757  1.00  0.00     0.003 A 
ATOM     27  N   UNL     1       2.739   2.534   5.144  1.00  0.00    -0.361 N 
ATOM     28  C   UNL     1       3.316   3.758   4.965  1.00  0.00     0.046 A 
ATOM     29  C   UNL     1       4.667   4.898   3.346  1.00  0.00     0.010 A 
ATOM     30  H   UNL     1       2.256   2.244   5.952  1.00  0.00     0.166 HD
ATOM     31  C   UNL     1       3.243   4.882   5.790  1.00  0.00     0.026 A 
ATOM     32  C   UNL     1       4.566   6.055   4.142  1.00  0.00     0.001 A 
ATOM     33  C   UNL     1       3.874   6.040   5.351  1.00  0.00     0.002 A 
ENDBRANCH  23  24
ENDBRANCH  11  23
ENDBRANCH   8  11
ENDBRANCH   6   7
BRANCH   6  34
ATOM     34  C   UNL     1       2.564  -2.921   4.584  1.00  0.00     0.193 C 
BRANCH  34  35
ATOM     35  O   UNL     1       3.479  -3.752   5.287  1.00  0.00    -0.394 OA
ATOM     36  H   UNL     1       4.278  -3.879   4.752  1.00  0.00     0.210 HD
ENDBRANCH  34  35
ENDBRANCH   6  34
ENDBRANCH   4   6
ENDBRANCH   3   4
ENDBRANCH   2   3
ENDBRANCH   1   2
BRANCH   1  37
ATOM     37  O   UNL     1       6.740   1.665   6.217  1.00  0.00    -0.374 OA
BRANCH  37  38
ATOM     38  C   UNL     1       6.779   1.264   4.850  1.00  0.00     0.202 C 
BRANCH  38  39
ATOM     39  C   UNL     1       8.046   0.537   4.392  1.00  0.00     0.261 C 
BRANCH  39  40
ATOM     40  O   UNL     1       8.278  -0.658   5.149  1.00  0.00    -0.460 OA
BRANCH  40  41
ATOM     41  C   UNL     1       9.425  -0.636   5.867  1.00  0.00     0.338 C 
ATOM     42  O   UNL     1      10.322   0.190   5.806  1.00  0.00    -0.246 OA
BRANCH  41  43
ATOM     43  C   UNL     1       9.379  -1.669   6.915  1.00  0.00     0.060 A 
ATOM     44  C   UNL     1       9.630  -1.244   8.224  1.00  0.00     0.016 A 
ATOM     45  C   UNL     1       9.159  -3.019   6.630  1.00  0.00     0.016 A 
ATOM     46  C   UNL     1       9.732  -2.178   9.246  1.00  0.00     0.010 A 
ATOM     47  C   UNL     1       9.269  -3.960   7.661  1.00  0.00     0.010 A 
ATOM     48  C   UNL     1       9.601  -3.544   8.962  1.00  0.00    -0.014 A 
BRANCH  48  49
ATOM     49  C   UNL     1       9.984  -4.513  10.015  1.00  0.00     0.031 A 
ATOM     50  C   UNL     1      11.380  -5.072  10.010  1.00  0.00     0.074 A 
ATOM     51  C   UNL     1       9.134  -4.798  11.017  1.00  0.00     0.049 A 
ATOM     52  N   UNL     1      11.975  -5.824  10.899  1.00  0.00    -0.248 NA
ATOM     53  C   UNL     1      12.221  -4.732   8.850  1.00  0.00     0.031 C 
ATOM     54  C   UNL     1       7.767  -4.293  11.134  1.00  0.00     0.029 A 
ATOM     55  N   UNL     1       9.306  -5.569  12.138  1.00  0.00    -0.354 N 
ATOM     56  C   UNL     1      13.261  -6.036  10.415  1.00  0.00     0.074 A 
ATOM     57  C   UNL     1      13.348  -5.369   9.135  1.00  0.00     0.031 C 
ATOM     58  C   UNL     1       7.226  -4.761  12.272  1.00  0.00     0.029 A 
ATOM     59  C   UNL     1       8.204  -5.603  12.957  1.00  0.00     0.049 A 
ATOM     60  H   UNL     1      10.141  -6.051  12.337  1.00  0.00     0.167 HD
ATOM     61  C   UNL     1      14.281  -6.713  10.994  1.00  0.00     0.037 A 
ATOM     62  C   UNL     1       8.012  -6.239  14.129  1.00  0.00     0.037 A 
ATOM     63  C   UNL     1      14.184  -7.382  12.265  1.00  0.00     0.049 A 
ATOM     64  C   UNL     1       9.151  -7.014  14.736  1.00  0.00     0.074 A 
ATOM     65  C   UNL     1      15.157  -8.093  12.944  1.00  0.00     0.029 A 
ATOM     66  N   UNL     1      13.038  -7.426  13.048  1.00  0.00    -0.354 N 
ATOM     67  N   UNL     1      10.371  -7.182  14.281  1.00  0.00    -0.248 NA
ATOM     68  C   UNL     1       8.893  -7.672  16.023  1.00  0.00     0.031 C 
ATOM     69  C   UNL     1      14.589  -8.602  14.117  1.00  0.00     0.029 A 
ATOM     70  C   UNL     1      13.275  -8.169  14.193  1.00  0.00     0.049 A 
ATOM     71  H   UNL     1      12.183  -6.994  12.822  1.00  0.00     0.167 HD
ATOM     72  C   UNL     1      11.032  -7.948  15.237  1.00  0.00     0.074 A 
ATOM     73  C   UNL     1      10.080  -8.192  16.302  1.00  0.00     0.031 C 
ATOM     74  C   UNL     1      12.308  -8.408  15.236  1.00  0.00     0.037 A 
BRANCH  61  75
ATOM     75  C   UNL     1      15.582  -6.778  10.243  1.00  0.00     0.058 A 
ATOM     76  C   UNL     1      16.420  -5.657  10.120  1.00  0.00     0.135 A 
ATOM     77  C   UNL     1      16.005  -7.979   9.652  1.00  0.00     0.135 A 
ATOM     78  F   UNL     1      16.055  -4.478  10.648  1.00  0.00    -0.206 F 
ATOM     79  C   UNL     1      17.619  -5.719   9.416  1.00  0.00     0.059 A 
ATOM     80  C   UNL     1      17.212  -8.070   8.964  1.00  0.00     0.059 A 
ATOM     81  F   UNL     1      15.240  -9.079   9.735  1.00  0.00    -0.206 F 
ATOM     82  C   UNL     1      18.006  -6.931   8.840  1.00  0.00     0.060 A 
BRANCH  82  83
ATOM     83  S   UNL     1      19.564  -6.999   7.931  1.00  0.00     0.124 S 
ATOM     84  O   UNL     1      19.217  -6.288   6.704  1.00  0.00    -0.237 OA
ATOM     85  O   UNL     1      20.481  -6.303   8.828  1.00  0.00    -0.237 OA
ATOM     86  O   UNL     1      19.807  -8.430   7.779  1.00  0.00    -0.744 OA
ENDBRANCH  82  83
ENDBRANCH  61  75
BRANCH  62  87
ATOM     87  C   UNL     1       6.692  -6.158  14.809  1.00  0.00     0.058 A 
ATOM     88  C   UNL     1       6.529  -5.438  16.002  1.00  0.00     0.135 A 
ATOM     89  C   UNL     1       5.564  -6.798  14.273  1.00  0.00     0.135 A 
ATOM     90  F   UNL     1       7.579  -4.815  16.558  1.00  0.00    -0.206 F 
ATOM     91  C   UNL     1       5.298  -5.366  16.646  1.00  0.00     0.059 A 
ATOM     92  C   UNL     1       4.318  -6.721  14.886  1.00  0.00     0.059 A 
ATOM     93  F   UNL     1       5.666  -7.491  13.127  1.00  0.00    -0.206 F 
ATOM     94  C   UNL     1       4.197  -6.010  16.078  1.00  0.00     0.060 A 
BRANCH  94  95
ATOM     95  S   UNL     1       2.591  -5.868  16.892  1.00  0.00     0.124 S 
ATOM     96  O   UNL     1       2.753  -6.773  18.023  1.00  0.00    -0.237 OA
ATOM     97  O   UNL     1       2.533  -4.445  17.214  1.00  0.00    -0.237 OA
ATOM     98  O   UNL     1       1.654  -6.306  15.861  1.00  0.00    -0.744 OA
ENDBRANCH  94  95
ENDBRANCH  62  87
BRANCH  74  99
ATOM     99  C   UNL     1      12.745  -9.204  16.435  1.00  0.00     0.058 A 
ATOM    100  C   UNL     1      12.278 -10.508  16.664  1.00  0.00     0.135 A 
ATOM    101  C   UNL     1      13.645  -8.656  17.364  1.00  0.00     0.135 A 
ATOM    102  F   UNL     1      11.416 -11.077  15.807  1.00  0.00    -0.206 F 
ATOM    103  C   UNL     1      12.649 -11.223  17.798  1.00  0.00     0.059 A 
ATOM    104  C   UNL     1      14.051  -9.364  18.490  1.00  0.00     0.059 A 
ATOM    105  F   UNL     1      14.136  -7.420  17.183  1.00  0.00    -0.206 F 
ATOM    106  C   UNL     1      13.529 -10.638  18.711  1.00  0.00     0.060 A 
BRANCH 106 107
ATOM    107  S   UNL     1      13.991 -11.565  20.189  1.00  0.00     0.124 S 
ATOM    108  O   UNL     1      12.806 -11.393  21.023  1.00  0.00    -0.237 OA
ATOM    109  O   UNL     1      14.207 -12.910  19.665  1.00  0.00    -0.237 OA
ATOM    110  O   UNL     1      15.194 -10.881  20.655  1.00  0.00    -0.744 OA
ENDBRANCH 106 107
ENDBRANCH  74  99
ENDBRANCH  48  49
ENDBRANCH  41  43
ENDBRANCH  40  41
ENDBRANCH  39  40
ENDBRANCH  38  39
ENDBRANCH  37  38
ENDBRANCH   1  37
TORSDOF 25
