REMARK SMILES COc1ccc([C@H]2CC(c3ccc(S(C)(=O)=O)cc3)=NN2c2ccc(C(=O)OCCOCCOC(=O)c3ccc(-c4c5nc(c(-c6c(F)cc(S(=O)(=O)[O-])cc6F)c6ccc([nH]6)c(-c6c(F)cc(S(=O)(=O)[O-])cc6F)c6nc(c(-c7c(F)cc(S(=O)(=O)[O-])cc7F)c7ccc4[nH]7)C=C6)C=C5)cc3)cc2)cc1OC
REMARK SMILES IDX 31 1 30 2 29 3 28 4 26 5 27 6 25 7 22 8 23 9 104 10 24 11
REMARK SMILES IDX 103 12 21 13 7 14 8 15 9 16 20 17 6 18 3 19 4 20 106 21 5 22
REMARK SMILES IDX 105 23 2 24 1 25 107 26 108 27 10 28 11 29 19 30 12 31 18 32
REMARK SMILES IDX 13 33 14 34 15 35 16 36 17 37 32 38 33 39 34 40 35 41 36 42
REMARK SMILES IDX 37 43 38 44 102 45 39 46 101 47 40 48 41 49 42 50 95 51
REMARK SMILES IDX 43 52 100 53 94 54 96 55 44 56 99 57 93 58 92 59 45 61 79 62
REMARK SMILES IDX 58 63 78 64 59 65 62 66 77 67 97 68 60 69 61 70 76 72 98 73
REMARK SMILES IDX 63 74 46 75 47 76 56 77 48 78 49 79 55 80 57 81 50 82 51 83
REMARK SMILES IDX 52 84 53 85 54 86 80 87 81 88 90 89 82 90 83 91 89 92 91 93
REMARK SMILES IDX 84 94 85 95 86 96 87 97 88 98 64 99 65 100 74 101 66 102
REMARK SMILES IDX 67 103 73 104 75 105 68 106 69 107 70 108 71 109 72 110
REMARK H PARENT 96 60 62 71
REMARK Flexibility Score: inf
ROOT
ATOM      1  O   UNL     1       4.601   2.052  10.579  1.00  0.00    -0.374 OA
ENDROOT
BRANCH   1   2
ATOM      2  C   UNL     1       3.247   2.357  10.912  1.00  0.00     0.202 C 
BRANCH   2   3
ATOM      3  C   UNL     1       2.260   2.429   9.743  1.00  0.00     0.261 C 
BRANCH   3   4
ATOM      4  O   UNL     1       2.138   1.163   9.076  1.00  0.00    -0.460 OA
BRANCH   4   5
ATOM      5  C   UNL     1       2.743   1.096   7.867  1.00  0.00     0.338 C 
ATOM      6  O   UNL     1       3.272   2.018   7.261  1.00  0.00    -0.246 OA
BRANCH   5   7
ATOM      7  C   UNL     1       2.825  -0.309   7.409  1.00  0.00     0.060 A 
ATOM      8  C   UNL     1       3.026  -2.895   6.322  1.00  0.00     0.060 A 
ATOM      9  C   UNL     1       4.064  -1.970   6.158  1.00  0.00     0.029 A 
ATOM     10  C   UNL     1       1.925  -2.530   7.112  1.00  0.00     0.029 A 
ATOM     11  C   UNL     1       3.954  -0.677   6.670  1.00  0.00     0.018 A 
ATOM     12  C   UNL     1       1.827  -1.250   7.672  1.00  0.00     0.018 A 
BRANCH   8  13
ATOM     13  N   UNL     1       3.051  -4.110   5.643  1.00  0.00    -0.257 N 
ATOM     14  C   UNL     1       2.024  -4.468   4.654  1.00  0.00     0.144 C 
ATOM     15  C   UNL     1       2.635  -5.696   3.967  1.00  0.00     0.091 C 
ATOM     16  C   UNL     1       3.966  -5.760   4.664  1.00  0.00     0.071 C 
ATOM     17  N   UNL     1       4.187  -4.855   5.564  1.00  0.00    -0.176 NA
BRANCH  14  18
ATOM     18  C   UNL     1       1.715  -3.333   3.682  1.00  0.00    -0.019 A 
ATOM     19  C   UNL     1       1.175  -1.117   2.014  1.00  0.00     0.160 A 
ATOM     20  C   UNL     1       0.168  -1.664   2.820  1.00  0.00     0.051 A 
ATOM     21  C   UNL     1       2.460  -1.670   2.031  1.00  0.00     0.161 A 
ATOM     22  C   UNL     1       0.433  -2.768   3.639  1.00  0.00     0.010 A 
ATOM     23  C   UNL     1       2.714  -2.768   2.867  1.00  0.00     0.056 A 
BRANCH  19  24
ATOM     24  O   UNL     1       0.913   0.041   1.332  1.00  0.00    -0.493 OA
ATOM     25  C   UNL     1       0.002  -0.150   0.253  1.00  0.00     0.278 C 
ENDBRANCH  19  24
BRANCH  21  26
ATOM     26  O   UNL     1       3.570  -1.260   1.341  1.00  0.00    -0.493 OA
ATOM     27  C   UNL     1       3.386  -0.373   0.248  1.00  0.00     0.278 C 
ENDBRANCH  21  26
ENDBRANCH  14  18
BRANCH  16  28
ATOM     28  C   UNL     1       4.914  -6.844   4.372  1.00  0.00    -0.002 A 
ATOM     29  C   UNL     1       5.343  -7.655   5.430  1.00  0.00     0.011 A 
ATOM     30  C   UNL     1       5.353  -7.081   3.068  1.00  0.00     0.011 A 
ATOM     31  C   UNL     1       6.197  -8.730   5.179  1.00  0.00     0.021 A 
ATOM     32  C   UNL     1       6.231  -8.140   2.818  1.00  0.00     0.021 A 
ATOM     33  C   UNL     1       6.645  -8.960   3.874  1.00  0.00     0.067 A 
BRANCH  33  34
ATOM     34  S   UNL     1       7.720 -10.341   3.558  1.00  0.00     0.175 S 
ATOM     35  C   UNL     1       9.164 -10.014   4.535  1.00  0.00     0.163 C 
ATOM     36  O   UNL     1       7.062 -11.517   4.091  1.00  0.00    -0.224 OA
ATOM     37  O   UNL     1       8.117 -10.279   2.163  1.00  0.00    -0.224 OA
ENDBRANCH  33  34
ENDBRANCH  16  28
ENDBRANCH   8  13
ENDBRANCH   5   7
ENDBRANCH   4   5
ENDBRANCH   3   4
ENDBRANCH   2   3
ENDBRANCH   1   2
BRANCH   1  38
ATOM     38  C   UNL     1       4.925   0.671  10.403  1.00  0.00     0.202 C 
BRANCH  38  39
ATOM     39  C   UNL     1       5.161  -0.140  11.683  1.00  0.00     0.261 C 
BRANCH  39  40
ATOM     40  O   UNL     1       3.953  -0.303  12.447  1.00  0.00    -0.460 OA
BRANCH  40  41
ATOM     41  C   UNL     1       3.897   0.421  13.588  1.00  0.00     0.338 C 
ATOM     42  O   UNL     1       4.787   1.114  14.066  1.00  0.00    -0.246 OA
BRANCH  41  43
ATOM     43  C   UNL     1       2.522   0.419  14.119  1.00  0.00     0.060 A 
ATOM     44  C   UNL     1       1.951   1.657  14.442  1.00  0.00     0.016 A 
ATOM     45  C   UNL     1       1.820  -0.767  14.349  1.00  0.00     0.016 A 
ATOM     46  C   UNL     1       0.697   1.711  15.046  1.00  0.00     0.010 A 
ATOM     47  C   UNL     1       0.564  -0.710  14.962  1.00  0.00     0.010 A 
ATOM     48  C   UNL     1       0.012   0.526  15.345  1.00  0.00    -0.014 A 
BRANCH  48  49
ATOM     49  C   UNL     1      -1.211   0.576  16.184  1.00  0.00     0.031 A 
ATOM     50  C   UNL     1      -1.107   0.237  17.646  1.00  0.00     0.074 A 
ATOM     51  C   UNL     1      -2.392   0.944  15.656  1.00  0.00     0.049 A 
ATOM     52  N   UNL     1      -2.046   0.185  18.554  1.00  0.00    -0.248 NA
ATOM     53  C   UNL     1       0.237  -0.090  18.149  1.00  0.00     0.031 C 
ATOM     54  C   UNL     1      -2.610   1.332  14.264  1.00  0.00     0.029 A 
ATOM     55  N   UNL     1      -3.633   1.046  16.233  1.00  0.00    -0.354 N 
ATOM     56  C   UNL     1      -1.411  -0.186  19.734  1.00  0.00     0.074 A 
ATOM     57  C   UNL     1      -0.012  -0.378  19.418  1.00  0.00     0.031 C 
ATOM     58  C   UNL     1      -3.911   1.623  14.091  1.00  0.00     0.029 A 
ATOM     59  C   UNL     1      -4.622   1.412  15.351  1.00  0.00     0.049 A 
ATOM     60  H   UNL     1      -3.800   0.873  17.188  1.00  0.00     0.167 HD
ATOM     61  C   UNL     1      -1.944  -0.343  20.970  1.00  0.00     0.037 A 
ATOM     62  C   UNL     1      -5.950   1.542  15.537  1.00  0.00     0.037 A 
ATOM     63  C   UNL     1      -3.338  -0.151  21.277  1.00  0.00     0.049 A 
ATOM     64  C   UNL     1      -6.533   1.298  16.904  1.00  0.00     0.074 A 
ATOM     65  C   UNL     1      -3.974  -0.268  22.500  1.00  0.00     0.029 A 
ATOM     66  N   UNL     1      -4.314   0.189  20.351  1.00  0.00    -0.354 N 
ATOM     67  N   UNL     1      -5.919   0.968  18.016  1.00  0.00    -0.248 NA
ATOM     68  C   UNL     1      -7.989   1.447  17.044  1.00  0.00     0.031 C 
ATOM     69  C   UNL     1      -5.342  -0.048  22.305  1.00  0.00     0.029 A 
ATOM     70  C   UNL     1      -5.551   0.260  20.970  1.00  0.00     0.049 A 
ATOM     71  H   UNL     1      -4.151   0.355  19.394  1.00  0.00     0.167 HD
ATOM     72  C   UNL     1      -6.908   0.897  18.992  1.00  0.00     0.074 A 
ATOM     73  C   UNL     1      -8.160   1.226  18.341  1.00  0.00     0.031 C 
ATOM     74  C   UNL     1      -6.790   0.592  20.309  1.00  0.00     0.037 A 
BRANCH  61  75
ATOM     75  C   UNL     1      -1.017  -0.770  22.075  1.00  0.00     0.058 A 
ATOM     76  C   UNL     1      -0.042   0.093  22.600  1.00  0.00     0.135 A 
ATOM     77  C   UNL     1      -1.115  -2.058  22.627  1.00  0.00     0.135 A 
ATOM     78  F   UNL     1       0.107   1.330  22.099  1.00  0.00    -0.206 F 
ATOM     79  C   UNL     1       0.826  -0.316  23.608  1.00  0.00     0.059 A 
ATOM     80  C   UNL     1      -0.276  -2.479  23.655  1.00  0.00     0.059 A 
ATOM     81  F   UNL     1      -2.029  -2.925  22.163  1.00  0.00    -0.206 F 
ATOM     82  C   UNL     1       0.703  -1.606  24.126  1.00  0.00     0.060 A 
BRANCH  82  83
ATOM     83  S   UNL     1       1.845  -2.128  25.424  1.00  0.00     0.124 S 
ATOM     84  O   UNL     1       3.082  -2.304  24.669  1.00  0.00    -0.237 OA
ATOM     85  O   UNL     1       1.818  -0.992  26.340  1.00  0.00    -0.237 OA
ATOM     86  O   UNL     1       1.242  -3.355  25.935  1.00  0.00    -0.744 OA
ENDBRANCH  82  83
ENDBRANCH  61  75
BRANCH  62  87
ATOM     87  C   UNL     1      -6.822   1.923  14.393  1.00  0.00     0.058 A 
ATOM     88  C   UNL     1      -7.432   3.183  14.335  1.00  0.00     0.135 A 
ATOM     89  C   UNL     1      -7.046   1.037  13.326  1.00  0.00     0.135 A 
ATOM     90  F   UNL     1      -7.258   4.059  15.336  1.00  0.00    -0.206 F 
ATOM     91  C   UNL     1      -8.239   3.554  13.263  1.00  0.00     0.059 A 
ATOM     92  C   UNL     1      -7.829   1.393  12.233  1.00  0.00     0.059 A 
ATOM     93  F   UNL     1      -6.478  -0.178  13.330  1.00  0.00    -0.206 F 
ATOM     94  C   UNL     1      -8.426   2.653  12.213  1.00  0.00     0.060 A 
BRANCH  94  95
ATOM     95  S   UNL     1      -9.421   3.168  10.797  1.00  0.00     0.124 S 
ATOM     96  O   UNL     1     -10.767   3.140  11.357  1.00  0.00    -0.237 OA
ATOM     97  O   UNL     1      -8.877   4.490  10.505  1.00  0.00    -0.237 OA
ATOM     98  O   UNL     1      -9.133   2.145   9.795  1.00  0.00    -0.744 OA
ENDBRANCH  94  95
ENDBRANCH  62  87
BRANCH  74  99
ATOM     99  C   UNL     1      -8.040   0.631  21.147  1.00  0.00     0.058 A 
ATOM    100  C   UNL     1      -9.033  -0.356  21.041  1.00  0.00     0.135 A 
ATOM    101  C   UNL     1      -8.219   1.640  22.107  1.00  0.00     0.135 A 
ATOM    102  F   UNL     1      -8.915  -1.339  20.136  1.00  0.00    -0.206 F 
ATOM    103  C   UNL     1     -10.170  -0.330  21.843  1.00  0.00     0.059 A 
ATOM    104  C   UNL     1      -9.335   1.669  22.938  1.00  0.00     0.059 A 
ATOM    105  F   UNL     1      -7.295   2.602  22.258  1.00  0.00    -0.206 F 
ATOM    106  C   UNL     1     -10.311   0.686  22.791  1.00  0.00     0.060 A 
BRANCH 106 107
ATOM    107  S   UNL     1     -11.775   0.688  23.848  1.00  0.00     0.124 S 
ATOM    108  O   UNL     1     -12.808   1.131  22.918  1.00  0.00    -0.237 OA
ATOM    109  O   UNL     1     -11.858  -0.707  24.270  1.00  0.00    -0.237 OA
ATOM    110  O   UNL     1     -11.431   1.635  24.903  1.00  0.00    -0.744 OA
ENDBRANCH 106 107
ENDBRANCH  74  99
ENDBRANCH  48  49
ENDBRANCH  41  43
ENDBRANCH  40  41
ENDBRANCH  39  40
ENDBRANCH  38  39
ENDBRANCH   1  38
TORSDOF 23
