REMARK SMILES CC[C@](C)(Nc1cccc(Cl)c1C(N)=O)C(=O)OCCOCCOC(=O)c1ccc(-c2c3nc(c(-c4c(F)cc(S(=O)(=O)[O-])cc4F)c4ccc([nH]4)c(-c4c(F)cc(S(=O)(=O)[O-])cc4F)c4nc(c(-c5c(F)cc(S(=O)(=O)[O-])cc5F)c5ccc2[nH]5)C=C4)C=C3)cc1
REMARK SMILES IDX 21 1 20 2 19 3 18 4 16 5 17 6 3 7 4 8 2 9 1 10 5 11 6 13
REMARK SMILES IDX 7 14 12 15 8 16 10 17 9 18 11 19 13 20 14 21 15 22 22 25
REMARK SMILES IDX 23 26 24 27 25 28 26 29 27 30 28 31 92 32 29 33 91 34 30 35
REMARK SMILES IDX 31 36 32 37 85 38 33 39 90 40 84 41 86 42 34 43 89 44 83 45
REMARK SMILES IDX 82 46 35 48 69 49 48 50 68 51 49 52 52 53 67 54 87 55 50 56
REMARK SMILES IDX 51 57 66 59 88 60 53 61 36 62 37 63 46 64 38 65 39 66 45 67
REMARK SMILES IDX 47 68 40 69 41 70 42 71 43 72 44 73 70 74 71 75 80 76 72 77
REMARK SMILES IDX 73 78 79 79 81 80 74 81 75 82 76 83 77 84 78 85 54 86 55 87
REMARK SMILES IDX 64 88 56 89 57 90 63 91 65 92 58 93 59 94 60 95 61 96 62 97
REMARK H PARENT 5 12 14 23 14 24 86 47 52 58
REMARK Flexibility Score: inf
ROOT
ATOM      1  O   UNL     1       4.913  -0.783   2.606  1.00  0.00    -0.374 OA
ENDROOT
BRANCH   1   2
ATOM      2  C   UNL     1       5.130   0.509   3.178  1.00  0.00     0.202 C 
BRANCH   2   3
ATOM      3  C   UNL     1       4.315   1.640   2.554  1.00  0.00     0.261 C 
BRANCH   3   4
ATOM      4  O   UNL     1       2.913   1.487   2.860  1.00  0.00    -0.462 OA
BRANCH   4   5
ATOM      5  C   UNL     1       2.167   0.936   1.875  1.00  0.00     0.331 C 
ATOM      6  O   UNL     1       2.617   0.701   0.753  1.00  0.00    -0.249 OA
BRANCH   5   7
ATOM      7  C   UNL     1       0.667   0.741   2.210  1.00  0.00     0.133 C 
ATOM      8  C   UNL     1       0.235  -0.433   1.285  1.00  0.00     0.047 C 
BRANCH   7   9
ATOM      9  C   UNL     1      -0.033   2.094   1.884  1.00  0.00     0.037 C 
ATOM     10  C   UNL     1      -0.782   2.144   0.559  1.00  0.00     0.007 C 
ENDBRANCH   7   9
BRANCH   7  11
ATOM     11  N   UNL     1       0.187   0.300   3.568  1.00  0.00    -0.369 N 
ATOM     12  H   UNL     1      -0.787   0.160   3.609  1.00  0.00     0.161 HD
BRANCH  11  13
ATOM     13  C   UNL     1       0.827   0.048   4.776  1.00  0.00     0.049 A 
ATOM     14  C   UNL     1       1.545   1.094   5.379  1.00  0.00     0.026 A 
ATOM     15  C   UNL     1       0.560  -1.125   5.569  1.00  0.00     0.081 A 
ATOM     16  C   UNL     1       2.049   0.995   6.672  1.00  0.00     0.004 A 
ATOM     17  C   UNL     1       1.155  -1.243   6.846  1.00  0.00     0.055 A 
ATOM     18  C   UNL     1       1.855  -0.170   7.398  1.00  0.00     0.021 A 
ATOM     19  Cl  UNL     1       1.131  -2.664   7.841  1.00  0.00    -0.083 Cl
BRANCH  15  20
ATOM     20  C   UNL     1      -0.413  -2.205   5.143  1.00  0.00     0.252 C 
ATOM     21  N   UNL     1      -1.039  -2.068   3.942  1.00  0.00    -0.365 N 
ATOM     22  O   UNL     1      -0.726  -3.179   5.815  1.00  0.00    -0.269 OA
ATOM     23  H   UNL     1      -0.826  -1.303   3.360  1.00  0.00     0.159 HD
ATOM     24  H   UNL     1      -1.705  -2.734   3.656  1.00  0.00     0.159 HD
ENDBRANCH  15  20
ENDBRANCH  11  13
ENDBRANCH   7  11
ENDBRANCH   5   7
ENDBRANCH   4   5
ENDBRANCH   3   4
ENDBRANCH   2   3
ENDBRANCH   1   2
BRANCH   1  25
ATOM     25  C   UNL     1       3.853  -1.552   3.178  1.00  0.00     0.202 C 
BRANCH  25  26
ATOM     26  C   UNL     1       4.202  -2.322   4.457  1.00  0.00     0.261 C 
BRANCH  26  27
ATOM     27  O   UNL     1       4.514  -1.435   5.543  1.00  0.00    -0.460 OA
BRANCH  27  28
ATOM     28  C   UNL     1       5.840  -1.263   5.782  1.00  0.00     0.338 C 
ATOM     29  O   UNL     1       6.761  -1.858   5.259  1.00  0.00    -0.246 OA
BRANCH  28  30
ATOM     30  C   UNL     1       6.029  -0.079   6.652  1.00  0.00     0.060 A 
ATOM     31  C   UNL     1       7.073   0.801   6.358  1.00  0.00     0.016 A 
ATOM     32  C   UNL     1       5.209   0.162   7.753  1.00  0.00     0.016 A 
ATOM     33  C   UNL     1       7.356   1.860   7.223  1.00  0.00     0.010 A 
ATOM     34  C   UNL     1       5.434   1.275   8.567  1.00  0.00     0.010 A 
ATOM     35  C   UNL     1       6.572   2.074   8.368  1.00  0.00    -0.014 A 
BRANCH  35  36
ATOM     36  C   UNL     1       7.085   2.948   9.463  1.00  0.00     0.031 A 
ATOM     37  C   UNL     1       7.471   2.309  10.783  1.00  0.00     0.074 A 
ATOM     38  C   UNL     1       7.274   4.270   9.281  1.00  0.00     0.049 A 
ATOM     39  N   UNL     1       7.998   2.856  11.850  1.00  0.00    -0.248 NA
ATOM     40  C   UNL     1       7.202   0.869  10.934  1.00  0.00     0.031 C 
ATOM     41  C   UNL     1       6.924   5.021   8.074  1.00  0.00     0.029 A 
ATOM     42  N   UNL     1       7.824   5.217  10.111  1.00  0.00    -0.354 N 
ATOM     43  C   UNL     1       8.097   1.833  12.791  1.00  0.00     0.074 A 
ATOM     44  C   UNL     1       7.501   0.658  12.204  1.00  0.00     0.031 C 
ATOM     45  C   UNL     1       7.301   6.303   8.229  1.00  0.00     0.029 A 
ATOM     46  C   UNL     1       7.901   6.472   9.551  1.00  0.00     0.049 A 
ATOM     47  H   UNL     1       8.136   5.016  11.024  1.00  0.00     0.167 HD
ATOM     48  C   UNL     1       8.671   1.848  14.017  1.00  0.00     0.037 A 
ATOM     49  C   UNL     1       8.412   7.620  10.042  1.00  0.00     0.037 A 
ATOM     50  C   UNL     1       9.316   3.001  14.582  1.00  0.00     0.049 A 
ATOM     51  C   UNL     1       9.059   7.614  11.405  1.00  0.00     0.074 A 
ATOM     52  C   UNL     1       9.985   3.110  15.787  1.00  0.00     0.029 A 
ATOM     53  N   UNL     1       9.376   4.247  13.975  1.00  0.00    -0.354 N 
ATOM     54  N   UNL     1       9.201   6.620  12.251  1.00  0.00    -0.248 NA
ATOM     55  C   UNL     1       9.637   8.883  11.871  1.00  0.00     0.031 C 
ATOM     56  C   UNL     1      10.402   4.436  15.935  1.00  0.00     0.029 A 
ATOM     57  C   UNL     1      10.053   5.136  14.791  1.00  0.00     0.049 A 
ATOM     58  H   UNL     1       8.995   4.466  13.094  1.00  0.00     0.167 HD
ATOM     59  C   UNL     1       9.920   7.134  13.327  1.00  0.00     0.074 A 
ATOM     60  C   UNL     1      10.191   8.523  13.020  1.00  0.00     0.031 C 
ATOM     61  C   UNL     1      10.327   6.512  14.463  1.00  0.00     0.037 A 
BRANCH  48  62
ATOM     62  C   UNL     1       8.629   0.577  14.827  1.00  0.00     0.058 A 
ATOM     63  C   UNL     1       9.342  -0.574  14.448  1.00  0.00     0.135 A 
ATOM     64  C   UNL     1       7.878   0.515  16.012  1.00  0.00     0.135 A 
ATOM     65  F   UNL     1      10.062  -0.581  13.314  1.00  0.00    -0.206 F 
ATOM     66  C   UNL     1       9.282  -1.748  15.191  1.00  0.00     0.059 A 
ATOM     67  C   UNL     1       7.833  -0.637  16.791  1.00  0.00     0.059 A 
ATOM     68  F   UNL     1       7.175   1.582  16.423  1.00  0.00    -0.206 F 
ATOM     69  C   UNL     1       8.526  -1.769  16.364  1.00  0.00     0.060 A 
BRANCH  69  70
ATOM     70  S   UNL     1       8.468  -3.296  17.324  1.00  0.00     0.124 S 
ATOM     71  O   UNL     1       7.643  -4.146  16.471  1.00  0.00    -0.237 OA
ATOM     72  O   UNL     1       9.878  -3.663  17.410  1.00  0.00    -0.237 OA
ATOM     73  O   UNL     1       7.853  -2.884  18.582  1.00  0.00    -0.744 OA
ENDBRANCH  69  70
ENDBRANCH  48  62
BRANCH  49  74
ATOM     74  C   UNL     1       8.377   8.866   9.225  1.00  0.00     0.058 A 
ATOM     75  C   UNL     1       9.555   9.430   8.709  1.00  0.00     0.135 A 
ATOM     76  C   UNL     1       7.168   9.522   8.947  1.00  0.00     0.135 A 
ATOM     77  F   UNL     1      10.740   8.848   8.953  1.00  0.00    -0.206 F 
ATOM     78  C   UNL     1       9.539  10.606   7.965  1.00  0.00     0.059 A 
ATOM     79  C   UNL     1       7.123  10.684   8.181  1.00  0.00     0.059 A 
ATOM     80  F   UNL     1       6.011   9.020   9.404  1.00  0.00    -0.206 F 
ATOM     81  C   UNL     1       8.316  11.224   7.703  1.00  0.00     0.060 A 
BRANCH  81  82
ATOM     82  S   UNL     1       8.301  12.721   6.691  1.00  0.00     0.124 S 
ATOM     83  O   UNL     1       8.891  13.697   7.598  1.00  0.00    -0.237 OA
ATOM     84  O   UNL     1       9.124  12.326   5.552  1.00  0.00    -0.237 OA
ATOM     85  O   UNL     1       6.884  12.910   6.393  1.00  0.00    -0.744 OA
ENDBRANCH  81  82
ENDBRANCH  49  74
BRANCH  61  86
ATOM     86  C   UNL     1      11.161   7.306  15.433  1.00  0.00     0.058 A 
ATOM     87  C   UNL     1      10.626   8.358  16.191  1.00  0.00     0.135 A 
ATOM     88  C   UNL     1      12.513   6.976  15.632  1.00  0.00     0.135 A 
ATOM     89  F   UNL     1       9.340   8.713  16.043  1.00  0.00    -0.206 F 
ATOM     90  C   UNL     1      11.412   9.085  17.080  1.00  0.00     0.059 A 
ATOM     91  C   UNL     1      13.308   7.667  16.541  1.00  0.00     0.059 A 
ATOM     92  F   UNL     1      13.072   5.966  14.948  1.00  0.00    -0.206 F 
ATOM     93  C   UNL     1      12.753   8.733  17.245  1.00  0.00     0.060 A 
BRANCH  93  94
ATOM     94  S   UNL     1      13.762   9.684  18.400  1.00  0.00     0.124 S 
ATOM     95  O   UNL     1      13.947  10.933  17.668  1.00  0.00    -0.237 OA
ATOM     96  O   UNL     1      12.902   9.760  19.577  1.00  0.00    -0.237 OA
ATOM     97  O   UNL     1      14.961   8.867  18.559  1.00  0.00    -0.744 OA
ENDBRANCH  93  94
ENDBRANCH  61  86
ENDBRANCH  35  36
ENDBRANCH  28  30
ENDBRANCH  27  28
ENDBRANCH  26  27
ENDBRANCH  25  26
ENDBRANCH   1  25
TORSDOF 21
