REMARK SMILES Cc1ccccc1-c1c(Cl)ccc2c1C=C(C(=O)OCCOCCOC(=O)c1ccc(-c3c4nc(c(-c5c(F)cc(S(=O)(=O)[O-])cc5F)c5ccc([nH]5)c(-c5c(F)cc(S(=O)(=O)[O-])cc5F)c5nc(c(-c6c(F)cc(S(=O)(=O)[O-])cc6F)c6ccc3[nH]6)C=C5)C=C4)cc1)[C@@H](C(F)(F)F)O2
REMARK SMILES IDX 23 1 22 2 21 3 20 4 19 5 17 6 18 7 16 8 8 9 9 10 14 11 10 12
REMARK SMILES IDX 11 13 13 14 15 15 12 16 99 17 94 18 7 19 1 20 2 21 3 22 4 23
REMARK SMILES IDX 6 24 5 25 95 26 96 27 97 28 98 29 24 30 25 31 26 32 27 33
REMARK SMILES IDX 28 34 29 35 93 36 30 37 92 38 31 39 32 40 33 41 86 42 34 43
REMARK SMILES IDX 91 44 85 45 87 46 35 47 90 48 84 49 83 50 36 52 70 53 49 54
REMARK SMILES IDX 69 55 50 56 53 57 68 58 88 59 51 60 52 61 67 63 89 64 54 65
REMARK SMILES IDX 37 66 38 67 47 68 39 69 40 70 46 71 48 72 41 73 42 74 43 75
REMARK SMILES IDX 44 76 45 77 71 78 72 79 81 80 73 81 74 82 80 83 82 84 75 85
REMARK SMILES IDX 76 86 77 87 78 88 79 89 55 90 56 91 65 92 57 93 58 94 64 95
REMARK SMILES IDX 66 96 59 97 60 98 61 99 62 100 63 101
REMARK H PARENT 87 51 53 62
REMARK Flexibility Score: inf
ROOT
ATOM      1  C   UNL     1       7.599   2.528  -5.126  1.00  0.00     0.202 C 
ENDROOT
BRANCH   1   2
ATOM      2  O   UNL     1       6.912   2.046  -3.980  1.00  0.00    -0.374 OA
BRANCH   2   3
ATOM      3  C   UNL     1       6.707   0.628  -3.950  1.00  0.00     0.202 C 
BRANCH   3   4
ATOM      4  C   UNL     1       5.677   0.329  -2.877  1.00  0.00     0.261 C 
BRANCH   4   5
ATOM      5  O   UNL     1       4.387   0.886  -3.219  1.00  0.00    -0.460 OA
BRANCH   5   6
ATOM      6  C   UNL     1       4.173   2.118  -2.709  1.00  0.00     0.338 C 
ATOM      7  O   UNL     1       4.910   2.741  -1.958  1.00  0.00    -0.246 OA
BRANCH   6   8
ATOM      8  C   UNL     1       2.893   2.712  -3.155  1.00  0.00     0.087 C 
ATOM      9  C   UNL     1       0.441   2.648  -0.409  1.00  0.00     0.012 A 
ATOM     10  C   UNL     1       0.246   3.527   0.694  1.00  0.00     0.049 A 
ATOM     11  C   UNL     1       1.259   3.122  -1.478  1.00  0.00     0.027 A 
ATOM     12  Cl  UNL     1      -0.633   3.051   2.116  1.00  0.00    -0.084 Cl
ATOM     13  C   UNL     1       0.767   4.825   0.711  1.00  0.00     0.025 A 
ATOM     14  C   UNL     1       1.742   4.454  -1.450  1.00  0.00     0.128 A 
ATOM     15  C   UNL     1       1.821   2.220  -2.514  1.00  0.00     0.028 C 
ATOM     16  C   UNL     1       1.492   5.296  -0.371  1.00  0.00     0.049 A 
ATOM     17  O   UNL     1       2.523   5.027  -2.421  1.00  0.00    -0.475 OA
ATOM     18  C   UNL     1       3.013   4.172  -3.467  1.00  0.00     0.316 C 
BRANCH   9  19
ATOM     19  C   UNL     1      -0.281   1.336  -0.446  1.00  0.00    -0.013 A 
ATOM     20  C   UNL     1       1.792  -0.195  -0.266  1.00  0.00     0.045 C 
ATOM     21  C   UNL     1       0.316   0.056  -0.380  1.00  0.00    -0.043 A 
ATOM     22  C   UNL     1      -0.489  -1.102  -0.397  1.00  0.00     0.004 A 
ATOM     23  C   UNL     1      -1.876  -1.018  -0.434  1.00  0.00     0.000 A 
ATOM     24  C   UNL     1      -1.694   1.382  -0.503  1.00  0.00     0.009 A 
ATOM     25  C   UNL     1      -2.481   0.228  -0.476  1.00  0.00     0.001 A 
ENDBRANCH   9  19
BRANCH  18  26
ATOM     26  C   UNL     1       2.319   4.487  -4.796  1.00  0.00     0.430 C 
ATOM     27  F   UNL     1       2.583   5.751  -5.209  1.00  0.00    -0.167 F 
ATOM     28  F   UNL     1       2.747   3.664  -5.789  1.00  0.00    -0.167 F 
ATOM     29  F   UNL     1       0.973   4.359  -4.731  1.00  0.00    -0.167 F 
ENDBRANCH  18  26
ENDBRANCH   6   8
ENDBRANCH   5   6
ENDBRANCH   4   5
ENDBRANCH   3   4
ENDBRANCH   2   3
ENDBRANCH   1   2
BRANCH   1  30
ATOM     30  C   UNL     1       9.012   1.963  -5.324  1.00  0.00     0.261 C 
BRANCH  30  31
ATOM     31  O   UNL     1       9.961   2.627  -4.470  1.00  0.00    -0.460 OA
BRANCH  31  32
ATOM     32  C   UNL     1      10.508   1.831  -3.510  1.00  0.00     0.338 C 
ATOM     33  O   UNL     1      11.493   1.132  -3.687  1.00  0.00    -0.246 OA
BRANCH  32  34
ATOM     34  C   UNL     1       9.788   2.004  -2.225  1.00  0.00     0.060 A 
ATOM     35  C   UNL     1       9.833   1.015  -1.230  1.00  0.00     0.016 A 
ATOM     36  C   UNL     1       8.978   3.126  -2.057  1.00  0.00     0.016 A 
ATOM     37  C   UNL     1       9.007   1.117  -0.101  1.00  0.00     0.010 A 
ATOM     38  C   UNL     1       8.115   3.185  -0.986  1.00  0.00     0.010 A 
ATOM     39  C   UNL     1       8.126   2.193   0.005  1.00  0.00    -0.014 A 
BRANCH  39  40
ATOM     40  C   UNL     1       7.132   2.403   1.056  1.00  0.00     0.031 A 
ATOM     41  C   UNL     1       7.205   3.607   1.927  1.00  0.00     0.074 A 
ATOM     42  C   UNL     1       5.975   1.709   1.012  1.00  0.00     0.049 A 
ATOM     43  N   UNL     1       6.415   3.850   2.919  1.00  0.00    -0.248 NA
ATOM     44  C   UNL     1       8.208   4.650   1.754  1.00  0.00     0.031 C 
ATOM     45  C   UNL     1       4.692   2.129   1.558  1.00  0.00     0.029 A 
ATOM     46  N   UNL     1       5.755   0.394   0.593  1.00  0.00    -0.354 N 
ATOM     47  C   UNL     1       6.535   5.184   3.245  1.00  0.00     0.074 A 
ATOM     48  C   UNL     1       7.742   5.600   2.570  1.00  0.00     0.031 C 
ATOM     49  C   UNL     1       3.937   1.046   1.761  1.00  0.00     0.029 A 
ATOM     50  C   UNL     1       4.738  -0.112   1.412  1.00  0.00     0.049 A 
ATOM     51  H   UNL     1       6.221  -0.081  -0.133  1.00  0.00     0.167 HD
ATOM     52  C   UNL     1       5.508   5.789   3.920  1.00  0.00     0.037 A 
ATOM     53  C   UNL     1       4.875  -1.244   2.147  1.00  0.00     0.037 A 
ATOM     54  C   UNL     1       4.490   4.795   4.312  1.00  0.00     0.049 A 
ATOM     55  C   UNL     1       4.580  -0.927   3.576  1.00  0.00     0.074 A 
ATOM     56  C   UNL     1       3.216   4.516   3.844  1.00  0.00     0.029 A 
ATOM     57  N   UNL     1       4.841   3.718   5.134  1.00  0.00    -0.354 N 
ATOM     58  N   UNL     1       4.812   0.255   4.084  1.00  0.00    -0.248 NA
ATOM     59  C   UNL     1       3.849  -1.807   4.481  1.00  0.00     0.031 C 
ATOM     60  C   UNL     1       2.833   3.240   4.330  1.00  0.00     0.029 A 
ATOM     61  C   UNL     1       3.864   2.740   5.112  1.00  0.00     0.049 A 
ATOM     62  H   UNL     1       5.673   3.663   5.659  1.00  0.00     0.167 HD
ATOM     63  C   UNL     1       4.146   0.356   5.268  1.00  0.00     0.074 A 
ATOM     64  C   UNL     1       3.626  -0.980   5.519  1.00  0.00     0.031 C 
ATOM     65  C   UNL     1       3.952   1.534   5.924  1.00  0.00     0.037 A 
BRANCH  52  66
ATOM     66  C   UNL     1       5.269   7.304   3.996  1.00  0.00     0.058 A 
ATOM     67  C   UNL     1       3.988   7.833   4.294  1.00  0.00     0.135 A 
ATOM     68  C   UNL     1       6.237   8.300   3.745  1.00  0.00     0.135 A 
ATOM     69  F   UNL     1       2.963   7.041   4.638  1.00  0.00    -0.206 F 
ATOM     70  C   UNL     1       3.684   9.202   4.264  1.00  0.00     0.059 A 
ATOM     71  C   UNL     1       5.951   9.670   3.668  1.00  0.00     0.059 A 
ATOM     72  F   UNL     1       7.535   8.014   3.627  1.00  0.00    -0.206 F 
ATOM     73  C   UNL     1       4.669  10.117   3.927  1.00  0.00     0.060 A 
BRANCH  73  74
ATOM     74  S   UNL     1       4.274  11.875   3.877  1.00  0.00     0.124 S 
ATOM     75  O   UNL     1       3.204  11.922   2.885  1.00  0.00    -0.237 OA
ATOM     76  O   UNL     1       3.876  12.139   5.255  1.00  0.00    -0.237 OA
ATOM     77  O   UNL     1       5.529  12.496   3.462  1.00  0.00    -0.744 OA
ENDBRANCH  73  74
ENDBRANCH  52  66
BRANCH  53  78
ATOM     78  C   UNL     1       5.789  -2.238   1.527  1.00  0.00     0.058 A 
ATOM     79  C   UNL     1       5.291  -2.889   0.377  1.00  0.00     0.135 A 
ATOM     80  C   UNL     1       7.184  -2.144   1.655  1.00  0.00     0.135 A 
ATOM     81  F   UNL     1       3.964  -3.001   0.196  1.00  0.00    -0.206 F 
ATOM     82  C   UNL     1       6.120  -3.266  -0.676  1.00  0.00     0.059 A 
ATOM     83  C   UNL     1       8.035  -2.519   0.607  1.00  0.00     0.059 A 
ATOM     84  F   UNL     1       7.724  -1.538   2.722  1.00  0.00    -0.206 F 
ATOM     85  C   UNL     1       7.486  -3.014  -0.578  1.00  0.00     0.060 A 
BRANCH  85  86
ATOM     86  S   UNL     1       8.474  -3.103  -2.095  1.00  0.00     0.124 S 
ATOM     87  O   UNL     1       8.650  -4.541  -2.258  1.00  0.00    -0.237 OA
ATOM     88  O   UNL     1       7.597  -2.458  -3.072  1.00  0.00    -0.237 OA
ATOM     89  O   UNL     1       9.675  -2.347  -1.761  1.00  0.00    -0.744 OA
ENDBRANCH  85  86
ENDBRANCH  53  78
BRANCH  65  90
ATOM     90  C   UNL     1       3.671   1.599   7.395  1.00  0.00     0.058 A 
ATOM     91  C   UNL     1       4.174   0.635   8.288  1.00  0.00     0.135 A 
ATOM     92  C   UNL     1       3.068   2.734   7.975  1.00  0.00     0.135 A 
ATOM     93  F   UNL     1       4.851  -0.438   7.852  1.00  0.00    -0.206 F 
ATOM     94  C   UNL     1       4.043   0.762   9.665  1.00  0.00     0.059 A 
ATOM     95  C   UNL     1       2.970   2.903   9.352  1.00  0.00     0.059 A 
ATOM     96  F   UNL     1       2.579   3.732   7.224  1.00  0.00    -0.206 F 
ATOM     97  C   UNL     1       3.446   1.903  10.188  1.00  0.00     0.060 A 
BRANCH  97  98
ATOM     98  S   UNL     1       3.362   2.104  11.973  1.00  0.00     0.124 S 
ATOM     99  O   UNL     1       2.114   1.416  12.283  1.00  0.00    -0.237 OA
ATOM    100  O   UNL     1       4.580   1.438  12.429  1.00  0.00    -0.237 OA
ATOM    101  O   UNL     1       3.349   3.553  12.146  1.00  0.00    -0.744 OA
ENDBRANCH  97  98
ENDBRANCH  65  90
ENDBRANCH  39  40
ENDBRANCH  32  34
ENDBRANCH  31  32
ENDBRANCH  30  31
ENDBRANCH   1  30
TORSDOF 19
