REMARK SMILES N#C[C@H]1CN(c2cc(C(=O)OCCOCCOC(=O)c3ccc(-c4c5nc(c(-c6c(F)cc(S(=O)(=O)[O-])cc6F)c6ccc([nH]6)c(-c6c(F)cc(S(=O)(=O)[O-])cc6F)c6nc(c(-c7c(F)cc(S(=O)(=O)[O-])cc7F)c7ccc4[nH]7)C=C6)C=C5)cc3)c(N)cc2F)CCO1
REMARK SMILES IDX 15 1 14 2 13 3 12 4 11 5 9 6 10 7 8 8 6 9 7 10 89 11 88 12
REMARK SMILES IDX 90 13 86 14 5 15 3 16 4 17 93 18 92 19 91 20 2 21 1 22 87 23
REMARK SMILES IDX 16 26 17 27 18 28 19 29 20 30 21 31 85 32 22 33 84 34 23 35
REMARK SMILES IDX 24 36 25 37 78 38 26 39 83 40 77 41 79 42 27 43 82 44 76 45
REMARK SMILES IDX 75 46 28 48 62 49 41 50 61 51 42 52 45 53 60 54 80 55 43 56
REMARK SMILES IDX 44 57 59 59 81 60 46 61 29 62 30 63 39 64 31 65 32 66 38 67
REMARK SMILES IDX 40 68 33 69 34 70 35 71 36 72 37 73 63 74 64 75 73 76 65 77
REMARK SMILES IDX 66 78 72 79 74 80 67 81 68 82 69 83 70 84 71 85 47 86 48 87
REMARK SMILES IDX 57 88 49 89 50 90 56 91 58 92 51 93 52 94 53 95 54 96 55 97
REMARK H PARENT 87 24 87 25 79 47 45 58
REMARK Flexibility Score: inf
ROOT
ATOM      1  C   UNL     1       3.536   6.368  -3.281  1.00  0.00     0.202 C 
ENDROOT
BRANCH   1   2
ATOM      2  O   UNL     1       4.418   7.163  -4.070  1.00  0.00    -0.374 OA
BRANCH   2   3
ATOM      3  C   UNL     1       4.024   7.501  -5.398  1.00  0.00     0.202 C 
BRANCH   3   4
ATOM      4  C   UNL     1       4.082   6.417  -6.478  1.00  0.00     0.261 C 
BRANCH   4   5
ATOM      5  O   UNL     1       3.279   5.279  -6.137  1.00  0.00    -0.460 OA
BRANCH   5   6
ATOM      6  C   UNL     1       3.989   4.179  -5.777  1.00  0.00     0.340 C 
ATOM      7  O   UNL     1       5.204   4.056  -5.823  1.00  0.00    -0.246 OA
BRANCH   6   8
ATOM      8  C   UNL     1       3.119   3.173  -5.113  1.00  0.00     0.085 A 
ATOM      9  C   UNL     1       3.097   1.387  -3.447  1.00  0.00     0.074 A 
ATOM     10  C   UNL     1       3.745   2.442  -4.081  1.00  0.00     0.047 A 
ATOM     11  C   UNL     1       1.797   1.085  -3.873  1.00  0.00     0.148 A 
ATOM     12  C   UNL     1       1.142   1.841  -4.846  1.00  0.00     0.067 A 
ATOM     13  F   UNL     1       1.150   0.042  -3.328  1.00  0.00    -0.205 F 
ATOM     14  C   UNL     1       1.776   2.930  -5.453  1.00  0.00     0.049 A 
BRANCH   9  15
ATOM     15  N   UNL     1       3.743   0.630  -2.502  1.00  0.00    -0.363 N 
ATOM     16  C   UNL     1       3.715   0.101  -0.106  1.00  0.00     0.240 C 
ATOM     17  C   UNL     1       4.131   1.135  -1.183  1.00  0.00     0.164 C 
ATOM     18  O   UNL     1       4.228  -1.220  -0.425  1.00  0.00    -0.360 OA
ATOM     19  C   UNL     1       3.729  -1.667  -1.700  1.00  0.00     0.183 C 
ATOM     20  C   UNL     1       4.165  -0.729  -2.831  1.00  0.00     0.145 C 
BRANCH  16  21
ATOM     21  C   UNL     1       4.207   0.521   1.217  1.00  0.00     0.096 C 
ATOM     22  N   UNL     1       4.582   0.865   2.264  1.00  0.00    -0.195 NA
ENDBRANCH  16  21
ENDBRANCH   9  15
BRANCH  14  23
ATOM     23  N   UNL     1       1.100   3.614  -6.457  1.00  0.00    -0.398 N 
ATOM     24  H   UNL     1       1.525   4.383  -6.900  1.00  0.00     0.156 HD
ATOM     25  H   UNL     1       0.197   3.328  -6.725  1.00  0.00     0.156 HD
ENDBRANCH  14  23
ENDBRANCH   6   8
ENDBRANCH   5   6
ENDBRANCH   4   5
ENDBRANCH   3   4
ENDBRANCH   2   3
ENDBRANCH   1   2
BRANCH   1  26
ATOM     26  C   UNL     1       2.223   6.979  -2.772  1.00  0.00     0.261 C 
BRANCH  26  27
ATOM     27  O   UNL     1       1.351   7.442  -3.814  1.00  0.00    -0.460 OA
BRANCH  27  28
ATOM     28  C   UNL     1       1.313   8.792  -3.954  1.00  0.00     0.338 C 
ATOM     29  O   UNL     1       1.913   9.620  -3.290  1.00  0.00    -0.246 OA
BRANCH  28  30
ATOM     30  C   UNL     1       0.571   9.135  -5.179  1.00  0.00     0.060 A 
ATOM     31  C   UNL     1       1.246   9.835  -6.189  1.00  0.00     0.016 A 
ATOM     32  C   UNL     1      -0.782   8.823  -5.310  1.00  0.00     0.016 A 
ATOM     33  C   UNL     1       0.561  10.244  -7.330  1.00  0.00     0.010 A 
ATOM     34  C   UNL     1      -1.468   9.244  -6.452  1.00  0.00     0.010 A 
ATOM     35  C   UNL     1      -0.807   9.974  -7.457  1.00  0.00    -0.014 A 
BRANCH  35  36
ATOM     36  C   UNL     1      -1.579  10.526  -8.596  1.00  0.00     0.031 A 
ATOM     37  C   UNL     1      -2.504  11.688  -8.367  1.00  0.00     0.074 A 
ATOM     38  C   UNL     1      -1.466   9.980  -9.819  1.00  0.00     0.049 A 
ATOM     39  N   UNL     1      -3.331  12.266  -9.199  1.00  0.00    -0.248 NA
ATOM     40  C   UNL     1      -2.501  12.268  -7.016  1.00  0.00     0.031 C 
ATOM     41  C   UNL     1      -0.567   8.882 -10.173  1.00  0.00     0.029 A 
ATOM     42  N   UNL     1      -2.120  10.270 -10.989  1.00  0.00    -0.354 N 
ATOM     43  C   UNL     1      -3.957  13.272  -8.472  1.00  0.00     0.074 A 
ATOM     44  C   UNL     1      -3.443  13.193  -7.120  1.00  0.00     0.031 C 
ATOM     45  C   UNL     1      -0.726   8.592 -11.474  1.00  0.00     0.029 A 
ATOM     46  C   UNL     1      -1.771   9.448 -12.032  1.00  0.00     0.049 A 
ATOM     47  H   UNL     1      -2.778  10.998 -11.073  1.00  0.00     0.167 HD
ATOM     48  C   UNL     1      -4.870  14.180  -8.895  1.00  0.00     0.037 A 
ATOM     49  C   UNL     1      -2.255   9.380 -13.288  1.00  0.00     0.037 A 
ATOM     50  C   UNL     1      -5.388  14.231 -10.239  1.00  0.00     0.049 A 
ATOM     51  C   UNL     1      -3.348  10.326 -13.709  1.00  0.00     0.074 A 
ATOM     52  C   UNL     1      -6.304  15.118 -10.776  1.00  0.00     0.029 A 
ATOM     53  N   UNL     1      -5.050  13.346 -11.255  1.00  0.00    -0.354 N 
ATOM     54  N   UNL     1      -3.915  11.290 -13.022  1.00  0.00    -0.248 NA
ATOM     55  C   UNL     1      -3.869  10.172 -15.074  1.00  0.00     0.031 C 
ATOM     56  C   UNL     1      -6.576  14.724 -12.091  1.00  0.00     0.029 A 
ATOM     57  C   UNL     1      -5.772  13.639 -12.402  1.00  0.00     0.049 A 
ATOM     58  H   UNL     1      -4.394  12.616 -11.172  1.00  0.00     0.167 HD
ATOM     59  C   UNL     1      -4.836  11.880 -13.883  1.00  0.00     0.074 A 
ATOM     60  C   UNL     1      -4.744  11.167 -15.141  1.00  0.00     0.031 C 
ATOM     61  C   UNL     1      -5.676  12.920 -13.652  1.00  0.00     0.037 A 
BRANCH  48  62
ATOM     62  C   UNL     1      -5.398  15.156  -7.874  1.00  0.00     0.058 A 
ATOM     63  C   UNL     1      -4.578  16.132  -7.281  1.00  0.00     0.135 A 
ATOM     64  C   UNL     1      -6.742  15.105  -7.468  1.00  0.00     0.135 A 
ATOM     65  F   UNL     1      -3.283  16.226  -7.622  1.00  0.00    -0.206 F 
ATOM     66  C   UNL     1      -5.053  16.975  -6.281  1.00  0.00     0.059 A 
ATOM     67  C   UNL     1      -7.249  15.965  -6.498  1.00  0.00     0.059 A 
ATOM     68  F   UNL     1      -7.577  14.200  -8.002  1.00  0.00    -0.206 F 
ATOM     69  C   UNL     1      -6.389  16.877  -5.889  1.00  0.00     0.060 A 
BRANCH  69  70
ATOM     70  S   UNL     1      -6.975  17.939  -4.552  1.00  0.00     0.124 S 
ATOM     71  O   UNL     1      -6.295  17.355  -3.400  1.00  0.00    -0.237 OA
ATOM     72  O   UNL     1      -6.500  19.254  -4.968  1.00  0.00    -0.237 OA
ATOM     73  O   UNL     1      -8.423  17.758  -4.583  1.00  0.00    -0.744 OA
ENDBRANCH  69  70
ENDBRANCH  48  62
BRANCH  49  74
ATOM     74  C   UNL     1      -1.689   8.389 -14.241  1.00  0.00     0.058 A 
ATOM     75  C   UNL     1      -0.916   8.811 -15.332  1.00  0.00     0.135 A 
ATOM     76  C   UNL     1      -1.871   7.008 -14.063  1.00  0.00     0.135 A 
ATOM     77  F   UNL     1      -0.725  10.121 -15.552  1.00  0.00    -0.206 F 
ATOM     78  C   UNL     1      -0.339   7.902 -16.212  1.00  0.00     0.059 A 
ATOM     79  C   UNL     1      -1.282   6.078 -14.913  1.00  0.00     0.059 A 
ATOM     80  F   UNL     1      -2.596   6.552 -13.029  1.00  0.00    -0.206 F 
ATOM     81  C   UNL     1      -0.517   6.536 -15.985  1.00  0.00     0.060 A 
BRANCH  81  82
ATOM     82  S   UNL     1       0.312   5.368 -17.084  1.00  0.00     0.124 S 
ATOM     83  O   UNL     1      -0.410   5.574 -18.334  1.00  0.00    -0.237 OA
ATOM     84  O   UNL     1       1.689   5.851 -17.053  1.00  0.00    -0.237 OA
ATOM     85  O   UNL     1       0.092   4.080 -16.433  1.00  0.00    -0.744 OA
ENDBRANCH  81  82
ENDBRANCH  49  74
BRANCH  61  86
ATOM     86  C   UNL     1      -6.550  13.379 -14.791  1.00  0.00     0.058 A 
ATOM     87  C   UNL     1      -7.627  12.609 -15.259  1.00  0.00     0.135 A 
ATOM     88  C   UNL     1      -6.345  14.639 -15.380  1.00  0.00     0.135 A 
ATOM     89  F   UNL     1      -7.863  11.393 -14.742  1.00  0.00    -0.206 F 
ATOM     90  C   UNL     1      -8.458  13.064 -16.278  1.00  0.00     0.059 A 
ATOM     91  C   UNL     1      -7.185  15.128 -16.376  1.00  0.00     0.059 A 
ATOM     92  F   UNL     1      -5.335  15.422 -14.968  1.00  0.00    -0.206 F 
ATOM     93  C   UNL     1      -8.235  14.329 -16.825  1.00  0.00     0.060 A 
BRANCH  93  94
ATOM     94  S   UNL     1      -9.356  14.926 -18.107  1.00  0.00     0.124 S 
ATOM     95  O   UNL     1      -9.008  14.061 -19.230  1.00  0.00    -0.237 OA
ATOM     96  O   UNL     1     -10.666  14.690 -17.507  1.00  0.00    -0.237 OA
ATOM     97  O   UNL     1      -8.986  16.330 -18.259  1.00  0.00    -0.744 OA
ENDBRANCH  93  94
ENDBRANCH  61  86
ENDBRANCH  35  36
ENDBRANCH  28  30
ENDBRANCH  27  28
ENDBRANCH  26  27
ENDBRANCH   1  26
TORSDOF 20
