REMARK SMILES O=C(OCCOCCOC(=O)[C@@H]1C[NH2+]CCN1C(=O)N[C@H]1CCOC1)c1ccc(-c2c3nc(c(-c4c(F)cc(S(=O)(=O)[O-])cc4F)c4ccc([nH]4)c(-c4c(F)cc(S(=O)(=O)[O-])cc4F)c4nc(c(-c5c(F)cc(S(=O)(=O)[O-])cc5F)c5ccc2[nH]5)C=C4)C=C3)cc1
REMARK SMILES IDX 5 1 4 2 3 3 2 4 1 5 26 6 27 7 91 8 28 9 90 10 29 11 30 12
REMARK SMILES IDX 31 13 84 14 32 15 89 16 83 17 85 18 33 19 88 20 82 21 81 22
REMARK SMILES IDX 34 24 68 25 47 26 67 27 48 28 51 29 66 30 86 31 49 32 50 33
REMARK SMILES IDX 65 35 87 36 52 37 35 38 36 39 45 40 37 41 38 42 44 43 46 44
REMARK SMILES IDX 39 45 40 46 41 47 42 48 43 49 69 50 70 51 79 52 71 53 72 54
REMARK SMILES IDX 78 55 80 56 73 57 74 58 75 59 76 60 77 61 53 62 54 63 63 64
REMARK SMILES IDX 55 65 56 66 62 67 64 68 57 69 58 70 59 71 60 72 61 73 6 74
REMARK SMILES IDX 7 75 8 76 9 77 10 78 11 79 12 80 13 81 17 82 14 83 16 84
REMARK SMILES IDX 15 85 18 88 19 89 20 90 21 92 22 93 25 94 23 95 24 96
REMARK H PARENT 85 23 51 34 14 86 14 87 20 91
REMARK Flexibility Score: inf
ROOT
ATOM      1  C   UNL     1       4.641   0.267  -0.123  1.00  0.00     0.202 C 
ENDROOT
BRANCH   1   2
ATOM      2  C   UNL     1       4.078  -1.087   0.405  1.00  0.00     0.261 C 
BRANCH   2   3
ATOM      3  O   UNL     1       2.638  -1.147   0.573  1.00  0.00    -0.460 OA
BRANCH   3   4
ATOM      4  C   UNL     1       1.940  -1.087   1.753  1.00  0.00     0.338 C 
ATOM      5  O   UNL     1       0.822  -1.582   1.833  1.00  0.00    -0.246 OA
BRANCH   4   6
ATOM      6  C   UNL     1       2.489  -0.333   2.919  1.00  0.00     0.060 A 
ATOM      7  C   UNL     1       3.549   0.513   2.723  1.00  0.00     0.016 A 
ATOM      8  C   UNL     1       1.974  -0.373   4.213  1.00  0.00     0.016 A 
ATOM      9  C   UNL     1       4.252   1.147   3.688  1.00  0.00     0.010 A 
ATOM     10  C   UNL     1       2.599   0.375   5.240  1.00  0.00     0.010 A 
ATOM     11  C   UNL     1       3.766   1.111   4.968  1.00  0.00    -0.014 A 
BRANCH  11  12
ATOM     12  C   UNL     1       4.737   1.663   5.917  1.00  0.00     0.031 A 
ATOM     13  C   UNL     1       5.593   0.660   6.625  1.00  0.00     0.074 A 
ATOM     14  C   UNL     1       5.113   2.955   5.785  1.00  0.00     0.049 A 
ATOM     15  N   UNL     1       6.554   0.855   7.478  1.00  0.00    -0.248 NA
ATOM     16  C   UNL     1       5.372  -0.761   6.282  1.00  0.00     0.031 C 
ATOM     17  C   UNL     1       4.553   3.911   4.810  1.00  0.00     0.029 A 
ATOM     18  N   UNL     1       6.122   3.661   6.375  1.00  0.00    -0.354 N 
ATOM     19  C   UNL     1       6.990  -0.413   7.836  1.00  0.00     0.074 A 
ATOM     20  C   UNL     1       6.245  -1.374   7.062  1.00  0.00     0.031 C 
ATOM     21  C   UNL     1       5.258   5.052   4.848  1.00  0.00     0.029 A 
ATOM     22  C   UNL     1       6.226   4.960   5.927  1.00  0.00     0.049 A 
ATOM     23  H   UNL     1       6.720   3.278   7.057  1.00  0.00     0.167 HD
ATOM     24  C   UNL     1       7.899  -0.726   8.784  1.00  0.00     0.037 A 
ATOM     25  C   UNL     1       6.983   5.967   6.400  1.00  0.00     0.037 A 
ATOM     26  C   UNL     1       8.582   0.289   9.531  1.00  0.00     0.049 A 
ATOM     27  C   UNL     1       7.849   5.634   7.585  1.00  0.00     0.074 A 
ATOM     28  C   UNL     1       9.365   0.169  10.659  1.00  0.00     0.029 A 
ATOM     29  N   UNL     1       8.540   1.641   9.201  1.00  0.00    -0.354 N 
ATOM     30  N   UNL     1       8.102   4.454   8.107  1.00  0.00    -0.248 NA
ATOM     31  C   UNL     1       8.484   6.754   8.282  1.00  0.00     0.031 C 
ATOM     32  C   UNL     1       9.755   1.460  11.040  1.00  0.00     0.029 A 
ATOM     33  C   UNL     1       9.262   2.375  10.117  1.00  0.00     0.049 A 
ATOM     34  H   UNL     1       8.064   2.018   8.427  1.00  0.00     0.167 HD
ATOM     35  C   UNL     1       8.929   4.685   9.194  1.00  0.00     0.074 A 
ATOM     36  C   UNL     1       9.152   6.120   9.238  1.00  0.00     0.031 C 
ATOM     37  C   UNL     1       9.451   3.805  10.086  1.00  0.00     0.037 A 
BRANCH  24  38
ATOM     38  C   UNL     1       8.004  -2.177   9.144  1.00  0.00     0.058 A 
ATOM     39  C   UNL     1       8.648  -3.118   8.325  1.00  0.00     0.135 A 
ATOM     40  C   UNL     1       7.304  -2.654  10.266  1.00  0.00     0.135 A 
ATOM     41  F   UNL     1       9.279  -2.722   7.208  1.00  0.00    -0.206 F 
ATOM     42  C   UNL     1       8.565  -4.484   8.587  1.00  0.00     0.059 A 
ATOM     43  C   UNL     1       7.224  -4.012  10.556  1.00  0.00     0.059 A 
ATOM     44  F   UNL     1       6.640  -1.800  11.060  1.00  0.00    -0.206 F 
ATOM     45  C   UNL     1       7.837  -4.921   9.697  1.00  0.00     0.060 A 
BRANCH  45  46
ATOM     46  S   UNL     1       7.672  -6.695   9.988  1.00  0.00     0.124 S 
ATOM     47  O   UNL     1       6.710  -7.070   8.957  1.00  0.00    -0.237 OA
ATOM     48  O   UNL     1       9.036  -7.173   9.787  1.00  0.00    -0.237 OA
ATOM     49  O   UNL     1       7.182  -6.769  11.361  1.00  0.00    -0.744 OA
ENDBRANCH  45  46
ENDBRANCH  24  38
BRANCH  25  50
ATOM     50  C   UNL     1       6.856   7.357   5.871  1.00  0.00     0.058 A 
ATOM     51  C   UNL     1       7.952   8.044   5.328  1.00  0.00     0.135 A 
ATOM     52  C   UNL     1       5.632   8.050   5.928  1.00  0.00     0.135 A 
ATOM     53  F   UNL     1       9.149   7.442   5.254  1.00  0.00    -0.206 F 
ATOM     54  C   UNL     1       7.846   9.361   4.880  1.00  0.00     0.059 A 
ATOM     55  C   UNL     1       5.493   9.354   5.460  1.00  0.00     0.059 A 
ATOM     56  F   UNL     1       4.542   7.454   6.438  1.00  0.00    -0.206 F 
ATOM     57  C   UNL     1       6.612  10.009   4.953  1.00  0.00     0.060 A 
BRANCH  57  58
ATOM     58  S   UNL     1       6.477  11.711   4.362  1.00  0.00     0.124 S 
ATOM     59  O   UNL     1       7.164  12.444   5.419  1.00  0.00    -0.237 OA
ATOM     60  O   UNL     1       7.165  11.646   3.077  1.00  0.00    -0.237 OA
ATOM     61  O   UNL     1       5.034  11.925   4.282  1.00  0.00    -0.744 OA
ENDBRANCH  57  58
ENDBRANCH  25  50
BRANCH  37  62
ATOM     62  C   UNL     1      10.338   4.379  11.142  1.00  0.00     0.058 A 
ATOM     63  C   UNL     1       9.812   5.061  12.248  1.00  0.00     0.135 A 
ATOM     64  C   UNL     1      11.722   4.168  11.078  1.00  0.00     0.135 A 
ATOM     65  F   UNL     1       8.492   5.287  12.340  1.00  0.00    -0.206 F 
ATOM     66  C   UNL     1      10.639   5.530  13.258  1.00  0.00     0.059 A 
ATOM     67  C   UNL     1      12.564   4.605  12.089  1.00  0.00     0.059 A 
ATOM     68  F   UNL     1      12.259   3.507  10.039  1.00  0.00    -0.206 F 
ATOM     69  C   UNL     1      12.013   5.293  13.170  1.00  0.00     0.060 A 
BRANCH  69  70
ATOM     70  S   UNL     1      13.074   5.856  14.514  1.00  0.00     0.124 S 
ATOM     71  O   UNL     1      13.176   7.282  14.225  1.00  0.00    -0.237 OA
ATOM     72  O   UNL     1      12.297   5.500  15.697  1.00  0.00    -0.237 OA
ATOM     73  O   UNL     1      14.299   5.085  14.321  1.00  0.00    -0.744 OA
ENDBRANCH  69  70
ENDBRANCH  37  62
ENDBRANCH  11  12
ENDBRANCH   4   6
ENDBRANCH   3   4
ENDBRANCH   2   3
ENDBRANCH   1   2
BRANCH   1  74
ATOM     74  O   UNL     1       3.892   1.490  -0.012  1.00  0.00    -0.374 OA
BRANCH  74  75
ATOM     75  C   UNL     1       2.515   1.669  -0.351  1.00  0.00     0.202 C 
BRANCH  75  76
ATOM     76  C   UNL     1       2.278   2.849  -1.382  1.00  0.00     0.261 C 
BRANCH  76  77
ATOM     77  O   UNL     1       2.867   2.625  -2.993  1.00  0.00    -0.462 OA
BRANCH  77  78
ATOM     78  C   UNL     1       4.197   2.575  -4.335  1.00  0.00     0.334 C 
ATOM     79  O   UNL     1       5.033   3.497  -4.592  1.00  0.00    -0.250 OA
BRANCH  78  80
ATOM     80  C   UNL     1       4.684   1.197  -5.212  1.00  0.00     0.252 C 
ATOM     81  C   UNL     1       4.742   1.788  -6.680  1.00  0.00     0.298 C 
ATOM     82  N   UNL     1       4.276  -0.241  -5.260  1.00  0.00    -0.300 N 
ATOM     83  N   UNL     1       5.222   0.901  -7.758  1.00  0.00    -0.343 N 
ATOM     84  C   UNL     1       4.683  -1.047  -6.400  1.00  0.00     0.183 C 
ATOM     85  C   UNL     1       4.462  -0.348  -7.721  1.00  0.00     0.282 C 
ATOM     86  H   UNL     1       6.213   0.703  -7.621  1.00  0.00     0.346 HD
ATOM     87  H   UNL     1       5.093   1.357  -8.661  1.00  0.00     0.346 HD
BRANCH  82  88
ATOM     88  C   UNL     1       4.275  -0.981  -4.118  1.00  0.00     0.318 C 
ATOM     89  O   UNL     1       4.403  -2.197  -4.032  1.00  0.00    -0.249 OA
ATOM     90  N   UNL     1       4.088  -0.284  -3.012  1.00  0.00    -0.333 N 
ATOM     91  H   UNL     1       4.335  -0.696  -2.153  1.00  0.00     0.165 HD
BRANCH  90  92
ATOM     92  C   UNL     1       3.551   1.021  -2.999  1.00  0.00     0.112 C 
ATOM     93  C   UNL     1       4.579   2.654  -2.346  1.00  0.00     0.056 C 
ATOM     94  C   UNL     1       2.236   1.691  -4.380  1.00  0.00     0.185 C 
ATOM     95  C   UNL     1       3.637   4.263  -3.159  1.00  0.00     0.162 C 
ATOM     96  O   UNL     1       2.453   3.577  -4.485  1.00  0.00    -0.379 OA
ENDBRANCH  90  92
ENDBRANCH  82  88
ENDBRANCH  78  80
ENDBRANCH  77  78
ENDBRANCH  76  77
ENDBRANCH  75  76
ENDBRANCH  74  75
ENDBRANCH   1  74
TORSDOF 19
