REMARK SMILES CC(C)N(c1cc2c(cc1Cl)C=C(C(=O)OCCOCCOC(=O)c1ccc(-c3c4nc(c(-c5c(F)cc(S(=O)(=O)[O-])cc5F)c5ccc([nH]5)c(-c5c(F)cc(S(=O)(=O)[O-])cc5F)c5nc(c(-c6c(F)cc(S(=O)(=O)[O-])cc6F)c6ccc3[nH]6)C=C5)C=C4)cc1)[C@@H](C(F)(F)F)O2)C(C)C
REMARK SMILES IDX 20 1 19 2 18 3 17 4 16 5 14 6 15 7 13 8 5 9 6 10 10 11 7 12
REMARK SMILES IDX 9 13 11 14 8 15 96 16 12 17 91 18 4 19 2 20 1 21 3 22 97 23
REMARK SMILES IDX 98 24 99 25 92 26 93 27 94 28 95 29 21 30 22 31 23 32 24 33
REMARK SMILES IDX 25 34 26 35 90 36 27 37 89 38 28 39 29 40 30 41 83 42 31 43
REMARK SMILES IDX 88 44 82 45 84 46 32 47 87 48 81 49 80 50 33 52 67 53 46 54
REMARK SMILES IDX 66 55 47 56 50 57 65 58 85 59 48 60 49 61 64 63 86 64 51 65
REMARK SMILES IDX 34 66 35 67 44 68 36 69 37 70 43 71 45 72 38 73 39 74 40 75
REMARK SMILES IDX 41 76 42 77 68 78 69 79 78 80 70 81 71 82 77 83 79 84 72 85
REMARK SMILES IDX 73 86 74 87 75 88 76 89 52 90 53 91 62 92 54 93 55 94 61 95
REMARK SMILES IDX 63 96 56 97 57 98 58 99 59 100 60 101
REMARK H PARENT 84 51 50 62
REMARK Flexibility Score: inf
ROOT
ATOM      1  C   UNL     1      -4.386  -8.737   2.017  1.00  0.00     0.202 C 
ENDROOT
BRANCH   1   2
ATOM      2  O   UNL     1      -5.431  -9.392   2.733  1.00  0.00    -0.374 OA
BRANCH   2   3
ATOM      3  C   UNL     1      -6.768  -9.264   2.256  1.00  0.00     0.202 C 
BRANCH   3   4
ATOM      4  C   UNL     1      -7.484  -7.927   2.472  1.00  0.00     0.261 C 
BRANCH   4   5
ATOM      5  O   UNL     1      -6.746  -6.817   1.940  1.00  0.00    -0.460 OA
BRANCH   5   6
ATOM      6  C   UNL     1      -6.215  -6.004   2.882  1.00  0.00     0.338 C 
ATOM      7  O   UNL     1      -6.374  -6.082   4.090  1.00  0.00    -0.246 OA
BRANCH   6   8
ATOM      8  C   UNL     1      -5.268  -5.059   2.262  1.00  0.00     0.087 C 
ATOM      9  C   UNL     1      -1.675  -1.548   1.796  1.00  0.00     0.060 A 
ATOM     10  C   UNL     1      -2.737  -2.011   0.980  1.00  0.00     0.074 A 
ATOM     11  C   UNL     1      -1.405  -2.305   2.961  1.00  0.00     0.065 A 
ATOM     12  C   UNL     1      -3.535  -3.105   1.338  1.00  0.00     0.130 A 
ATOM     13  C   UNL     1      -2.173  -3.429   3.293  1.00  0.00     0.034 A 
ATOM     14  Cl  UNL     1      -0.222  -1.871   4.152  1.00  0.00    -0.082 Cl
ATOM     15  C   UNL     1      -3.257  -3.804   2.505  1.00  0.00     0.019 A 
ATOM     16  O   UNL     1      -4.574  -3.420   0.506  1.00  0.00    -0.475 OA
ATOM     17  C   UNL     1      -4.144  -4.853   2.958  1.00  0.00     0.027 C 
ATOM     18  C   UNL     1      -5.600  -4.351   0.976  1.00  0.00     0.316 C 
BRANCH   9  19
ATOM     19  N   UNL     1      -0.995  -0.364   1.435  1.00  0.00    -0.365 N 
BRANCH  19  20
ATOM     20  C   UNL     1       0.484  -0.396   1.387  1.00  0.00     0.076 C 
ATOM     21  C   UNL     1       1.042  -0.231  -0.025  1.00  0.00     0.030 C 
ATOM     22  C   UNL     1       1.149   0.598   2.341  1.00  0.00     0.030 C 
ENDBRANCH  19  20
BRANCH  19  23
ATOM     23  C   UNL     1      -1.848   0.808   1.114  1.00  0.00     0.076 C 
ATOM     24  C   UNL     1      -1.669   1.964   2.095  1.00  0.00     0.030 C 
ATOM     25  C   UNL     1      -1.712   1.279  -0.330  1.00  0.00     0.030 C 
ENDBRANCH  19  23
ENDBRANCH   9  19
BRANCH  18  26
ATOM     26  C   UNL     1      -6.947  -3.614   1.047  1.00  0.00     0.430 C 
ATOM     27  F   UNL     1      -7.196  -2.937  -0.099  1.00  0.00    -0.167 F 
ATOM     28  F   UNL     1      -7.976  -4.472   1.227  1.00  0.00    -0.167 F 
ATOM     29  F   UNL     1      -6.978  -2.722   2.063  1.00  0.00    -0.167 F 
ENDBRANCH  18  26
ENDBRANCH   6   8
ENDBRANCH   5   6
ENDBRANCH   4   5
ENDBRANCH   3   4
ENDBRANCH   2   3
ENDBRANCH   1   2
BRANCH   1  30
ATOM     30  C   UNL     1      -4.001  -9.262   0.627  1.00  0.00     0.261 C 
BRANCH  30  31
ATOM     31  O   UNL     1      -5.059  -9.144  -0.337  1.00  0.00    -0.460 OA
BRANCH  31  32
ATOM     32  C   UNL     1      -5.623 -10.320  -0.714  1.00  0.00     0.338 C 
ATOM     33  O   UNL     1      -5.313 -11.439  -0.337  1.00  0.00    -0.246 OA
BRANCH  32  34
ATOM     34  C   UNL     1      -6.829 -10.043  -1.516  1.00  0.00     0.060 A 
ATOM     35  C   UNL     1      -6.760  -9.274  -2.677  1.00  0.00     0.016 A 
ATOM     36  C   UNL     1      -8.046 -10.603  -1.103  1.00  0.00     0.016 A 
ATOM     37  C   UNL     1      -7.915  -9.083  -3.439  1.00  0.00     0.010 A 
ATOM     38  C   UNL     1      -9.198 -10.410  -1.867  1.00  0.00     0.010 A 
ATOM     39  C   UNL     1      -9.137  -9.663  -3.051  1.00  0.00    -0.014 A 
BRANCH  39  40
ATOM     40  C   UNL     1     -10.313  -9.588  -3.955  1.00  0.00     0.031 A 
ATOM     41  C   UNL     1     -11.494  -8.717  -3.636  1.00  0.00     0.074 A 
ATOM     42  C   UNL     1     -10.305 -10.336  -5.077  1.00  0.00     0.049 A 
ATOM     43  N   UNL     1     -12.566  -8.499  -4.353  1.00  0.00    -0.248 NA
ATOM     44  C   UNL     1     -11.477  -8.004  -2.349  1.00  0.00     0.031 C 
ATOM     45  C   UNL     1      -9.233 -11.258  -5.461  1.00  0.00     0.029 A 
ATOM     46  N   UNL     1     -11.215 -10.441  -6.098  1.00  0.00    -0.354 N 
ATOM     47  C   UNL     1     -13.346  -7.615  -3.618  1.00  0.00     0.074 A 
ATOM     48  C   UNL     1     -12.642  -7.367  -2.377  1.00  0.00     0.031 C 
ATOM     49  C   UNL     1      -9.537 -11.816  -6.643  1.00  0.00     0.029 A 
ATOM     50  C   UNL     1     -10.836 -11.320  -7.086  1.00  0.00     0.049 A 
ATOM     51  H   UNL     1     -12.060  -9.936  -6.121  1.00  0.00     0.167 HD
ATOM     52  C   UNL     1     -14.530  -7.054  -3.961  1.00  0.00     0.037 A 
ATOM     53  C   UNL     1     -11.465 -11.690  -8.219  1.00  0.00     0.037 A 
ATOM     54  C   UNL     1     -15.219  -7.306  -5.202  1.00  0.00     0.049 A 
ATOM     55  C   UNL     1     -12.789 -11.062  -8.561  1.00  0.00     0.074 A 
ATOM     56  C   UNL     1     -16.393  -6.732  -5.660  1.00  0.00     0.029 A 
ATOM     57  N   UNL     1     -14.812  -8.208  -6.174  1.00  0.00    -0.354 N 
ATOM     58  N   UNL     1     -13.465 -10.155  -7.897  1.00  0.00    -0.248 NA
ATOM     59  C   UNL     1     -13.434 -11.498  -9.807  1.00  0.00     0.031 C 
ATOM     60  C   UNL     1     -16.729  -7.331  -6.877  1.00  0.00     0.029 A 
ATOM     61  C   UNL     1     -15.732  -8.232  -7.211  1.00  0.00     0.049 A 
ATOM     62  H   UNL     1     -13.992  -8.751  -6.133  1.00  0.00     0.167 HD
ATOM     63  C   UNL     1     -14.604  -9.900  -8.654  1.00  0.00     0.074 A 
ATOM     64  C   UNL     1     -14.513 -10.729  -9.837  1.00  0.00     0.031 C 
ATOM     65  C   UNL     1     -15.632  -9.058  -8.389  1.00  0.00     0.037 A 
BRANCH  52  66
ATOM     66  C   UNL     1     -15.173  -6.089  -3.002  1.00  0.00     0.058 A 
ATOM     67  C   UNL     1     -14.674  -4.789  -2.829  1.00  0.00     0.135 A 
ATOM     68  C   UNL     1     -16.381  -6.418  -2.364  1.00  0.00     0.135 A 
ATOM     69  F   UNL     1     -13.518  -4.427  -3.406  1.00  0.00    -0.206 F 
ATOM     70  C   UNL     1     -15.355  -3.845  -2.067  1.00  0.00     0.059 A 
ATOM     71  C   UNL     1     -17.091  -5.483  -1.616  1.00  0.00     0.059 A 
ATOM     72  F   UNL     1     -16.901  -7.648  -2.496  1.00  0.00    -0.206 F 
ATOM     73  C   UNL     1     -16.571  -4.197  -1.477  1.00  0.00     0.060 A 
BRANCH  73  74
ATOM     74  S   UNL     1     -17.473  -2.935  -0.553  1.00  0.00     0.124 S 
ATOM     75  O   UNL     1     -16.590  -2.721   0.590  1.00  0.00    -0.237 OA
ATOM     76  O   UNL     1     -17.541  -1.840  -1.515  1.00  0.00    -0.237 OA
ATOM     77  O   UNL     1     -18.746  -3.579  -0.247  1.00  0.00    -0.744 OA
ENDBRANCH  73  74
ENDBRANCH  52  66
BRANCH  53  78
ATOM     78  C   UNL     1     -10.849 -12.708  -9.113  1.00  0.00     0.058 A 
ATOM     79  C   UNL     1     -10.390 -12.372 -10.395  1.00  0.00     0.135 A 
ATOM     80  C   UNL     1     -10.714 -14.044  -8.702  1.00  0.00     0.135 A 
ATOM     81  F   UNL     1     -10.499 -11.109 -10.837  1.00  0.00    -0.206 F 
ATOM     82  C   UNL     1      -9.846 -13.326 -11.248  1.00  0.00     0.059 A 
ATOM     83  C   UNL     1     -10.144 -15.010  -9.524  1.00  0.00     0.059 A 
ATOM     84  F   UNL     1     -11.121 -14.416  -7.478  1.00  0.00    -0.206 F 
ATOM     85  C   UNL     1      -9.727 -14.644 -10.802  1.00  0.00     0.060 A 
BRANCH  85  86
ATOM     86  S   UNL     1      -9.003 -15.870 -11.912  1.00  0.00     0.124 S 
ATOM     87  O   UNL     1     -10.041 -15.996 -12.928  1.00  0.00    -0.237 OA
ATOM     88  O   UNL     1      -7.772 -15.209 -12.334  1.00  0.00    -0.237 OA
ATOM     89  O   UNL     1      -8.818 -17.035 -11.051  1.00  0.00    -0.744 OA
ENDBRANCH  85  86
ENDBRANCH  53  78
BRANCH  65  90
ATOM     90  C   UNL     1     -16.745  -8.970  -9.399  1.00  0.00     0.058 A 
ATOM     91  C   UNL     1     -17.661 -10.018  -9.578  1.00  0.00     0.135 A 
ATOM     92  C   UNL     1     -16.941  -7.795 -10.145  1.00  0.00     0.135 A 
ATOM     93  F   UNL     1     -17.517 -11.165  -8.896  1.00  0.00    -0.206 F 
ATOM     94  C   UNL     1     -18.722  -9.911 -10.472  1.00  0.00     0.059 A 
ATOM     95  C   UNL     1     -18.013  -7.655 -11.021  1.00  0.00     0.059 A 
ATOM     96  F   UNL     1     -16.099  -6.758 -10.006  1.00  0.00    -0.206 F 
ATOM     97  C   UNL     1     -18.893  -8.723 -11.184  1.00  0.00     0.060 A 
BRANCH  97  98
ATOM     98  S   UNL     1     -20.300  -8.588 -12.308  1.00  0.00     0.124 S 
ATOM     99  O   UNL     1     -19.922  -9.519 -13.366  1.00  0.00    -0.237 OA
ATOM    100  O   UNL     1     -21.413  -9.006 -11.462  1.00  0.00    -0.237 OA
ATOM    101  O   UNL     1     -20.301  -7.178 -12.686  1.00  0.00    -0.744 OA
ENDBRANCH  97  98
ENDBRANCH  65  90
ENDBRANCH  39  40
ENDBRANCH  32  34
ENDBRANCH  31  32
ENDBRANCH  30  31
ENDBRANCH   1  30
TORSDOF 21
