REMARK SMILES Cc1nn(-c2ccccc2)c(C)c1CNC(=O)[C@@H]1[C@@H](C(=O)OCCOCCOC(=O)c2ccc(-c3c4nc(c(-c5c(F)cc(S(=O)(=O)[O-])cc5F)c5ccc([nH]5)c(-c5c(F)cc(S(=O)(=O)[O-])cc5F)c5nc(c(-c6c(F)cc(S(=O)(=O)[O-])cc6F)c6ccc3[nH]6)C=C5)C=C4)cc2)[C@@H]2C=C[C@H]1C2
REMARK SMILES IDX 24 1 23 2 22 3 20 4 21 5 19 6 18 7 100 8 97 9 99 10 101 11
REMARK SMILES IDX 98 12 16 13 15 14 17 16 14 17 13 18 1 19 2 20 3 21 4 22
REMARK SMILES IDX 11 23 12 24 5 25 6 26 10 27 7 28 9 29 8 30 25 31 26 32 27 33
REMARK SMILES IDX 28 34 29 35 30 36 31 37 32 38 96 39 33 40 95 41 34 42 35 43
REMARK SMILES IDX 36 44 89 45 37 46 94 47 88 48 90 49 38 50 93 51 87 52 86 53
REMARK SMILES IDX 39 55 73 56 52 57 72 58 53 59 56 60 71 61 91 62 54 63 55 64
REMARK SMILES IDX 70 66 92 67 57 68 40 69 41 70 50 71 42 72 43 73 49 74 51 75
REMARK SMILES IDX 44 76 45 77 46 78 47 79 48 80 74 81 75 82 84 83 76 84 77 85
REMARK SMILES IDX 83 86 85 87 78 88 79 89 80 90 81 91 82 92 58 93 59 94 68 95
REMARK SMILES IDX 60 96 61 97 67 98 69 99 62 100 63 101 64 102 65 103 66 104
REMARK H PARENT 15 15 90 54 56 65
REMARK Flexibility Score: inf
ROOT
ATOM      1  C   UNL     1      -8.920  -3.173  -3.807  1.00  0.00     0.202 C 
ENDROOT
BRANCH   1   2
ATOM      2  C   UNL     1      -7.455  -3.505  -4.152  1.00  0.00     0.261 C 
BRANCH   2   3
ATOM      3  O   UNL     1      -6.481  -2.518  -3.739  1.00  0.00    -0.463 OA
BRANCH   3   4
ATOM      4  C   UNL     1      -6.381  -1.446  -4.566  1.00  0.00     0.310 C 
ATOM      5  O   UNL     1      -7.079  -1.275  -5.563  1.00  0.00    -0.252 OA
BRANCH   4   6
ATOM      6  C   UNL     1      -5.300  -0.453  -4.196  1.00  0.00     0.119 C 
ATOM      7  C   UNL     1      -4.252  -0.779  -3.067  1.00  0.00     0.100 C 
ATOM      8  C   UNL     1      -4.266   0.542  -2.243  1.00  0.00     0.025 C 
ATOM      9  C   UNL     1      -5.894   0.903  -3.732  1.00  0.00     0.027 C 
ATOM     10  C   UNL     1      -3.832   1.708  -3.101  1.00  0.00    -0.027 C 
ATOM     11  C   UNL     1      -5.761   0.849  -2.211  1.00  0.00     0.017 C 
ATOM     12  C   UNL     1      -4.817   1.939  -3.983  1.00  0.00    -0.027 C 
BRANCH   7  13
ATOM     13  C   UNL     1      -2.906  -1.138  -3.691  1.00  0.00     0.224 C 
ATOM     14  N   UNL     1      -1.750  -1.087  -2.981  1.00  0.00    -0.352 N 
ATOM     15  H   UNL     1      -0.933  -1.179  -3.522  1.00  0.00     0.163 HD
ATOM     16  O   UNL     1      -2.828  -1.561  -4.847  1.00  0.00    -0.275 OA
BRANCH  14  17
ATOM     17  C   UNL     1      -1.517  -0.920  -1.562  1.00  0.00     0.155 C 
BRANCH  17  18
ATOM     18  C   UNL     1      -0.613  -2.014  -1.115  1.00  0.00     0.016 A 
ATOM     19  C   UNL     1       1.263  -0.715   0.175  1.00  0.00     0.069 C 
ATOM     20  C   UNL     1       0.576  -1.927  -0.343  1.00  0.00     0.065 A 
ATOM     21  N   UNL     1       1.056  -3.136  -0.036  1.00  0.00    -0.173 NA
ATOM     22  N   UNL     1       0.260  -4.008  -0.690  1.00  0.00    -0.237 N 
ATOM     23  C   UNL     1      -0.811  -3.375  -1.292  1.00  0.00     0.046 A 
ATOM     24  C   UNL     1      -1.970  -4.099  -1.882  1.00  0.00     0.067 C 
BRANCH  22  25
ATOM     25  C   UNL     1       0.512  -5.397  -0.663  1.00  0.00     0.065 A 
ATOM     26  C   UNL     1       0.785  -6.018   0.558  1.00  0.00     0.028 A 
ATOM     27  C   UNL     1       0.397  -6.150  -1.839  1.00  0.00     0.028 A 
ATOM     28  C   UNL     1       0.857  -7.410   0.609  1.00  0.00     0.002 A 
ATOM     29  C   UNL     1       0.510  -7.537  -1.784  1.00  0.00     0.002 A 
ATOM     30  C   UNL     1       0.716  -8.167  -0.557  1.00  0.00     0.000 A 
ENDBRANCH  22  25
ENDBRANCH  17  18
ENDBRANCH  14  17
ENDBRANCH   7  13
ENDBRANCH   4   6
ENDBRANCH   3   4
ENDBRANCH   2   3
ENDBRANCH   1   2
BRANCH   1  31
ATOM     31  O   UNL     1      -9.141  -1.784  -3.616  1.00  0.00    -0.374 OA
BRANCH  31  32
ATOM     32  C   UNL     1      -9.089  -1.259  -2.291  1.00  0.00     0.202 C 
BRANCH  32  33
ATOM     33  C   UNL     1      -8.120  -1.865  -1.285  1.00  0.00     0.261 C 
BRANCH  33  34
ATOM     34  O   UNL     1      -8.236  -3.272  -1.141  1.00  0.00    -0.460 OA
BRANCH  34  35
ATOM     35  C   UNL     1      -9.207  -3.667  -0.304  1.00  0.00     0.338 C 
ATOM     36  O   UNL     1     -10.358  -3.253  -0.280  1.00  0.00    -0.246 OA
BRANCH  35  37
ATOM     37  C   UNL     1      -8.552  -4.486   0.722  1.00  0.00     0.060 A 
ATOM     38  C   UNL     1      -9.318  -4.856   1.823  1.00  0.00     0.016 A 
ATOM     39  C   UNL     1      -7.151  -4.667   0.697  1.00  0.00     0.016 A 
ATOM     40  C   UNL     1      -8.662  -5.294   2.953  1.00  0.00     0.010 A 
ATOM     41  C   UNL     1      -6.497  -5.082   1.833  1.00  0.00     0.010 A 
ATOM     42  C   UNL     1      -7.261  -5.345   2.961  1.00  0.00    -0.014 A 
BRANCH  42  43
ATOM     43  C   UNL     1      -6.629  -5.766   4.187  1.00  0.00     0.031 A 
ATOM     44  C   UNL     1      -6.699  -7.217   4.438  1.00  0.00     0.074 A 
ATOM     45  C   UNL     1      -5.980  -4.929   5.010  1.00  0.00     0.049 A 
ATOM     46  N   UNL     1      -7.428  -7.837   5.303  1.00  0.00    -0.248 NA
ATOM     47  C   UNL     1      -5.957  -8.091   3.518  1.00  0.00     0.031 C 
ATOM     48  C   UNL     1      -5.531  -3.563   4.741  1.00  0.00     0.029 A 
ATOM     49  N   UNL     1      -5.520  -5.184   6.263  1.00  0.00    -0.354 N 
ATOM     50  C   UNL     1      -7.071  -9.173   5.185  1.00  0.00     0.074 A 
ATOM     51  C   UNL     1      -6.301  -9.295   3.973  1.00  0.00     0.031 C 
ATOM     52  C   UNL     1      -4.705  -3.172   5.737  1.00  0.00     0.029 A 
ATOM     53  C   UNL     1      -4.686  -4.203   6.764  1.00  0.00     0.049 A 
ATOM     54  H   UNL     1      -5.759  -5.994   6.769  1.00  0.00     0.167 HD
ATOM     55  C   UNL     1      -7.208 -10.039   6.222  1.00  0.00     0.037 A 
ATOM     56  C   UNL     1      -3.979  -4.275   7.913  1.00  0.00     0.037 A 
ATOM     57  C   UNL     1      -8.078  -9.530   7.248  1.00  0.00     0.049 A 
ATOM     58  C   UNL     1      -4.644  -5.263   8.802  1.00  0.00     0.074 A 
ATOM     59  C   UNL     1      -9.422  -9.233   7.338  1.00  0.00     0.029 A 
ATOM     60  N   UNL     1      -7.465  -8.925   8.317  1.00  0.00    -0.354 N 
ATOM     61  N   UNL     1      -5.846  -5.113   9.293  1.00  0.00    -0.248 NA
ATOM     62  C   UNL     1      -4.101  -6.611   8.915  1.00  0.00     0.031 C 
ATOM     63  C   UNL     1      -9.526  -8.181   8.296  1.00  0.00     0.029 A 
ATOM     64  C   UNL     1      -8.239  -7.872   8.741  1.00  0.00     0.049 A 
ATOM     65  H   UNL     1      -6.609  -9.201   8.716  1.00  0.00     0.167 HD
ATOM     66  C   UNL     1      -6.349  -6.397   9.415  1.00  0.00     0.074 A 
ATOM     67  C   UNL     1      -5.188  -7.268   9.327  1.00  0.00     0.031 C 
ATOM     68  C   UNL     1      -7.684  -6.649   9.288  1.00  0.00     0.037 A 
BRANCH  55  69
ATOM     69  C   UNL     1      -6.236 -11.158   6.476  1.00  0.00     0.058 A 
ATOM     70  C   UNL     1      -6.585 -12.204   7.347  1.00  0.00     0.135 A 
ATOM     71  C   UNL     1      -4.872 -11.085   6.108  1.00  0.00     0.135 A 
ATOM     72  F   UNL     1      -7.850 -12.338   7.777  1.00  0.00    -0.206 F 
ATOM     73  C   UNL     1      -5.636 -13.090   7.857  1.00  0.00     0.059 A 
ATOM     74  C   UNL     1      -3.922 -11.992   6.555  1.00  0.00     0.059 A 
ATOM     75  F   UNL     1      -4.385 -10.069   5.384  1.00  0.00    -0.206 F 
ATOM     76  C   UNL     1      -4.304 -12.962   7.467  1.00  0.00     0.060 A 
BRANCH  76  77
ATOM     77  S   UNL     1      -3.048 -14.010   8.219  1.00  0.00     0.124 S 
ATOM     78  O   UNL     1      -2.909 -13.389   9.531  1.00  0.00    -0.237 OA
ATOM     79  O   UNL     1      -3.686 -15.322   8.194  1.00  0.00    -0.237 OA
ATOM     80  O   UNL     1      -1.907 -13.858   7.321  1.00  0.00    -0.744 OA
ENDBRANCH  76  77
ENDBRANCH  55  69
BRANCH  56  81
ATOM     81  C   UNL     1      -2.607  -3.760   8.132  1.00  0.00     0.058 A 
ATOM     82  C   UNL     1      -2.080  -3.608   9.423  1.00  0.00     0.135 A 
ATOM     83  C   UNL     1      -1.694  -3.643   7.062  1.00  0.00     0.135 A 
ATOM     84  F   UNL     1      -2.875  -3.736  10.496  1.00  0.00    -0.206 F 
ATOM     85  C   UNL     1      -0.718  -3.386   9.643  1.00  0.00     0.059 A 
ATOM     86  C   UNL     1      -0.338  -3.406   7.256  1.00  0.00     0.059 A 
ATOM     87  F   UNL     1      -2.081  -3.845   5.793  1.00  0.00    -0.206 F 
ATOM     88  C   UNL     1       0.148  -3.301   8.552  1.00  0.00     0.060 A 
BRANCH  88  89
ATOM     89  S   UNL     1       1.926  -3.171   8.837  1.00  0.00     0.124 S 
ATOM     90  O   UNL     1       2.044  -1.819   9.374  1.00  0.00    -0.237 OA
ATOM     91  O   UNL     1       2.165  -4.257   9.781  1.00  0.00    -0.237 OA
ATOM     92  O   UNL     1       2.498  -3.366   7.507  1.00  0.00    -0.744 OA
ENDBRANCH  88  89
ENDBRANCH  56  81
BRANCH  68  93
ATOM     93  C   UNL     1      -8.626  -5.493   9.488  1.00  0.00     0.058 A 
ATOM     94  C   UNL     1      -8.757  -4.428   8.583  1.00  0.00     0.135 A 
ATOM     95  C   UNL     1      -9.512  -5.527  10.575  1.00  0.00     0.135 A 
ATOM     96  F   UNL     1      -8.010  -4.378   7.471  1.00  0.00    -0.206 F 
ATOM     97  C   UNL     1      -9.702  -3.418   8.770  1.00  0.00     0.059 A 
ATOM     98  C   UNL     1     -10.482  -4.546  10.768  1.00  0.00     0.059 A 
ATOM     99  F   UNL     1      -9.475  -6.554  11.441  1.00  0.00    -0.206 F 
ATOM    100  C   UNL     1     -10.562  -3.486   9.866  1.00  0.00     0.060 A 
BRANCH 100 101
ATOM    101  S   UNL     1     -11.849  -2.232  10.050  1.00  0.00     0.124 S 
ATOM    102  O   UNL     1     -11.095  -1.090  10.555  1.00  0.00    -0.237 OA
ATOM    103  O   UNL     1     -12.364  -2.099   8.690  1.00  0.00    -0.237 OA
ATOM    104  O   UNL     1     -12.780  -2.836  11.000  1.00  0.00    -0.744 OA
ENDBRANCH 100 101
ENDBRANCH  68  93
ENDBRANCH  42  43
ENDBRANCH  35  37
ENDBRANCH  34  35
ENDBRANCH  33  34
ENDBRANCH  32  33
ENDBRANCH  31  32
ENDBRANCH   1  31
TORSDOF 21
