REMARK SMILES O=C(Cn1ccc(C(=O)NCCC[NH+]2CCOCC2)n1)OCCOCCOC(=O)c1ccc(-c2c3nc(c(-c4c(F)cc(S(=O)(=O)[O-])cc4F)c4ccc([nH]4)c(-c4c(F)cc(S(=O)(=O)[O-])cc4F)c4nc(c(-c5c(F)cc(S(=O)(=O)[O-])cc5F)c5ccc2[nH]5)C=C4)C=C3)cc1
REMARK SMILES IDX 22 1 21 2 2 3 1 4 3 5 4 6 5 7 20 8 6 9 7 10 8 11 9 12 10 13
REMARK SMILES IDX 11 15 12 16 13 17 14 18 15 19 19 20 16 22 18 23 17 24 23 25
REMARK SMILES IDX 24 26 25 27 26 28 27 29 28 30 29 31 30 32 31 33 95 34 32 35
REMARK SMILES IDX 94 36 33 37 34 38 35 39 88 40 36 41 93 42 87 43 89 44 37 45
REMARK SMILES IDX 92 46 86 47 85 48 38 50 72 51 51 52 71 53 52 54 55 55 70 56
REMARK SMILES IDX 90 57 53 58 54 59 69 61 91 62 56 63 39 64 40 65 49 66 41 67
REMARK SMILES IDX 42 68 48 69 50 70 43 71 44 72 45 73 46 74 47 75 73 76 74 77
REMARK SMILES IDX 83 78 75 79 76 80 82 81 84 82 77 83 78 84 79 85 80 86 81 87
REMARK SMILES IDX 57 88 58 89 67 90 59 91 60 92 66 93 68 94 61 95 62 96 63 97
REMARK SMILES IDX 64 98 65 99
REMARK H PARENT 10 14 14 21 89 49 55 60
REMARK Flexibility Score: inf
ROOT
ATOM      1  C   UNL     1       3.570  -0.592   0.121  1.00  0.00     0.261 C 
ENDROOT
BRANCH   1   2
ATOM      2  O   UNL     1       2.215  -0.130   0.166  1.00  0.00    -0.462 OA
BRANCH   2   3
ATOM      3  C   UNL     1       1.902   1.025   0.800  1.00  0.00     0.327 C 
ATOM      4  O   UNL     1       0.957   1.075   1.584  1.00  0.00    -0.250 OA
BRANCH   3   5
ATOM      5  C   UNL     1       2.596   2.257   0.316  1.00  0.00     0.266 C 
BRANCH   5   6
ATOM      6  N   UNL     1       3.565   2.795   1.242  1.00  0.00    -0.261 N 
ATOM      7  C   UNL     1       3.813   4.126   1.409  1.00  0.00     0.110 A 
ATOM      8  N   UNL     1       4.457   2.001   1.871  1.00  0.00    -0.167 NA
ATOM      9  C   UNL     1       4.889   4.202   2.254  1.00  0.00     0.056 A 
ATOM     10  C   UNL     1       5.278   2.857   2.515  1.00  0.00     0.150 A 
BRANCH  10  11
ATOM     11  C   UNL     1       6.407   2.469   3.385  1.00  0.00     0.271 C 
ATOM     12  O   UNL     1       6.863   3.251   4.223  1.00  0.00    -0.267 OA
ATOM     13  N   UNL     1       7.015   1.237   3.269  1.00  0.00    -0.350 N 
ATOM     14  H   UNL     1       7.742   1.056   3.908  1.00  0.00     0.163 HD
BRANCH  13  15
ATOM     15  C   UNL     1       6.723   0.174   2.330  1.00  0.00     0.122 C 
BRANCH  15  16
ATOM     16  C   UNL     1       7.854  -0.843   2.158  1.00  0.00     0.083 C 
BRANCH  16  17
ATOM     17  C   UNL     1       8.279  -1.639   3.401  1.00  0.00     0.264 C 
BRANCH  17  18
ATOM     18  N   UNL     1       7.532  -2.806   3.862  1.00  0.00    -0.331 N 
ATOM     19  C   UNL     1       7.897  -4.090   3.239  1.00  0.00     0.291 C 
ATOM     20  C   UNL     1       6.076  -2.692   3.984  1.00  0.00     0.291 C 
ATOM     21  H   UNL     1       7.874  -2.815   4.823  1.00  0.00     0.348 HD
ATOM     22  C   UNL     1       7.082  -4.449   1.989  1.00  0.00     0.221 C 
ATOM     23  C   UNL     1       5.302  -3.091   2.715  1.00  0.00     0.221 C 
ATOM     24  O   UNL     1       5.676  -4.393   2.255  1.00  0.00    -0.370 OA
ENDBRANCH  17  18
ENDBRANCH  16  17
ENDBRANCH  15  16
ENDBRANCH  13  15
ENDBRANCH  10  11
ENDBRANCH   5   6
ENDBRANCH   3   5
ENDBRANCH   2   3
ENDBRANCH   1   2
BRANCH   1  25
ATOM     25  C   UNL     1       4.521   0.032  -0.913  1.00  0.00     0.202 C 
BRANCH  25  26
ATOM     26  O   UNL     1       4.050   0.704  -2.079  1.00  0.00    -0.374 OA
BRANCH  26  27
ATOM     27  C   UNL     1       2.837   0.346  -2.724  1.00  0.00     0.202 C 
BRANCH  27  28
ATOM     28  C   UNL     1       2.852  -0.940  -3.515  1.00  0.00     0.261 C 
BRANCH  28  29
ATOM     29  O   UNL     1       3.091  -2.030  -2.644  1.00  0.00    -0.460 OA
BRANCH  29  30
ATOM     30  C   UNL     1       4.347  -2.519  -2.655  1.00  0.00     0.338 C 
ATOM     31  O   UNL     1       5.348  -1.998  -3.136  1.00  0.00    -0.246 OA
BRANCH  30  32
ATOM     32  C   UNL     1       4.260  -3.904  -2.195  1.00  0.00     0.060 A 
ATOM     33  C   UNL     1       5.225  -4.749  -2.739  1.00  0.00     0.016 A 
ATOM     34  C   UNL     1       3.042  -4.377  -1.673  1.00  0.00     0.016 A 
ATOM     35  C   UNL     1       4.838  -6.027  -3.047  1.00  0.00     0.010 A 
ATOM     36  C   UNL     1       2.649  -5.647  -2.008  1.00  0.00     0.010 A 
ATOM     37  C   UNL     1       3.519  -6.411  -2.777  1.00  0.00    -0.014 A 
BRANCH  37  38
ATOM     38  C   UNL     1       3.092  -7.671  -3.331  1.00  0.00     0.031 A 
ATOM     39  C   UNL     1       3.570  -8.836  -2.568  1.00  0.00     0.074 A 
ATOM     40  C   UNL     1       2.292  -7.756  -4.406  1.00  0.00     0.049 A 
ATOM     41  N   UNL     1       4.436  -9.723  -2.924  1.00  0.00    -0.248 NA
ATOM     42  C   UNL     1       3.140  -8.922  -1.165  1.00  0.00     0.031 C 
ATOM     43  C   UNL     1       1.498  -6.701  -5.040  1.00  0.00     0.029 A 
ATOM     44  N   UNL     1       1.942  -8.871  -5.096  1.00  0.00    -0.354 N 
ATOM     45  C   UNL     1       4.507 -10.605  -1.854  1.00  0.00     0.074 A 
ATOM     46  C   UNL     1       3.845  -9.969  -0.745  1.00  0.00     0.031 C 
ATOM     47  C   UNL     1       0.599  -7.274  -5.873  1.00  0.00     0.029 A 
ATOM     48  C   UNL     1       0.839  -8.709  -5.913  1.00  0.00     0.049 A 
ATOM     49  H   UNL     1       2.432  -9.722  -5.020  1.00  0.00     0.167 HD
ATOM     50  C   UNL     1       4.889 -11.898  -2.017  1.00  0.00     0.037 A 
ATOM     51  C   UNL     1       0.121  -9.714  -6.472  1.00  0.00     0.037 A 
ATOM     52  C   UNL     1       5.602 -12.099  -3.251  1.00  0.00     0.049 A 
ATOM     53  C   UNL     1       0.980 -10.933  -6.468  1.00  0.00     0.074 A 
ATOM     54  C   UNL     1       6.763 -11.578  -3.789  1.00  0.00     0.029 A 
ATOM     55  N   UNL     1       4.934 -12.684  -4.300  1.00  0.00    -0.354 N 
ATOM     56  N   UNL     1       2.067 -11.073  -7.178  1.00  0.00    -0.248 NA
ATOM     57  C   UNL     1       0.857 -11.850  -5.343  1.00  0.00     0.031 C 
ATOM     58  C   UNL     1       6.516 -11.473  -5.188  1.00  0.00     0.029 A 
ATOM     59  C   UNL     1       5.229 -11.956  -5.427  1.00  0.00     0.049 A 
ATOM     60  H   UNL     1       4.352 -13.476  -4.253  1.00  0.00     0.167 HD
ATOM     61  C   UNL     1       2.934 -11.807  -6.377  1.00  0.00     0.074 A 
ATOM     62  C   UNL     1       2.099 -12.339  -5.306  1.00  0.00     0.031 C 
ATOM     63  C   UNL     1       4.290 -11.693  -6.499  1.00  0.00     0.037 A 
BRANCH  50  64
ATOM     64  C   UNL     1       4.308 -13.021  -1.203  1.00  0.00     0.058 A 
ATOM     65  C   UNL     1       4.922 -14.285  -1.218  1.00  0.00     0.135 A 
ATOM     66  C   UNL     1       3.024 -12.966  -0.610  1.00  0.00     0.135 A 
ATOM     67  F   UNL     1       6.130 -14.450  -1.780  1.00  0.00    -0.206 F 
ATOM     68  C   UNL     1       4.283 -15.424  -0.729  1.00  0.00     0.059 A 
ATOM     69  C   UNL     1       2.399 -14.073  -0.057  1.00  0.00     0.059 A 
ATOM     70  F   UNL     1       2.271 -11.859  -0.632  1.00  0.00    -0.206 F 
ATOM     71  C   UNL     1       3.014 -15.307  -0.165  1.00  0.00     0.060 A 
BRANCH  71  72
ATOM     72  S   UNL     1       2.126 -16.787   0.343  1.00  0.00     0.124 S 
ATOM     73  O   UNL     1       1.755 -17.354  -0.948  1.00  0.00    -0.237 OA
ATOM     74  O   UNL     1       3.144 -17.513   1.095  1.00  0.00    -0.237 OA
ATOM     75  O   UNL     1       1.024 -16.257   1.142  1.00  0.00    -0.744 OA
ENDBRANCH  71  72
ENDBRANCH  50  64
BRANCH  51  76
ATOM     76  C   UNL     1      -1.354  -9.763  -6.640  1.00  0.00     0.058 A 
ATOM     77  C   UNL     1      -1.961 -10.736  -7.451  1.00  0.00     0.135 A 
ATOM     78  C   UNL     1      -2.219  -9.021  -5.807  1.00  0.00     0.135 A 
ATOM     79  F   UNL     1      -1.212 -11.511  -8.249  1.00  0.00    -0.206 F 
ATOM     80  C   UNL     1      -3.338 -10.981  -7.415  1.00  0.00     0.059 A 
ATOM     81  C   UNL     1      -3.594  -9.234  -5.767  1.00  0.00     0.059 A 
ATOM     82  F   UNL     1      -1.743  -8.123  -4.932  1.00  0.00    -0.206 F 
ATOM     83  C   UNL     1      -4.145 -10.232  -6.558  1.00  0.00     0.060 A 
BRANCH  83  84
ATOM     84  S   UNL     1      -5.896 -10.646  -6.391  1.00  0.00     0.124 S 
ATOM     85  O   UNL     1      -6.428 -10.228  -7.683  1.00  0.00    -0.237 OA
ATOM     86  O   UNL     1      -5.850 -12.085  -6.154  1.00  0.00    -0.237 OA
ATOM     87  O   UNL     1      -6.327  -9.843  -5.249  1.00  0.00    -0.744 OA
ENDBRANCH  83  84
ENDBRANCH  51  76
BRANCH  63  88
ATOM     88  C   UNL     1       4.839 -10.992  -7.716  1.00  0.00     0.058 A 
ATOM     89  C   UNL     1       4.642  -9.627  -7.987  1.00  0.00     0.135 A 
ATOM     90  C   UNL     1       5.736 -11.685  -8.545  1.00  0.00     0.135 A 
ATOM     91  F   UNL     1       3.887  -8.868  -7.180  1.00  0.00    -0.206 F 
ATOM     92  C   UNL     1       5.278  -8.988  -9.052  1.00  0.00     0.059 A 
ATOM     93  C   UNL     1       6.405 -11.060  -9.595  1.00  0.00     0.059 A 
ATOM     94  F   UNL     1       6.018 -12.976  -8.299  1.00  0.00    -0.206 F 
ATOM     95  C   UNL     1       6.164  -9.712  -9.849  1.00  0.00     0.060 A 
BRANCH  95  96
ATOM     96  S   UNL     1       7.070  -8.854 -11.155  1.00  0.00     0.124 S 
ATOM     97  O   UNL     1       6.041  -8.672 -12.174  1.00  0.00    -0.237 OA
ATOM     98  O   UNL     1       7.520  -7.636 -10.486  1.00  0.00    -0.237 OA
ATOM     99  O   UNL     1       8.136  -9.791 -11.503  1.00  0.00    -0.744 OA
ENDBRANCH  95  96
ENDBRANCH  63  88
ENDBRANCH  37  38
ENDBRANCH  30  32
ENDBRANCH  29  30
ENDBRANCH  28  29
ENDBRANCH  27  28
ENDBRANCH  26  27
ENDBRANCH  25  26
ENDBRANCH   1  25
TORSDOF 23
