REMARK SMILES COc1cc(CNc2ccc(N3CCOCC3)c(C(=O)OCCOCCOC(=O)c3ccc(-c4c5nc(c(-c6c(F)cc(S(=O)(=O)[O-])cc6F)c6ccc([nH]6)c(-c6c(F)cc(S(=O)(=O)[O-])cc6F)c6nc(c(-c7c(F)cc(S(=O)(=O)[O-])cc7F)c7ccc4[nH]7)C=C6)C=C5)cc3)c2)cc(Br)c1OC
REMARK SMILES IDX 23 1 22 2 21 3 19 4 20 5 18 6 8 7 9 8 96 9 10 10 11 11 7 12
REMARK SMILES IDX 6 14 5 15 3 16 4 17 100 18 98 19 97 20 99 21 2 22 1 23
REMARK SMILES IDX 101 24 102 25 12 26 13 27 17 28 14 29 16 30 15 31 24 32
REMARK SMILES IDX 25 33 26 34 27 35 28 36 29 37 30 38 31 39 95 40 32 41 94 42
REMARK SMILES IDX 33 43 34 44 35 45 88 46 36 47 93 48 87 49 89 50 37 51 92 52
REMARK SMILES IDX 86 53 85 54 38 56 72 57 51 58 71 59 52 60 55 61 70 62 90 63
REMARK SMILES IDX 53 64 54 65 69 67 91 68 56 69 39 70 40 71 49 72 41 73 42 74
REMARK SMILES IDX 48 75 50 76 43 77 44 78 45 79 46 80 47 81 73 82 74 83 83 84
REMARK SMILES IDX 75 85 76 86 82 87 84 88 77 89 78 90 79 91 80 92 81 93 57 94
REMARK SMILES IDX 58 95 67 96 59 97 60 98 66 99 68 100 61 101 62 102 63 103
REMARK SMILES IDX 64 104 65 105
REMARK H PARENT 7 13 89 55 55 66
REMARK Flexibility Score: inf
ROOT
ATOM      1  C   UNL     1      11.078  -3.599   3.249  1.00  0.00     0.202 C 
ENDROOT
BRANCH   1   2
ATOM      2  C   UNL     1      10.116  -2.411   3.329  1.00  0.00     0.261 C 
BRANCH   2   3
ATOM      3  O   UNL     1       8.922  -2.688   2.581  1.00  0.00    -0.460 OA
BRANCH   3   4
ATOM      4  C   UNL     1       8.519  -1.711   1.731  1.00  0.00     0.340 C 
ATOM      5  O   UNL     1       8.957  -0.571   1.674  1.00  0.00    -0.246 OA
BRANCH   4   6
ATOM      6  C   UNL     1       7.474  -2.259   0.840  1.00  0.00     0.085 A 
ATOM      7  C   UNL     1       5.295  -3.354   0.723  1.00  0.00     0.035 A 
ATOM      8  C   UNL     1       5.342  -3.186  -0.664  1.00  0.00     0.028 A 
ATOM      9  C   UNL     1       6.388  -2.903   1.459  1.00  0.00     0.043 A 
ATOM     10  C   UNL     1       6.436  -2.575  -1.292  1.00  0.00     0.029 A 
ATOM     11  C   UNL     1       7.525  -2.093  -0.557  1.00  0.00     0.052 A 
BRANCH   7  12
ATOM     12  N   UNL     1       4.157  -3.869   1.305  1.00  0.00    -0.381 N 
ATOM     13  H   UNL     1       3.564  -4.421   0.745  1.00  0.00     0.160 HD
BRANCH  12  14
ATOM     14  C   UNL     1       3.775  -3.651   2.689  1.00  0.00     0.149 C 
BRANCH  14  15
ATOM     15  C   UNL     1       2.363  -3.119   2.738  1.00  0.00    -0.024 A 
ATOM     16  C   UNL     1       0.721  -1.442   2.113  1.00  0.00     0.162 A 
ATOM     17  C   UNL     1       2.022  -1.951   2.050  1.00  0.00     0.056 A 
ATOM     18  C   UNL     1      -0.276  -2.070   2.902  1.00  0.00     0.174 A 
ATOM     19  C   UNL     1       0.078  -3.232   3.608  1.00  0.00     0.064 A 
ATOM     20  C   UNL     1       1.387  -3.744   3.518  1.00  0.00     0.025 A 
ATOM     21  Br  UNL     1      -1.051  -4.266   4.741  1.00  0.00    -0.047 Br
BRANCH  16  22
ATOM     22  O   UNL     1       0.370  -0.270   1.477  1.00  0.00    -0.493 OA
ATOM     23  C   UNL     1       0.952  -0.070   0.194  1.00  0.00     0.278 C 
ENDBRANCH  16  22
BRANCH  18  24
ATOM     24  O   UNL     1      -1.476  -1.416   2.826  1.00  0.00    -0.492 OA
ATOM     25  C   UNL     1      -2.612  -1.835   3.551  1.00  0.00     0.278 C 
ENDBRANCH  18  24
ENDBRANCH  14  15
ENDBRANCH  12  14
ENDBRANCH   7  12
BRANCH  11  26
ATOM     26  N   UNL     1       8.568  -1.499  -1.226  1.00  0.00    -0.366 N 
ATOM     27  C   UNL     1       9.758  -2.230  -1.651  1.00  0.00     0.145 C 
ATOM     28  C   UNL     1       8.535  -0.083  -1.588  1.00  0.00     0.145 C 
ATOM     29  C   UNL     1      11.002  -1.477  -1.153  1.00  0.00     0.181 C 
ATOM     30  C   UNL     1       9.864   0.595  -1.197  1.00  0.00     0.181 C 
ATOM     31  O   UNL     1      11.013  -0.134  -1.676  1.00  0.00    -0.378 OA
ENDBRANCH  11  26
ENDBRANCH   4   6
ENDBRANCH   3   4
ENDBRANCH   2   3
ENDBRANCH   1   2
BRANCH   1  32
ATOM     32  O   UNL     1      11.641  -3.910   1.972  1.00  0.00    -0.374 OA
BRANCH  32  33
ATOM     33  C   UNL     1      10.765  -4.378   0.954  1.00  0.00     0.202 C 
BRANCH  33  34
ATOM     34  C   UNL     1      10.257  -5.825   0.988  1.00  0.00     0.261 C 
BRANCH  34  35
ATOM     35  O   UNL     1       9.875  -6.277   2.285  1.00  0.00    -0.460 OA
BRANCH  35  36
ATOM     36  C   UNL     1      10.878  -6.907   2.942  1.00  0.00     0.338 C 
ATOM     37  O   UNL     1      11.993  -7.168   2.520  1.00  0.00    -0.246 OA
BRANCH  36  38
ATOM     38  C   UNL     1      10.486  -7.095   4.346  1.00  0.00     0.060 A 
ATOM     39  C   UNL     1      11.360  -6.610   5.325  1.00  0.00     0.016 A 
ATOM     40  C   UNL     1       9.314  -7.770   4.692  1.00  0.00     0.016 A 
ATOM     41  C   UNL     1      11.094  -6.856   6.665  1.00  0.00     0.010 A 
ATOM     42  C   UNL     1       9.052  -8.022   6.039  1.00  0.00     0.010 A 
ATOM     43  C   UNL     1       9.965  -7.605   7.024  1.00  0.00    -0.014 A 
BRANCH  43  44
ATOM     44  C   UNL     1       9.856  -8.101   8.413  1.00  0.00     0.031 A 
ATOM     45  C   UNL     1      10.255  -9.523   8.699  1.00  0.00     0.074 A 
ATOM     46  C   UNL     1       9.484  -7.273   9.404  1.00  0.00     0.049 A 
ATOM     47  N   UNL     1      10.267 -10.167   9.836  1.00  0.00    -0.248 NA
ATOM     48  C   UNL     1      10.703 -10.327   7.548  1.00  0.00     0.031 C 
ATOM     49  C   UNL     1       9.120  -5.866   9.237  1.00  0.00     0.029 A 
ATOM     50  N   UNL     1       9.362  -7.495  10.751  1.00  0.00    -0.354 N 
ATOM     51  C   UNL     1      10.732 -11.444   9.541  1.00  0.00     0.074 A 
ATOM     52  C   UNL     1      10.940 -11.502   8.112  1.00  0.00     0.031 C 
ATOM     53  C   UNL     1       8.816  -5.349  10.440  1.00  0.00     0.029 A 
ATOM     54  C   UNL     1       8.937  -6.394  11.454  1.00  0.00     0.049 A 
ATOM     55  H   UNL     1       9.560  -8.361  11.174  1.00  0.00     0.167 HD
ATOM     56  C   UNL     1      10.984 -12.467  10.391  1.00  0.00     0.037 A 
ATOM     57  C   UNL     1       8.665  -6.256  12.766  1.00  0.00     0.037 A 
ATOM     58  C   UNL     1      10.769 -12.395  11.812  1.00  0.00     0.049 A 
ATOM     59  C   UNL     1       8.870  -7.439  13.678  1.00  0.00     0.074 A 
ATOM     60  C   UNL     1      10.978 -13.375  12.765  1.00  0.00     0.029 A 
ATOM     61  N   UNL     1      10.293 -11.277  12.483  1.00  0.00    -0.354 N 
ATOM     62  N   UNL     1       9.322  -8.638  13.389  1.00  0.00    -0.248 NA
ATOM     63  C   UNL     1       8.535  -7.251  15.096  1.00  0.00     0.031 C 
ATOM     64  C   UNL     1      10.584 -12.865  14.007  1.00  0.00     0.029 A 
ATOM     65  C   UNL     1      10.184 -11.549  13.836  1.00  0.00     0.049 A 
ATOM     66  H   UNL     1      10.068 -10.418  12.060  1.00  0.00     0.167 HD
ATOM     67  C   UNL     1       9.356  -9.333  14.594  1.00  0.00     0.074 A 
ATOM     68  C   UNL     1       8.894  -8.416  15.615  1.00  0.00     0.031 C 
ATOM     69  C   UNL     1       9.733 -10.614  14.837  1.00  0.00     0.037 A 
BRANCH  56  70
ATOM     70  C   UNL     1      11.509 -13.748   9.804  1.00  0.00     0.058 A 
ATOM     71  C   UNL     1      12.812 -13.842   9.287  1.00  0.00     0.135 A 
ATOM     72  C   UNL     1      10.716 -14.906   9.789  1.00  0.00     0.135 A 
ATOM     73  F   UNL     1      13.606 -12.760   9.255  1.00  0.00    -0.206 F 
ATOM     74  C   UNL     1      13.301 -15.031   8.757  1.00  0.00     0.059 A 
ATOM     75  C   UNL     1      11.194 -16.115   9.290  1.00  0.00     0.059 A 
ATOM     76  F   UNL     1       9.461 -14.872  10.264  1.00  0.00    -0.206 F 
ATOM     77  C   UNL     1      12.485 -16.164   8.766  1.00  0.00     0.060 A 
BRANCH  77  78
ATOM     78  S   UNL     1      13.143 -17.703   8.090  1.00  0.00     0.124 S 
ATOM     79  O   UNL     1      13.180 -17.403   6.662  1.00  0.00    -0.237 OA
ATOM     80  O   UNL     1      14.440 -17.803   8.750  1.00  0.00    -0.237 OA
ATOM     81  O   UNL     1      12.158 -18.702   8.495  1.00  0.00    -0.744 OA
ENDBRANCH  77  78
ENDBRANCH  56  70
BRANCH  57  82
ATOM     82  C   UNL     1       8.159  -4.962  13.299  1.00  0.00     0.058 A 
ATOM     83  C   UNL     1       8.919  -4.198  14.197  1.00  0.00     0.135 A 
ATOM     84  C   UNL     1       6.890  -4.479  12.944  1.00  0.00     0.135 A 
ATOM     85  F   UNL     1      10.136  -4.619  14.573  1.00  0.00    -0.206 F 
ATOM     86  C   UNL     1       8.426  -3.021  14.752  1.00  0.00     0.059 A 
ATOM     87  C   UNL     1       6.388  -3.289  13.460  1.00  0.00     0.059 A 
ATOM     88  F   UNL     1       6.127  -5.162  12.076  1.00  0.00    -0.206 F 
ATOM     89  C   UNL     1       7.157  -2.576  14.379  1.00  0.00     0.060 A 
BRANCH  89  90
ATOM     90  S   UNL     1       6.529  -1.043  15.097  1.00  0.00     0.124 S 
ATOM     91  O   UNL     1       6.244  -1.456  16.466  1.00  0.00    -0.237 OA
ATOM     92  O   UNL     1       7.662  -0.139  14.924  1.00  0.00    -0.237 OA
ATOM     93  O   UNL     1       5.363  -0.740  14.273  1.00  0.00    -0.744 OA
ENDBRANCH  89  90
ENDBRANCH  57  82
BRANCH  69  94
ATOM     94  C   UNL     1       9.702 -11.084  16.266  1.00  0.00     0.058 A 
ATOM     95  C   UNL     1       8.495 -11.315  16.942  1.00  0.00     0.135 A 
ATOM     96  C   UNL     1      10.899 -11.352  16.951  1.00  0.00     0.135 A 
ATOM     97  F   UNL     1       7.322 -11.071  16.336  1.00  0.00    -0.206 F 
ATOM     98  C   UNL     1       8.475 -11.766  18.258  1.00  0.00     0.059 A 
ATOM     99  C   UNL     1      10.903 -11.835  18.255  1.00  0.00     0.059 A 
ATOM    100  F   UNL     1      12.083 -11.160  16.345  1.00  0.00    -0.206 F 
ATOM    101  C   UNL     1       9.685 -12.025  18.905  1.00  0.00     0.060 A 
BRANCH 101 102
ATOM    102  S   UNL     1       9.642 -12.638  20.602  1.00  0.00     0.124 S 
ATOM    103  O   UNL     1       9.238 -11.443  21.336  1.00  0.00    -0.237 OA
ATOM    104  O   UNL     1       8.646 -13.702  20.524  1.00  0.00    -0.237 OA
ATOM    105  O   UNL     1      11.011 -13.086  20.837  1.00  0.00    -0.744 OA
ENDBRANCH 101 102
ENDBRANCH  69  94
ENDBRANCH  43  44
ENDBRANCH  36  38
ENDBRANCH  35  36
ENDBRANCH  34  35
ENDBRANCH  33  34
ENDBRANCH  32  33
ENDBRANCH   1  32
TORSDOF 23
