REMARK SMILES Cc1cccc(-c2cccc(C(=O)OCCOCCOC(=O)c3ccc(-c4c5nc(c(-c6c(F)cc(S(=O)(=O)[O-])cc6F)c6ccc([nH]6)c(-c6c(F)cc(S(=O)(=O)[O-])cc6F)c6nc(c(-c7c(F)cc(S(=O)(=O)[O-])cc7F)c7ccc4[nH]7)C=C6)C=C5)cc3)c2)c1
REMARK SMILES IDX 18 1 17 2 16 3 15 4 14 5 12 6 13 7 11 8 7 9 8 10 89 11 9 12
REMARK SMILES IDX 10 13 6 14 1 15 2 16 3 17 90 18 4 19 5 20 19 21 20 22 21 23
REMARK SMILES IDX 22 24 23 25 24 26 88 27 25 28 87 29 26 30 27 31 28 32 81 33
REMARK SMILES IDX 29 34 86 35 80 36 82 37 30 38 85 39 79 40 78 41 31 43 65 44
REMARK SMILES IDX 44 45 64 46 45 47 48 48 63 49 83 50 46 51 47 52 62 54 84 55
REMARK SMILES IDX 49 56 32 57 33 58 42 59 34 60 35 61 41 62 43 63 36 64 37 65
REMARK SMILES IDX 38 66 39 67 40 68 66 69 67 70 76 71 68 72 69 73 75 74 77 75
REMARK SMILES IDX 70 76 71 77 72 78 73 79 74 80 50 81 51 82 60 83 52 84 53 85
REMARK SMILES IDX 59 86 61 87 54 88 55 89 56 90 57 91 58 92
REMARK H PARENT 82 42 48 53
REMARK Flexibility Score: inf
ROOT
ATOM      1  C   UNL     1      -6.717   2.518   1.339  1.00  0.00     0.202 C 
ENDROOT
BRANCH   1   2
ATOM      2  O   UNL     1      -6.187   3.776   1.678  1.00  0.00    -0.374 OA
BRANCH   2   3
ATOM      3  C   UNL     1      -6.561   4.875   0.861  1.00  0.00     0.202 C 
BRANCH   3   4
ATOM      4  C   UNL     1      -5.664   6.008   1.271  1.00  0.00     0.261 C 
BRANCH   4   5
ATOM      5  O   UNL     1      -4.291   5.769   0.907  1.00  0.00    -0.460 OA
BRANCH   5   6
ATOM      6  C   UNL     1      -3.583   4.751   1.459  1.00  0.00     0.338 C 
ATOM      7  O   UNL     1      -3.709   4.214   2.532  1.00  0.00    -0.246 OA
BRANCH   6   8
ATOM      8  C   UNL     1      -2.689   4.246   0.401  1.00  0.00     0.060 A 
ATOM      9  C   UNL     1      -1.463   2.368  -0.488  1.00  0.00    -0.018 A 
ATOM     10  C   UNL     1      -1.299   3.080  -1.690  1.00  0.00     0.009 A 
ATOM     11  C   UNL     1      -2.170   2.961   0.558  1.00  0.00     0.024 A 
ATOM     12  C   UNL     1      -1.788   4.377  -1.832  1.00  0.00     0.002 A 
ATOM     13  C   UNL     1      -2.469   4.967  -0.779  1.00  0.00     0.016 A 
BRANCH   9  14
ATOM     14  C   UNL     1      -0.844   1.059  -0.313  1.00  0.00    -0.018 A 
ATOM     15  C   UNL     1       2.698  -0.283   0.024  1.00  0.00     0.044 C 
ATOM     16  C   UNL     1       1.203  -0.239  -0.059  1.00  0.00    -0.051 A 
ATOM     17  C   UNL     1       0.438  -1.407   0.023  1.00  0.00     0.003 A 
ATOM     18  C   UNL     1       0.553   0.983  -0.229  1.00  0.00     0.012 A 
ATOM     19  C   UNL     1      -0.956  -1.346  -0.042  1.00  0.00     0.001 A 
ATOM     20  C   UNL     1      -1.596  -0.116  -0.204  1.00  0.00     0.009 A 
ENDBRANCH   9  14
ENDBRANCH   6   8
ENDBRANCH   5   6
ENDBRANCH   4   5
ENDBRANCH   3   4
ENDBRANCH   2   3
ENDBRANCH   1   2
BRANCH   1  21
ATOM     21  C   UNL     1      -8.246   2.498   1.388  1.00  0.00     0.261 C 
BRANCH  21  22
ATOM     22  O   UNL     1      -8.742   2.602   2.743  1.00  0.00    -0.460 OA
BRANCH  22  23
ATOM     23  C   UNL     1      -9.115   3.851   3.162  1.00  0.00     0.338 C 
ATOM     24  O   UNL     1     -10.173   4.375   2.861  1.00  0.00    -0.246 OA
BRANCH  23  25
ATOM     25  C   UNL     1      -8.062   4.449   4.035  1.00  0.00     0.060 A 
ATOM     26  C   UNL     1      -7.986   5.835   4.273  1.00  0.00     0.016 A 
ATOM     27  C   UNL     1      -7.008   3.631   4.416  1.00  0.00     0.016 A 
ATOM     28  C   UNL     1      -6.791   6.413   4.749  1.00  0.00     0.010 A 
ATOM     29  C   UNL     1      -5.804   4.216   4.726  1.00  0.00     0.010 A 
ATOM     30  C   UNL     1      -5.669   5.604   4.902  1.00  0.00    -0.014 A 
BRANCH  30  31
ATOM     31  C   UNL     1      -4.291   6.016   5.206  1.00  0.00     0.031 A 
ATOM     32  C   UNL     1      -3.660   5.429   6.421  1.00  0.00     0.074 A 
ATOM     33  C   UNL     1      -3.494   6.613   4.282  1.00  0.00     0.049 A 
ATOM     34  N   UNL     1      -2.536   5.821   6.910  1.00  0.00    -0.248 NA
ATOM     35  C   UNL     1      -4.270   4.378   7.239  1.00  0.00     0.031 C 
ATOM     36  C   UNL     1      -2.048   6.428   4.129  1.00  0.00     0.029 A 
ATOM     37  N   UNL     1      -3.807   7.458   3.215  1.00  0.00    -0.354 N 
ATOM     38  C   UNL     1      -2.114   4.869   7.813  1.00  0.00     0.074 A 
ATOM     39  C   UNL     1      -3.289   4.092   8.097  1.00  0.00     0.031 C 
ATOM     40  C   UNL     1      -1.569   7.277   3.204  1.00  0.00     0.029 A 
ATOM     41  C   UNL     1      -2.657   8.151   2.809  1.00  0.00     0.049 A 
ATOM     42  H   UNL     1      -4.699   7.552   2.809  1.00  0.00     0.167 HD
ATOM     43  C   UNL     1      -0.779   4.772   8.075  1.00  0.00     0.037 A 
ATOM     44  C   UNL     1      -2.642   9.510   2.723  1.00  0.00     0.037 A 
ATOM     45  C   UNL     1      -0.050   5.787   7.305  1.00  0.00     0.049 A 
ATOM     46  C   UNL     1      -1.691  10.035   3.758  1.00  0.00     0.074 A 
ATOM     47  C   UNL     1       0.731   5.713   6.163  1.00  0.00     0.029 A 
ATOM     48  N   UNL     1      -0.320   7.136   7.511  1.00  0.00    -0.354 N 
ATOM     49  N   UNL     1      -1.339   9.315   4.786  1.00  0.00    -0.248 NA
ATOM     50  C   UNL     1      -0.997  11.317   3.716  1.00  0.00     0.031 C 
ATOM     51  C   UNL     1       0.919   7.035   5.679  1.00  0.00     0.029 A 
ATOM     52  C   UNL     1       0.264   7.911   6.531  1.00  0.00     0.049 A 
ATOM     53  H   UNL     1      -0.856   7.489   8.257  1.00  0.00     0.167 HD
ATOM     54  C   UNL     1      -0.380   9.957   5.498  1.00  0.00     0.074 A 
ATOM     55  C   UNL     1      -0.220  11.227   4.814  1.00  0.00     0.031 C 
ATOM     56  C   UNL     1       0.193   9.367   6.583  1.00  0.00     0.037 A 
BRANCH  43  57
ATOM     57  C   UNL     1      -0.057   3.651   8.812  1.00  0.00     0.058 A 
ATOM     58  C   UNL     1       1.359   3.606   8.800  1.00  0.00     0.135 A 
ATOM     59  C   UNL     1      -0.651   2.585   9.521  1.00  0.00     0.135 A 
ATOM     60  F   UNL     1       2.089   4.571   8.224  1.00  0.00    -0.206 F 
ATOM     61  C   UNL     1       2.105   2.578   9.381  1.00  0.00     0.059 A 
ATOM     62  C   UNL     1       0.074   1.541  10.106  1.00  0.00     0.059 A 
ATOM     63  F   UNL     1      -1.966   2.498   9.721  1.00  0.00    -0.206 F 
ATOM     64  C   UNL     1       1.454   1.542  10.028  1.00  0.00     0.060 A 
BRANCH  64  65
ATOM     65  S   UNL     1       2.429   0.239  10.793  1.00  0.00     0.124 S 
ATOM     66  O   UNL     1       3.126  -0.335   9.646  1.00  0.00    -0.237 OA
ATOM     67  O   UNL     1       3.258   0.988  11.732  1.00  0.00    -0.237 OA
ATOM     68  O   UNL     1       1.424  -0.627  11.405  1.00  0.00    -0.744 OA
ENDBRANCH  64  65
ENDBRANCH  43  57
BRANCH  44  69
ATOM     69  C   UNL     1      -3.961  10.062   2.283  1.00  0.00     0.058 A 
ATOM     70  C   UNL     1      -4.276   9.936   0.911  1.00  0.00     0.135 A 
ATOM     71  C   UNL     1      -5.042  10.133   3.178  1.00  0.00     0.135 A 
ATOM     72  F   UNL     1      -3.288   9.871   0.003  1.00  0.00    -0.206 F 
ATOM     73  C   UNL     1      -5.582   9.713   0.466  1.00  0.00     0.059 A 
ATOM     74  C   UNL     1      -6.353   9.879   2.755  1.00  0.00     0.059 A 
ATOM     75  F   UNL     1      -4.816  10.262   4.493  1.00  0.00    -0.206 F 
ATOM     76  C   UNL     1      -6.607   9.618   1.405  1.00  0.00     0.060 A 
BRANCH  76  77
ATOM     77  S   UNL     1      -8.203   8.902   0.898  1.00  0.00     0.124 S 
ATOM     78  O   UNL     1      -8.902  10.064   0.366  1.00  0.00    -0.237 OA
ATOM     79  O   UNL     1      -7.817   7.897  -0.093  1.00  0.00    -0.237 OA
ATOM     80  O   UNL     1      -8.722   8.352   2.145  1.00  0.00    -0.744 OA
ENDBRANCH  76  77
ENDBRANCH  44  69
BRANCH  56  81
ATOM     81  C   UNL     1       0.830  10.107   7.724  1.00  0.00     0.058 A 
ATOM     82  C   UNL     1       0.595  11.467   7.985  1.00  0.00     0.135 A 
ATOM     83  C   UNL     1       1.586   9.418   8.705  1.00  0.00     0.135 A 
ATOM     84  F   UNL     1      -0.227  12.203   7.225  1.00  0.00    -0.206 F 
ATOM     85  C   UNL     1       1.165  12.123   9.070  1.00  0.00     0.059 A 
ATOM     86  C   UNL     1       2.100  10.038   9.835  1.00  0.00     0.059 A 
ATOM     87  F   UNL     1       1.842   8.106   8.616  1.00  0.00    -0.206 F 
ATOM     88  C   UNL     1       1.927  11.403   9.982  1.00  0.00     0.060 A 
BRANCH  88  89
ATOM     89  S   UNL     1       2.684  12.268  11.358  1.00  0.00     0.124 S 
ATOM     90  O   UNL     1       3.841  12.876  10.708  1.00  0.00    -0.237 OA
ATOM     91  O   UNL     1       1.631  13.193  11.768  1.00  0.00    -0.237 OA
ATOM     92  O   UNL     1       2.979  11.203  12.310  1.00  0.00    -0.744 OA
ENDBRANCH  88  89
ENDBRANCH  56  81
ENDBRANCH  30  31
ENDBRANCH  23  25
ENDBRANCH  22  23
ENDBRANCH  21  22
ENDBRANCH   1  21
TORSDOF 18
