REMARK SMILES COc1ccc(-c2cc(Cl)cc3c2O[C@@H](C(F)(F)F)C(C(=O)OCCOCCOC(=O)c2ccc(-c4c5nc(c(-c6c(F)cc(S(=O)(=O)[O-])cc6F)c6ccc([nH]6)c(-c6c(F)cc(S(=O)(=O)[O-])cc6F)c6nc(c(-c7c(F)cc(S(=O)(=O)[O-])cc7F)c7ccc4[nH]7)C=C6)C=C5)cc2)=C3)cc1C
REMARK SMILES IDX 27 1 26 2 25 3 24 4 23 5 21 6 22 7 20 8 7 9 8 10 13 11 9 12
REMARK SMILES IDX 12 13 14 14 10 15 11 16 98 17 15 18 6 19 3 20 4 21 100 22
REMARK SMILES IDX 5 23 99 24 101 25 2 26 1 27 16 28 17 29 18 30 19 31 28 32
REMARK SMILES IDX 29 33 30 34 31 35 32 36 33 37 97 38 34 39 96 40 35 41 36 42
REMARK SMILES IDX 37 43 90 44 38 45 95 46 89 47 91 48 39 49 94 50 88 51 87 52
REMARK SMILES IDX 40 54 74 55 53 56 73 57 54 58 57 59 72 60 92 61 55 62 56 63
REMARK SMILES IDX 71 65 93 66 58 67 41 68 42 69 51 70 43 71 44 72 50 73 52 74
REMARK SMILES IDX 45 75 46 76 47 77 48 78 49 79 75 80 76 81 85 82 77 83 78 84
REMARK SMILES IDX 84 85 86 86 79 87 80 88 81 89 82 90 83 91 59 92 60 93 69 94
REMARK SMILES IDX 61 95 62 96 68 97 70 98 63 99 64 100 65 101 66 102 67 103
REMARK H PARENT 91 53 57 64
REMARK Flexibility Score: inf
ROOT
ATOM      1  C   UNL     1      -2.745   4.738  -5.968  1.00  0.00     0.202 C 
ENDROOT
BRANCH   1   2
ATOM      2  O   UNL     1      -1.738   4.960  -4.984  1.00  0.00    -0.374 OA
BRANCH   2   3
ATOM      3  C   UNL     1      -1.660   6.306  -4.525  1.00  0.00     0.202 C 
BRANCH   3   4
ATOM      4  C   UNL     1      -0.453   6.452  -3.585  1.00  0.00     0.261 C 
BRANCH   4   5
ATOM      5  O   UNL     1       0.215   7.726  -3.675  1.00  0.00    -0.460 OA
BRANCH   5   6
ATOM      6  C   UNL     1       1.586   7.654  -3.728  1.00  0.00     0.338 C 
ATOM      7  O   UNL     1       2.307   6.946  -3.064  1.00  0.00    -0.246 OA
BRANCH   6   8
ATOM      8  C   UNL     1       2.051   8.347  -5.005  1.00  0.00     0.087 C 
ATOM      9  C   UNL     1       1.917   4.484  -6.070  1.00  0.00     0.026 A 
ATOM     10  C   UNL     1       2.941   3.941  -6.874  1.00  0.00     0.033 A 
ATOM     11  C   UNL     1       1.891   5.897  -6.014  1.00  0.00     0.135 A 
ATOM     12  C   UNL     1       4.000   4.724  -7.332  1.00  0.00     0.042 A 
ATOM     13  C   UNL     1       3.108   6.608  -6.164  1.00  0.00     0.019 A 
ATOM     14  O   UNL     1       0.695   6.673  -6.057  1.00  0.00    -0.475 OA
ATOM     15  Cl  UNL     1       5.212   4.014  -8.322  1.00  0.00    -0.084 Cl
ATOM     16  C   UNL     1       4.139   6.035  -6.895  1.00  0.00     0.032 A 
ATOM     17  C   UNL     1       3.230   7.962  -5.540  1.00  0.00     0.027 C 
ATOM     18  C   UNL     1       0.958   8.153  -6.038  1.00  0.00     0.316 C 
BRANCH   9  19
ATOM     19  C   UNL     1       1.477   3.505  -4.998  1.00  0.00    -0.014 A 
ATOM     20  C   UNL     1       1.137   1.149  -3.364  1.00  0.00     0.121 A 
ATOM     21  C   UNL     1       0.203   1.513  -4.338  1.00  0.00     0.047 A 
ATOM     22  C   UNL     1       2.285   1.928  -3.214  1.00  0.00    -0.008 A 
ATOM     23  C   UNL     1       0.374   2.662  -5.148  1.00  0.00     0.013 A 
ATOM     24  C   UNL     1       2.405   3.124  -3.982  1.00  0.00     0.016 A 
ATOM     25  C   UNL     1       3.469   1.428  -2.428  1.00  0.00     0.048 C 
BRANCH  20  26
ATOM     26  O   UNL     1       0.943  -0.069  -2.759  1.00  0.00    -0.496 OA
ATOM     27  C   UNL     1       0.781  -0.012  -1.341  1.00  0.00     0.278 C 
ENDBRANCH  20  26
ENDBRANCH   9  19
BRANCH  18  28
ATOM     28  C   UNL     1      -0.138   9.264  -5.844  1.00  0.00     0.430 C 
ATOM     29  F   UNL     1       0.298  10.249  -5.008  1.00  0.00    -0.167 F 
ATOM     30  F   UNL     1      -0.359   9.891  -7.035  1.00  0.00    -0.167 F 
ATOM     31  F   UNL     1      -1.339   8.886  -5.392  1.00  0.00    -0.167 F 
ENDBRANCH  18  28
ENDBRANCH   6   8
ENDBRANCH   5   6
ENDBRANCH   4   5
ENDBRANCH   3   4
ENDBRANCH   2   3
ENDBRANCH   1   2
BRANCH   1  32
ATOM     32  C   UNL     1      -4.191   4.944  -5.485  1.00  0.00     0.261 C 
BRANCH  32  33
ATOM     33  O   UNL     1      -4.323   4.808  -4.063  1.00  0.00    -0.460 OA
BRANCH  33  34
ATOM     34  C   UNL     1      -4.265   3.563  -3.540  1.00  0.00     0.338 C 
ATOM     35  O   UNL     1      -4.488   2.512  -4.118  1.00  0.00    -0.246 OA
BRANCH  34  36
ATOM     36  C   UNL     1      -3.401   3.707  -2.346  1.00  0.00     0.060 A 
ATOM     37  C   UNL     1      -3.711   4.468  -1.219  1.00  0.00     0.016 A 
ATOM     38  C   UNL     1      -2.093   3.306  -2.565  1.00  0.00     0.016 A 
ATOM     39  C   UNL     1      -2.677   4.949  -0.393  1.00  0.00     0.010 A 
ATOM     40  C   UNL     1      -1.075   3.830  -1.790  1.00  0.00     0.010 A 
ATOM     41  C   UNL     1      -1.343   4.709  -0.729  1.00  0.00    -0.014 A 
BRANCH  41  42
ATOM     42  C   UNL     1      -0.174   5.477  -0.230  1.00  0.00     0.031 A 
ATOM     43  C   UNL     1       1.058   4.763   0.202  1.00  0.00     0.074 A 
ATOM     44  C   UNL     1      -0.101   6.821  -0.414  1.00  0.00     0.049 A 
ATOM     45  N   UNL     1       2.152   5.322   0.580  1.00  0.00    -0.248 NA
ATOM     46  C   UNL     1       1.142   3.314   0.283  1.00  0.00     0.031 C 
ATOM     47  C   UNL     1       1.102   7.658  -0.468  1.00  0.00     0.029 A 
ATOM     48  N   UNL     1      -1.125   7.742  -0.613  1.00  0.00    -0.354 N 
ATOM     49  C   UNL     1       3.136   4.371   0.719  1.00  0.00     0.074 A 
ATOM     50  C   UNL     1       2.441   3.125   0.536  1.00  0.00     0.031 C 
ATOM     51  C   UNL     1       0.760   8.955  -0.481  1.00  0.00     0.029 A 
ATOM     52  C   UNL     1      -0.669   9.023  -0.271  1.00  0.00     0.049 A 
ATOM     53  H   UNL     1      -2.028   7.527  -0.941  1.00  0.00     0.167 HD
ATOM     54  C   UNL     1       4.417   4.798   0.932  1.00  0.00     0.037 A 
ATOM     55  C   UNL     1      -1.268   9.642   0.788  1.00  0.00     0.037 A 
ATOM     56  C   UNL     1       4.391   6.213   1.343  1.00  0.00     0.049 A 
ATOM     57  C   UNL     1      -0.374   9.603   2.017  1.00  0.00     0.074 A 
ATOM     58  C   UNL     1       4.683   7.418   0.726  1.00  0.00     0.029 A 
ATOM     59  N   UNL     1       3.662   6.540   2.490  1.00  0.00    -0.354 N 
ATOM     60  N   UNL     1       0.732   8.904   2.074  1.00  0.00    -0.248 NA
ATOM     61  C   UNL     1      -0.578  10.374   3.239  1.00  0.00     0.031 C 
ATOM     62  C   UNL     1       4.005   8.451   1.444  1.00  0.00     0.029 A 
ATOM     63  C   UNL     1       3.327   7.882   2.512  1.00  0.00     0.049 A 
ATOM     64  H   UNL     1       3.417   5.896   3.193  1.00  0.00     0.167 HD
ATOM     65  C   UNL     1       1.356   9.075   3.270  1.00  0.00     0.074 A 
ATOM     66  C   UNL     1       0.496  10.015   3.970  1.00  0.00     0.031 C 
ATOM     67  C   UNL     1       2.510   8.422   3.600  1.00  0.00     0.037 A 
BRANCH  54  68
ATOM     68  C   UNL     1       5.693   4.002   0.670  1.00  0.00     0.058 A 
ATOM     69  C   UNL     1       6.938   4.659   0.513  1.00  0.00     0.135 A 
ATOM     70  C   UNL     1       5.767   2.605   0.484  1.00  0.00     0.135 A 
ATOM     71  F   UNL     1       7.053   5.985   0.675  1.00  0.00    -0.206 F 
ATOM     72  C   UNL     1       8.126   3.997   0.161  1.00  0.00     0.059 A 
ATOM     73  C   UNL     1       6.932   1.925   0.107  1.00  0.00     0.059 A 
ATOM     74  F   UNL     1       4.721   1.803   0.682  1.00  0.00    -0.206 F 
ATOM     75  C   UNL     1       8.112   2.627  -0.055  1.00  0.00     0.060 A 
BRANCH  75  76
ATOM     76  S   UNL     1       9.620   1.778  -0.565  1.00  0.00     0.124 S 
ATOM     77  O   UNL     1      10.098   2.616  -1.661  1.00  0.00    -0.237 OA
ATOM     78  O   UNL     1      10.417   1.813   0.656  1.00  0.00    -0.237 OA
ATOM     79  O   UNL     1       9.146   0.455  -0.964  1.00  0.00    -0.744 OA
ENDBRANCH  75  76
ENDBRANCH  54  68
BRANCH  55  80
ATOM     80  C   UNL     1      -2.761   9.569   0.624  1.00  0.00     0.058 A 
ATOM     81  C   UNL     1      -3.261  10.305  -0.478  1.00  0.00     0.135 A 
ATOM     82  C   UNL     1      -3.504   8.437   1.007  1.00  0.00     0.135 A 
ATOM     83  F   UNL     1      -2.604  11.400  -0.895  1.00  0.00    -0.206 F 
ATOM     84  C   UNL     1      -4.294   9.830  -1.286  1.00  0.00     0.059 A 
ATOM     85  C   UNL     1      -4.566   7.955   0.217  1.00  0.00     0.059 A 
ATOM     86  F   UNL     1      -3.093   7.678   2.034  1.00  0.00    -0.206 F 
ATOM     87  C   UNL     1      -4.902   8.620  -0.965  1.00  0.00     0.060 A 
BRANCH  87  88
ATOM     88  S   UNL     1      -5.977   7.861  -2.217  1.00  0.00     0.124 S 
ATOM     89  O   UNL     1      -7.142   8.738  -2.187  1.00  0.00    -0.237 OA
ATOM     90  O   UNL     1      -5.151   7.947  -3.419  1.00  0.00    -0.237 OA
ATOM     91  O   UNL     1      -6.199   6.513  -1.707  1.00  0.00    -0.744 OA
ENDBRANCH  87  88
ENDBRANCH  55  80
BRANCH  67  92
ATOM     92  C   UNL     1       2.985   8.266   5.019  1.00  0.00     0.058 A 
ATOM     93  C   UNL     1       2.099   8.143   6.104  1.00  0.00     0.135 A 
ATOM     94  C   UNL     1       4.351   8.050   5.305  1.00  0.00     0.135 A 
ATOM     95  F   UNL     1       0.770   8.210   5.932  1.00  0.00    -0.206 F 
ATOM     96  C   UNL     1       2.542   7.902   7.400  1.00  0.00     0.059 A 
ATOM     97  C   UNL     1       4.809   7.749   6.584  1.00  0.00     0.059 A 
ATOM     98  F   UNL     1       5.283   8.105   4.341  1.00  0.00    -0.206 F 
ATOM     99  C   UNL     1       3.900   7.710   7.632  1.00  0.00     0.060 A 
BRANCH  99 100
ATOM    100  S   UNL     1       4.471   7.371   9.305  1.00  0.00     0.124 S 
ATOM    101  O   UNL     1       4.727   8.720   9.799  1.00  0.00    -0.237 OA
ATOM    102  O   UNL     1       3.330   6.686   9.906  1.00  0.00    -0.237 OA
ATOM    103  O   UNL     1       5.650   6.538   9.090  1.00  0.00    -0.744 OA
ENDBRANCH  99 100
ENDBRANCH  67  92
ENDBRANCH  41  42
ENDBRANCH  34  36
ENDBRANCH  33  34
ENDBRANCH  32  33
ENDBRANCH   1  32
TORSDOF 20
