REMARK SMILES COc1ccc(CSc2ncccc2C(=O)OCCOCCOC(=O)c2ccc(-c3c4nc(c(-c5c(F)cc(S(=O)(=O)[O-])cc5F)c5ccc([nH]5)c(-c5c(F)cc(S(=O)(=O)[O-])cc5F)c5nc(c(-c6c(F)cc(S(=O)(=O)[O-])cc6F)c6ccc3[nH]6)C=C5)C=C4)cc2)cc1
REMARK SMILES IDX 19 1 18 2 17 3 15 4 16 5 14 6 9 7 10 8 11 9 13 10 12 11 8 12
REMARK SMILES IDX 7 13 6 14 3 15 4 16 93 17 5 18 92 19 2 20 1 21 20 22 21 23
REMARK SMILES IDX 22 24 23 25 24 26 25 27 26 28 27 29 91 30 28 31 90 32 29 33
REMARK SMILES IDX 30 34 31 35 84 36 32 37 89 38 83 39 85 40 33 41 88 42 82 43
REMARK SMILES IDX 81 44 34 46 68 47 47 48 67 49 48 50 51 51 66 52 86 53 49 54
REMARK SMILES IDX 50 55 65 57 87 58 52 59 35 60 36 61 45 62 37 63 38 64 44 65
REMARK SMILES IDX 46 66 39 67 40 68 41 69 42 70 43 71 69 72 70 73 79 74 71 75
REMARK SMILES IDX 72 76 78 77 80 78 73 79 74 80 75 81 76 82 77 83 53 84 54 85
REMARK SMILES IDX 63 86 55 87 56 88 62 89 64 90 57 91 58 92 59 93 60 94 61 95
REMARK H PARENT 85 45 51 56
REMARK Flexibility Score: inf
ROOT
ATOM      1  C   UNL     1       3.147 -11.812   3.400  1.00  0.00     0.202 C 
ENDROOT
BRANCH   1   2
ATOM      2  C   UNL     1       4.360 -10.997   2.935  1.00  0.00     0.261 C 
BRANCH   2   3
ATOM      3  O   UNL     1       4.325  -9.666   3.477  1.00  0.00    -0.460 OA
BRANCH   3   4
ATOM      4  C   UNL     1       4.329  -8.665   2.567  1.00  0.00     0.340 C 
ATOM      5  O   UNL     1       4.547  -8.749   1.366  1.00  0.00    -0.246 OA
BRANCH   4   6
ATOM      6  C   UNL     1       3.939  -7.413   3.229  1.00  0.00     0.092 A 
ATOM      7  C   UNL     1       2.882  -6.641   2.741  1.00  0.00     0.111 A 
ATOM      8  N   UNL     1       2.552  -5.450   3.301  1.00  0.00    -0.249 NA
ATOM      9  C   UNL     1       3.267  -5.027   4.366  1.00  0.00     0.112 A 
ATOM     10  C   UNL     1       4.634  -6.975   4.363  1.00  0.00     0.020 A 
ATOM     11  C   UNL     1       4.289  -5.760   4.944  1.00  0.00     0.021 A 
BRANCH   7  12
ATOM     12  S   UNL     1       1.689  -7.261   1.561  1.00  0.00    -0.101 SA
BRANCH  12  13
ATOM     13  C   UNL     1       2.048  -6.217   0.125  1.00  0.00     0.112 C 
BRANCH  13  14
ATOM     14  C   UNL     1       1.607  -4.783   0.275  1.00  0.00    -0.037 A 
ATOM     15  C   UNL     1       0.828  -2.098   0.576  1.00  0.00     0.118 A 
ATOM     16  C   UNL     1      -0.105  -3.121   0.735  1.00  0.00     0.047 A 
ATOM     17  C   UNL     1       2.153  -2.413   0.278  1.00  0.00     0.047 A 
ATOM     18  C   UNL     1       0.274  -4.454   0.566  1.00  0.00     0.008 A 
ATOM     19  C   UNL     1       2.538  -3.748   0.124  1.00  0.00     0.008 A 
BRANCH  15  20
ATOM     20  O   UNL     1       0.357  -0.830   0.786  1.00  0.00    -0.497 OA
ATOM     21  C   UNL     1       0.966   0.171  -0.022  1.00  0.00     0.278 C 
ENDBRANCH  15  20
ENDBRANCH  13  14
ENDBRANCH  12  13
ENDBRANCH   7  12
ENDBRANCH   4   6
ENDBRANCH   3   4
ENDBRANCH   2   3
ENDBRANCH   1   2
BRANCH   1  22
ATOM     22  O   UNL     1       1.860 -11.363   2.971  1.00  0.00    -0.374 OA
BRANCH  22  23
ATOM     23  C   UNL     1       1.327 -10.199   3.600  1.00  0.00     0.202 C 
BRANCH  23  24
ATOM     24  C   UNL     1       0.692 -10.354   4.986  1.00  0.00     0.261 C 
BRANCH  24  25
ATOM     25  O   UNL     1       1.587 -10.924   5.951  1.00  0.00    -0.460 OA
BRANCH  25  26
ATOM     26  C   UNL     1       1.339 -12.228   6.224  1.00  0.00     0.338 C 
ATOM     27  O   UNL     1       0.414 -12.907   5.805  1.00  0.00    -0.246 OA
BRANCH  26  28
ATOM     28  C   UNL     1       2.461 -12.804   6.983  1.00  0.00     0.060 A 
ATOM     29  C   UNL     1       3.039 -13.972   6.474  1.00  0.00     0.016 A 
ATOM     30  C   UNL     1       2.894 -12.262   8.195  1.00  0.00     0.016 A 
ATOM     31  C   UNL     1       4.017 -14.637   7.205  1.00  0.00     0.010 A 
ATOM     32  C   UNL     1       3.877 -12.935   8.930  1.00  0.00     0.010 A 
ATOM     33  C   UNL     1       4.414 -14.145   8.456  1.00  0.00    -0.014 A 
BRANCH  33  34
ATOM     34  C   UNL     1       5.305 -14.978   9.299  1.00  0.00     0.031 A 
ATOM     35  C   UNL     1       4.717 -15.775  10.431  1.00  0.00     0.074 A 
ATOM     36  C   UNL     1       6.614 -15.074   9.006  1.00  0.00     0.049 A 
ATOM     37  N   UNL     1       5.304 -16.615  11.244  1.00  0.00    -0.248 NA
ATOM     38  C   UNL     1       3.277 -15.604  10.681  1.00  0.00     0.031 C 
ATOM     39  C   UNL     1       7.289 -14.362   7.921  1.00  0.00     0.029 A 
ATOM     40  N   UNL     1       7.608 -15.817   9.591  1.00  0.00    -0.354 N 
ATOM     41  C   UNL     1       4.310 -17.073  12.100  1.00  0.00     0.074 A 
ATOM     42  C   UNL     1       3.089 -16.387  11.733  1.00  0.00     0.031 C 
ATOM     43  C   UNL     1       8.587 -14.709   7.914  1.00  0.00     0.029 A 
ATOM     44  C   UNL     1       8.839 -15.645   9.007  1.00  0.00     0.049 A 
ATOM     45  H   UNL     1       7.453 -16.416  10.357  1.00  0.00     0.167 HD
ATOM     46  C   UNL     1       4.403 -17.991  13.092  1.00  0.00     0.037 A 
ATOM     47  C   UNL     1      10.036 -16.178   9.323  1.00  0.00     0.037 A 
ATOM     48  C   UNL     1       5.624 -18.669  13.450  1.00  0.00     0.049 A 
ATOM     49  C   UNL     1      10.123 -17.165  10.457  1.00  0.00     0.074 A 
ATOM     50  C   UNL     1       5.819 -19.637  14.420  1.00  0.00     0.029 A 
ATOM     51  N   UNL     1       6.860 -18.443  12.861  1.00  0.00    -0.354 N 
ATOM     52  N   UNL     1       9.166 -17.619  11.232  1.00  0.00    -0.248 NA
ATOM     53  C   UNL     1      11.450 -17.721  10.750  1.00  0.00     0.031 C 
ATOM     54  C   UNL     1       7.181 -19.954  14.455  1.00  0.00     0.029 A 
ATOM     55  C   UNL     1       7.827 -19.229  13.466  1.00  0.00     0.049 A 
ATOM     56  H   UNL     1       7.025 -17.816  12.120  1.00  0.00     0.167 HD
ATOM     57  C   UNL     1       9.772 -18.527  12.094  1.00  0.00     0.074 A 
ATOM     58  C   UNL     1      11.173 -18.575  11.726  1.00  0.00     0.031 C 
ATOM     59  C   UNL     1       9.222 -19.254  13.100  1.00  0.00     0.037 A 
BRANCH  46  60
ATOM     60  C   UNL     1       3.156 -18.296  13.880  1.00  0.00     0.058 A 
ATOM     61  C   UNL     1       2.076 -18.997  13.319  1.00  0.00     0.135 A 
ATOM     62  C   UNL     1       3.053 -17.906  15.225  1.00  0.00     0.135 A 
ATOM     63  F   UNL     1       2.113 -19.380  12.033  1.00  0.00    -0.206 F 
ATOM     64  C   UNL     1       0.928 -19.275  14.055  1.00  0.00     0.059 A 
ATOM     65  C   UNL     1       1.926 -18.199  15.988  1.00  0.00     0.059 A 
ATOM     66  F   UNL     1       4.054 -17.231  15.812  1.00  0.00    -0.206 F 
ATOM     67  C   UNL     1       0.862 -18.871  15.389  1.00  0.00     0.060 A 
BRANCH  67  68
ATOM     68  S   UNL     1      -0.633 -19.241  16.331  1.00  0.00     0.124 S 
ATOM     69  O   UNL     1      -1.589 -18.310  15.738  1.00  0.00    -0.237 OA
ATOM     70  O   UNL     1      -0.852 -20.651  16.028  1.00  0.00    -0.237 OA
ATOM     71  O   UNL     1      -0.249 -18.950  17.709  1.00  0.00    -0.744 OA
ENDBRANCH  67  68
ENDBRANCH  46  60
BRANCH  47  72
ATOM     72  C   UNL     1      11.246 -15.786   8.553  1.00  0.00     0.058 A 
ATOM     73  C   UNL     1      11.897 -16.694   7.705  1.00  0.00     0.135 A 
ATOM     74  C   UNL     1      11.767 -14.485   8.640  1.00  0.00     0.135 A 
ATOM     75  F   UNL     1      11.444 -17.952   7.595  1.00  0.00    -0.206 F 
ATOM     76  C   UNL     1      13.028 -16.331   6.980  1.00  0.00     0.059 A 
ATOM     77  C   UNL     1      12.878 -14.090   7.904  1.00  0.00     0.059 A 
ATOM     78  F   UNL     1      11.173 -13.574   9.428  1.00  0.00    -0.206 F 
ATOM     79  C   UNL     1      13.507 -15.024   7.082  1.00  0.00     0.060 A 
BRANCH  79  80
ATOM     80  S   UNL     1      14.937 -14.544   6.088  1.00  0.00     0.124 S 
ATOM     81  O   UNL     1      16.019 -15.238   6.775  1.00  0.00    -0.237 OA
ATOM     82  O   UNL     1      14.579 -15.061   4.770  1.00  0.00    -0.237 OA
ATOM     83  O   UNL     1      14.948 -13.088   6.199  1.00  0.00    -0.744 OA
ENDBRANCH  79  80
ENDBRANCH  47  72
BRANCH  59  84
ATOM     84  C   UNL     1      10.140 -20.175  13.861  1.00  0.00     0.058 A 
ATOM     85  C   UNL     1      11.134 -19.681  14.722  1.00  0.00     0.135 A 
ATOM     86  C   UNL     1      10.019 -21.568  13.734  1.00  0.00     0.135 A 
ATOM     87  F   UNL     1      11.296 -18.358  14.879  1.00  0.00    -0.206 F 
ATOM     88  C   UNL     1      12.005 -20.534  15.392  1.00  0.00     0.059 A 
ATOM     89  C   UNL     1      10.858 -22.441  14.421  1.00  0.00     0.059 A 
ATOM     90  F   UNL     1       9.076 -22.097  12.937  1.00  0.00    -0.206 F 
ATOM     91  C   UNL     1      11.863 -21.913  15.230  1.00  0.00     0.060 A 
BRANCH  91  92
ATOM     92  S   UNL     1      13.007 -23.009  16.095  1.00  0.00     0.124 S 
ATOM     93  O   UNL     1      14.227 -22.835  15.314  1.00  0.00    -0.237 OA
ATOM     94  O   UNL     1      13.029 -22.441  17.440  1.00  0.00    -0.237 OA
ATOM     95  O   UNL     1      12.372 -24.319  15.985  1.00  0.00    -0.744 OA
ENDBRANCH  91  92
ENDBRANCH  59  84
ENDBRANCH  33  34
ENDBRANCH  26  28
ENDBRANCH  25  26
ENDBRANCH  24  25
ENDBRANCH  23  24
ENDBRANCH  22  23
ENDBRANCH   1  22
TORSDOF 21
