REMARK SMILES CC(C)C[C@H]([NH2+]C[C@@](C)(O)C#Cc1ccccc1)C(=O)OCCOCCOC(=O)c1ccc(-c2c3nc(c(-c4c(F)cc(S(=O)(=O)[O-])cc4F)c4ccc([nH]4)c(-c4c(F)cc(S(=O)(=O)[O-])cc4F)c4nc(c(-c5c(F)cc(S(=O)(=O)[O-])cc5F)c5ccc2[nH]5)C=C4)C=C3)cc1
REMARK SMILES IDX 23 1 22 2 21 3 19 4 20 5 5 6 4 7 2 8 1 9 3 10 6 11 7 14 8 15
REMARK SMILES IDX 9 16 10 17 11 19 12 20 13 21 14 22 18 23 15 24 17 25 16 26
REMARK SMILES IDX 24 27 25 28 26 29 27 30 28 31 29 32 30 33 31 34 95 35 32 36
REMARK SMILES IDX 94 37 33 38 34 39 35 40 88 41 36 42 93 43 87 44 89 45 37 46
REMARK SMILES IDX 92 47 86 48 85 49 38 51 72 52 51 53 71 54 52 55 55 56 70 57
REMARK SMILES IDX 90 58 53 59 54 60 69 62 91 63 56 64 39 65 40 66 49 67 41 68
REMARK SMILES IDX 42 69 48 70 50 71 43 72 44 73 45 74 46 75 47 76 73 77 74 78
REMARK SMILES IDX 83 79 75 80 76 81 82 82 84 83 77 84 78 85 79 86 80 87 81 88
REMARK SMILES IDX 57 89 58 90 67 91 59 92 60 93 66 94 68 95 61 96 62 97 63 98
REMARK SMILES IDX 64 99 65 100
REMARK H PARENT 6 12 6 13 10 18 89 50 55 61
REMARK Flexibility Score: inf
ROOT
ATOM      1  C   UNL     1      -6.024   0.834   0.635  1.00  0.00     0.202 C 
ENDROOT
BRANCH   1   2
ATOM      2  C   UNL     1      -5.087   1.315   1.746  1.00  0.00     0.261 C 
BRANCH   2   3
ATOM      3  O   UNL     1      -3.720   1.514   1.343  1.00  0.00    -0.459 OA
BRANCH   3   4
ATOM      4  C   UNL     1      -2.841   0.566   1.783  1.00  0.00     0.364 C 
ATOM      5  O   UNL     1      -3.160  -0.484   2.335  1.00  0.00    -0.245 OA
BRANCH   4   6
ATOM      6  C   UNL     1      -1.377   0.965   1.580  1.00  0.00     0.293 C 
BRANCH   6   7
ATOM      7  C   UNL     1      -0.867   1.936   2.679  1.00  0.00     0.080 C 
BRANCH   7   8
ATOM      8  C   UNL     1      -1.864   2.550   3.702  1.00  0.00    -0.011 C 
ATOM      9  C   UNL     1      -2.480   1.544   4.685  1.00  0.00     0.007 C 
ATOM     10  C   UNL     1      -1.142   3.619   4.535  1.00  0.00     0.007 C 
ENDBRANCH   7   8
ENDBRANCH   6   7
BRANCH   6  11
ATOM     11  N   UNL     1      -1.129   1.429   0.177  1.00  0.00    -0.331 N 
ATOM     12  H   UNL     1      -1.224   2.445   0.149  1.00  0.00     0.347 HD
ATOM     13  H   UNL     1      -1.812   0.965  -0.422  1.00  0.00     0.347 HD
BRANCH  11  14
ATOM     14  C   UNL     1       0.217   1.068  -0.326  1.00  0.00     0.310 C 
BRANCH  14  15
ATOM     15  C   UNL     1       0.648   1.534  -1.778  1.00  0.00     0.171 C 
ATOM     16  C   UNL     1       0.654   3.060  -1.889  1.00  0.00     0.063 C 
BRANCH  15  17
ATOM     17  O   UNL     1       1.966   1.048  -2.046  1.00  0.00    -0.372 OA
ATOM     18  H   UNL     1       2.581   1.402  -1.385  1.00  0.00     0.212 HD
ENDBRANCH  15  17
BRANCH  15  19
ATOM     19  C   UNL     1      -0.289   0.962  -2.830  1.00  0.00    -0.057 C 
ATOM     20  C   UNL     1      -1.093   0.472  -3.732  1.00  0.00    -0.064 C 
BRANCH  20  21
ATOM     21  C   UNL     1      -1.858   0.029  -4.864  1.00  0.00     0.025 A 
ATOM     22  C   UNL     1      -1.611   0.593  -6.119  1.00  0.00     0.017 A 
ATOM     23  C   UNL     1      -2.866  -0.927  -4.736  1.00  0.00     0.017 A 
ATOM     24  C   UNL     1      -2.408   0.252  -7.216  1.00  0.00     0.001 A 
ATOM     25  C   UNL     1      -3.695  -1.233  -5.818  1.00  0.00     0.001 A 
ATOM     26  C   UNL     1      -3.469  -0.639  -7.057  1.00  0.00     0.000 A 
ENDBRANCH  20  21
ENDBRANCH  15  19
ENDBRANCH  14  15
ENDBRANCH  11  14
ENDBRANCH   6  11
ENDBRANCH   4   6
ENDBRANCH   3   4
ENDBRANCH   2   3
ENDBRANCH   1   2
BRANCH   1  27
ATOM     27  O   UNL     1      -5.776  -0.443   0.057  1.00  0.00    -0.374 OA
BRANCH  27  28
ATOM     28  C   UNL     1      -4.590  -0.605  -0.706  1.00  0.00     0.202 C 
BRANCH  28  29
ATOM     29  C   UNL     1      -4.453   0.175  -2.010  1.00  0.00     0.261 C 
BRANCH  29  30
ATOM     30  O   UNL     1      -4.652   1.585  -1.914  1.00  0.00    -0.460 OA
BRANCH  30  31
ATOM     31  C   UNL     1      -5.725   2.046  -2.597  1.00  0.00     0.338 C 
ATOM     32  O   UNL     1      -6.544   1.401  -3.237  1.00  0.00    -0.246 OA
BRANCH  31  33
ATOM     33  C   UNL     1      -5.868   3.480  -2.327  1.00  0.00     0.060 A 
ATOM     34  C   UNL     1      -4.880   4.385  -2.720  1.00  0.00     0.016 A 
ATOM     35  C   UNL     1      -7.049   3.917  -1.719  1.00  0.00     0.016 A 
ATOM     36  C   UNL     1      -5.095   5.749  -2.526  1.00  0.00     0.010 A 
ATOM     37  C   UNL     1      -7.261   5.278  -1.528  1.00  0.00     0.010 A 
ATOM     38  C   UNL     1      -6.296   6.203  -1.950  1.00  0.00    -0.014 A 
BRANCH  38  39
ATOM     39  C   UNL     1      -6.604   7.650  -1.903  1.00  0.00     0.031 A 
ATOM     40  C   UNL     1      -6.540   8.414  -0.617  1.00  0.00     0.074 A 
ATOM     41  C   UNL     1      -6.988   8.254  -3.044  1.00  0.00     0.049 A 
ATOM     42  N   UNL     1      -6.751   9.687  -0.408  1.00  0.00    -0.248 NA
ATOM     43  C   UNL     1      -6.202   7.651   0.595  1.00  0.00     0.031 C 
ATOM     44  C   UNL     1      -7.126   7.587  -4.341  1.00  0.00     0.029 A 
ATOM     45  N   UNL     1      -7.332   9.555  -3.300  1.00  0.00    -0.354 N 
ATOM     46  C   UNL     1      -6.553   9.887   0.951  1.00  0.00     0.074 A 
ATOM     47  C   UNL     1      -6.254   8.593   1.528  1.00  0.00     0.031 C 
ATOM     48  C   UNL     1      -7.501   8.489  -5.260  1.00  0.00     0.029 A 
ATOM     49  C   UNL     1      -7.655   9.789  -4.615  1.00  0.00     0.049 A 
ATOM     50  H   UNL     1      -7.346  10.256  -2.608  1.00  0.00     0.167 HD
ATOM     51  C   UNL     1      -6.598  11.050   1.643  1.00  0.00     0.037 A 
ATOM     52  C   UNL     1      -8.029  10.926  -5.232  1.00  0.00     0.037 A 
ATOM     53  C   UNL     1      -6.918  12.327   1.056  1.00  0.00     0.049 A 
ATOM     54  C   UNL     1      -8.111  12.195  -4.431  1.00  0.00     0.074 A 
ATOM     55  C   UNL     1      -6.961  13.569   1.665  1.00  0.00     0.029 A 
ATOM     56  N   UNL     1      -7.264  12.525  -0.275  1.00  0.00    -0.354 N 
ATOM     57  N   UNL     1      -7.852  12.382  -3.159  1.00  0.00    -0.248 NA
ATOM     58  C   UNL     1      -8.531  13.406  -5.147  1.00  0.00     0.031 C 
ATOM     59  C   UNL     1      -7.375  14.509   0.716  1.00  0.00     0.029 A 
ATOM     60  C   UNL     1      -7.544  13.863  -0.498  1.00  0.00     0.049 A 
ATOM     61  H   UNL     1      -7.304  11.818  -0.958  1.00  0.00     0.167 HD
ATOM     62  C   UNL     1      -8.060  13.736  -2.925  1.00  0.00     0.074 A 
ATOM     63  C   UNL     1      -8.451  14.322  -4.191  1.00  0.00     0.031 C 
ATOM     64  C   UNL     1      -7.938  14.429  -1.766  1.00  0.00     0.037 A 
BRANCH  51  65
ATOM     65  C   UNL     1      -6.280  11.003   3.112  1.00  0.00     0.058 A 
ATOM     66  C   UNL     1      -4.968  10.789   3.565  1.00  0.00     0.135 A 
ATOM     67  C   UNL     1      -7.275  11.236   4.075  1.00  0.00     0.135 A 
ATOM     68  F   UNL     1      -3.980  10.547   2.689  1.00  0.00    -0.206 F 
ATOM     69  C   UNL     1      -4.657  10.791   4.921  1.00  0.00     0.059 A 
ATOM     70  C   UNL     1      -6.982  11.265   5.436  1.00  0.00     0.059 A 
ATOM     71  F   UNL     1      -8.545  11.445   3.697  1.00  0.00    -0.206 F 
ATOM     72  C   UNL     1      -5.671  11.032   5.849  1.00  0.00     0.060 A 
BRANCH  72  73
ATOM     73  S   UNL     1      -5.242  11.042   7.603  1.00  0.00     0.124 S 
ATOM     74  O   UNL     1      -4.951   9.630   7.838  1.00  0.00    -0.237 OA
ATOM     75  O   UNL     1      -4.090  11.938   7.635  1.00  0.00    -0.237 OA
ATOM     76  O   UNL     1      -6.448  11.549   8.247  1.00  0.00    -0.744 OA
ENDBRANCH  72  73
ENDBRANCH  51  65
BRANCH  52  77
ATOM     77  C   UNL     1      -8.310  10.913  -6.691  1.00  0.00     0.058 A 
ATOM     78  C   UNL     1      -7.424  11.513  -7.596  1.00  0.00     0.135 A 
ATOM     79  C   UNL     1      -9.442  10.267  -7.212  1.00  0.00     0.135 A 
ATOM     80  F   UNL     1      -6.330  12.145  -7.145  1.00  0.00    -0.206 F 
ATOM     81  C   UNL     1      -7.652  11.482  -8.967  1.00  0.00     0.059 A 
ATOM     82  C   UNL     1      -9.680  10.201  -8.581  1.00  0.00     0.059 A 
ATOM     83  F   UNL     1     -10.311   9.663  -6.387  1.00  0.00    -0.206 F 
ATOM     84  C   UNL     1      -8.781  10.818  -9.451  1.00  0.00     0.060 A 
BRANCH  84  85
ATOM     85  S   UNL     1      -9.034  10.736 -11.237  1.00  0.00     0.124 S 
ATOM     86  O   UNL     1      -9.382  12.118 -11.548  1.00  0.00    -0.237 OA
ATOM     87  O   UNL     1      -7.729  10.284 -11.709  1.00  0.00    -0.237 OA
ATOM     88  O   UNL     1     -10.115   9.765 -11.380  1.00  0.00    -0.744 OA
ENDBRANCH  84  85
ENDBRANCH  52  77
BRANCH  64  89
ATOM     89  C   UNL     1      -8.222  15.905  -1.810  1.00  0.00     0.058 A 
ATOM     90  C   UNL     1      -9.532  16.395  -1.918  1.00  0.00     0.135 A 
ATOM     91  C   UNL     1      -7.180  16.837  -1.675  1.00  0.00     0.135 A 
ATOM     92  F   UNL     1     -10.562  15.546  -2.058  1.00  0.00    -0.206 F 
ATOM     93  C   UNL     1      -9.800  17.760  -1.903  1.00  0.00     0.059 A 
ATOM     94  C   UNL     1      -7.427  18.205  -1.631  1.00  0.00     0.059 A 
ATOM     95  F   UNL     1      -5.910  16.419  -1.561  1.00  0.00    -0.206 F 
ATOM     96  C   UNL     1      -8.741  18.657  -1.753  1.00  0.00     0.060 A 
BRANCH  96  97
ATOM     97  S   UNL     1      -9.110  20.423  -1.685  1.00  0.00     0.124 S 
ATOM     98  O   UNL     1      -9.477  20.700  -3.070  1.00  0.00    -0.237 OA
ATOM     99  O   UNL     1     -10.201  20.475  -0.717  1.00  0.00    -0.237 OA
ATOM    100  O   UNL     1      -7.854  21.017  -1.239  1.00  0.00    -0.744 OA
ENDBRANCH  96  97
ENDBRANCH  64  89
ENDBRANCH  38  39
ENDBRANCH  31  33
ENDBRANCH  30  31
ENDBRANCH  29  30
ENDBRANCH  28  29
ENDBRANCH  27  28
ENDBRANCH   1  27
TORSDOF 25
