REMARK SMILES O=C(OCCOCCOC(=O)C1([C@@H]2CCCC[C@H]2O)CCOCC1)c1ccc(-c2c3nc(c(-c4c(F)cc(S(=O)(=O)[O-])cc4F)c4ccc([nH]4)c(-c4c(F)cc(S(=O)(=O)[O-])cc4F)c4nc(c(-c5c(F)cc(S(=O)(=O)[O-])cc5F)c5ccc2[nH]5)C=C4)C=C3)cc1
REMARK SMILES IDX 5 1 4 2 3 3 2 4 1 5 25 6 26 7 90 8 27 9 89 10 28 11 29 12
REMARK SMILES IDX 30 13 83 14 31 15 88 16 82 17 84 18 32 19 87 20 81 21 80 22
REMARK SMILES IDX 33 24 67 25 46 26 66 27 47 28 50 29 65 30 85 31 48 32 49 33
REMARK SMILES IDX 64 35 86 36 51 37 34 38 35 39 44 40 36 41 37 42 43 43 45 44
REMARK SMILES IDX 38 45 39 46 40 47 41 48 42 49 68 50 69 51 78 52 70 53 71 54
REMARK SMILES IDX 77 55 79 56 72 57 73 58 74 59 75 60 76 61 52 62 53 63 62 64
REMARK SMILES IDX 54 65 55 66 61 67 63 68 56 69 57 70 58 71 59 72 60 73 6 74
REMARK SMILES IDX 7 75 8 76 9 77 10 78 11 79 12 80 20 81 24 82 21 83 23 84
REMARK SMILES IDX 22 85 13 86 14 87 18 88 15 89 17 90 16 91 19 92
REMARK H PARENT 84 23 50 34 19 93
REMARK Flexibility Score: inf
ROOT
ATOM      1  C   UNL     1       4.290  -2.571   4.481  1.00  0.00     0.202 C 
ENDROOT
BRANCH   1   2
ATOM      2  C   UNL     1       5.583  -3.416   4.437  1.00  0.00     0.261 C 
BRANCH   2   3
ATOM      3  O   UNL     1       5.612  -4.749   4.998  1.00  0.00    -0.460 OA
BRANCH   3   4
ATOM      4  C   UNL     1       6.347  -5.071   6.106  1.00  0.00     0.338 C 
ATOM      5  O   UNL     1       6.880  -6.149   6.262  1.00  0.00    -0.246 OA
BRANCH   4   6
ATOM      6  C   UNL     1       6.402  -3.999   7.117  1.00  0.00     0.060 A 
ATOM      7  C   UNL     1       5.281  -3.206   7.237  1.00  0.00     0.016 A 
ATOM      8  C   UNL     1       7.557  -3.684   7.823  1.00  0.00     0.016 A 
ATOM      9  C   UNL     1       5.429  -1.917   7.670  1.00  0.00     0.010 A 
ATOM     10  C   UNL     1       7.577  -2.502   8.572  1.00  0.00     0.010 A 
ATOM     11  C   UNL     1       6.519  -1.581   8.460  1.00  0.00    -0.014 A 
BRANCH  11  12
ATOM     12  C   UNL     1       6.474  -0.283   9.172  1.00  0.00     0.031 A 
ATOM     13  C   UNL     1       7.659   0.627   9.124  1.00  0.00     0.074 A 
ATOM     14  C   UNL     1       5.341   0.076   9.819  1.00  0.00     0.049 A 
ATOM     15  N   UNL     1       7.963   1.610   9.923  1.00  0.00    -0.248 NA
ATOM     16  C   UNL     1       8.656   0.378   8.069  1.00  0.00     0.031 C 
ATOM     17  C   UNL     1       4.089  -0.699   9.857  1.00  0.00     0.029 A 
ATOM     18  N   UNL     1       5.031   1.196  10.542  1.00  0.00    -0.354 N 
ATOM     19  C   UNL     1       9.236   2.019   9.547  1.00  0.00     0.074 A 
ATOM     20  C   UNL     1       9.628   1.211   8.414  1.00  0.00     0.031 C 
ATOM     21  C   UNL     1       3.129   0.015  10.448  1.00  0.00     0.029 A 
ATOM     22  C   UNL     1       3.747   1.182  11.040  1.00  0.00     0.049 A 
ATOM     23  H   UNL     1       5.662   1.937  10.692  1.00  0.00     0.167 HD
ATOM     24  C   UNL     1      10.002   2.960  10.148  1.00  0.00     0.037 A 
ATOM     25  C   UNL     1       3.157   1.951  11.971  1.00  0.00     0.037 A 
ATOM     26  C   UNL     1       9.516   3.760  11.243  1.00  0.00     0.049 A 
ATOM     27  C   UNL     1       4.016   2.982  12.626  1.00  0.00     0.074 A 
ATOM     28  C   UNL     1      10.181   4.710  11.993  1.00  0.00     0.029 A 
ATOM     29  N   UNL     1       8.210   3.710  11.724  1.00  0.00    -0.354 N 
ATOM     30  N   UNL     1       5.279   3.257  12.391  1.00  0.00    -0.248 NA
ATOM     31  C   UNL     1       3.404   3.772  13.694  1.00  0.00     0.031 C 
ATOM     32  C   UNL     1       9.282   5.217  12.941  1.00  0.00     0.029 A 
ATOM     33  C   UNL     1       8.044   4.617  12.753  1.00  0.00     0.049 A 
ATOM     34  H   UNL     1       7.505   3.114  11.380  1.00  0.00     0.167 HD
ATOM     35  C   UNL     1       5.620   4.256  13.284  1.00  0.00     0.074 A 
ATOM     36  C   UNL     1       4.420   4.548  14.051  1.00  0.00     0.031 C 
ATOM     37  C   UNL     1       6.814   4.873  13.465  1.00  0.00     0.037 A 
BRANCH  24  38
ATOM     38  C   UNL     1      11.434   3.076   9.699  1.00  0.00     0.058 A 
ATOM     39  C   UNL     1      11.797   3.587   8.443  1.00  0.00     0.135 A 
ATOM     40  C   UNL     1      12.466   2.602  10.528  1.00  0.00     0.135 A 
ATOM     41  F   UNL     1      10.854   4.032   7.597  1.00  0.00    -0.206 F 
ATOM     42  C   UNL     1      13.120   3.575   8.005  1.00  0.00     0.059 A 
ATOM     43  C   UNL     1      13.798   2.604  10.121  1.00  0.00     0.059 A 
ATOM     44  F   UNL     1      12.182   2.096  11.739  1.00  0.00    -0.206 F 
ATOM     45  C   UNL     1      14.112   3.067   8.845  1.00  0.00     0.060 A 
BRANCH  45  46
ATOM     46  S   UNL     1      15.812   2.989   8.241  1.00  0.00     0.124 S 
ATOM     47  O   UNL     1      15.747   1.843   7.340  1.00  0.00    -0.237 OA
ATOM     48  O   UNL     1      15.979   4.289   7.599  1.00  0.00    -0.237 OA
ATOM     49  O   UNL     1      16.596   2.789   9.456  1.00  0.00    -0.744 OA
ENDBRANCH  45  46
ENDBRANCH  24  38
BRANCH  25  50
ATOM     50  C   UNL     1       1.754   1.670  12.382  1.00  0.00     0.058 A 
ATOM     51  C   UNL     1       0.715   2.549  12.049  1.00  0.00     0.135 A 
ATOM     52  C   UNL     1       1.404   0.461  13.013  1.00  0.00     0.135 A 
ATOM     53  F   UNL     1       0.992   3.716  11.449  1.00  0.00    -0.206 F 
ATOM     54  C   UNL     1      -0.617   2.236  12.312  1.00  0.00     0.059 A 
ATOM     55  C   UNL     1       0.079   0.112  13.255  1.00  0.00     0.059 A 
ATOM     56  F   UNL     1       2.356  -0.431  13.333  1.00  0.00    -0.206 F 
ATOM     57  C   UNL     1      -0.926   1.009  12.904  1.00  0.00     0.060 A 
BRANCH  57  58
ATOM     58  S   UNL     1      -2.661   0.573  13.155  1.00  0.00     0.124 S 
ATOM     59  O   UNL     1      -3.009   1.407  14.299  1.00  0.00    -0.237 OA
ATOM     60  O   UNL     1      -3.264   0.952  11.881  1.00  0.00    -0.237 OA
ATOM     61  O   UNL     1      -2.612  -0.864  13.413  1.00  0.00    -0.744 OA
ENDBRANCH  57  58
ENDBRANCH  25  50
BRANCH  37  62
ATOM     62  C   UNL     1       6.843   5.958  14.491  1.00  0.00     0.058 A 
ATOM     63  C   UNL     1       6.912   5.672  15.861  1.00  0.00     0.135 A 
ATOM     64  C   UNL     1       6.862   7.300  14.082  1.00  0.00     0.135 A 
ATOM     65  F   UNL     1       6.879   4.400  16.290  1.00  0.00    -0.206 F 
ATOM     66  C   UNL     1       6.998   6.689  16.801  1.00  0.00     0.059 A 
ATOM     67  C   UNL     1       6.968   8.331  15.004  1.00  0.00     0.059 A 
ATOM     68  F   UNL     1       6.797   7.612  12.778  1.00  0.00    -0.206 F 
ATOM     69  C   UNL     1       7.032   8.015  16.361  1.00  0.00     0.060 A 
BRANCH  69  70
ATOM     70  S   UNL     1       7.212   9.326  17.585  1.00  0.00     0.124 S 
ATOM     71  O   UNL     1       5.867   9.390  18.145  1.00  0.00    -0.237 OA
ATOM     72  O   UNL     1       8.243   8.790  18.468  1.00  0.00    -0.237 OA
ATOM     73  O   UNL     1       7.618  10.479  16.787  1.00  0.00    -0.744 OA
ENDBRANCH  69  70
ENDBRANCH  37  62
ENDBRANCH  11  12
ENDBRANCH   4   6
ENDBRANCH   3   4
ENDBRANCH   2   3
ENDBRANCH   1   2
BRANCH   1  74
ATOM     74  O   UNL     1       3.080  -3.070   5.028  1.00  0.00    -0.374 OA
BRANCH  74  75
ATOM     75  C   UNL     1       2.713  -4.427   4.865  1.00  0.00     0.202 C 
BRANCH  75  76
ATOM     76  C   UNL     1       2.227  -4.865   3.490  1.00  0.00     0.261 C 
BRANCH  76  77
ATOM     77  O   UNL     1       3.140  -4.644   2.399  1.00  0.00    -0.463 OA
BRANCH  77  78
ATOM     78  C   UNL     1       2.887  -3.496   1.716  1.00  0.00     0.312 C 
ATOM     79  O   UNL     1       2.256  -2.558   2.194  1.00  0.00    -0.252 OA
BRANCH  78  80
ATOM     80  C   UNL     1       3.240  -3.579   0.229  1.00  0.00     0.078 C 
ATOM     81  C   UNL     1       2.744  -2.225  -0.379  1.00  0.00     0.047 C 
ATOM     82  C   UNL     1       2.271  -4.662  -0.344  1.00  0.00     0.047 C 
ATOM     83  C   UNL     1       2.634  -2.265  -1.891  1.00  0.00     0.161 C 
ATOM     84  C   UNL     1       2.116  -4.584  -1.859  1.00  0.00     0.161 C 
ATOM     85  O   UNL     1       1.717  -3.284  -2.281  1.00  0.00    -0.381 OA
BRANCH  80  86
ATOM     86  C   UNL     1       4.742  -3.889  -0.186  1.00  0.00     0.035 C 
ATOM     87  C   UNL     1       5.355  -5.238   0.268  1.00  0.00     0.007 C 
ATOM     88  C   UNL     1       5.780  -2.738  -0.141  1.00  0.00     0.118 C 
ATOM     89  C   UNL     1       6.333  -5.204   1.433  1.00  0.00     0.001 C 
ATOM     90  C   UNL     1       6.662  -2.693   1.095  1.00  0.00     0.032 C 
ATOM     91  C   UNL     1       7.316  -4.039   1.395  1.00  0.00     0.003 C 
BRANCH  88  92
ATOM     92  O   UNL     1       6.644  -2.918  -1.276  1.00  0.00    -0.393 OA
ATOM     93  H   UNL     1       7.108  -3.766  -1.198  1.00  0.00     0.210 HD
ENDBRANCH  88  92
ENDBRANCH  80  86
ENDBRANCH  78  80
ENDBRANCH  77  78
ENDBRANCH  76  77
ENDBRANCH  75  76
ENDBRANCH  74  75
ENDBRANCH   1  74
TORSDOF 19
