REMARK SMILES O=C(Cc1cccc(-c2ccn(C(F)F)c(=O)c2)c1)OCCOCCOC(=O)c1ccc(-c2c3nc(c(-c4c(F)cc(S(=O)(=O)[O-])cc4F)c4ccc([nH]4)c(-c4c(F)cc(S(=O)(=O)[O-])cc4F)c4nc(c(-c5c(F)cc(S(=O)(=O)[O-])cc5F)c5ccc2[nH]5)C=C4)C=C3)cc1
REMARK SMILES IDX 23 1 22 2 21 3 20 4 2 5 1 6 3 7 4 8 5 9 19 10 6 11 8 12 7 13
REMARK SMILES IDX 9 14 10 15 18 16 11 17 16 18 12 19 17 20 13 21 14 22 15 23
REMARK SMILES IDX 24 24 25 25 26 26 27 27 28 28 29 29 30 30 94 31 31 32 93 33
REMARK SMILES IDX 32 34 33 35 34 36 87 37 35 38 92 39 86 40 88 41 36 42 91 43
REMARK SMILES IDX 85 44 84 45 37 47 71 48 50 49 70 50 51 51 54 52 69 53 89 54
REMARK SMILES IDX 52 55 53 56 68 58 90 59 55 60 38 61 39 62 48 63 40 64 41 65
REMARK SMILES IDX 47 66 49 67 42 68 43 69 44 70 45 71 46 72 72 73 73 74 82 75
REMARK SMILES IDX 74 76 75 77 81 78 83 79 76 80 77 81 78 82 79 83 80 84 56 85
REMARK SMILES IDX 57 86 66 87 58 88 59 89 65 90 67 91 60 92 61 93 62 94 63 95
REMARK SMILES IDX 64 96
REMARK H PARENT 88 46 54 57
REMARK Flexibility Score: inf
ROOT
ATOM      1  O   UNL     1       4.091  -1.638  -0.509  1.00  0.00    -0.374 OA
ENDROOT
BRANCH   1   2
ATOM      2  C   UNL     1       4.507  -0.853   0.606  1.00  0.00     0.202 C 
BRANCH   2   3
ATOM      3  C   UNL     1       3.938   0.559   0.718  1.00  0.00     0.261 C 
BRANCH   3   4
ATOM      4  O   UNL     1       2.526   0.653   0.469  1.00  0.00    -0.463 OA
BRANCH   4   5
ATOM      5  C   UNL     1       1.924   0.686  -0.742  1.00  0.00     0.310 C 
ATOM      6  O   UNL     1       0.693   0.705  -0.793  1.00  0.00    -0.252 OA
BRANCH   5   7
ATOM      7  C   UNL     1       2.736   0.656  -2.028  1.00  0.00     0.158 C 
BRANCH   7   8
ATOM      8  C   UNL     1       3.762   1.745  -2.130  1.00  0.00    -0.036 A 
ATOM      9  C   UNL     1       5.132   1.484  -2.252  1.00  0.00     0.004 A 
ATOM     10  C   UNL     1       3.329   3.058  -1.966  1.00  0.00     0.013 A 
ATOM     11  C   UNL     1       6.053   2.525  -2.104  1.00  0.00     0.001 A 
ATOM     12  C   UNL     1       4.242   4.101  -1.814  1.00  0.00    -0.018 A 
ATOM     13  C   UNL     1       5.610   3.833  -1.870  1.00  0.00     0.009 A 
BRANCH  12  14
ATOM     14  C   UNL     1       3.650   5.426  -1.608  1.00  0.00    -0.011 A 
ATOM     15  C   UNL     1       2.849   5.741  -0.441  1.00  0.00     0.027 A 
ATOM     16  C   UNL     1       3.634   6.248  -2.669  1.00  0.00     0.080 A 
ATOM     17  C   UNL     1       2.019   6.788  -0.459  1.00  0.00     0.095 A 
ATOM     18  C   UNL     1       2.747   7.441  -2.683  1.00  0.00     0.255 A 
ATOM     19  N   UNL     1       1.951   7.619  -1.562  1.00  0.00    -0.258 N 
ATOM     20  O   UNL     1       2.738   8.146  -3.688  1.00  0.00    -0.269 OA
BRANCH  19  21
ATOM     21  C   UNL     1       0.996   8.692  -1.605  1.00  0.00     0.451 C 
ATOM     22  F   UNL     1       1.600   9.883  -1.832  1.00  0.00    -0.185 F 
ATOM     23  F   UNL     1       0.090   8.489  -2.595  1.00  0.00    -0.185 F 
ENDBRANCH  19  21
ENDBRANCH  12  14
ENDBRANCH   7   8
ENDBRANCH   5   7
ENDBRANCH   4   5
ENDBRANCH   3   4
ENDBRANCH   2   3
ENDBRANCH   1   2
BRANCH   1  24
ATOM     24  C   UNL     1       2.847  -2.334  -0.348  1.00  0.00     0.202 C 
BRANCH  24  25
ATOM     25  C   UNL     1       2.920  -3.697   0.343  1.00  0.00     0.261 C 
BRANCH  25  26
ATOM     26  O   UNL     1       3.311  -3.566   1.715  1.00  0.00    -0.460 OA
BRANCH  26  27
ATOM     27  C   UNL     1       4.631  -3.760   1.947  1.00  0.00     0.338 C 
ATOM     28  O   UNL     1       5.471  -4.141   1.145  1.00  0.00    -0.246 OA
BRANCH  27  29
ATOM     29  C   UNL     1       4.967  -3.219   3.278  1.00  0.00     0.060 A 
ATOM     30  C   UNL     1       6.150  -2.476   3.397  1.00  0.00     0.016 A 
ATOM     31  C   UNL     1       4.140  -3.426   4.385  1.00  0.00     0.016 A 
ATOM     32  C   UNL     1       6.551  -2.003   4.641  1.00  0.00     0.010 A 
ATOM     33  C   UNL     1       4.545  -2.955   5.633  1.00  0.00     0.010 A 
ATOM     34  C   UNL     1       5.775  -2.288   5.770  1.00  0.00    -0.014 A 
BRANCH  34  35
ATOM     35  C   UNL     1       6.340  -2.070   7.119  1.00  0.00     0.031 A 
ATOM     36  C   UNL     1       6.883  -3.260   7.860  1.00  0.00     0.074 A 
ATOM     37  C   UNL     1       6.376  -0.841   7.660  1.00  0.00     0.049 A 
ATOM     38  N   UNL     1       7.360  -3.334   9.073  1.00  0.00    -0.248 NA
ATOM     39  C   UNL     1       6.877  -4.544   7.136  1.00  0.00     0.031 C 
ATOM     40  C   UNL     1       5.905   0.382   7.011  1.00  0.00     0.029 A 
ATOM     41  N   UNL     1       6.817  -0.423   8.889  1.00  0.00    -0.354 N 
ATOM     42  C   UNL     1       7.693  -4.671   9.265  1.00  0.00     0.074 A 
ATOM     43  C   UNL     1       7.337  -5.378   8.056  1.00  0.00     0.031 C 
ATOM     44  C   UNL     1       6.066   1.413   7.858  1.00  0.00     0.029 A 
ATOM     45  C   UNL     1       6.617   0.916   9.117  1.00  0.00     0.049 A 
ATOM     46  H   UNL     1       7.237  -1.026   9.544  1.00  0.00     0.167 HD
ATOM     47  C   UNL     1       8.253  -5.250  10.352  1.00  0.00     0.037 A 
ATOM     48  C   UNL     1       6.828   1.647  10.229  1.00  0.00     0.037 A 
ATOM     49  C   UNL     1       8.607  -4.527  11.544  1.00  0.00     0.049 A 
ATOM     50  C   UNL     1       7.408   0.972  11.445  1.00  0.00     0.074 A 
ATOM     51  C   UNL     1       9.208  -5.006  12.694  1.00  0.00     0.029 A 
ATOM     52  N   UNL     1       8.384  -3.171  11.743  1.00  0.00    -0.354 N 
ATOM     53  N   UNL     1       7.746  -0.287  11.607  1.00  0.00    -0.248 NA
ATOM     54  C   UNL     1       7.642   1.813  12.626  1.00  0.00     0.031 C 
ATOM     55  C   UNL     1       9.292  -3.954  13.611  1.00  0.00     0.029 A 
ATOM     56  C   UNL     1       8.808  -2.803  13.008  1.00  0.00     0.049 A 
ATOM     57  H   UNL     1       7.983  -2.562  11.082  1.00  0.00     0.167 HD
ATOM     58  C   UNL     1       8.259  -0.381  12.897  1.00  0.00     0.074 A 
ATOM     59  C   UNL     1       8.197   0.950  13.465  1.00  0.00     0.031 C 
ATOM     60  C   UNL     1       8.741  -1.468  13.552  1.00  0.00     0.037 A 
BRANCH  47  61
ATOM     61  C   UNL     1       8.489  -6.735  10.314  1.00  0.00     0.058 A 
ATOM     62  C   UNL     1       9.466  -7.314   9.489  1.00  0.00     0.135 A 
ATOM     63  C   UNL     1       7.748  -7.590  11.147  1.00  0.00     0.135 A 
ATOM     64  F   UNL     1      10.188  -6.548   8.655  1.00  0.00    -0.206 F 
ATOM     65  C   UNL     1       9.688  -8.688   9.476  1.00  0.00     0.059 A 
ATOM     66  C   UNL     1       7.974  -8.963  11.174  1.00  0.00     0.059 A 
ATOM     67  F   UNL     1       6.795  -7.092  11.950  1.00  0.00    -0.206 F 
ATOM     68  C   UNL     1       8.939  -9.504  10.326  1.00  0.00     0.060 A 
BRANCH  68  69
ATOM     69  S   UNL     1       9.255 -11.281  10.314  1.00  0.00     0.124 S 
ATOM     70  O   UNL     1       8.714 -11.664   9.014  1.00  0.00    -0.237 OA
ATOM     71  O   UNL     1      10.708 -11.338  10.437  1.00  0.00    -0.237 OA
ATOM     72  O   UNL     1       8.511 -11.768  11.471  1.00  0.00    -0.744 OA
ENDBRANCH  68  69
ENDBRANCH  47  61
BRANCH  48  73
ATOM     73  C   UNL     1       6.477   3.092  10.244  1.00  0.00     0.058 A 
ATOM     74  C   UNL     1       7.470   4.081  10.308  1.00  0.00     0.135 A 
ATOM     75  C   UNL     1       5.139   3.514  10.174  1.00  0.00     0.135 A 
ATOM     76  F   UNL     1       8.762   3.730  10.384  1.00  0.00    -0.206 F 
ATOM     77  C   UNL     1       7.150   5.435  10.314  1.00  0.00     0.059 A 
ATOM     78  C   UNL     1       4.796   4.861  10.150  1.00  0.00     0.059 A 
ATOM     79  F   UNL     1       4.152   2.608  10.098  1.00  0.00    -0.206 F 
ATOM     80  C   UNL     1       5.809   5.815  10.227  1.00  0.00     0.060 A 
BRANCH  80  81
ATOM     81  S   UNL     1       5.411   7.576  10.171  1.00  0.00     0.124 S 
ATOM     82  O   UNL     1       5.709   7.989  11.537  1.00  0.00    -0.237 OA
ATOM     83  O   UNL     1       6.325   8.061   9.142  1.00  0.00    -0.237 OA
ATOM     84  O   UNL     1       3.999   7.589   9.800  1.00  0.00    -0.744 OA
ENDBRANCH  80  81
ENDBRANCH  48  73
BRANCH  60  85
ATOM     85  C   UNL     1       9.279  -1.259  14.942  1.00  0.00     0.058 A 
ATOM     86  C   UNL     1       8.436  -0.986  16.030  1.00  0.00     0.135 A 
ATOM     87  C   UNL     1      10.655  -1.391  15.195  1.00  0.00     0.135 A 
ATOM     88  F   UNL     1       7.114  -0.845  15.844  1.00  0.00    -0.206 F 
ATOM     89  C   UNL     1       8.942  -0.824  17.316  1.00  0.00     0.059 A 
ATOM     90  C   UNL     1      11.177  -1.268  16.477  1.00  0.00     0.059 A 
ATOM     91  F   UNL     1      11.504  -1.665  14.191  1.00  0.00    -0.206 F 
ATOM     92  C   UNL     1      10.314  -0.970  17.530  1.00  0.00     0.060 A 
BRANCH  92  93
ATOM     93  S   UNL     1      10.951  -0.787  19.208  1.00  0.00     0.124 S 
ATOM     94  O   UNL     1      10.822   0.652  19.416  1.00  0.00    -0.237 OA
ATOM     95  O   UNL     1      10.039  -1.624  19.981  1.00  0.00    -0.237 OA
ATOM     96  O   UNL     1      12.320  -1.286  19.110  1.00  0.00    -0.744 OA
ENDBRANCH  92  93
ENDBRANCH  60  85
ENDBRANCH  34  35
ENDBRANCH  27  29
ENDBRANCH  26  27
ENDBRANCH  25  26
ENDBRANCH  24  25
ENDBRANCH   1  24
TORSDOF 20
