REMARK SMILES Cc1cc(C)n(C)c(=O)c1C(=O)[NH+]1CCC2(CC1)C[NH2+][C@@H](C(=O)OCCOCCOC(=O)c1ccc(-c3c4nc(c(-c5c(F)cc(S(=O)(=O)[O-])cc5F)c5ccc([nH]5)c(-c5c(F)cc(S(=O)(=O)[O-])cc5F)c5nc(c(-c6c(F)cc(S(=O)(=O)[O-])cc6F)c6ccc3[nH]6)C=C5)C=C4)cc1)C2
REMARK SMILES IDX 28 1 27 2 26 3 25 4 24 5 22 6 23 7 21 8 13 9 14 10 18 11
REMARK SMILES IDX 15 13 17 14 16 15 19 16 99 17 20 18 11 21 12 22 10 23 1 24
REMARK SMILES IDX 2 25 3 26 4 27 8 28 5 29 6 30 9 31 7 32 29 33 30 34 31 35
REMARK SMILES IDX 32 36 33 37 34 38 98 39 35 40 97 41 36 42 37 43 38 44 91 45
REMARK SMILES IDX 39 46 96 47 90 48 92 49 40 50 95 51 89 52 88 53 41 55 75 56
REMARK SMILES IDX 54 57 74 58 55 59 58 60 73 61 93 62 56 63 57 64 72 66 94 67
REMARK SMILES IDX 59 68 42 69 43 70 52 71 44 72 45 73 51 74 53 75 46 76 47 77
REMARK SMILES IDX 48 78 49 79 50 80 76 81 77 82 86 83 78 84 79 85 85 86 87 87
REMARK SMILES IDX 80 88 81 89 82 90 83 91 84 92 60 93 61 94 70 95 62 96 63 97
REMARK SMILES IDX 69 98 71 99 64 100 65 101 66 102 67 103 68 104
REMARK H PARENT 13 12 20 19 20 20 92 54 58 65
REMARK Flexibility Score: inf
ROOT
ATOM      1  C   UNL     1      -1.479   7.847   0.841  1.00  0.00     0.202 C 
ENDROOT
BRANCH   1   2
ATOM      2  O   UNL     1      -1.313   9.059   0.108  1.00  0.00    -0.374 OA
BRANCH   2   3
ATOM      3  C   UNL     1      -1.132   8.955  -1.305  1.00  0.00     0.202 C 
BRANCH   3   4
ATOM      4  C   UNL     1       0.248   8.504  -1.788  1.00  0.00     0.261 C 
BRANCH   4   5
ATOM      5  O   UNL     1       0.527   7.167  -1.345  1.00  0.00    -0.459 OA
BRANCH   5   6
ATOM      6  C   UNL     1       1.614   7.021  -0.544  1.00  0.00     0.364 C 
ATOM      7  O   UNL     1       2.436   7.900  -0.299  1.00  0.00    -0.245 OA
BRANCH   6   8
ATOM      8  C   UNL     1       1.729   5.619   0.050  1.00  0.00     0.294 C 
ATOM      9  N   UNL     1      -0.536   1.114   1.463  1.00  0.00    -0.267 N 
ATOM     10  C   UNL     1      -0.296   2.290   2.282  1.00  0.00     0.271 C 
ATOM     11  C   UNL     1      -0.876   1.434   0.083  1.00  0.00     0.271 C 
ATOM     12  H   UNL     1       0.088   1.502   0.808  1.00  0.00     0.357 HD
ATOM     13  C   UNL     1       1.018   2.899   1.819  1.00  0.00     0.075 C 
ATOM     14  C   UNL     1       0.160   2.357  -0.591  1.00  0.00     0.075 C 
ATOM     15  C   UNL     1       0.986   3.320   0.324  1.00  0.00     0.036 C 
ATOM     16  C   UNL     1       2.452   3.440  -0.186  1.00  0.00     0.268 C 
ATOM     17  C   UNL     1       0.464   4.779   0.210  1.00  0.00     0.090 C 
ATOM     18  N   UNL     1       2.551   4.754  -0.807  1.00  0.00    -0.334 N 
ATOM     19  H   UNL     1       2.184   4.733  -1.759  1.00  0.00     0.347 HD
ATOM     20  H   UNL     1       3.515   5.080  -0.883  1.00  0.00     0.347 HD
BRANCH   9  21
ATOM     21  C   UNL     1      -0.373  -0.135   2.054  1.00  0.00     0.350 C 
ATOM     22  O   UNL     1      -0.281  -0.245   3.281  1.00  0.00    -0.225 OA
BRANCH  21  23
ATOM     23  C   UNL     1      -0.163  -1.376   1.240  1.00  0.00     0.147 A 
ATOM     24  C   UNL     1       1.876  -0.467  -0.006  1.00  0.00     0.045 C 
ATOM     25  C   UNL     1       0.869  -1.506   0.377  1.00  0.00    -0.027 A 
ATOM     26  C   UNL     1       1.208  -2.803  -0.172  1.00  0.00     0.026 A 
ATOM     27  C   UNL     1       0.719  -3.936   0.349  1.00  0.00     0.018 A 
ATOM     28  C   UNL     1      -0.866  -2.637   1.687  1.00  0.00     0.267 A 
ATOM     29  C   UNL     1       1.271  -5.249  -0.138  1.00  0.00     0.064 C 
ATOM     30  N   UNL     1      -0.276  -3.863   1.319  1.00  0.00    -0.315 N 
ATOM     31  O   UNL     1      -1.893  -2.573   2.364  1.00  0.00    -0.268 OA
ATOM     32  C   UNL     1      -0.766  -5.071   1.968  1.00  0.00     0.153 C 
ENDBRANCH  21  23
ENDBRANCH   9  21
ENDBRANCH   6   8
ENDBRANCH   5   6
ENDBRANCH   4   5
ENDBRANCH   3   4
ENDBRANCH   2   3
ENDBRANCH   1   2
BRANCH   1  33
ATOM     33  C   UNL     1      -2.834   7.135   0.733  1.00  0.00     0.261 C 
BRANCH  33  34
ATOM     34  O   UNL     1      -3.108   6.655  -0.595  1.00  0.00    -0.460 OA
BRANCH  34  35
ATOM     35  C   UNL     1      -4.119   7.300  -1.226  1.00  0.00     0.338 C 
ATOM     36  O   UNL     1      -4.845   8.168  -0.757  1.00  0.00    -0.246 OA
BRANCH  35  37
ATOM     37  C   UNL     1      -4.135   6.957  -2.658  1.00  0.00     0.060 A 
ATOM     38  C   UNL     1      -4.026   8.012  -3.573  1.00  0.00     0.016 A 
ATOM     39  C   UNL     1      -4.352   5.650  -3.101  1.00  0.00     0.016 A 
ATOM     40  C   UNL     1      -4.183   7.773  -4.935  1.00  0.00     0.010 A 
ATOM     41  C   UNL     1      -4.524   5.415  -4.471  1.00  0.00     0.010 A 
ATOM     42  C   UNL     1      -4.479   6.481  -5.388  1.00  0.00    -0.014 A 
BRANCH  42  43
ATOM     43  C   UNL     1      -4.910   6.292  -6.795  1.00  0.00     0.031 A 
ATOM     44  C   UNL     1      -6.383   6.236  -7.099  1.00  0.00     0.074 A 
ATOM     45  C   UNL     1      -4.009   6.238  -7.792  1.00  0.00     0.049 A 
ATOM     46  N   UNL     1      -6.986   6.076  -8.248  1.00  0.00    -0.248 NA
ATOM     47  C   UNL     1      -7.297   6.389  -5.955  1.00  0.00     0.031 C 
ATOM     48  C   UNL     1      -2.560   6.343  -7.626  1.00  0.00     0.029 A 
ATOM     49  N   UNL     1      -4.184   6.089  -9.145  1.00  0.00    -0.354 N 
ATOM     50  C   UNL     1      -8.347   6.114  -7.969  1.00  0.00     0.074 A 
ATOM     51  C   UNL     1      -8.482   6.277  -6.538  1.00  0.00     0.031 C 
ATOM     52  C   UNL     1      -1.976   6.257  -8.834  1.00  0.00     0.029 A 
ATOM     53  C   UNL     1      -3.006   6.059  -9.853  1.00  0.00     0.049 A 
ATOM     54  H   UNL     1      -5.069   6.011  -9.568  1.00  0.00     0.167 HD
ATOM     55  C   UNL     1      -9.390   6.036  -8.829  1.00  0.00     0.037 A 
ATOM     56  C   UNL     1      -2.787   5.879 -11.171  1.00  0.00     0.037 A 
ATOM     57  C   UNL     1      -9.251   5.870 -10.252  1.00  0.00     0.049 A 
ATOM     58  C   UNL     1      -3.961   5.698 -12.097  1.00  0.00     0.074 A 
ATOM     59  C   UNL     1     -10.247   5.771 -11.207  1.00  0.00     0.029 A 
ATOM     60  N   UNL     1      -8.041   5.777 -10.924  1.00  0.00    -0.354 N 
ATOM     61  N   UNL     1      -5.243   5.726 -11.819  1.00  0.00    -0.248 NA
ATOM     62  C   UNL     1      -3.660   5.456 -13.516  1.00  0.00     0.031 C 
ATOM     63  C   UNL     1      -9.640   5.573 -12.452  1.00  0.00     0.029 A 
ATOM     64  C   UNL     1      -8.265   5.598 -12.279  1.00  0.00     0.049 A 
ATOM     65  H   UNL     1      -7.154   5.830 -10.500  1.00  0.00     0.167 HD
ATOM     66  C   UNL     1      -5.901   5.526 -13.028  1.00  0.00     0.074 A 
ATOM     67  C   UNL     1      -4.876   5.391 -14.043  1.00  0.00     0.031 C 
ATOM     68  C   UNL     1      -7.233   5.462 -13.277  1.00  0.00     0.037 A 
BRANCH  55  69
ATOM     69  C   UNL     1     -10.776   6.112  -8.252  1.00  0.00     0.058 A 
ATOM     70  C   UNL     1     -11.307   7.320  -7.773  1.00  0.00     0.135 A 
ATOM     71  C   UNL     1     -11.598   4.975  -8.218  1.00  0.00     0.135 A 
ATOM     72  F   UNL     1     -10.555   8.433  -7.764  1.00  0.00    -0.206 F 
ATOM     73  C   UNL     1     -12.599   7.394  -7.264  1.00  0.00     0.059 A 
ATOM     74  C   UNL     1     -12.903   5.031  -7.736  1.00  0.00     0.059 A 
ATOM     75  F   UNL     1     -11.137   3.794  -8.659  1.00  0.00    -0.206 F 
ATOM     76  C   UNL     1     -13.391   6.245  -7.253  1.00  0.00     0.060 A 
BRANCH  76  77
ATOM     77  S   UNL     1     -15.072   6.363  -6.604  1.00  0.00     0.124 S 
ATOM     78  O   UNL     1     -14.821   6.547  -5.178  1.00  0.00    -0.237 OA
ATOM     79  O   UNL     1     -15.595   7.528  -7.311  1.00  0.00    -0.237 OA
ATOM     80  O   UNL     1     -15.672   5.086  -6.975  1.00  0.00    -0.744 OA
ENDBRANCH  76  77
ENDBRANCH  55  69
BRANCH  56  81
ATOM     81  C   UNL     1      -1.394   5.856 -11.693  1.00  0.00     0.058 A 
ATOM     82  C   UNL     1      -0.904   6.898 -12.493  1.00  0.00     0.135 A 
ATOM     83  C   UNL     1      -0.523   4.798 -11.391  1.00  0.00     0.135 A 
ATOM     84  F   UNL     1      -1.703   7.924 -12.821  1.00  0.00    -0.206 F 
ATOM     85  C   UNL     1       0.401   6.893 -12.977  1.00  0.00     0.059 A 
ATOM     86  C   UNL     1       0.793   4.781 -11.843  1.00  0.00     0.059 A 
ATOM     87  F   UNL     1      -0.942   3.778 -10.625  1.00  0.00    -0.206 F 
ATOM     88  C   UNL     1       1.244   5.832 -12.640  1.00  0.00     0.060 A 
BRANCH  88  89
ATOM     89  S   UNL     1       2.954   5.869 -13.221  1.00  0.00     0.124 S 
ATOM     90  O   UNL     1       2.786   5.628 -14.649  1.00  0.00    -0.237 OA
ATOM     91  O   UNL     1       3.374   7.215 -12.844  1.00  0.00    -0.237 OA
ATOM     92  O   UNL     1       3.587   4.789 -12.469  1.00  0.00    -0.744 OA
ENDBRANCH  88  89
ENDBRANCH  56  81
BRANCH  68  93
ATOM     93  C   UNL     1      -7.668   5.249 -14.701  1.00  0.00     0.058 A 
ATOM     94  C   UNL     1      -7.539   4.000 -15.328  1.00  0.00     0.135 A 
ATOM     95  C   UNL     1      -8.284   6.285 -15.421  1.00  0.00     0.135 A 
ATOM     96  F   UNL     1      -6.953   2.978 -14.685  1.00  0.00    -0.206 F 
ATOM     97  C   UNL     1      -7.992   3.790 -16.627  1.00  0.00     0.059 A 
ATOM     98  C   UNL     1      -8.768   6.090 -16.711  1.00  0.00     0.059 A 
ATOM     99  F   UNL     1      -8.442   7.496 -14.863  1.00  0.00    -0.206 F 
ATOM    100  C   UNL     1      -8.609   4.841 -17.309  1.00  0.00     0.060 A 
BRANCH 100 101
ATOM    101  S   UNL     1      -9.227   4.540 -18.979  1.00  0.00     0.124 S 
ATOM    102  O   UNL     1      -7.985   4.450 -19.740  1.00  0.00    -0.237 OA
ATOM    103  O   UNL     1      -9.964   3.291 -18.818  1.00  0.00    -0.237 OA
ATOM    104  O   UNL     1     -10.048   5.715 -19.255  1.00  0.00    -0.744 OA
ENDBRANCH 100 101
ENDBRANCH  68  93
ENDBRANCH  42  43
ENDBRANCH  35  37
ENDBRANCH  34  35
ENDBRANCH  33  34
ENDBRANCH   1  33
TORSDOF 19
