REMARK SMILES O=C(CCC(=O)OCCOCCOC(=O)c1ccc(-c2c3nc(c(-c4c(F)cc(S(=O)(=O)[O-])cc4F)c4ccc([nH]4)c(-c4c(F)cc(S(=O)(=O)[O-])cc4F)c4nc(c(-c5c(F)cc(S(=O)(=O)[O-])cc5F)c5ccc2[nH]5)C=C4)C=C3)cc1)/[NH+]=C1\S[C@H]2CS(=O)(=O)C[C@@H]2N1c1ccc2c(c1)OCO2
REMARK SMILES IDX 10 1 9 2 8 3 7 4 5 5 6 6 4 7 3 8 2 9 1 10 82 11 83 12 84 14
REMARK SMILES IDX 92 15 85 16 91 17 86 18 90 19 87 20 88 21 89 22 93 23 94 24
REMARK SMILES IDX 98 25 95 26 97 27 96 28 99 29 101 30 100 31 11 32 12 33
REMARK SMILES IDX 13 34 14 35 15 36 16 37 17 38 81 39 18 40 80 41 19 42 20 43
REMARK SMILES IDX 21 44 74 45 22 46 79 47 73 48 75 49 23 50 78 51 72 52 71 53
REMARK SMILES IDX 24 55 58 56 37 57 57 58 38 59 41 60 56 61 76 62 39 63 40 64
REMARK SMILES IDX 55 66 77 67 42 68 25 69 26 70 35 71 27 72 28 73 34 74 36 75
REMARK SMILES IDX 29 76 30 77 31 78 32 79 33 80 59 81 60 82 69 83 61 84 62 85
REMARK SMILES IDX 68 86 70 87 63 88 64 89 65 90 66 91 67 92 43 93 44 94 53 95
REMARK SMILES IDX 45 96 46 97 52 98 54 99 47 100 48 101 49 102 50 103 51 104
REMARK H PARENT 82 13 75 54 41 65
REMARK Flexibility Score: inf
ROOT
ATOM      1  O   UNL     1       5.194  -1.611  -0.187  1.00  0.00    -0.374 OA
ENDROOT
BRANCH   1   2
ATOM      2  C   UNL     1       6.191  -1.006  -1.029  1.00  0.00     0.202 C 
BRANCH   2   3
ATOM      3  C   UNL     1       6.098  -1.143  -2.570  1.00  0.00     0.261 C 
BRANCH   3   4
ATOM      4  O   UNL     1       4.796  -0.782  -3.019  1.00  0.00    -0.463 OA
BRANCH   4   5
ATOM      5  C   UNL     1       3.898  -1.726  -2.672  1.00  0.00     0.306 C 
ATOM      6  O   UNL     1       4.033  -2.921  -2.907  1.00  0.00    -0.252 OA
BRANCH   5   7
ATOM      7  C   UNL     1       2.776  -1.125  -1.878  1.00  0.00     0.135 C 
BRANCH   7   8
ATOM      8  C   UNL     1       3.100   0.151  -1.083  1.00  0.00     0.139 C 
BRANCH   8   9
ATOM      9  C   UNL     1       3.442   1.530  -1.662  1.00  0.00     0.308 C 
ATOM     10  O   UNL     1       2.456   2.229  -1.922  1.00  0.00    -0.247 OA
ATOM     11  N   UNL     1       4.713   2.061  -1.923  1.00  0.00    -0.204 N 
ATOM     12  C   UNL     1       5.726   2.361  -1.161  1.00  0.00     0.319 C 
ATOM     13  H   UNL     1       4.873   2.243  -2.877  1.00  0.00     0.316 HD
ATOM     14  S   UNL     1       6.102   1.769   0.489  1.00  0.00    -0.029 SA
ATOM     15  N   UNL     1       6.815   3.212  -1.488  1.00  0.00    -0.216 N 
ATOM     16  C   UNL     1       7.842   2.114   0.429  1.00  0.00     0.120 C 
ATOM     17  C   UNL     1       8.059   2.580  -1.008  1.00  0.00     0.212 C 
ATOM     18  C   UNL     1       8.926   1.093   0.664  1.00  0.00     0.156 C 
ATOM     19  C   UNL     1       9.400   3.266  -0.935  1.00  0.00     0.188 C 
ATOM     20  S   UNL     1      10.342   2.010   0.003  1.00  0.00     0.155 S 
ATOM     21  O   UNL     1      11.025   2.637   1.099  1.00  0.00    -0.229 OA
ATOM     22  O   UNL     1      11.020   1.135  -0.945  1.00  0.00    -0.229 OA
BRANCH  15  23
ATOM     23  C   UNL     1       6.631   4.590  -1.164  1.00  0.00     0.132 A 
ATOM     24  C   UNL     1       6.162   5.486  -2.147  1.00  0.00     0.056 A 
ATOM     25  C   UNL     1       6.725   5.064   0.161  1.00  0.00     0.102 A 
ATOM     26  C   UNL     1       5.770   6.799  -1.814  1.00  0.00     0.055 A 
ATOM     27  C   UNL     1       6.311   6.333   0.464  1.00  0.00     0.170 A 
ATOM     28  C   UNL     1       5.822   7.178  -0.490  1.00  0.00     0.166 A 
ATOM     29  O   UNL     1       6.224   6.832   1.726  1.00  0.00    -0.453 OA
ATOM     30  O   UNL     1       5.337   8.319   0.068  1.00  0.00    -0.454 OA
ATOM     31  C   UNL     1       5.349   7.945   1.464  1.00  0.00     0.468 C 
ENDBRANCH  15  23
ENDBRANCH   8   9
ENDBRANCH   7   8
ENDBRANCH   5   7
ENDBRANCH   4   5
ENDBRANCH   3   4
ENDBRANCH   2   3
ENDBRANCH   1   2
BRANCH   1  32
ATOM     32  C   UNL     1       5.227  -1.327   1.242  1.00  0.00     0.202 C 
BRANCH  32  33
ATOM     33  C   UNL     1       4.457  -0.143   2.123  1.00  0.00     0.261 C 
BRANCH  33  34
ATOM     34  O   UNL     1       3.627   0.966   1.572  1.00  0.00    -0.460 OA
BRANCH  34  35
ATOM     35  C   UNL     1       3.455   2.114   2.349  1.00  0.00     0.338 C 
ATOM     36  O   UNL     1       3.865   2.203   3.500  1.00  0.00    -0.246 OA
BRANCH  35  37
ATOM     37  C   UNL     1       2.796   3.335   1.679  1.00  0.00     0.060 A 
ATOM     38  C   UNL     1       3.353   3.930   0.556  1.00  0.00     0.016 A 
ATOM     39  C   UNL     1       1.761   4.082   2.253  1.00  0.00     0.016 A 
ATOM     40  C   UNL     1       2.902   5.133  -0.035  1.00  0.00     0.010 A 
ATOM     41  C   UNL     1       1.270   5.299   1.645  1.00  0.00     0.010 A 
ATOM     42  C   UNL     1       1.832   5.856   0.475  1.00  0.00    -0.014 A 
BRANCH  42  43
ATOM     43  C   UNL     1       1.426   7.181  -0.173  1.00  0.00     0.031 A 
ATOM     44  C   UNL     1       1.396   8.472   0.636  1.00  0.00     0.074 A 
ATOM     45  C   UNL     1       1.199   7.319  -1.507  1.00  0.00     0.049 A 
ATOM     46  N   UNL     1       1.031   9.684   0.280  1.00  0.00    -0.248 NA
ATOM     47  C   UNL     1       1.899   8.398   2.013  1.00  0.00     0.031 C 
ATOM     48  C   UNL     1       1.329   6.266  -2.517  1.00  0.00     0.029 A 
ATOM     49  N   UNL     1       0.806   8.422  -2.256  1.00  0.00    -0.354 N 
ATOM     50  C   UNL     1       1.273  10.508   1.377  1.00  0.00     0.074 A 
ATOM     51  C   UNL     1       1.839   9.662   2.406  1.00  0.00     0.031 C 
ATOM     52  C   UNL     1       1.031   6.764  -3.729  1.00  0.00     0.029 A 
ATOM     53  C   UNL     1       0.573   8.145  -3.590  1.00  0.00     0.049 A 
ATOM     54  H   UNL     1       0.702   9.322  -1.871  1.00  0.00     0.167 HD
ATOM     55  C   UNL     1       1.020  11.832   1.549  1.00  0.00     0.037 A 
ATOM     56  C   UNL     1      -0.011   8.863  -4.581  1.00  0.00     0.037 A 
ATOM     57  C   UNL     1       0.360  12.678   0.589  1.00  0.00     0.049 A 
ATOM     58  C   UNL     1      -0.531  10.252  -4.303  1.00  0.00     0.074 A 
ATOM     59  C   UNL     1      -0.068  13.988   0.742  1.00  0.00     0.029 A 
ATOM     60  N   UNL     1      -0.006  12.292  -0.690  1.00  0.00    -0.354 N 
ATOM     61  N   UNL     1      -0.397  10.981  -3.221  1.00  0.00    -0.248 NA
ATOM     62  C   UNL     1      -1.317  10.905  -5.365  1.00  0.00     0.031 C 
ATOM     63  C   UNL     1      -0.766  14.362  -0.412  1.00  0.00     0.029 A 
ATOM     64  C   UNL     1      -0.706  13.314  -1.315  1.00  0.00     0.049 A 
ATOM     65  H   UNL     1       0.200  11.419  -1.097  1.00  0.00     0.167 HD
ATOM     66  C   UNL     1      -1.080  12.170  -3.470  1.00  0.00     0.074 A 
ATOM     67  C   UNL     1      -1.607  12.078  -4.814  1.00  0.00     0.031 C 
ATOM     68  C   UNL     1      -1.253  13.234  -2.647  1.00  0.00     0.037 A 
BRANCH  55  69
ATOM     69  C   UNL     1       1.333  12.409   2.906  1.00  0.00     0.058 A 
ATOM     70  C   UNL     1       2.645  12.673   3.329  1.00  0.00     0.135 A 
ATOM     71  C   UNL     1       0.290  12.655   3.816  1.00  0.00     0.135 A 
ATOM     72  F   UNL     1       3.682  12.437   2.510  1.00  0.00    -0.206 F 
ATOM     73  C   UNL     1       2.915  13.112   4.624  1.00  0.00     0.059 A 
ATOM     74  C   UNL     1       0.535  13.116   5.104  1.00  0.00     0.059 A 
ATOM     75  F   UNL     1      -0.983  12.419   3.462  1.00  0.00    -0.206 F 
ATOM     76  C   UNL     1       1.853  13.315   5.509  1.00  0.00     0.060 A 
BRANCH  76  77
ATOM     77  S   UNL     1       2.220  13.795   7.211  1.00  0.00     0.124 S 
ATOM     78  O   UNL     1       2.803  12.564   7.737  1.00  0.00    -0.237 OA
ATOM     79  O   UNL     1       3.145  14.908   7.029  1.00  0.00    -0.237 OA
ATOM     80  O   UNL     1       0.913  14.150   7.754  1.00  0.00    -0.744 OA
ENDBRANCH  76  77
ENDBRANCH  55  69
BRANCH  56  81
ATOM     81  C   UNL     1      -0.270   8.224  -5.913  1.00  0.00     0.058 A 
ATOM     82  C   UNL     1       0.325   8.684  -7.098  1.00  0.00     0.135 A 
ATOM     83  C   UNL     1      -1.141   7.125  -6.018  1.00  0.00     0.135 A 
ATOM     84  F   UNL     1       1.123   9.763  -7.074  1.00  0.00    -0.206 F 
ATOM     85  C   UNL     1       0.093   8.061  -8.326  1.00  0.00     0.059 A 
ATOM     86  C   UNL     1      -1.360   6.465  -7.224  1.00  0.00     0.059 A 
ATOM     87  F   UNL     1      -1.770   6.660  -4.927  1.00  0.00    -0.206 F 
ATOM     88  C   UNL     1      -0.735   6.938  -8.374  1.00  0.00     0.060 A 
BRANCH  88  89
ATOM     89  S   UNL     1      -0.936   6.061  -9.943  1.00  0.00     0.124 S 
ATOM     90  O   UNL     1      -1.779   6.984 -10.694  1.00  0.00    -0.237 OA
ATOM     91  O   UNL     1       0.444   5.938 -10.404  1.00  0.00    -0.237 OA
ATOM     92  O   UNL     1      -1.570   4.807  -9.549  1.00  0.00    -0.744 OA
ENDBRANCH  88  89
ENDBRANCH  56  81
BRANCH  68  93
ATOM     93  C   UNL     1      -2.044  14.410  -3.161  1.00  0.00     0.058 A 
ATOM     94  C   UNL     1      -3.437  14.350  -3.326  1.00  0.00     0.135 A 
ATOM     95  C   UNL     1      -1.411  15.636  -3.426  1.00  0.00     0.135 A 
ATOM     96  F   UNL     1      -4.096  13.205  -3.091  1.00  0.00    -0.206 F 
ATOM     97  C   UNL     1      -4.171  15.456  -3.751  1.00  0.00     0.059 A 
ATOM     98  C   UNL     1      -2.127  16.762  -3.826  1.00  0.00     0.059 A 
ATOM     99  F   UNL     1      -0.082  15.757  -3.276  1.00  0.00    -0.206 F 
ATOM    100  C   UNL     1      -3.507  16.659  -3.995  1.00  0.00     0.060 A 
BRANCH 100 101
ATOM    101  S   UNL     1      -4.474  18.096  -4.508  1.00  0.00     0.124 S 
ATOM    102  O   UNL     1      -4.825  17.742  -5.879  1.00  0.00    -0.237 OA
ATOM    103  O   UNL     1      -5.575  18.090  -3.550  1.00  0.00    -0.237 OA
ATOM    104  O   UNL     1      -3.536  19.206  -4.368  1.00  0.00    -0.744 OA
ENDBRANCH 100 101
ENDBRANCH  68  93
ENDBRANCH  42  43
ENDBRANCH  35  37
ENDBRANCH  34  35
ENDBRANCH  33  34
ENDBRANCH  32  33
ENDBRANCH   1  32
TORSDOF 20
