REMARK SMILES COc1ccc(C(=O)OCCOCCOC(=O)c2ccc(-c3c4nc(c(-c5c(F)cc(S(=O)(=O)[O-])cc5F)c5ccc([nH]5)c(-c5c(F)cc(S(=O)(=O)[O-])cc5F)c5nc(c(-c6c(F)cc(S(=O)(=O)[O-])cc6F)c6ccc3[nH]6)C=C5)C=C4)cc2)cc1S(=O)(=O)N(C)Cc1cccc(F)c1
REMARK SMILES IDX 11 1 10 2 9 3 7 4 8 5 6 6 3 7 4 8 85 9 5 10 84 11 2 12 1 13
REMARK SMILES IDX 86 14 87 15 88 16 89 17 90 18 91 19 92 20 93 21 98 22 94 23
REMARK SMILES IDX 96 24 95 25 97 26 12 27 13 28 14 29 15 30 16 31 17 32 18 33
REMARK SMILES IDX 19 34 83 35 20 36 82 37 21 38 22 39 23 40 76 41 24 42 81 43
REMARK SMILES IDX 75 44 77 45 25 46 80 47 74 48 73 49 26 51 60 52 39 53 59 54
REMARK SMILES IDX 40 55 43 56 58 57 78 58 41 59 42 60 57 62 79 63 44 64 27 65
REMARK SMILES IDX 28 66 37 67 29 68 30 69 36 70 38 71 31 72 32 73 33 74 34 75
REMARK SMILES IDX 35 76 61 77 62 78 71 79 63 80 64 81 70 82 72 83 65 84 66 85
REMARK SMILES IDX 67 86 68 87 69 88 45 89 46 90 55 91 47 92 48 93 54 94 56 95
REMARK SMILES IDX 49 96 50 97 51 98 52 99 53 100
REMARK H PARENT 77 50 43 61
REMARK Flexibility Score: inf
ROOT
ATOM      1  C   UNL     1       3.174  -6.524   5.960  1.00  0.00     0.202 C 
ENDROOT
BRANCH   1   2
ATOM      2  C   UNL     1       3.029  -6.764   4.454  1.00  0.00     0.261 C 
BRANCH   2   3
ATOM      3  O   UNL     1       2.790  -5.556   3.717  1.00  0.00    -0.460 OA
BRANCH   3   4
ATOM      4  C   UNL     1       1.505  -5.390   3.321  1.00  0.00     0.338 C 
ATOM      5  O   UNL     1       0.585  -6.180   3.465  1.00  0.00    -0.246 OA
BRANCH   4   6
ATOM      6  C   UNL     1       1.289  -4.028   2.780  1.00  0.00     0.061 A 
ATOM      7  C   UNL     1       0.667  -1.568   1.595  1.00  0.00     0.138 A 
ATOM      8  C   UNL     1      -0.296  -2.255   2.340  1.00  0.00     0.049 A 
ATOM      9  C   UNL     1       1.978  -2.041   1.556  1.00  0.00     0.125 A 
ATOM     10  C   UNL     1       0.010  -3.481   2.923  1.00  0.00     0.019 A 
ATOM     11  C   UNL     1       2.285  -3.290   2.137  1.00  0.00     0.041 A 
BRANCH   7  12
ATOM     12  O   UNL     1       0.227  -0.438   0.971  1.00  0.00    -0.495 OA
ATOM     13  C   UNL     1      -0.070  -0.710  -0.401  1.00  0.00     0.278 C 
ENDBRANCH   7  12
BRANCH   9  14
ATOM     14  S   UNL     1       3.358  -1.211   0.813  1.00  0.00     0.246 S 
ATOM     15  O   UNL     1       4.251  -0.884   1.907  1.00  0.00    -0.207 OA
ATOM     16  O   UNL     1       3.781  -2.086  -0.261  1.00  0.00    -0.207 OA
BRANCH  14  17
ATOM     17  N   UNL     1       2.859   0.253   0.098  1.00  0.00    -0.196 NA
ATOM     18  C   UNL     1       2.503   1.342   1.044  1.00  0.00     0.125 C 
BRANCH  17  19
ATOM     19  C   UNL     1       3.751   0.726  -1.015  1.00  0.00     0.137 C 
BRANCH  19  20
ATOM     20  C   UNL     1       4.987   1.457  -0.541  1.00  0.00    -0.030 A 
ATOM     21  C   UNL     1       6.083   0.741  -0.037  1.00  0.00     0.005 A 
ATOM     22  C   UNL     1       4.975   2.854  -0.418  1.00  0.00     0.044 A 
ATOM     23  C   UNL     1       7.086   1.393   0.682  1.00  0.00     0.003 A 
ATOM     24  C   UNL     1       5.982   3.493   0.296  1.00  0.00     0.123 A 
ATOM     25  C   UNL     1       7.022   2.772   0.869  1.00  0.00     0.039 A 
ATOM     26  F   UNL     1       5.910   4.817   0.485  1.00  0.00    -0.207 F 
ENDBRANCH  19  20
ENDBRANCH  17  19
ENDBRANCH  14  17
ENDBRANCH   9  14
ENDBRANCH   4   6
ENDBRANCH   3   4
ENDBRANCH   2   3
ENDBRANCH   1   2
BRANCH   1  27
ATOM     27  O   UNL     1       2.128  -5.821   6.628  1.00  0.00    -0.374 OA
BRANCH  27  28
ATOM     28  C   UNL     1       2.076  -4.403   6.477  1.00  0.00     0.202 C 
BRANCH  28  29
ATOM     29  C   UNL     1       3.125  -3.557   7.210  1.00  0.00     0.261 C 
BRANCH  29  30
ATOM     30  O   UNL     1       4.465  -3.805   6.756  1.00  0.00    -0.460 OA
BRANCH  30  31
ATOM     31  C   UNL     1       5.247  -4.466   7.646  1.00  0.00     0.338 C 
ATOM     32  O   UNL     1       4.945  -4.818   8.772  1.00  0.00    -0.246 OA
BRANCH  31  33
ATOM     33  C   UNL     1       6.499  -4.889   6.991  1.00  0.00     0.060 A 
ATOM     34  C   UNL     1       6.823  -6.252   7.029  1.00  0.00     0.016 A 
ATOM     35  C   UNL     1       7.374  -3.965   6.420  1.00  0.00     0.016 A 
ATOM     36  C   UNL     1       8.050  -6.690   6.537  1.00  0.00     0.010 A 
ATOM     37  C   UNL     1       8.608  -4.407   5.933  1.00  0.00     0.010 A 
ATOM     38  C   UNL     1       8.966  -5.765   6.021  1.00  0.00    -0.014 A 
BRANCH  38  39
ATOM     39  C   UNL     1      10.345  -6.200   5.695  1.00  0.00     0.031 A 
ATOM     40  C   UNL     1      11.462  -5.875   6.648  1.00  0.00     0.074 A 
ATOM     41  C   UNL     1      10.596  -6.886   4.566  1.00  0.00     0.049 A 
ATOM     42  N   UNL     1      12.742  -6.120   6.541  1.00  0.00    -0.248 NA
ATOM     43  C   UNL     1      11.083  -5.172   7.883  1.00  0.00     0.031 C 
ATOM     44  C   UNL     1       9.591  -7.281   3.581  1.00  0.00     0.029 A 
ATOM     45  N   UNL     1      11.777  -7.361   4.055  1.00  0.00    -0.354 N 
ATOM     46  C   UNL     1      13.325  -5.590   7.686  1.00  0.00     0.074 A 
ATOM     47  C   UNL     1      12.262  -4.982   8.457  1.00  0.00     0.031 C 
ATOM     48  C   UNL     1      10.202  -7.925   2.572  1.00  0.00     0.029 A 
ATOM     49  C   UNL     1      11.642  -7.956   2.825  1.00  0.00     0.049 A 
ATOM     50  H   UNL     1      12.639  -7.282   4.524  1.00  0.00     0.167 HD
ATOM     51  C   UNL     1      14.627  -5.615   8.062  1.00  0.00     0.037 A 
ATOM     52  C   UNL     1      12.575  -8.447   1.985  1.00  0.00     0.037 A 
ATOM     53  C   UNL     1      15.677  -6.219   7.282  1.00  0.00     0.049 A 
ATOM     54  C   UNL     1      14.023  -8.419   2.394  1.00  0.00     0.074 A 
ATOM     55  C   UNL     1      17.022  -6.329   7.588  1.00  0.00     0.029 A 
ATOM     56  N   UNL     1      15.505  -6.799   6.032  1.00  0.00    -0.354 N 
ATOM     57  N   UNL     1      14.560  -7.951   3.497  1.00  0.00    -0.248 NA
ATOM     58  C   UNL     1      14.992  -8.992   1.451  1.00  0.00     0.031 C 
ATOM     59  C   UNL     1      17.672  -6.918   6.498  1.00  0.00     0.029 A 
ATOM     60  C   UNL     1      16.724  -7.237   5.539  1.00  0.00     0.049 A 
ATOM     61  H   UNL     1      14.643  -6.887   5.565  1.00  0.00     0.167 HD
ATOM     62  C   UNL     1      15.926  -8.191   3.390  1.00  0.00     0.074 A 
ATOM     63  C   UNL     1      16.131  -8.857   2.119  1.00  0.00     0.031 C 
ATOM     64  C   UNL     1      16.918  -7.893   4.267  1.00  0.00     0.037 A 
BRANCH  51  65
ATOM     65  C   UNL     1      14.987  -4.928   9.353  1.00  0.00     0.058 A 
ATOM     66  C   UNL     1      14.574  -5.420  10.602  1.00  0.00     0.135 A 
ATOM     67  C   UNL     1      15.756  -3.752   9.339  1.00  0.00     0.135 A 
ATOM     68  F   UNL     1      13.827  -6.533  10.677  1.00  0.00    -0.206 F 
ATOM     69  C   UNL     1      14.865  -4.746  11.784  1.00  0.00     0.059 A 
ATOM     70  C   UNL     1      16.088  -3.079  10.512  1.00  0.00     0.059 A 
ATOM     71  F   UNL     1      16.182  -3.236   8.176  1.00  0.00    -0.206 F 
ATOM     72  C   UNL     1      15.617  -3.571  11.728  1.00  0.00     0.060 A 
BRANCH  72  73
ATOM     73  S   UNL     1      15.957  -2.688  13.265  1.00  0.00     0.124 S 
ATOM     74  O   UNL     1      14.645  -2.125  13.572  1.00  0.00    -0.237 OA
ATOM     75  O   UNL     1      16.409  -3.758  14.147  1.00  0.00    -0.237 OA
ATOM     76  O   UNL     1      16.980  -1.720  12.883  1.00  0.00    -0.744 OA
ENDBRANCH  72  73
ENDBRANCH  51  65
BRANCH  52  77
ATOM     77  C   UNL     1      12.151  -8.998   0.671  1.00  0.00     0.058 A 
ATOM     78  C   UNL     1      12.188 -10.375   0.415  1.00  0.00     0.135 A 
ATOM     79  C   UNL     1      11.644  -8.158  -0.334  1.00  0.00     0.135 A 
ATOM     80  F   UNL     1      12.676 -11.217   1.338  1.00  0.00    -0.206 F 
ATOM     81  C   UNL     1      11.728 -10.904  -0.787  1.00  0.00     0.059 A 
ATOM     82  C   UNL     1      11.155  -8.665  -1.533  1.00  0.00     0.059 A 
ATOM     83  F   UNL     1      11.580  -6.832  -0.134  1.00  0.00    -0.206 F 
ATOM     84  C   UNL     1      11.200 -10.041  -1.750  1.00  0.00     0.060 A 
BRANCH  84  85
ATOM     85  S   UNL     1      10.514 -10.750  -3.263  1.00  0.00     0.124 S 
ATOM     86  O   UNL     1      11.719 -11.197  -3.953  1.00  0.00    -0.237 OA
ATOM     87  O   UNL     1       9.649 -11.803  -2.740  1.00  0.00    -0.237 OA
ATOM     88  O   UNL     1       9.816  -9.623  -3.876  1.00  0.00    -0.744 OA
ENDBRANCH  84  85
ENDBRANCH  52  77
BRANCH  64  89
ATOM     89  C   UNL     1      18.319  -8.306   3.900  1.00  0.00     0.058 A 
ATOM     90  C   UNL     1      19.041  -7.661   2.883  1.00  0.00     0.135 A 
ATOM     91  C   UNL     1      18.969  -9.325   4.616  1.00  0.00     0.135 A 
ATOM     92  F   UNL     1      18.468  -6.684   2.162  1.00  0.00    -0.206 F 
ATOM     93  C   UNL     1      20.348  -8.027   2.574  1.00  0.00     0.059 A 
ATOM     94  C   UNL     1      20.285  -9.687   4.345  1.00  0.00     0.059 A 
ATOM     95  F   UNL     1      18.331  -9.969   5.607  1.00  0.00    -0.206 F 
ATOM     96  C   UNL     1      20.963  -9.040   3.313  1.00  0.00     0.060 A 
BRANCH  96  97
ATOM     97  S   UNL     1      22.670  -9.482   2.924  1.00  0.00     0.124 S 
ATOM     98  O   UNL     1      22.511 -10.179   1.652  1.00  0.00    -0.237 OA
ATOM     99  O   UNL     1      23.322  -8.177   2.855  1.00  0.00    -0.237 OA
ATOM    100  O   UNL     1      23.072 -10.317   4.051  1.00  0.00    -0.744 OA
ENDBRANCH  96  97
ENDBRANCH  64  89
ENDBRANCH  38  39
ENDBRANCH  31  33
ENDBRANCH  30  31
ENDBRANCH  29  30
ENDBRANCH  28  29
ENDBRANCH  27  28
ENDBRANCH   1  27
TORSDOF 22
