REMARK SMILES [NH3+]C[C@H]1CC[C@@H](C(=O)NCc2ccc(C(=O)OCCOCCOC(=O)c3ccc(-c4c5nc(c(-c6c(F)cc(S(=O)(=O)[O-])cc6F)c6ccc([nH]6)c(-c6c(F)cc(S(=O)(=O)[O-])cc6F)c6nc(c(-c7c(F)cc(S(=O)(=O)[O-])cc7F)c7ccc4[nH]7)C=C6)C=C5)cc3)cc2)CC1
REMARK SMILES IDX 19 1 18 2 17 3 15 4 16 5 14 6 11 7 12 8 93 9 13 10 92 11
REMARK SMILES IDX 10 12 9 13 7 14 8 15 6 17 3 18 4 19 95 20 5 21 94 22 2 23
REMARK SMILES IDX 1 24 20 28 21 29 22 30 23 31 24 32 25 33 26 34 27 35 91 36
REMARK SMILES IDX 28 37 90 38 29 39 30 40 31 41 84 42 32 43 89 44 83 45 85 46
REMARK SMILES IDX 33 47 88 48 82 49 81 50 34 52 68 53 47 54 67 55 48 56 51 57
REMARK SMILES IDX 66 58 86 59 49 60 50 61 65 63 87 64 52 65 35 66 36 67 45 68
REMARK SMILES IDX 37 69 38 70 44 71 46 72 39 73 40 74 41 75 42 76 43 77 69 78
REMARK SMILES IDX 70 79 79 80 71 81 72 82 78 83 80 84 73 85 74 86 75 87 76 88
REMARK SMILES IDX 77 89 53 90 54 91 63 92 55 93 56 94 62 95 64 96 57 97 58 98
REMARK SMILES IDX 59 99 60 100 61 101
REMARK H PARENT 9 16 1 25 1 26 1 27 85 51 51 62
REMARK Flexibility Score: inf
ROOT
ATOM      1  C   UNL     1       3.916  -4.611   3.930  1.00  0.00     0.202 C 
ENDROOT
BRANCH   1   2
ATOM      2  C   UNL     1       5.232  -3.878   3.657  1.00  0.00     0.261 C 
BRANCH   2   3
ATOM      3  O   UNL     1       5.026  -2.507   3.279  1.00  0.00    -0.460 OA
BRANCH   3   4
ATOM      4  C   UNL     1       5.300  -2.239   1.979  1.00  0.00     0.338 C 
ATOM      5  O   UNL     1       5.772  -3.020   1.163  1.00  0.00    -0.246 OA
BRANCH   4   6
ATOM      6  C   UNL     1       4.839  -0.883   1.588  1.00  0.00     0.060 A 
ATOM      7  C   UNL     1       3.911   1.615   0.647  1.00  0.00    -0.029 A 
ATOM      8  C   UNL     1       4.261   0.593  -0.244  1.00  0.00     0.006 A 
ATOM      9  C   UNL     1       4.059   1.375   2.024  1.00  0.00     0.006 A 
ATOM     10  C   UNL     1       4.695  -0.646   0.219  1.00  0.00     0.016 A 
ATOM     11  C   UNL     1       4.529   0.137   2.495  1.00  0.00     0.016 A 
BRANCH   7  12
ATOM     12  C   UNL     1       3.301   2.900   0.133  1.00  0.00     0.151 C 
BRANCH  12  13
ATOM     13  N   UNL     1       4.098   3.537  -0.891  1.00  0.00    -0.352 N 
ATOM     14  C   UNL     1       3.874   3.938  -2.161  1.00  0.00     0.223 C 
ATOM     15  O   UNL     1       4.777   4.627  -2.660  1.00  0.00    -0.275 OA
ATOM     16  H   UNL     1       5.018   3.720  -0.594  1.00  0.00     0.163 HD
BRANCH  14  17
ATOM     17  C   UNL     1       2.652   3.604  -3.032  1.00  0.00     0.078 C 
ATOM     18  C   UNL     1       0.234   2.088  -2.031  1.00  0.00     0.044 C 
ATOM     19  C   UNL     1       0.379   3.608  -1.811  1.00  0.00     0.010 C 
ATOM     20  C   UNL     1       1.527   1.374  -2.443  1.00  0.00     0.010 C 
ATOM     21  C   UNL     1       1.344   4.330  -2.738  1.00  0.00     0.014 C 
ATOM     22  C   UNL     1       2.448   2.137  -3.378  1.00  0.00     0.014 C 
BRANCH  18  23
ATOM     23  C   UNL     1      -0.392   1.473  -0.747  1.00  0.00     0.262 C 
BRANCH  23  24
ATOM     24  N   UNL     1      -0.264   0.027  -0.602  1.00  0.00    -0.357 N 
ATOM     25  H   UNL     1      -0.706  -0.268   0.269  1.00  0.00     0.344 HD
ATOM     26  H   UNL     1       0.724  -0.227  -0.585  1.00  0.00     0.344 HD
ATOM     27  H   UNL     1      -0.721  -0.435  -1.388  1.00  0.00     0.344 HD
ENDBRANCH  23  24
ENDBRANCH  18  23
ENDBRANCH  14  17
ENDBRANCH  12  13
ENDBRANCH   7  12
ENDBRANCH   4   6
ENDBRANCH   3   4
ENDBRANCH   2   3
ENDBRANCH   1   2
BRANCH   1  28
ATOM     28  O   UNL     1       2.941  -4.594   2.890  1.00  0.00    -0.374 OA
BRANCH  28  29
ATOM     29  C   UNL     1       2.132  -3.421   2.765  1.00  0.00     0.202 C 
BRANCH  29  30
ATOM     30  C   UNL     1       1.081  -3.187   3.858  1.00  0.00     0.261 C 
BRANCH  30  31
ATOM     31  O   UNL     1       1.683  -2.747   5.092  1.00  0.00    -0.460 OA
BRANCH  31  32
ATOM     32  C   UNL     1       1.526  -3.585   6.142  1.00  0.00     0.338 C 
ATOM     33  O   UNL     1       0.867  -4.620   6.170  1.00  0.00    -0.246 OA
BRANCH  32  34
ATOM     34  C   UNL     1       2.445  -3.204   7.228  1.00  0.00     0.060 A 
ATOM     35  C   UNL     1       3.358  -4.167   7.678  1.00  0.00     0.016 A 
ATOM     36  C   UNL     1       2.370  -1.953   7.844  1.00  0.00     0.016 A 
ATOM     37  C   UNL     1       4.171  -3.898   8.776  1.00  0.00     0.010 A 
ATOM     38  C   UNL     1       3.179  -1.690   8.955  1.00  0.00     0.010 A 
ATOM     39  C   UNL     1       4.056  -2.674   9.447  1.00  0.00    -0.014 A 
BRANCH  39  40
ATOM     40  C   UNL     1       4.739  -2.492  10.750  1.00  0.00     0.031 A 
ATOM     41  C   UNL     1       3.947  -2.677  12.017  1.00  0.00     0.074 A 
ATOM     42  C   UNL     1       6.052  -2.203  10.807  1.00  0.00     0.049 A 
ATOM     43  N   UNL     1       4.330  -2.551  13.260  1.00  0.00    -0.248 NA
ATOM     44  C   UNL     1       2.533  -3.053  11.857  1.00  0.00     0.031 C 
ATOM     45  C   UNL     1       6.930  -2.036   9.649  1.00  0.00     0.029 A 
ATOM     46  N   UNL     1       6.873  -1.994  11.886  1.00  0.00    -0.354 N 
ATOM     47  C   UNL     1       3.207  -2.825  14.031  1.00  0.00     0.074 A 
ATOM     48  C   UNL     1       2.119  -3.094  13.115  1.00  0.00     0.031 C 
ATOM     49  C   UNL     1       8.168  -1.740  10.081  1.00  0.00     0.029 A 
ATOM     50  C   UNL     1       8.163  -1.669  11.542  1.00  0.00     0.049 A 
ATOM     51  H   UNL     1       6.567  -2.070  12.818  1.00  0.00     0.167 HD
ATOM     52  C   UNL     1       3.094  -2.859  15.381  1.00  0.00     0.037 A 
ATOM     53  C   UNL     1       9.213  -1.334  12.317  1.00  0.00     0.037 A 
ATOM     54  C   UNL     1       4.181  -2.594  16.287  1.00  0.00     0.049 A 
ATOM     55  C   UNL     1       9.051  -1.325  13.815  1.00  0.00     0.074 A 
ATOM     56  C   UNL     1       4.174  -2.622  17.671  1.00  0.00     0.029 A 
ATOM     57  N   UNL     1       5.467  -2.245  15.901  1.00  0.00    -0.354 N 
ATOM     58  N   UNL     1       7.989  -1.608  14.532  1.00  0.00    -0.248 NA
ATOM     59  C   UNL     1      10.230  -0.956  14.610  1.00  0.00     0.031 C 
ATOM     60  C   UNL     1       5.443  -2.244  18.121  1.00  0.00     0.029 A 
ATOM     61  C   UNL     1       6.256  -2.032  17.019  1.00  0.00     0.049 A 
ATOM     62  H   UNL     1       5.773  -2.162  14.969  1.00  0.00     0.167 HD
ATOM     63  C   UNL     1       8.380  -1.479  15.861  1.00  0.00     0.074 A 
ATOM     64  C   UNL     1       9.778  -1.100  15.848  1.00  0.00     0.031 C 
ATOM     65  C   UNL     1       7.649  -1.660  16.989  1.00  0.00     0.037 A 
BRANCH  52  66
ATOM     66  C   UNL     1       1.740  -3.170  15.957  1.00  0.00     0.058 A 
ATOM     67  C   UNL     1       1.184  -4.457  15.890  1.00  0.00     0.135 A 
ATOM     68  C   UNL     1       0.999  -2.170  16.608  1.00  0.00     0.135 A 
ATOM     69  F   UNL     1       1.841  -5.446  15.263  1.00  0.00    -0.206 F 
ATOM     70  C   UNL     1      -0.071  -4.736  16.422  1.00  0.00     0.059 A 
ATOM     71  C   UNL     1      -0.246  -2.432  17.171  1.00  0.00     0.059 A 
ATOM     72  F   UNL     1       1.482  -0.921  16.698  1.00  0.00    -0.206 F 
ATOM     73  C   UNL     1      -0.779  -3.716  17.060  1.00  0.00     0.060 A 
BRANCH  73  74
ATOM     74  S   UNL     1      -2.407  -4.091  17.745  1.00  0.00     0.124 S 
ATOM     75  O   UNL     1      -3.214  -4.201  16.534  1.00  0.00    -0.237 OA
ATOM     76  O   UNL     1      -2.164  -5.340  18.460  1.00  0.00    -0.237 OA
ATOM     77  O   UNL     1      -2.696  -2.936  18.589  1.00  0.00    -0.744 OA
ENDBRANCH  73  74
ENDBRANCH  52  66
BRANCH  53  78
ATOM     78  C   UNL     1      10.512  -0.974  11.689  1.00  0.00     0.058 A 
ATOM     79  C   UNL     1      11.631  -1.812  11.798  1.00  0.00     0.135 A 
ATOM     80  C   UNL     1      10.658   0.218  10.961  1.00  0.00     0.135 A 
ATOM     81  F   UNL     1      11.545  -2.957  12.494  1.00  0.00    -0.206 F 
ATOM     82  C   UNL     1      12.851  -1.480  11.218  1.00  0.00     0.059 A 
ATOM     83  C   UNL     1      11.860   0.561  10.351  1.00  0.00     0.059 A 
ATOM     84  F   UNL     1       9.615   1.051  10.818  1.00  0.00    -0.206 F 
ATOM     85  C   UNL     1      12.954  -0.291  10.492  1.00  0.00     0.060 A 
BRANCH  85  86
ATOM     86  S   UNL     1      14.526   0.105   9.696  1.00  0.00     0.124 S 
ATOM     87  O   UNL     1      15.345   0.489  10.839  1.00  0.00    -0.237 OA
ATOM     88  O   UNL     1      14.872  -1.161   9.056  1.00  0.00    -0.237 OA
ATOM     89  O   UNL     1      14.173   1.185   8.779  1.00  0.00    -0.744 OA
ENDBRANCH  85  86
ENDBRANCH  53  78
BRANCH  65  90
ATOM     90  C   UNL     1       8.353  -1.486  18.308  1.00  0.00     0.058 A 
ATOM     91  C   UNL     1       8.720  -0.220  18.789  1.00  0.00     0.135 A 
ATOM     92  C   UNL     1       8.617  -2.599  19.123  1.00  0.00     0.135 A 
ATOM     93  F   UNL     1       8.495   0.876  18.048  1.00  0.00    -0.206 F 
ATOM     94  C   UNL     1       9.348  -0.066  20.021  1.00  0.00     0.059 A 
ATOM     95  C   UNL     1       9.218  -2.466  20.370  1.00  0.00     0.059 A 
ATOM     96  F   UNL     1       8.275  -3.832  18.716  1.00  0.00    -0.206 F 
ATOM     97  C   UNL     1       9.592  -1.195  20.806  1.00  0.00     0.060 A 
BRANCH  97  98
ATOM     98  S   UNL     1      10.382  -0.979  22.415  1.00  0.00     0.124 S 
ATOM     99  O   UNL     1      11.764  -0.713  22.031  1.00  0.00    -0.237 OA
ATOM    100  O   UNL     1       9.649   0.153  22.974  1.00  0.00    -0.237 OA
ATOM    101  O   UNL     1      10.150  -2.257  23.081  1.00  0.00    -0.744 OA
ENDBRANCH  97  98
ENDBRANCH  65  90
ENDBRANCH  39  40
ENDBRANCH  32  34
ENDBRANCH  31  32
ENDBRANCH  30  31
ENDBRANCH  29  30
ENDBRANCH  28  29
ENDBRANCH   1  28
TORSDOF 22
