REMARK SMILES CC[NH2+][C@]1(C(=O)OCCOCCOC(=O)c2ccc(-c3c4nc(c(-c5c(F)cc(S(=O)(=O)[O-])cc5F)c5ccc([nH]5)c(-c5c(F)cc(S(=O)(=O)[O-])cc5F)c5nc(c(-c6c(F)cc(S(=O)(=O)[O-])cc6F)c6ccc3[nH]6)C=C5)C=C4)cc2)CCC[C@H]1CCSc1ccc(Cl)cc1
REMARK SMILES IDX 9 1 8 2 7 3 5 4 6 5 4 6 82 7 85 8 83 9 84 10 3 11 2 14 1 15
REMARK SMILES IDX 86 16 87 17 88 18 89 19 90 20 95 21 91 22 94 23 92 24 93 25
REMARK SMILES IDX 10 26 11 27 12 28 13 29 14 30 15 31 16 32 17 33 81 34 18 35
REMARK SMILES IDX 80 36 19 37 20 38 21 39 74 40 22 41 79 42 73 43 75 44 23 45
REMARK SMILES IDX 78 46 72 47 71 48 24 50 58 51 37 52 57 53 38 54 41 55 56 56
REMARK SMILES IDX 76 57 39 58 40 59 55 61 77 62 42 63 25 64 26 65 35 66 27 67
REMARK SMILES IDX 28 68 34 69 36 70 29 71 30 72 31 73 32 74 33 75 59 76 60 77
REMARK SMILES IDX 69 78 61 79 62 80 68 81 70 82 63 83 64 84 65 85 66 86 67 87
REMARK SMILES IDX 43 88 44 89 53 90 45 91 46 92 52 93 54 94 47 95 48 96 49 97
REMARK SMILES IDX 50 98 51 99
REMARK H PARENT 3 12 3 13 75 49 41 60
REMARK Flexibility Score: inf
ROOT
ATOM      1  C   UNL     1       2.139   0.885  -0.309  1.00  0.00     0.202 C 
ENDROOT
BRANCH   1   2
ATOM      2  C   UNL     1       2.287   1.652   1.005  1.00  0.00     0.261 C 
BRANCH   2   3
ATOM      3  O   UNL     1       1.811   0.911   2.149  1.00  0.00    -0.459 OA
BRANCH   3   4
ATOM      4  C   UNL     1       0.622   1.342   2.651  1.00  0.00     0.368 C 
ATOM      5  O   UNL     1      -0.131   2.100   2.045  1.00  0.00    -0.245 OA
BRANCH   4   6
ATOM      6  C   UNL     1       0.351   0.848   4.103  1.00  0.00     0.197 C 
ATOM      7  C   UNL     1      -1.120   1.247   4.407  1.00  0.00     0.081 C 
ATOM      8  C   UNL     1       0.302  -0.684   4.420  1.00  0.00     0.063 C 
ATOM      9  C   UNL     1      -1.529   0.462   5.639  1.00  0.00     0.008 C 
ATOM     10  C   UNL     1      -0.623  -0.764   5.663  1.00  0.00     0.011 C 
BRANCH   6  11
ATOM     11  N   UNL     1       1.211   1.624   5.052  1.00  0.00    -0.332 N 
ATOM     12  H   UNL     1       1.234   2.594   4.735  1.00  0.00     0.347 HD
ATOM     13  H   UNL     1       0.793   1.506   5.974  1.00  0.00     0.347 HD
BRANCH  11  14
ATOM     14  C   UNL     1       2.591   1.155   5.170  1.00  0.00     0.257 C 
ATOM     15  C   UNL     1       3.431   2.169   5.932  1.00  0.00     0.071 C 
ENDBRANCH  11  14
ENDBRANCH   6  11
BRANCH   8  16
ATOM     16  C   UNL     1      -0.235  -1.620   3.314  1.00  0.00     0.022 C 
BRANCH  16  17
ATOM     17  C   UNL     1       0.841  -2.291   2.446  1.00  0.00     0.075 C 
BRANCH  17  18
ATOM     18  S   UNL     1       1.645  -3.765   3.172  1.00  0.00    -0.126 SA
BRANCH  18  19
ATOM     19  C   UNL     1       2.989  -3.086   4.125  1.00  0.00     0.007 A 
ATOM     20  C   UNL     1       3.252  -3.675   5.368  1.00  0.00     0.016 A 
ATOM     21  C   UNL     1       3.789  -2.021   3.697  1.00  0.00     0.016 A 
ATOM     22  C   UNL     1       4.240  -3.157   6.207  1.00  0.00     0.021 A 
ATOM     23  C   UNL     1       4.779  -1.499   4.538  1.00  0.00     0.021 A 
ATOM     24  C   UNL     1       4.984  -2.055   5.798  1.00  0.00     0.041 A 
ATOM     25  Cl  UNL     1       6.135  -1.358   6.867  1.00  0.00    -0.084 Cl
ENDBRANCH  18  19
ENDBRANCH  17  18
ENDBRANCH  16  17
ENDBRANCH   8  16
ENDBRANCH   4   6
ENDBRANCH   3   4
ENDBRANCH   2   3
ENDBRANCH   1   2
BRANCH   1  26
ATOM     26  O   UNL     1       0.808   0.809  -0.822  1.00  0.00    -0.374 OA
BRANCH  26  27
ATOM     27  C   UNL     1       0.013  -0.274  -0.341  1.00  0.00     0.202 C 
BRANCH  27  28
ATOM     28  C   UNL     1       0.288  -1.613  -1.037  1.00  0.00     0.261 C 
BRANCH  28  29
ATOM     29  O   UNL     1       1.586  -2.123  -0.664  1.00  0.00    -0.460 OA
BRANCH  29  30
ATOM     30  C   UNL     1       2.443  -2.304  -1.694  1.00  0.00     0.338 C 
ATOM     31  O   UNL     1       2.167  -2.249  -2.887  1.00  0.00    -0.246 OA
BRANCH  30  32
ATOM     32  C   UNL     1       3.839  -2.391  -1.213  1.00  0.00     0.060 A 
ATOM     33  C   UNL     1       4.782  -1.618  -1.899  1.00  0.00     0.016 A 
ATOM     34  C   UNL     1       4.250  -3.251  -0.189  1.00  0.00     0.016 A 
ATOM     35  C   UNL     1       6.141  -1.777  -1.641  1.00  0.00     0.010 A 
ATOM     36  C   UNL     1       5.623  -3.400   0.078  1.00  0.00     0.010 A 
ATOM     37  C   UNL     1       6.579  -2.711  -0.691  1.00  0.00    -0.014 A 
BRANCH  37  38
ATOM     38  C   UNL     1       8.028  -3.062  -0.678  1.00  0.00     0.031 A 
ATOM     39  C   UNL     1       8.483  -4.348  -1.328  1.00  0.00     0.074 A 
ATOM     40  C   UNL     1       8.952  -2.190  -0.228  1.00  0.00     0.049 A 
ATOM     41  N   UNL     1       9.698  -4.765  -1.580  1.00  0.00    -0.248 NA
ATOM     42  C   UNL     1       7.430  -5.283  -1.755  1.00  0.00     0.031 C 
ATOM     43  C   UNL     1       8.662  -0.903   0.403  1.00  0.00     0.029 A 
ATOM     44  N   UNL     1      10.325  -2.247  -0.258  1.00  0.00    -0.354 N 
ATOM     45  C   UNL     1       9.557  -6.002  -2.200  1.00  0.00     0.074 A 
ATOM     46  C   UNL     1       8.140  -6.290  -2.242  1.00  0.00     0.031 C 
ATOM     47  C   UNL     1       9.822  -0.283   0.682  1.00  0.00     0.029 A 
ATOM     48  C   UNL     1      10.938  -1.131   0.262  1.00  0.00     0.049 A 
ATOM     49  H   UNL     1      10.823  -3.015  -0.620  1.00  0.00     0.167 HD
ATOM     50  C   UNL     1      10.511  -6.817  -2.710  1.00  0.00     0.037 A 
ATOM     51  C   UNL     1      12.245  -0.821   0.381  1.00  0.00     0.037 A 
ATOM     52  C   UNL     1      11.923  -6.536  -2.687  1.00  0.00     0.049 A 
ATOM     53  C   UNL     1      13.293  -1.761  -0.159  1.00  0.00     0.074 A 
ATOM     54  C   UNL     1      12.959  -7.293  -3.209  1.00  0.00     0.029 A 
ATOM     55  N   UNL     1      12.501  -5.418  -2.107  1.00  0.00    -0.354 N 
ATOM     56  N   UNL     1      13.135  -2.902  -0.786  1.00  0.00    -0.248 NA
ATOM     57  C   UNL     1      14.698  -1.362   0.013  1.00  0.00     0.031 C 
ATOM     58  C   UNL     1      14.166  -6.656  -2.904  1.00  0.00     0.029 A 
ATOM     59  C   UNL     1      13.880  -5.477  -2.236  1.00  0.00     0.049 A 
ATOM     60  H   UNL     1      12.006  -4.689  -1.669  1.00  0.00     0.167 HD
ATOM     61  C   UNL     1      14.417  -3.342  -1.105  1.00  0.00     0.074 A 
ATOM     62  C   UNL     1      15.338  -2.340  -0.614  1.00  0.00     0.031 C 
ATOM     63  C   UNL     1      14.795  -4.475  -1.749  1.00  0.00     0.037 A 
BRANCH  50  64
ATOM     64  C   UNL     1      10.060  -8.109  -3.333  1.00  0.00     0.058 A 
ATOM     65  C   UNL     1       9.405  -8.141  -4.575  1.00  0.00     0.135 A 
ATOM     66  C   UNL     1      10.319  -9.334  -2.697  1.00  0.00     0.135 A 
ATOM     67  F   UNL     1       9.119  -6.997  -5.217  1.00  0.00    -0.206 F 
ATOM     68  C   UNL     1       9.000  -9.339  -5.152  1.00  0.00     0.059 A 
ATOM     69  C   UNL     1       9.945 -10.547  -3.268  1.00  0.00     0.059 A 
ATOM     70  F   UNL     1      10.941  -9.360  -1.508  1.00  0.00    -0.206 F 
ATOM     71  C   UNL     1       9.273 -10.538  -4.490  1.00  0.00     0.060 A 
BRANCH  71  72
ATOM     72  S   UNL     1       8.744 -12.086  -5.252  1.00  0.00     0.124 S 
ATOM     73  O   UNL     1       7.302 -12.042  -5.027  1.00  0.00    -0.237 OA
ATOM     74  O   UNL     1       9.175 -11.918  -6.636  1.00  0.00    -0.237 OA
ATOM     75  O   UNL     1       9.466 -13.103  -4.494  1.00  0.00    -0.744 OA
ENDBRANCH  71  72
ENDBRANCH  50  64
BRANCH  51  76
ATOM     76  C   UNL     1      12.646   0.452   1.040  1.00  0.00     0.058 A 
ATOM     77  C   UNL     1      13.217   1.505   0.310  1.00  0.00     0.135 A 
ATOM     78  C   UNL     1      12.474   0.631   2.421  1.00  0.00     0.135 A 
ATOM     79  F   UNL     1      13.414   1.376  -1.011  1.00  0.00    -0.206 F 
ATOM     80  C   UNL     1      13.616   2.686   0.927  1.00  0.00     0.059 A 
ATOM     81  C   UNL     1      12.842   1.812   3.057  1.00  0.00     0.059 A 
ATOM     82  F   UNL     1      11.926  -0.344   3.162  1.00  0.00    -0.206 F 
ATOM     83  C   UNL     1      13.421   2.831   2.302  1.00  0.00     0.060 A 
BRANCH  83  84
ATOM     84  S   UNL     1      13.893   4.387   3.088  1.00  0.00     0.124 S 
ATOM     85  O   UNL     1      15.346   4.272   3.120  1.00  0.00    -0.237 OA
ATOM     86  O   UNL     1      13.349   5.376   2.161  1.00  0.00    -0.237 OA
ATOM     87  O   UNL     1      13.224   4.322   4.384  1.00  0.00    -0.744 OA
ENDBRANCH  83  84
ENDBRANCH  51  76
BRANCH  63  88
ATOM     88  C   UNL     1      16.266  -4.686  -1.989  1.00  0.00     0.058 A 
ATOM     89  C   UNL     1      17.147  -5.013  -0.946  1.00  0.00     0.135 A 
ATOM     90  C   UNL     1      16.795  -4.602  -3.288  1.00  0.00     0.135 A 
ATOM     91  F   UNL     1      16.695  -5.105   0.315  1.00  0.00    -0.206 F 
ATOM     92  C   UNL     1      18.504  -5.221  -1.177  1.00  0.00     0.059 A 
ATOM     93  C   UNL     1      18.144  -4.832  -3.546  1.00  0.00     0.059 A 
ATOM     94  F   UNL     1      15.997  -4.306  -4.326  1.00  0.00    -0.206 F 
ATOM     95  C   UNL     1      18.994  -5.126  -2.481  1.00  0.00     0.060 A 
BRANCH  95  96
ATOM     96  S   UNL     1      20.753  -5.416  -2.771  1.00  0.00     0.124 S 
ATOM     97  O   UNL     1      21.341  -4.177  -2.272  1.00  0.00    -0.237 OA
ATOM     98  O   UNL     1      21.012  -6.608  -1.969  1.00  0.00    -0.237 OA
ATOM     99  O   UNL     1      20.831  -5.611  -4.215  1.00  0.00    -0.744 OA
ENDBRANCH  95  96
ENDBRANCH  63  88
ENDBRANCH  37  38
ENDBRANCH  30  32
ENDBRANCH  29  30
ENDBRANCH  28  29
ENDBRANCH  27  28
ENDBRANCH  26  27
ENDBRANCH   1  26
TORSDOF 23
