REMARK SMILES COc1ccc([C@H]2[C@H](C(=O)OCCOCCOC(=O)c3ccc(-c4c5nc(c(-c6c(F)cc(S(=O)(=O)[O-])cc6F)c6ccc([nH]6)c(-c6c(F)cc(S(=O)(=O)[O-])cc6F)c6nc(c(-c7c(F)cc(S(=O)(=O)[O-])cc7F)c7ccc4[nH]7)C=C6)C=C5)cc3)CCN2c2ccc(F)cc2)cc1
REMARK SMILES IDX 15 1 14 2 13 3 12 4 11 5 9 6 10 7 8 8 7 9 88 10 86 11 87 12
REMARK SMILES IDX 6 13 3 14 4 15 97 16 5 17 96 18 2 19 1 20 89 21 90 22 95 23
REMARK SMILES IDX 91 24 94 25 92 26 93 27 16 28 17 29 18 30 19 31 20 32 21 33
REMARK SMILES IDX 85 34 22 35 84 36 23 37 24 38 25 39 78 40 26 41 83 42 77 43
REMARK SMILES IDX 79 44 27 45 82 46 76 47 75 48 28 50 62 51 41 52 61 53 42 54
REMARK SMILES IDX 45 55 60 56 80 57 43 58 44 59 59 61 81 62 46 63 29 64 30 65
REMARK SMILES IDX 39 66 31 67 32 68 38 69 40 70 33 71 34 72 35 73 36 74 37 75
REMARK SMILES IDX 63 76 64 77 73 78 65 79 66 80 72 81 74 82 67 83 68 84 69 85
REMARK SMILES IDX 70 86 71 87 47 88 48 89 57 90 49 91 50 92 56 93 58 94 51 95
REMARK SMILES IDX 52 96 53 97 54 98 55 99
REMARK H PARENT 79 49 45 60
REMARK Flexibility Score: inf
ROOT
ATOM      1  C   UNL     1       3.228  -4.303  -0.672  1.00  0.00     0.202 C 
ENDROOT
BRANCH   1   2
ATOM      2  O   UNL     1       4.630  -4.474  -0.474  1.00  0.00    -0.374 OA
BRANCH   2   3
ATOM      3  C   UNL     1       5.486  -4.011  -1.517  1.00  0.00     0.202 C 
BRANCH   3   4
ATOM      4  C   UNL     1       5.693  -4.960  -2.696  1.00  0.00     0.261 C 
BRANCH   4   5
ATOM      5  O   UNL     1       4.474  -5.150  -3.437  1.00  0.00    -0.463 OA
BRANCH   5   6
ATOM      6  C   UNL     1       3.885  -6.362  -3.305  1.00  0.00     0.311 C 
ATOM      7  O   UNL     1       4.331  -7.282  -2.627  1.00  0.00    -0.252 OA
BRANCH   6   8
ATOM      8  C   UNL     1       2.623  -6.529  -4.118  1.00  0.00     0.128 C 
ATOM      9  C   UNL     1       1.742  -5.277  -4.301  1.00  0.00     0.127 C 
ATOM     10  N   UNL     1       2.276  -4.686  -5.539  1.00  0.00    -0.364 N 
ATOM     11  C   UNL     1       2.960  -6.954  -5.541  1.00  0.00     0.039 C 
ATOM     12  C   UNL     1       3.047  -5.645  -6.323  1.00  0.00     0.118 C 
BRANCH   9  13
ATOM     13  C   UNL     1       0.264  -5.688  -4.460  1.00  0.00    -0.024 A 
ATOM     14  C   UNL     1      -2.361  -6.683  -4.832  1.00  0.00     0.118 A 
ATOM     15  C   UNL     1      -1.694  -6.886  -3.625  1.00  0.00     0.047 A 
ATOM     16  C   UNL     1      -1.762  -5.907  -5.815  1.00  0.00     0.047 A 
ATOM     17  C   UNL     1      -0.397  -6.389  -3.436  1.00  0.00     0.010 A 
ATOM     18  C   UNL     1      -0.467  -5.423  -5.630  1.00  0.00     0.010 A 
BRANCH  14  19
ATOM     19  O   UNL     1      -3.603  -7.246  -4.953  1.00  0.00    -0.497 OA
ATOM     20  C   UNL     1      -3.890  -7.734  -6.264  1.00  0.00     0.278 C 
ENDBRANCH  14  19
ENDBRANCH   9  13
BRANCH  10  21
ATOM     21  C   UNL     1       2.126  -3.374  -5.928  1.00  0.00     0.037 A 
ATOM     22  C   UNL     1       1.925  -3.040  -7.282  1.00  0.00     0.029 A 
ATOM     23  C   UNL     1       2.116  -2.320  -5.007  1.00  0.00     0.029 A 
ATOM     24  C   UNL     1       1.696  -1.724  -7.696  1.00  0.00     0.041 A 
ATOM     25  C   UNL     1       1.888  -1.002  -5.417  1.00  0.00     0.041 A 
ATOM     26  C   UNL     1       1.685  -0.712  -6.755  1.00  0.00     0.123 A 
ATOM     27  F   UNL     1       1.464   0.552  -7.133  1.00  0.00    -0.207 F 
ENDBRANCH  10  21
ENDBRANCH   6   8
ENDBRANCH   5   6
ENDBRANCH   4   5
ENDBRANCH   3   4
ENDBRANCH   2   3
ENDBRANCH   1   2
BRANCH   1  28
ATOM     28  C   UNL     1       2.657  -2.897  -0.429  1.00  0.00     0.261 C 
BRANCH  28  29
ATOM     29  O   UNL     1       3.135  -1.927  -1.377  1.00  0.00    -0.460 OA
BRANCH  29  30
ATOM     30  C   UNL     1       4.121  -1.106  -0.931  1.00  0.00     0.338 C 
ATOM     31  O   UNL     1       4.611  -1.080   0.186  1.00  0.00    -0.246 OA
BRANCH  30  32
ATOM     32  C   UNL     1       4.664  -0.357  -2.083  1.00  0.00     0.060 A 
ATOM     33  C   UNL     1       6.037  -0.412  -2.358  1.00  0.00     0.016 A 
ATOM     34  C   UNL     1       3.819   0.401  -2.886  1.00  0.00     0.016 A 
ATOM     35  C   UNL     1       6.569   0.310  -3.433  1.00  0.00     0.010 A 
ATOM     36  C   UNL     1       4.347   1.092  -3.979  1.00  0.00     0.010 A 
ATOM     37  C   UNL     1       5.730   1.088  -4.242  1.00  0.00    -0.014 A 
BRANCH  37  38
ATOM     38  C   UNL     1       6.264   2.060  -5.239  1.00  0.00     0.031 A 
ATOM     39  C   UNL     1       6.045   3.531  -4.978  1.00  0.00     0.074 A 
ATOM     40  C   UNL     1       6.881   1.675  -6.372  1.00  0.00     0.049 A 
ATOM     41  N   UNL     1       6.221   4.557  -5.769  1.00  0.00    -0.248 NA
ATOM     42  C   UNL     1       5.514   3.879  -3.650  1.00  0.00     0.031 C 
ATOM     43  C   UNL     1       7.198   0.299  -6.746  1.00  0.00     0.029 A 
ATOM     44  N   UNL     1       7.338   2.423  -7.432  1.00  0.00    -0.354 N 
ATOM     45  C   UNL     1       5.769   5.662  -5.053  1.00  0.00     0.074 A 
ATOM     46  C   UNL     1       5.262   5.170  -3.792  1.00  0.00     0.031 C 
ATOM     47  C   UNL     1       7.809   0.302  -7.945  1.00  0.00     0.029 A 
ATOM     48  C   UNL     1       7.877   1.673  -8.451  1.00  0.00     0.049 A 
ATOM     49  H   UNL     1       7.284   3.406  -7.460  1.00  0.00     0.167 HD
ATOM     50  C   UNL     1       5.792   6.971  -5.400  1.00  0.00     0.037 A 
ATOM     51  C   UNL     1       8.352   2.047  -9.658  1.00  0.00     0.037 A 
ATOM     52  C   UNL     1       6.332   7.463  -6.638  1.00  0.00     0.049 A 
ATOM     53  C   UNL     1       8.320   3.503 -10.057  1.00  0.00     0.074 A 
ATOM     54  C   UNL     1       6.438   8.773  -7.070  1.00  0.00     0.029 A 
ATOM     55  N   UNL     1       6.861   6.665  -7.643  1.00  0.00    -0.354 N 
ATOM     56  N   UNL     1       7.898   4.539  -9.372  1.00  0.00    -0.248 NA
ATOM     57  C   UNL     1       8.825   3.841 -11.398  1.00  0.00     0.031 C 
ATOM     58  C   UNL     1       6.981   8.763  -8.358  1.00  0.00     0.029 A 
ATOM     59  C   UNL     1       7.277   7.453  -8.701  1.00  0.00     0.049 A 
ATOM     60  H   UNL     1       6.929   5.683  -7.607  1.00  0.00     0.167 HD
ATOM     61  C   UNL     1       8.132   5.652 -10.176  1.00  0.00     0.074 A 
ATOM     62  C   UNL     1       8.719   5.163 -11.405  1.00  0.00     0.031 C 
ATOM     63  C   UNL     1       7.894   6.961  -9.910  1.00  0.00     0.037 A 
BRANCH  50  64
ATOM     64  C   UNL     1       5.187   7.950  -4.428  1.00  0.00     0.058 A 
ATOM     65  C   UNL     1       5.747   8.184  -3.161  1.00  0.00     0.135 A 
ATOM     66  C   UNL     1       4.007   8.638  -4.756  1.00  0.00     0.135 A 
ATOM     67  F   UNL     1       6.869   7.546  -2.788  1.00  0.00    -0.206 F 
ATOM     68  C   UNL     1       5.121   9.003  -2.228  1.00  0.00     0.059 A 
ATOM     69  C   UNL     1       3.386   9.496  -3.853  1.00  0.00     0.059 A 
ATOM     70  F   UNL     1       3.432   8.464  -5.956  1.00  0.00    -0.206 F 
ATOM     71  C   UNL     1       3.934   9.646  -2.580  1.00  0.00     0.060 A 
BRANCH  71  72
ATOM     72  S   UNL     1       3.102  10.657  -1.339  1.00  0.00     0.124 S 
ATOM     73  O   UNL     1       2.554   9.635  -0.453  1.00  0.00    -0.237 OA
ATOM     74  O   UNL     1       4.200  11.447  -0.791  1.00  0.00    -0.237 OA
ATOM     75  O   UNL     1       2.119  11.408  -2.115  1.00  0.00    -0.744 OA
ENDBRANCH  71  72
ENDBRANCH  50  64
BRANCH  51  76
ATOM     76  C   UNL     1       8.935   1.028 -10.575  1.00  0.00     0.058 A 
ATOM     77  C   UNL     1      10.317   1.002 -10.823  1.00  0.00     0.135 A 
ATOM     78  C   UNL     1       8.143   0.054 -11.202  1.00  0.00     0.135 A 
ATOM     79  F   UNL     1      11.115   1.924 -10.262  1.00  0.00    -0.206 F 
ATOM     80  C   UNL     1      10.893   0.050 -11.657  1.00  0.00     0.059 A 
ATOM     81  C   UNL     1       8.700  -0.926 -12.021  1.00  0.00     0.059 A 
ATOM     82  F   UNL     1       6.817   0.030 -10.998  1.00  0.00    -0.206 F 
ATOM     83  C   UNL     1      10.076  -0.919 -12.243  1.00  0.00     0.060 A 
BRANCH  83  84
ATOM     84  S   UNL     1      10.850  -2.199 -13.256  1.00  0.00     0.124 S 
ATOM     85  O   UNL     1      11.279  -1.436 -14.422  1.00  0.00    -0.237 OA
ATOM     86  O   UNL     1      11.914  -2.677 -12.378  1.00  0.00    -0.237 OA
ATOM     87  O   UNL     1       9.764  -3.147 -13.486  1.00  0.00    -0.744 OA
ENDBRANCH  83  84
ENDBRANCH  51  76
BRANCH  63  88
ATOM     88  C   UNL     1       8.331   7.990 -10.918  1.00  0.00     0.058 A 
ATOM     89  C   UNL     1       7.637   8.203 -12.118  1.00  0.00     0.135 A 
ATOM     90  C   UNL     1       9.389   8.864 -10.610  1.00  0.00     0.135 A 
ATOM     91  F   UNL     1       6.625   7.394 -12.467  1.00  0.00    -0.206 F 
ATOM     92  C   UNL     1       7.971   9.251 -12.973  1.00  0.00     0.059 A 
ATOM     93  C   UNL     1       9.721   9.933 -11.435  1.00  0.00     0.059 A 
ATOM     94  F   UNL     1      10.081   8.709  -9.470  1.00  0.00    -0.206 F 
ATOM     95  C   UNL     1       9.005  10.120 -12.616  1.00  0.00     0.060 A 
BRANCH  95  96
ATOM     96  S   UNL     1       9.363  11.530 -13.686  1.00  0.00     0.124 S 
ATOM     97  O   UNL     1       9.969  10.877 -14.842  1.00  0.00    -0.237 OA
ATOM     98  O   UNL     1       8.037  12.099 -13.903  1.00  0.00    -0.237 OA
ATOM     99  O   UNL     1      10.266  12.348 -12.883  1.00  0.00    -0.744 OA
ENDBRANCH  95  96
ENDBRANCH  63  88
ENDBRANCH  37  38
ENDBRANCH  30  32
ENDBRANCH  29  30
ENDBRANCH  28  29
ENDBRANCH   1  28
TORSDOF 20
