REMARK SMILES C[C@H]1Oc2ccccc2C=C1/C=C/C(=O)N[C@H](C(=O)OCCOCCOC(=O)c1ccc(-c2c3nc(c(-c4c(F)cc(S(=O)(=O)[O-])cc4F)c4ccc([nH]4)c(-c4c(F)cc(S(=O)(=O)[O-])cc4F)c4nc(c(-c5c(F)cc(S(=O)(=O)[O-])cc5F)c5ccc2[nH]5)C=C4)C=C3)cc1)c1ccccc1
REMARK SMILES IDX 23 1 22 2 21 3 20 4 18 5 19 6 17 7 16 8 14 9 15 10 13 12
REMARK SMILES IDX 12 13 11 14 1 15 2 16 3 17 4 18 10 19 5 20 9 21 6 22 8 23
REMARK SMILES IDX 7 24 95 25 96 26 100 27 97 28 99 29 98 30 24 31 25 32 26 33
REMARK SMILES IDX 27 34 28 35 29 36 30 37 94 38 31 39 93 40 32 41 33 42 34 43
REMARK SMILES IDX 87 44 35 45 92 46 86 47 88 48 36 49 91 50 85 51 84 52 37 54
REMARK SMILES IDX 71 55 50 56 70 57 51 58 54 59 69 60 89 61 52 62 53 63 68 65
REMARK SMILES IDX 90 66 55 67 38 68 39 69 48 70 40 71 41 72 47 73 49 74 42 75
REMARK SMILES IDX 43 76 44 77 45 78 46 79 72 80 73 81 82 82 74 83 75 84 81 85
REMARK SMILES IDX 83 86 76 87 77 88 78 89 79 90 80 91 56 92 57 93 66 94 58 95
REMARK SMILES IDX 59 96 65 97 67 98 60 99 61 100 62 101 63 102 64 103
REMARK H PARENT 16 11 88 53 54 64
REMARK Flexibility Score: inf
ROOT
ATOM      1  O   UNL     1      -2.248  -5.513  -2.819  1.00  0.00    -0.374 OA
ENDROOT
BRANCH   1   2
ATOM      2  C   UNL     1      -3.067  -4.940  -1.812  1.00  0.00     0.202 C 
BRANCH   2   3
ATOM      3  C   UNL     1      -2.409  -4.347  -0.552  1.00  0.00     0.261 C 
BRANCH   3   4
ATOM      4  O   UNL     1      -1.058  -3.857  -0.721  1.00  0.00    -0.461 OA
BRANCH   4   5
ATOM      5  C   UNL     1      -0.129  -4.652  -0.124  1.00  0.00     0.333 C 
ATOM      6  O   UNL     1      -0.460  -5.661   0.497  1.00  0.00    -0.249 OA
BRANCH   5   7
ATOM      7  C   UNL     1       1.347  -4.161  -0.216  1.00  0.00     0.223 C 
BRANCH   7   8
ATOM      8  N   UNL     1       2.039  -4.850   0.884  1.00  0.00    -0.335 N 
ATOM      9  C   UNL     1       2.247  -6.166   1.163  1.00  0.00     0.244 C 
ATOM     10  O   UNL     1       2.816  -6.428   2.226  1.00  0.00    -0.270 OA
ATOM     11  H   UNL     1       2.429  -4.239   1.550  1.00  0.00     0.165 HD
BRANCH   9  12
ATOM     12  C   UNL     1       1.931  -7.322   0.250  1.00  0.00     0.071 C 
ATOM     13  C   UNL     1       1.304  -7.389  -0.940  1.00  0.00     0.013 C 
BRANCH  13  14
ATOM     14  C   UNL     1       1.177  -8.530  -1.843  1.00  0.00    -0.007 C 
ATOM     15  C   UNL     1       1.377  -7.313  -4.096  1.00  0.00     0.058 C 
ATOM     16  C   UNL     1       0.546  -8.252  -3.216  1.00  0.00     0.200 C 
ATOM     17  O   UNL     1       0.258  -9.399  -4.041  1.00  0.00    -0.485 OA
ATOM     18  C   UNL     1       0.851 -10.582  -3.720  1.00  0.00     0.127 A 
ATOM     19  C   UNL     1       1.582  -9.763  -1.511  1.00  0.00     0.019 C 
ATOM     20  C   UNL     1       0.772 -11.590  -4.679  1.00  0.00     0.047 A 
ATOM     21  C   UNL     1       1.479 -10.821  -2.499  1.00  0.00     0.017 A 
ATOM     22  C   UNL     1       1.318 -12.846  -4.419  1.00  0.00     0.004 A 
ATOM     23  C   UNL     1       2.012 -12.086  -2.234  1.00  0.00     0.012 A 
ATOM     24  C   UNL     1       1.931 -13.096  -3.193  1.00  0.00     0.001 A 
ENDBRANCH  13  14
ENDBRANCH   9  12
ENDBRANCH   7   8
BRANCH   7  25
ATOM     25  C   UNL     1       2.177  -4.146  -1.518  1.00  0.00    -0.014 A 
ATOM     26  C   UNL     1       2.052  -3.111  -2.460  1.00  0.00     0.006 A 
ATOM     27  C   UNL     1       3.216  -5.072  -1.771  1.00  0.00     0.006 A 
ATOM     28  C   UNL     1       2.878  -3.055  -3.602  1.00  0.00     0.000 A 
ATOM     29  C   UNL     1       3.997  -5.058  -2.931  1.00  0.00     0.000 A 
ATOM     30  C   UNL     1       3.830  -4.042  -3.852  1.00  0.00     0.000 A 
ENDBRANCH   7  25
ENDBRANCH   5   7
ENDBRANCH   4   5
ENDBRANCH   3   4
ENDBRANCH   2   3
ENDBRANCH   1   2
BRANCH   1  31
ATOM     31  C   UNL     1      -1.243  -4.710  -3.426  1.00  0.00     0.202 C 
BRANCH  31  32
ATOM     32  C   UNL     1      -1.588  -3.314  -3.969  1.00  0.00     0.261 C 
BRANCH  32  33
ATOM     33  O   UNL     1      -2.118  -2.411  -2.982  1.00  0.00    -0.460 OA
BRANCH  33  34
ATOM     34  C   UNL     1      -3.398  -2.011  -3.189  1.00  0.00     0.338 C 
ATOM     35  O   UNL     1      -4.119  -2.312  -4.130  1.00  0.00    -0.246 OA
BRANCH  34  36
ATOM     36  C   UNL     1      -3.898  -1.310  -1.991  1.00  0.00     0.060 A 
ATOM     37  C   UNL     1      -3.256  -0.172  -1.505  1.00  0.00     0.016 A 
ATOM     38  C   UNL     1      -5.064  -1.788  -1.375  1.00  0.00     0.016 A 
ATOM     39  C   UNL     1      -3.808   0.509  -0.417  1.00  0.00     0.010 A 
ATOM     40  C   UNL     1      -5.608  -1.111  -0.283  1.00  0.00     0.010 A 
ATOM     41  C   UNL     1      -4.998   0.059   0.186  1.00  0.00    -0.014 A 
BRANCH  41  42
ATOM     42  C   UNL     1      -5.688   0.913   1.185  1.00  0.00     0.031 A 
ATOM     43  C   UNL     1      -5.682   0.585   2.647  1.00  0.00     0.074 A 
ATOM     44  C   UNL     1      -6.328   2.010   0.737  1.00  0.00     0.049 A 
ATOM     45  N   UNL     1      -6.139   1.296   3.646  1.00  0.00    -0.248 NA
ATOM     46  C   UNL     1      -5.097  -0.704   3.041  1.00  0.00     0.031 C 
ATOM     47  C   UNL     1      -6.436   2.397  -0.672  1.00  0.00     0.029 A 
ATOM     48  N   UNL     1      -6.989   3.007   1.407  1.00  0.00    -0.354 N 
ATOM     49  C   UNL     1      -5.868   0.562   4.793  1.00  0.00     0.074 A 
ATOM     50  C   UNL     1      -5.262  -0.681   4.359  1.00  0.00     0.031 C 
ATOM     51  C   UNL     1      -7.075   3.573  -0.757  1.00  0.00     0.029 A 
ATOM     52  C   UNL     1      -7.449   4.009   0.585  1.00  0.00     0.049 A 
ATOM     53  H   UNL     1      -7.120   3.006   2.382  1.00  0.00     0.167 HD
ATOM     54  C   UNL     1      -6.082   0.909   6.085  1.00  0.00     0.037 A 
ATOM     55  C   UNL     1      -8.088   5.158   0.878  1.00  0.00     0.037 A 
ATOM     56  C   UNL     1      -6.716   2.137   6.498  1.00  0.00     0.049 A 
ATOM     57  C   UNL     1      -8.364   5.493   2.317  1.00  0.00     0.074 A 
ATOM     58  C   UNL     1      -6.963   2.588   7.784  1.00  0.00     0.029 A 
ATOM     59  N   UNL     1      -7.216   3.105   5.636  1.00  0.00    -0.354 N 
ATOM     60  N   UNL     1      -8.033   4.823   3.395  1.00  0.00    -0.248 NA
ATOM     61  C   UNL     1      -9.095   6.739   2.582  1.00  0.00     0.031 C 
ATOM     62  C   UNL     1      -7.658   3.799   7.699  1.00  0.00     0.029 A 
ATOM     63  C   UNL     1      -7.793   4.135   6.362  1.00  0.00     0.049 A 
ATOM     64  H   UNL     1      -7.168   3.064   4.654  1.00  0.00     0.167 HD
ATOM     65  C   UNL     1      -8.495   5.577   4.467  1.00  0.00     0.074 A 
ATOM     66  C   UNL     1      -9.115   6.761   3.908  1.00  0.00     0.031 C 
ATOM     67  C   UNL     1      -8.409   5.311   5.794  1.00  0.00     0.037 A 
BRANCH  54  68
ATOM     68  C   UNL     1      -5.613  -0.042   7.155  1.00  0.00     0.058 A 
ATOM     69  C   UNL     1      -4.245  -0.238   7.404  1.00  0.00     0.135 A 
ATOM     70  C   UNL     1      -6.529  -0.710   7.984  1.00  0.00     0.135 A 
ATOM     71  F   UNL     1      -3.324   0.369   6.638  1.00  0.00    -0.206 F 
ATOM     72  C   UNL     1      -3.802  -1.079   8.419  1.00  0.00     0.059 A 
ATOM     73  C   UNL     1      -6.108  -1.535   9.024  1.00  0.00     0.059 A 
ATOM     74  F   UNL     1      -7.849  -0.556   7.795  1.00  0.00    -0.206 F 
ATOM     75  C   UNL     1      -4.742  -1.722   9.226  1.00  0.00     0.060 A 
BRANCH  75  76
ATOM     76  S   UNL     1      -4.144  -2.806  10.541  1.00  0.00     0.124 S 
ATOM     77  O   UNL     1      -3.562  -3.902   9.771  1.00  0.00    -0.237 OA
ATOM     78  O   UNL     1      -3.192  -1.948  11.240  1.00  0.00    -0.237 OA
ATOM     79  O   UNL     1      -5.353  -3.138  11.287  1.00  0.00    -0.744 OA
ENDBRANCH  75  76
ENDBRANCH  54  68
BRANCH  55  80
ATOM     80  C   UNL     1      -8.456   6.093  -0.217  1.00  0.00     0.058 A 
ATOM     81  C   UNL     1      -7.795   7.322  -0.364  1.00  0.00     0.135 A 
ATOM     82  C   UNL     1      -9.438   5.761  -1.164  1.00  0.00     0.135 A 
ATOM     83  F   UNL     1      -6.851   7.685   0.517  1.00  0.00    -0.206 F 
ATOM     84  C   UNL     1      -8.099   8.192  -1.406  1.00  0.00     0.059 A 
ATOM     85  C   UNL     1      -9.739   6.602  -2.231  1.00  0.00     0.059 A 
ATOM     86  F   UNL     1     -10.085   4.589  -1.079  1.00  0.00    -0.206 F 
ATOM     87  C   UNL     1      -9.067   7.819  -2.339  1.00  0.00     0.060 A 
BRANCH  87  88
ATOM     88  S   UNL     1      -9.407   8.933  -3.719  1.00  0.00     0.124 S 
ATOM     89  O   UNL     1     -10.038  10.058  -3.040  1.00  0.00    -0.237 OA
ATOM     90  O   UNL     1      -8.069   9.174  -4.249  1.00  0.00    -0.237 OA
ATOM     91  O   UNL     1     -10.283   8.144  -4.581  1.00  0.00    -0.744 OA
ENDBRANCH  87  88
ENDBRANCH  55  80
BRANCH  67  92
ATOM     92  C   UNL     1      -8.988   6.321   6.748  1.00  0.00     0.058 A 
ATOM     93  C   UNL     1     -10.374   6.482   6.898  1.00  0.00     0.135 A 
ATOM     94  C   UNL     1      -8.147   7.074   7.585  1.00  0.00     0.135 A 
ATOM     95  F   UNL     1     -11.222   5.795   6.117  1.00  0.00    -0.206 F 
ATOM     96  C   UNL     1     -10.906   7.359   7.838  1.00  0.00     0.059 A 
ATOM     97  C   UNL     1      -8.657   7.935   8.552  1.00  0.00     0.059 A 
ATOM     98  F   UNL     1      -6.813   6.955   7.487  1.00  0.00    -0.206 F 
ATOM     99  C   UNL     1     -10.040   8.073   8.669  1.00  0.00     0.060 A 
BRANCH  99 100
ATOM    100  S   UNL     1     -10.750   9.156   9.926  1.00  0.00     0.124 S 
ATOM    101  O   UNL     1     -11.332  10.216   9.108  1.00  0.00    -0.237 OA
ATOM    102  O   UNL     1     -11.704   8.273  10.591  1.00  0.00    -0.237 OA
ATOM    103  O   UNL     1      -9.598   9.547  10.732  1.00  0.00    -0.744 OA
ENDBRANCH  99 100
ENDBRANCH  67  92
ENDBRANCH  41  42
ENDBRANCH  34  36
ENDBRANCH  33  34
ENDBRANCH  32  33
ENDBRANCH  31  32
ENDBRANCH   1  31
TORSDOF 21
