REMARK SMILES CCCN(C(=O)Cc1c(C(=O)OCCOCCOC(=O)c2ccc(-c3c4nc(c(-c5c(F)cc(S(=O)(=O)[O-])cc5F)c5ccc([nH]5)c(-c5c(F)cc(S(=O)(=O)[O-])cc5F)c5nc(c(-c6c(F)cc(S(=O)(=O)[O-])cc6F)c6ccc3[nH]6)C=C5)C=C4)cc2)c(C)cn1CC)c1cccc(Cl)c1
REMARK SMILES IDX 14 1 13 2 12 3 10 4 11 5 9 6 8 7 90 8 87 9 89 10 88 11 7 12
REMARK SMILES IDX 5 13 6 14 4 15 3 16 2 17 1 18 93 19 94 20 99 21 95 22 97 23
REMARK SMILES IDX 96 24 98 25 91 26 92 27 15 28 16 29 17 30 18 31 19 32 20 33
REMARK SMILES IDX 21 34 22 35 86 36 23 37 85 38 24 39 25 40 26 41 79 42 27 43
REMARK SMILES IDX 84 44 78 45 80 46 28 47 83 48 77 49 76 50 29 52 63 53 42 54
REMARK SMILES IDX 62 55 43 56 46 57 61 58 81 59 44 60 45 61 60 63 82 64 47 65
REMARK SMILES IDX 30 66 31 67 40 68 32 69 33 70 39 71 41 72 34 73 35 74 36 75
REMARK SMILES IDX 37 76 38 77 64 78 65 79 74 80 66 81 67 82 73 83 75 84 68 85
REMARK SMILES IDX 69 86 70 87 71 88 72 89 48 90 49 91 58 92 50 93 51 94 57 95
REMARK SMILES IDX 59 96 52 97 53 98 54 99 55 100 56 101
REMARK H PARENT 80 51 46 62
REMARK Flexibility Score: inf
ROOT
ATOM      1  C   UNL     1      -1.358  -1.002  -2.027  1.00  0.00     0.202 C 
ENDROOT
BRANCH   1   2
ATOM      2  C   UNL     1      -1.546  -0.753  -0.512  1.00  0.00     0.261 C 
BRANCH   2   3
ATOM      3  O   UNL     1      -2.127   0.489  -0.102  1.00  0.00    -0.460 OA
BRANCH   3   4
ATOM      4  C   UNL     1      -1.185   1.456  -0.033  1.00  0.00     0.340 C 
ATOM      5  O   UNL     1      -0.014   1.218  -0.355  1.00  0.00    -0.246 OA
BRANCH   4   6
ATOM      6  C   UNL     1      -1.605   2.768   0.416  1.00  0.00     0.084 A 
ATOM      7  C   UNL     1      -1.146   4.014  -0.050  1.00  0.00     0.042 A 
ATOM      8  N   UNL     1      -1.900   4.974   0.615  1.00  0.00    -0.350 N 
ATOM      9  C   UNL     1      -2.460   3.024   1.543  1.00  0.00    -0.019 A 
ATOM     10  C   UNL     1      -2.606   4.389   1.633  1.00  0.00     0.090 A 
ATOM     11  C   UNL     1      -3.025   2.025   2.491  1.00  0.00     0.047 C 
BRANCH   7  12
ATOM     12  C   UNL     1      -0.059   4.454  -1.022  1.00  0.00     0.155 C 
BRANCH  12  13
ATOM     13  C   UNL     1       0.455   3.482  -2.073  1.00  0.00     0.232 C 
ATOM     14  O   UNL     1      -0.116   3.522  -3.172  1.00  0.00    -0.274 OA
BRANCH  13  15
ATOM     15  N   UNL     1       1.547   2.636  -1.794  1.00  0.00    -0.312 N 
BRANCH  15  16
ATOM     16  C   UNL     1       2.470   2.810  -0.642  1.00  0.00     0.125 C 
BRANCH  16  17
ATOM     17  C   UNL     1       2.199   2.216   0.761  1.00  0.00     0.019 C 
ATOM     18  C   UNL     1       2.669   0.778   0.991  1.00  0.00     0.006 C 
ENDBRANCH  16  17
ENDBRANCH  15  16
BRANCH  15  19
ATOM     19  C   UNL     1       1.855   1.582  -2.742  1.00  0.00     0.045 A 
ATOM     20  C   UNL     1       1.874   1.813  -4.125  1.00  0.00     0.026 A 
ATOM     21  C   UNL     1       2.037   0.262  -2.312  1.00  0.00     0.046 A 
ATOM     22  C   UNL     1       2.043   0.763  -5.040  1.00  0.00     0.004 A 
ATOM     23  C   UNL     1       2.202  -0.787  -3.221  1.00  0.00     0.043 A 
ATOM     24  C   UNL     1       2.200  -0.543  -4.587  1.00  0.00     0.020 A 
ATOM     25  Cl  UNL     1       2.359  -2.404  -2.641  1.00  0.00    -0.084 Cl
ENDBRANCH  15  19
ENDBRANCH  13  15
ENDBRANCH  12  13
ENDBRANCH   7  12
BRANCH   8  26
ATOM     26  C   UNL     1      -2.026   6.393   0.300  1.00  0.00     0.118 C 
ATOM     27  C   UNL     1      -0.772   7.221   0.526  1.00  0.00     0.027 C 
ENDBRANCH   8  26
ENDBRANCH   4   6
ENDBRANCH   3   4
ENDBRANCH   2   3
ENDBRANCH   1   2
BRANCH   1  28
ATOM     28  O   UNL     1      -1.192  -0.014  -3.032  1.00  0.00    -0.374 OA
BRANCH  28  29
ATOM     29  C   UNL     1      -1.900   1.212  -3.145  1.00  0.00     0.202 C 
BRANCH  29  30
ATOM     30  C   UNL     1      -3.408   1.280  -3.328  1.00  0.00     0.261 C 
BRANCH  30  31
ATOM     31  O   UNL     1      -4.037   0.495  -2.349  1.00  0.00    -0.460 OA
BRANCH  31  32
ATOM     32  C   UNL     1      -4.162  -0.783  -2.747  1.00  0.00     0.338 C 
ATOM     33  O   UNL     1      -3.934  -1.250  -3.851  1.00  0.00    -0.246 OA
BRANCH  32  34
ATOM     34  C   UNL     1      -4.645  -1.559  -1.604  1.00  0.00     0.060 A 
ATOM     35  C   UNL     1      -5.093  -2.821  -1.962  1.00  0.00     0.016 A 
ATOM     36  C   UNL     1      -5.080  -0.873  -0.457  1.00  0.00     0.016 A 
ATOM     37  C   UNL     1      -6.318  -3.155  -1.478  1.00  0.00     0.010 A 
ATOM     38  C   UNL     1      -6.292  -1.225   0.051  1.00  0.00     0.010 A 
ATOM     39  C   UNL     1      -6.942  -2.268  -0.587  1.00  0.00    -0.014 A 
BRANCH  39  40
ATOM     40  C   UNL     1      -8.327  -2.522  -0.322  1.00  0.00     0.031 A 
ATOM     41  C   UNL     1      -8.463  -3.728   0.494  1.00  0.00     0.074 A 
ATOM     42  C   UNL     1      -9.307  -1.742  -0.800  1.00  0.00     0.049 A 
ATOM     43  N   UNL     1      -8.753  -4.912   0.079  1.00  0.00    -0.248 NA
ATOM     44  C   UNL     1      -7.918  -3.671   1.859  1.00  0.00     0.031 C 
ATOM     45  C   UNL     1      -9.192  -0.390  -1.358  1.00  0.00     0.029 A 
ATOM     46  N   UNL     1     -10.645  -1.964  -0.787  1.00  0.00    -0.354 N 
ATOM     47  C   UNL     1      -8.727  -5.686   1.226  1.00  0.00     0.074 A 
ATOM     48  C   UNL     1      -7.952  -4.960   2.196  1.00  0.00     0.031 C 
ATOM     49  C   UNL     1     -10.421   0.173  -1.392  1.00  0.00     0.029 A 
ATOM     50  C   UNL     1     -11.403  -0.828  -1.009  1.00  0.00     0.049 A 
ATOM     51  H   UNL     1     -11.040  -2.853  -0.634  1.00  0.00     0.167 HD
ATOM     52  C   UNL     1      -9.674  -6.642   1.403  1.00  0.00     0.037 A 
ATOM     53  C   UNL     1     -12.733  -0.719  -0.784  1.00  0.00     0.037 A 
ATOM     54  C   UNL     1     -10.337  -6.957   0.161  1.00  0.00     0.049 A 
ATOM     55  C   UNL     1     -13.306  -2.092  -0.815  1.00  0.00     0.074 A 
ATOM     56  C   UNL     1     -10.027  -7.665  -0.979  1.00  0.00     0.029 A 
ATOM     57  N   UNL     1     -11.389  -6.128  -0.142  1.00  0.00    -0.354 N 
ATOM     58  N   UNL     1     -13.301  -2.850  -1.882  1.00  0.00    -0.248 NA
ATOM     59  C   UNL     1     -13.555  -2.799   0.439  1.00  0.00     0.031 C 
ATOM     60  C   UNL     1     -10.851  -7.138  -2.017  1.00  0.00     0.029 A 
ATOM     61  C   UNL     1     -11.657  -6.131  -1.487  1.00  0.00     0.049 A 
ATOM     62  H   UNL     1     -11.887  -5.599   0.521  1.00  0.00     0.167 HD
ATOM     63  C   UNL     1     -13.135  -4.136  -1.400  1.00  0.00     0.074 A 
ATOM     64  C   UNL     1     -13.465  -4.064   0.015  1.00  0.00     0.031 C 
ATOM     65  C   UNL     1     -12.435  -5.073  -2.104  1.00  0.00     0.037 A 
BRANCH  52  66
ATOM     66  C   UNL     1     -10.336  -6.894   2.732  1.00  0.00     0.058 A 
ATOM     67  C   UNL     1     -11.145  -8.034   2.880  1.00  0.00     0.135 A 
ATOM     68  C   UNL     1     -10.443  -5.926   3.759  1.00  0.00     0.135 A 
ATOM     69  F   UNL     1     -11.136  -9.001   1.949  1.00  0.00    -0.206 F 
ATOM     70  C   UNL     1     -12.032  -8.177   3.946  1.00  0.00     0.059 A 
ATOM     71  C   UNL     1     -11.272  -6.078   4.858  1.00  0.00     0.059 A 
ATOM     72  F   UNL     1      -9.835  -4.736   3.701  1.00  0.00    -0.206 F 
ATOM     73  C   UNL     1     -12.094  -7.187   4.924  1.00  0.00     0.060 A 
BRANCH  73  74
ATOM     74  S   UNL     1     -13.295  -7.317   6.254  1.00  0.00     0.124 S 
ATOM     75  O   UNL     1     -14.544  -7.080   5.540  1.00  0.00    -0.237 OA
ATOM     76  O   UNL     1     -13.073  -8.679   6.729  1.00  0.00    -0.237 OA
ATOM     77  O   UNL     1     -12.886  -6.264   7.180  1.00  0.00    -0.744 OA
ENDBRANCH  73  74
ENDBRANCH  52  66
BRANCH  53  78
ATOM     78  C   UNL     1     -13.425   0.453  -0.192  1.00  0.00     0.058 A 
ATOM     79  C   UNL     1     -14.817   0.604  -0.283  1.00  0.00     0.135 A 
ATOM     80  C   UNL     1     -12.757   1.327   0.693  1.00  0.00     0.135 A 
ATOM     81  F   UNL     1     -15.531  -0.208  -1.077  1.00  0.00    -0.206 F 
ATOM     82  C   UNL     1     -15.512   1.549   0.479  1.00  0.00     0.059 A 
ATOM     83  C   UNL     1     -13.425   2.283   1.453  1.00  0.00     0.059 A 
ATOM     84  F   UNL     1     -11.437   1.220   0.910  1.00  0.00    -0.206 F 
ATOM     85  C   UNL     1     -14.807   2.375   1.356  1.00  0.00     0.060 A 
BRANCH  85  86
ATOM     86  S   UNL     1     -15.714   3.501   2.441  1.00  0.00     0.124 S 
ATOM     87  O   UNL     1     -16.257   4.463   1.489  1.00  0.00    -0.237 OA
ATOM     88  O   UNL     1     -16.682   2.608   3.069  1.00  0.00    -0.237 OA
ATOM     89  O   UNL     1     -14.680   4.022   3.331  1.00  0.00    -0.744 OA
ENDBRANCH  85  86
ENDBRANCH  53  78
BRANCH  65  90
ATOM     90  C   UNL     1     -12.353  -4.916  -3.594  1.00  0.00     0.058 A 
ATOM     91  C   UNL     1     -11.627  -3.917  -4.261  1.00  0.00     0.135 A 
ATOM     92  C   UNL     1     -12.967  -5.903  -4.382  1.00  0.00     0.135 A 
ATOM     93  F   UNL     1     -10.953  -2.983  -3.574  1.00  0.00    -0.206 F 
ATOM     94  C   UNL     1     -11.537  -3.888  -5.655  1.00  0.00     0.059 A 
ATOM     95  C   UNL     1     -12.866  -5.911  -5.768  1.00  0.00     0.059 A 
ATOM     96  F   UNL     1     -13.638  -6.909  -3.797  1.00  0.00    -0.206 F 
ATOM     97  C   UNL     1     -12.157  -4.894  -6.401  1.00  0.00     0.060 A 
BRANCH  97  98
ATOM     98  S   UNL     1     -11.976  -4.908  -8.198  1.00  0.00     0.124 S 
ATOM     99  O   UNL     1     -12.808  -3.779  -8.600  1.00  0.00    -0.237 OA
ATOM    100  O   UNL     1     -10.537  -4.731  -8.373  1.00  0.00    -0.237 OA
ATOM    101  O   UNL     1     -12.483  -6.223  -8.582  1.00  0.00    -0.744 OA
ENDBRANCH  97  98
ENDBRANCH  65  90
ENDBRANCH  39  40
ENDBRANCH  32  34
ENDBRANCH  31  32
ENDBRANCH  30  31
ENDBRANCH  29  30
ENDBRANCH  28  29
ENDBRANCH   1  28
TORSDOF 24
