REMARK SMILES CCCCCCCNC(=O)Oc1cccc(-c2ccc([C@@H](C)C(=O)OCCOCCOC(=O)c3ccc(-c4c5nc(c(-c6c(F)cc(S(=O)(=O)[O-])cc6F)c6ccc([nH]6)c(-c6c(F)cc(S(=O)(=O)[O-])cc6F)c6nc(c(-c7c(F)cc(S(=O)(=O)[O-])cc7F)c7ccc4[nH]7)C=C6)C=C5)cc3)cc2F)c1
REMARK SMILES IDX 23 1 24 2 21 3 22 4 20 5 17 6 18 7 101 8 19 9 100 10 102 11
REMARK SMILES IDX 16 12 12 13 13 14 103 15 14 16 15 17 11 18 9 19 8 20 10 22
REMARK SMILES IDX 7 23 6 24 5 25 4 26 3 27 2 28 1 29 25 30 26 31 27 32 28 33
REMARK SMILES IDX 29 34 30 35 31 36 32 37 33 38 34 39 35 40 99 41 36 42 98 43
REMARK SMILES IDX 37 44 38 45 39 46 92 47 40 48 97 49 91 50 93 51 41 52 96 53
REMARK SMILES IDX 90 54 89 55 42 57 76 58 55 59 75 60 56 61 59 62 74 63 94 64
REMARK SMILES IDX 57 65 58 66 73 68 95 69 60 70 43 71 44 72 53 73 45 74 46 75
REMARK SMILES IDX 52 76 54 77 47 78 48 79 49 80 50 81 51 82 77 83 78 84 87 85
REMARK SMILES IDX 79 86 80 87 86 88 88 89 81 90 82 91 83 92 84 93 85 94 61 95
REMARK SMILES IDX 62 96 71 97 63 98 64 99 70 100 72 101 65 102 66 103 67 104
REMARK SMILES IDX 68 105 69 106
REMARK H PARENT 8 21 93 56 59 67
REMARK Flexibility Score: inf
ROOT
ATOM      1  C   UNL     1     -11.208  -4.063   9.956  1.00  0.00     0.313 C 
ATOM      2  O   UNL     1     -12.189  -3.327  10.024  1.00  0.00    -0.252 OA
ENDROOT
BRANCH   1   3
ATOM      3  C   UNL     1     -11.054  -5.084   8.839  1.00  0.00     0.126 C 
ATOM      4  C   UNL     1     -11.885  -6.320   9.169  1.00  0.00     0.025 C 
BRANCH   3   5
ATOM      5  C   UNL     1      -9.644  -5.452   8.389  1.00  0.00    -0.031 A 
ATOM      6  C   UNL     1      -7.108  -6.313   7.388  1.00  0.00     0.018 A 
ATOM      7  C   UNL     1      -7.497  -6.571   8.713  1.00  0.00     0.012 A 
ATOM      8  C   UNL     1      -7.998  -5.576   6.596  1.00  0.00     0.131 A 
ATOM      9  C   UNL     1      -8.744  -6.152   9.205  1.00  0.00     0.005 A 
ATOM     10  C   UNL     1      -9.238  -5.151   7.080  1.00  0.00     0.044 A 
ATOM     11  F   UNL     1      -7.696  -5.292   5.319  1.00  0.00    -0.206 F 
BRANCH   6  12
ATOM     12  C   UNL     1      -5.841  -6.839   6.845  1.00  0.00    -0.012 A 
ATOM     13  C   UNL     1      -3.756  -6.542   5.632  1.00  0.00     0.133 A 
ATOM     14  C   UNL     1      -3.462  -7.898   5.740  1.00  0.00     0.047 A 
ATOM     15  C   UNL     1      -4.934  -6.011   6.163  1.00  0.00     0.056 A 
ATOM     16  C   UNL     1      -4.349  -8.733   6.413  1.00  0.00     0.004 A 
ATOM     17  C   UNL     1      -5.524  -8.207   6.960  1.00  0.00     0.009 A 
BRANCH  13  18
ATOM     18  O   UNL     1      -2.876  -5.763   4.862  1.00  0.00    -0.410 OA
BRANCH  18  19
ATOM     19  C   UNL     1      -2.384  -4.593   5.417  1.00  0.00     0.412 C 
ATOM     20  N   UNL     1      -1.560  -3.901   4.576  1.00  0.00    -0.321 N 
ATOM     21  H   UNL     1      -1.174  -3.067   4.928  1.00  0.00     0.167 HD
ATOM     22  O   UNL     1      -2.626  -4.171   6.546  1.00  0.00    -0.224 OA
BRANCH  20  23
ATOM     23  C   UNL     1      -1.194  -4.261   3.220  1.00  0.00     0.119 C 
BRANCH  23  24
ATOM     24  C   UNL     1      -1.679  -3.226   2.203  1.00  0.00     0.021 C 
BRANCH  24  25
ATOM     25  C   UNL     1      -1.085  -1.822   2.378  1.00  0.00     0.002 C 
BRANCH  25  26
ATOM     26  C   UNL     1       0.442  -1.738   2.281  1.00  0.00     0.000 C 
BRANCH  26  27
ATOM     27  C   UNL     1       1.037  -2.166   0.935  1.00  0.00    -0.000 C 
BRANCH  27  28
ATOM     28  C   UNL     1       0.582  -1.342  -0.273  1.00  0.00    -0.003 C 
ATOM     29  C   UNL     1       0.956   0.129  -0.176  1.00  0.00     0.004 C 
ENDBRANCH  27  28
ENDBRANCH  26  27
ENDBRANCH  25  26
ENDBRANCH  24  25
ENDBRANCH  23  24
ENDBRANCH  20  23
ENDBRANCH  18  19
ENDBRANCH  13  18
ENDBRANCH   6  12
ENDBRANCH   3   5
ENDBRANCH   1   3
BRANCH   1  30
ATOM     30  O   UNL     1     -10.189  -4.072  10.852  1.00  0.00    -0.463 OA
BRANCH  30  31
ATOM     31  C   UNL     1     -10.215  -3.037  11.851  1.00  0.00     0.261 C 
BRANCH  31  32
ATOM     32  C   UNL     1      -9.027  -2.084  11.697  1.00  0.00     0.202 C 
BRANCH  32  33
ATOM     33  O   UNL     1      -9.003  -1.284  10.514  1.00  0.00    -0.374 OA
BRANCH  33  34
ATOM     34  C   UNL     1      -8.623  -1.922   9.295  1.00  0.00     0.202 C 
BRANCH  34  35
ATOM     35  C   UNL     1      -7.132  -2.215   9.088  1.00  0.00     0.261 C 
BRANCH  35  36
ATOM     36  O   UNL     1      -6.599  -3.125  10.065  1.00  0.00    -0.460 OA
BRANCH  36  37
ATOM     37  C   UNL     1      -5.738  -2.554  10.943  1.00  0.00     0.338 C 
ATOM     38  O   UNL     1      -5.348  -1.398  10.941  1.00  0.00    -0.246 OA
BRANCH  37  39
ATOM     39  C   UNL     1      -5.459  -3.470  12.066  1.00  0.00     0.060 A 
ATOM     40  C   UNL     1      -5.625  -2.952  13.356  1.00  0.00     0.016 A 
ATOM     41  C   UNL     1      -4.960  -4.762  11.879  1.00  0.00     0.016 A 
ATOM     42  C   UNL     1      -5.226  -3.695  14.462  1.00  0.00     0.010 A 
ATOM     43  C   UNL     1      -4.559  -5.508  12.996  1.00  0.00     0.010 A 
ATOM     44  C   UNL     1      -4.648  -4.960  14.290  1.00  0.00    -0.014 A 
BRANCH  44  45
ATOM     45  C   UNL     1      -4.017  -5.616  15.464  1.00  0.00     0.031 A 
ATOM     46  C   UNL     1      -2.521  -5.554  15.629  1.00  0.00     0.074 A 
ATOM     47  C   UNL     1      -4.778  -6.176  16.423  1.00  0.00     0.049 A 
ATOM     48  N   UNL     1      -1.777  -5.982  16.617  1.00  0.00    -0.248 NA
ATOM     49  C   UNL     1      -1.762  -4.922  14.537  1.00  0.00     0.031 C 
ATOM     50  C   UNL     1      -6.237  -6.272  16.393  1.00  0.00     0.029 A 
ATOM     51  N   UNL     1      -4.428  -6.758  17.616  1.00  0.00    -0.354 N 
ATOM     52  C   UNL     1      -0.467  -5.672  16.269  1.00  0.00     0.074 A 
ATOM     53  C   UNL     1      -0.513  -5.052  14.963  1.00  0.00     0.031 C 
ATOM     54  C   UNL     1      -6.658  -6.871  17.520  1.00  0.00     0.029 A 
ATOM     55  C   UNL     1      -5.500  -7.220  18.340  1.00  0.00     0.049 A 
ATOM     56  H   UNL     1      -3.496  -6.836  17.924  1.00  0.00     0.167 HD
ATOM     57  C   UNL     1       0.670  -5.871  16.980  1.00  0.00     0.037 A 
ATOM     58  C   UNL     1      -5.543  -7.857  19.527  1.00  0.00     0.037 A 
ATOM     59  C   UNL     1       0.713  -6.483  18.284  1.00  0.00     0.049 A 
ATOM     60  C   UNL     1      -4.262  -8.105  20.280  1.00  0.00     0.074 A 
ATOM     61  C   UNL     1       1.813  -6.708  19.093  1.00  0.00     0.029 A 
ATOM     62  N   UNL     1      -0.391  -6.972  18.967  1.00  0.00    -0.354 N 
ATOM     63  N   UNL     1      -3.034  -7.777  19.951  1.00  0.00    -0.248 NA
ATOM     64  C   UNL     1      -4.373  -8.800  21.570  1.00  0.00     0.031 C 
ATOM     65  C   UNL     1       1.381  -7.378  20.243  1.00  0.00     0.029 A 
ATOM     66  C   UNL     1       0.005  -7.522  20.176  1.00  0.00     0.049 A 
ATOM     67  H   UNL     1      -1.319  -6.935  18.641  1.00  0.00     0.167 HD
ATOM     68  C   UNL     1      -2.231  -8.205  21.004  1.00  0.00     0.074 A 
ATOM     69  C   UNL     1      -3.114  -8.798  21.987  1.00  0.00     0.031 C 
ATOM     70  C   UNL     1      -0.884  -8.115  21.145  1.00  0.00     0.037 A 
BRANCH  57  71
ATOM     71  C   UNL     1       1.969  -5.442  16.353  1.00  0.00     0.058 A 
ATOM     72  C   UNL     1       2.314  -4.088  16.215  1.00  0.00     0.135 A 
ATOM     73  C   UNL     1       2.900  -6.400  15.919  1.00  0.00     0.135 A 
ATOM     74  F   UNL     1       1.455  -3.129  16.598  1.00  0.00    -0.206 F 
ATOM     75  C   UNL     1       3.525  -3.699  15.650  1.00  0.00     0.059 A 
ATOM     76  C   UNL     1       4.127  -6.034  15.375  1.00  0.00     0.059 A 
ATOM     77  F   UNL     1       2.621  -7.709  16.026  1.00  0.00    -0.206 F 
ATOM     78  C   UNL     1       4.426  -4.680  15.233  1.00  0.00     0.060 A 
BRANCH  78  79
ATOM     79  S   UNL     1       5.998  -4.161  14.513  1.00  0.00     0.124 S 
ATOM     80  O   UNL     1       5.573  -3.667  13.207  1.00  0.00    -0.237 OA
ATOM     81  O   UNL     1       6.454  -3.145  15.457  1.00  0.00    -0.237 OA
ATOM     82  O   UNL     1       6.786  -5.390  14.492  1.00  0.00    -0.744 OA
ENDBRANCH  78  79
ENDBRANCH  57  71
BRANCH  58  83
ATOM     83  C   UNL     1      -6.849  -8.310  20.079  1.00  0.00     0.058 A 
ATOM     84  C   UNL     1      -7.405  -7.714  21.221  1.00  0.00     0.135 A 
ATOM     85  C   UNL     1      -7.566  -9.352  19.471  1.00  0.00     0.135 A 
ATOM     86  F   UNL     1      -6.754  -6.721  21.845  1.00  0.00    -0.206 F 
ATOM     87  C   UNL     1      -8.618  -8.145  21.749  1.00  0.00     0.059 A 
ATOM     88  C   UNL     1      -8.792  -9.783  19.965  1.00  0.00     0.059 A 
ATOM     89  F   UNL     1      -7.082  -9.948  18.370  1.00  0.00    -0.206 F 
ATOM     90  C   UNL     1      -9.306  -9.179  21.111  1.00  0.00     0.060 A 
BRANCH  90  91
ATOM     91  S   UNL     1     -10.905  -9.698  21.773  1.00  0.00     0.124 S 
ATOM     92  O   UNL     1     -10.504 -10.434  22.966  1.00  0.00    -0.237 OA
ATOM     93  O   UNL     1     -11.571  -8.420  22.003  1.00  0.00    -0.237 OA
ATOM     94  O   UNL     1     -11.468 -10.503  20.693  1.00  0.00    -0.744 OA
ENDBRANCH  90  91
ENDBRANCH  58  83
BRANCH  70  95
ATOM     95  C   UNL     1      -0.288  -8.648  22.420  1.00  0.00     0.058 A 
ATOM     96  C   UNL     1      -0.226 -10.025  22.688  1.00  0.00     0.135 A 
ATOM     97  C   UNL     1       0.246  -7.770  23.378  1.00  0.00     0.135 A 
ATOM     98  F   UNL     1      -0.724 -10.908  21.808  1.00  0.00    -0.206 F 
ATOM     99  C   UNL     1       0.307 -10.511  23.879  1.00  0.00     0.059 A 
ATOM    100  C   UNL     1       0.811  -8.236  24.562  1.00  0.00     0.059 A 
ATOM    101  F   UNL     1       0.227  -6.445  23.167  1.00  0.00    -0.206 F 
ATOM    102  C   UNL     1       0.818  -9.607  24.812  1.00  0.00     0.060 A 
BRANCH 102 103
ATOM    103  S   UNL     1       1.505 -10.248  26.354  1.00  0.00     0.124 S 
ATOM    104  O   UNL     1       0.295 -10.601  27.089  1.00  0.00    -0.237 OA
ATOM    105  O   UNL     1       2.317 -11.370  25.894  1.00  0.00    -0.237 OA
ATOM    106  O   UNL     1       2.256  -9.116  26.888  1.00  0.00    -0.744 OA
ENDBRANCH 102 103
ENDBRANCH  70  95
ENDBRANCH  44  45
ENDBRANCH  37  39
ENDBRANCH  36  37
ENDBRANCH  35  36
ENDBRANCH  34  35
ENDBRANCH  33  34
ENDBRANCH  32  33
ENDBRANCH  31  32
ENDBRANCH  30  31
ENDBRANCH   1  30
TORSDOF 27
