REMARK SMILES CC[NH+]1CCC2(CC1)OC[C@H](C(=O)OCCOCCOC(=O)c1ccc(-c3c4nc(c(-c5c(F)cc(S(=O)(=O)[O-])cc5F)c5ccc([nH]5)c(-c5c(F)cc(S(=O)(=O)[O-])cc5F)c5nc(c(-c6c(F)cc(S(=O)(=O)[O-])cc6F)c6ccc3[nH]6)C=C5)C=C4)cc1)N2C(=O)c1ccc(F)cc1
REMARK SMILES IDX 18 1 17 2 16 3 15 4 14 5 12 6 13 7 11 8 3 9 4 10 8 11 5 13
REMARK SMILES IDX 7 14 6 15 9 16 89 17 10 18 2 19 1 20 90 21 91 22 92 23 93 24
REMARK SMILES IDX 98 25 94 26 97 27 95 28 96 29 19 30 20 31 21 32 22 33 23 34
REMARK SMILES IDX 24 35 88 36 25 37 87 38 26 39 27 40 28 41 81 42 29 43 86 44
REMARK SMILES IDX 80 45 82 46 30 47 85 48 79 49 78 50 31 52 65 53 44 54 64 55
REMARK SMILES IDX 45 56 48 57 63 58 83 59 46 60 47 61 62 63 84 64 49 65 32 66
REMARK SMILES IDX 33 67 42 68 34 69 35 70 41 71 43 72 36 73 37 74 38 75 39 76
REMARK SMILES IDX 40 77 66 78 67 79 76 80 68 81 69 82 75 83 77 84 70 85 71 86
REMARK SMILES IDX 72 87 73 88 74 89 50 90 51 91 60 92 52 93 53 94 59 95 61 96
REMARK SMILES IDX 54 97 55 98 56 99 57 100 58 101
REMARK H PARENT 3 12 82 51 48 62
REMARK Flexibility Score: inf
ROOT
ATOM      1  C   UNL     1       1.272  -4.475   2.229  1.00  0.00     0.202 C 
ENDROOT
BRANCH   1   2
ATOM      2  O   UNL     1       1.785  -5.486   3.076  1.00  0.00    -0.374 OA
BRANCH   2   3
ATOM      3  C   UNL     1       2.404  -6.606   2.449  1.00  0.00     0.202 C 
BRANCH   3   4
ATOM      4  C   UNL     1       1.662  -7.306   1.299  1.00  0.00     0.261 C 
BRANCH   4   5
ATOM      5  O   UNL     1       1.236  -6.438   0.214  1.00  0.00    -0.462 OA
BRANCH   5   6
ATOM      6  C   UNL     1       0.048  -6.788  -0.352  1.00  0.00     0.331 C 
ATOM      7  O   UNL     1      -0.621  -7.750   0.027  1.00  0.00    -0.250 OA
BRANCH   6   8
ATOM      8  C   UNL     1      -0.408  -5.951  -1.568  1.00  0.00     0.224 C 
ATOM      9  N   UNL     1       0.333  -0.777  -1.888  1.00  0.00    -0.335 N 
ATOM     10  C   UNL     1       0.696  -1.730  -0.861  1.00  0.00     0.267 C 
ATOM     11  C   UNL     1      -0.443  -1.314  -3.011  1.00  0.00     0.267 C 
ATOM     12  H   UNL     1       1.250  -0.576  -2.288  1.00  0.00     0.348 HD
ATOM     13  C   UNL     1      -0.433  -2.662  -0.518  1.00  0.00     0.120 C 
ATOM     14  C   UNL     1      -1.223  -2.638  -2.846  1.00  0.00     0.120 C 
ATOM     15  C   UNL     1      -0.776  -3.557  -1.703  1.00  0.00     0.155 C 
ATOM     16  O   UNL     1      -1.985  -4.222  -1.233  1.00  0.00    -0.352 OA
ATOM     17  N   UNL     1       0.162  -4.674  -2.002  1.00  0.00    -0.293 N 
ATOM     18  C   UNL     1      -1.878  -5.633  -1.427  1.00  0.00     0.200 C 
BRANCH   9  19
ATOM     19  C   UNL     1      -0.131   0.531  -1.425  1.00  0.00     0.258 C 
ATOM     20  C   UNL     1       0.624   1.107  -0.225  1.00  0.00     0.071 C 
ENDBRANCH   9  19
BRANCH  17  21
ATOM     21  C   UNL     1       1.325  -4.789  -2.765  1.00  0.00     0.256 C 
ATOM     22  O   UNL     1       1.942  -5.851  -2.854  1.00  0.00    -0.269 OA
BRANCH  21  23
ATOM     23  C   UNL     1       1.844  -3.696  -3.603  1.00  0.00     0.040 A 
ATOM     24  C   UNL     1       1.368  -3.531  -4.912  1.00  0.00     0.017 A 
ATOM     25  C   UNL     1       2.916  -2.920  -3.148  1.00  0.00     0.017 A 
ATOM     26  C   UNL     1       1.858  -2.482  -5.699  1.00  0.00     0.040 A 
ATOM     27  C   UNL     1       3.377  -1.851  -3.920  1.00  0.00     0.040 A 
ATOM     28  C   UNL     1       2.829  -1.628  -5.178  1.00  0.00     0.123 A 
ATOM     29  F   UNL     1       3.232  -0.574  -5.898  1.00  0.00    -0.207 F 
ENDBRANCH  21  23
ENDBRANCH  17  21
ENDBRANCH   6   8
ENDBRANCH   5   6
ENDBRANCH   4   5
ENDBRANCH   3   4
ENDBRANCH   2   3
ENDBRANCH   1   2
BRANCH   1  30
ATOM     30  C   UNL     1       2.218  -3.799   1.226  1.00  0.00     0.261 C 
BRANCH  30  31
ATOM     31  O   UNL     1       3.433  -4.466   0.939  1.00  0.00    -0.460 OA
BRANCH  31  32
ATOM     32  C   UNL     1       4.545  -3.878   1.409  1.00  0.00     0.338 C 
ATOM     33  O   UNL     1       4.649  -2.846   2.049  1.00  0.00    -0.246 OA
BRANCH  32  34
ATOM     34  C   UNL     1       5.638  -4.775   1.049  1.00  0.00     0.060 A 
ATOM     35  C   UNL     1       6.150  -5.613   2.040  1.00  0.00     0.016 A 
ATOM     36  C   UNL     1       6.120  -4.801  -0.263  1.00  0.00     0.016 A 
ATOM     37  C   UNL     1       7.206  -6.455   1.728  1.00  0.00     0.010 A 
ATOM     38  C   UNL     1       7.176  -5.651  -0.573  1.00  0.00     0.010 A 
ATOM     39  C   UNL     1       7.746  -6.449   0.433  1.00  0.00    -0.014 A 
BRANCH  39  40
ATOM     40  C   UNL     1       9.008  -7.173   0.186  1.00  0.00     0.031 A 
ATOM     41  C   UNL     1      10.286  -6.388   0.147  1.00  0.00     0.074 A 
ATOM     42  C   UNL     1       9.000  -8.510   0.062  1.00  0.00     0.049 A 
ATOM     43  N   UNL     1      11.510  -6.810  -0.024  1.00  0.00    -0.248 NA
ATOM     44  C   UNL     1      10.172  -4.929   0.323  1.00  0.00     0.031 C 
ATOM     45  C   UNL     1       7.806  -9.354   0.113  1.00  0.00     0.029 A 
ATOM     46  N   UNL     1      10.029  -9.393  -0.126  1.00  0.00    -0.354 N 
ATOM     47  C   UNL     1      12.309  -5.674   0.023  1.00  0.00     0.074 A 
ATOM     48  C   UNL     1      11.431  -4.540   0.198  1.00  0.00     0.031 C 
ATOM     49  C   UNL     1       8.173 -10.638  -0.036  1.00  0.00     0.029 A 
ATOM     50  C   UNL     1       9.620 -10.700  -0.226  1.00  0.00     0.049 A 
ATOM     51  H   UNL     1      10.973  -9.117  -0.184  1.00  0.00     0.167 HD
ATOM     52  C   UNL     1      13.657  -5.594  -0.060  1.00  0.00     0.037 A 
ATOM     53  C   UNL     1      10.338 -11.815  -0.461  1.00  0.00     0.037 A 
ATOM     54  C   UNL     1      14.510  -6.740  -0.235  1.00  0.00     0.049 A 
ATOM     55  C   UNL     1      11.832 -11.692  -0.607  1.00  0.00     0.074 A 
ATOM     56  C   UNL     1      15.890  -6.782  -0.318  1.00  0.00     0.029 A 
ATOM     57  N   UNL     1      14.060  -8.047  -0.365  1.00  0.00    -0.354 N 
ATOM     58  N   UNL     1      12.582 -10.617  -0.530  1.00  0.00    -0.248 NA
ATOM     59  C   UNL     1      12.578 -12.929  -0.864  1.00  0.00     0.031 C 
ATOM     60  C   UNL     1      16.270  -8.106  -0.554  1.00  0.00     0.029 A 
ATOM     61  C   UNL     1      15.133  -8.900  -0.555  1.00  0.00     0.049 A 
ATOM     62  H   UNL     1      13.117  -8.326  -0.328  1.00  0.00     0.167 HD
ATOM     63  C   UNL     1      13.891 -11.052  -0.703  1.00  0.00     0.074 A 
ATOM     64  C   UNL     1      13.829 -12.490  -0.873  1.00  0.00     0.031 C 
ATOM     65  C   UNL     1      15.041 -10.332  -0.717  1.00  0.00     0.037 A 
BRANCH  52  66
ATOM     66  C   UNL     1      14.283  -4.228   0.009  1.00  0.00     0.058 A 
ATOM     67  C   UNL     1      14.299  -3.476   1.195  1.00  0.00     0.135 A 
ATOM     68  C   UNL     1      14.900  -3.672  -1.124  1.00  0.00     0.135 A 
ATOM     69  F   UNL     1      13.704  -3.947   2.303  1.00  0.00    -0.206 F 
ATOM     70  C   UNL     1      14.883  -2.214   1.250  1.00  0.00     0.059 A 
ATOM     71  C   UNL     1      15.516  -2.425  -1.084  1.00  0.00     0.059 A 
ATOM     72  F   UNL     1      14.907  -4.342  -2.286  1.00  0.00    -0.206 F 
ATOM     73  C   UNL     1      15.492  -1.698   0.105  1.00  0.00     0.060 A 
BRANCH  73  74
ATOM     74  S   UNL     1      16.259  -0.066   0.197  1.00  0.00     0.124 S 
ATOM     75  O   UNL     1      15.089   0.801   0.293  1.00  0.00    -0.237 OA
ATOM     76  O   UNL     1      17.071  -0.172   1.405  1.00  0.00    -0.237 OA
ATOM     77  O   UNL     1      17.009   0.029  -1.052  1.00  0.00    -0.744 OA
ENDBRANCH  73  74
ENDBRANCH  52  66
BRANCH  53  78
ATOM     78  C   UNL     1       9.652 -13.129  -0.578  1.00  0.00     0.058 A 
ATOM     79  C   UNL     1       9.832 -14.134   0.383  1.00  0.00     0.135 A 
ATOM     80  C   UNL     1       8.791 -13.402  -1.653  1.00  0.00     0.135 A 
ATOM     81  F   UNL     1      10.649 -13.926   1.426  1.00  0.00    -0.206 F 
ATOM     82  C   UNL     1       9.197 -15.368   0.275  1.00  0.00     0.059 A 
ATOM     83  C   UNL     1       8.122 -14.616  -1.768  1.00  0.00     0.059 A 
ATOM     84  F   UNL     1       8.573 -12.470  -2.594  1.00  0.00    -0.206 F 
ATOM     85  C   UNL     1       8.340 -15.598  -0.803  1.00  0.00     0.060 A 
BRANCH  85  86
ATOM     86  S   UNL     1       7.488 -17.186  -0.909  1.00  0.00     0.124 S 
ATOM     87  O   UNL     1       8.583 -18.084  -1.259  1.00  0.00    -0.237 OA
ATOM     88  O   UNL     1       6.947 -17.333   0.438  1.00  0.00    -0.237 OA
ATOM     89  O   UNL     1       6.494 -16.966  -1.955  1.00  0.00    -0.744 OA
ENDBRANCH  85  86
ENDBRANCH  53  78
BRANCH  65  90
ATOM     90  C   UNL     1      16.328 -11.091  -0.888  1.00  0.00     0.058 A 
ATOM     91  C   UNL     1      16.688 -11.669  -2.115  1.00  0.00     0.135 A 
ATOM     92  C   UNL     1      17.238 -11.190   0.177  1.00  0.00     0.135 A 
ATOM     93  F   UNL     1      15.852 -11.608  -3.164  1.00  0.00    -0.206 F 
ATOM     94  C   UNL     1      17.895 -12.344  -2.272  1.00  0.00     0.059 A 
ATOM     95  C   UNL     1      18.463 -11.831   0.033  1.00  0.00     0.059 A 
ATOM     96  F   UNL     1      16.947 -10.643   1.368  1.00  0.00    -0.206 F 
ATOM     97  C   UNL     1      18.777 -12.416  -1.192  1.00  0.00     0.060 A 
BRANCH  97  98
ATOM     98  S   UNL     1      20.354 -13.264  -1.420  1.00  0.00     0.124 S 
ATOM     99  O   UNL     1      19.931 -14.660  -1.471  1.00  0.00    -0.237 OA
ATOM    100  O   UNL     1      20.832 -12.700  -2.679  1.00  0.00    -0.237 OA
ATOM    101  O   UNL     1      21.120 -12.883  -0.238  1.00  0.00    -0.744 OA
ENDBRANCH  97  98
ENDBRANCH  65  90
ENDBRANCH  39  40
ENDBRANCH  32  34
ENDBRANCH  31  32
ENDBRANCH  30  31
ENDBRANCH   1  30
TORSDOF 20
