REMARK SMILES C[C@@H](CNC(=O)N(C)CC(C)(C)O)C(=O)OCCOCCOC(=O)c1ccc(-c2c3nc(c(-c4c(F)cc(S(=O)(=O)[O-])cc4F)c4ccc([nH]4)c(-c4c(F)cc(S(=O)(=O)[O-])cc4F)c4nc(c(-c5c(F)cc(S(=O)(=O)[O-])cc5F)c5ccc2[nH]5)C=C4)C=C3)cc1
REMARK SMILES IDX 17 1 16 2 14 3 15 4 2 5 1 6 3 7 4 8 5 9 6 11 7 12 8 13 9 14
REMARK SMILES IDX 10 15 11 16 12 17 13 18 18 20 19 21 20 22 21 23 22 24 23 25
REMARK SMILES IDX 24 26 25 27 26 28 90 29 27 30 89 31 28 32 29 33 30 34 83 35
REMARK SMILES IDX 31 36 88 37 82 38 84 39 32 40 87 41 81 42 80 43 33 45 67 46
REMARK SMILES IDX 46 47 66 48 47 49 50 50 65 51 85 52 48 53 49 54 64 56 86 57
REMARK SMILES IDX 51 58 34 59 35 60 44 61 36 62 37 63 43 64 45 65 38 66 39 67
REMARK SMILES IDX 40 68 41 69 42 70 68 71 69 72 78 73 70 74 71 75 77 76 79 77
REMARK SMILES IDX 72 78 73 79 74 80 75 81 76 82 52 83 53 84 62 85 54 86 55 87
REMARK SMILES IDX 61 88 63 89 56 90 57 91 58 92 59 93 60 94
REMARK H PARENT 4 10 13 19 84 44 50 55
REMARK Flexibility Score: inf
ROOT
ATOM      1  C   UNL     1      -2.840  -0.065  -1.874  1.00  0.00     0.261 C 
ENDROOT
BRANCH   1   2
ATOM      2  O   UNL     1      -1.480  -0.252  -1.450  1.00  0.00    -0.463 OA
BRANCH   2   3
ATOM      3  C   UNL     1      -0.529   0.496  -2.069  1.00  0.00     0.310 C 
ATOM      4  O   UNL     1      -0.742   1.358  -2.914  1.00  0.00    -0.252 OA
BRANCH   3   5
ATOM      5  C   UNL     1       0.871   0.133  -1.608  1.00  0.00     0.115 C 
ATOM      6  C   UNL     1       0.953  -0.146  -0.104  1.00  0.00     0.022 C 
BRANCH   5   7
ATOM      7  C   UNL     1       1.439  -1.023  -2.435  1.00  0.00     0.132 C 
BRANCH   7   8
ATOM      8  N   UNL     1       0.617  -2.212  -2.351  1.00  0.00    -0.337 N 
ATOM      9  C   UNL     1      -0.398  -2.751  -3.044  1.00  0.00     0.317 C 
ATOM     10  H   UNL     1       0.870  -2.774  -1.583  1.00  0.00     0.165 HD
ATOM     11  O   UNL     1      -0.966  -3.680  -2.459  1.00  0.00    -0.249 OA
BRANCH   9  12
ATOM     12  N   UNL     1      -0.770  -2.356  -4.294  1.00  0.00    -0.325 N 
ATOM     13  C   UNL     1      -0.304  -1.226  -5.084  1.00  0.00     0.148 C 
BRANCH  12  14
ATOM     14  C   UNL     1      -1.676  -3.265  -5.020  1.00  0.00     0.155 C 
BRANCH  14  15
ATOM     15  C   UNL     1      -0.981  -4.489  -5.688  1.00  0.00     0.077 C 
ATOM     16  C   UNL     1      -0.514  -5.540  -4.676  1.00  0.00     0.043 C 
ATOM     17  C   UNL     1      -1.958  -5.139  -6.674  1.00  0.00     0.043 C 
BRANCH  15  18
ATOM     18  O   UNL     1       0.150  -4.049  -6.459  1.00  0.00    -0.389 OA
ATOM     19  H   UNL     1       0.797  -3.628  -5.872  1.00  0.00     0.211 HD
ENDBRANCH  15  18
ENDBRANCH  14  15
ENDBRANCH  12  14
ENDBRANCH   9  12
ENDBRANCH   7   8
ENDBRANCH   5   7
ENDBRANCH   3   5
ENDBRANCH   2   3
ENDBRANCH   1   2
BRANCH   1  20
ATOM     20  C   UNL     1      -3.716   0.460  -0.734  1.00  0.00     0.202 C 
BRANCH  20  21
ATOM     21  O   UNL     1      -3.457   1.796  -0.300  1.00  0.00    -0.374 OA
BRANCH  21  22
ATOM     22  C   UNL     1      -2.266   2.027   0.448  1.00  0.00     0.202 C 
BRANCH  22  23
ATOM     23  C   UNL     1      -2.269   1.593   1.918  1.00  0.00     0.261 C 
BRANCH  23  24
ATOM     24  O   UNL     1      -2.458   0.178   2.092  1.00  0.00    -0.460 OA
BRANCH  24  25
ATOM     25  C   UNL     1      -3.658  -0.157   2.624  1.00  0.00     0.338 C 
ATOM     26  O   UNL     1      -4.532   0.615   3.001  1.00  0.00    -0.246 OA
BRANCH  25  27
ATOM     27  C   UNL     1      -3.880  -1.614   2.580  1.00  0.00     0.060 A 
ATOM     28  C   UNL     1      -5.109  -2.055   2.073  1.00  0.00     0.016 A 
ATOM     29  C   UNL     1      -2.979  -2.522   3.142  1.00  0.00     0.016 A 
ATOM     30  C   UNL     1      -5.479  -3.391   2.200  1.00  0.00     0.010 A 
ATOM     31  C   UNL     1      -3.354  -3.866   3.271  1.00  0.00     0.010 A 
ATOM     32  C   UNL     1      -4.627  -4.293   2.850  1.00  0.00    -0.014 A 
BRANCH  32  33
ATOM     33  C   UNL     1      -5.162  -5.618   3.253  1.00  0.00     0.031 A 
ATOM     34  C   UNL     1      -5.648  -5.805   4.667  1.00  0.00     0.074 A 
ATOM     35  C   UNL     1      -5.282  -6.618   2.361  1.00  0.00     0.049 A 
ATOM     36  N   UNL     1      -6.189  -6.856   5.228  1.00  0.00    -0.248 NA
ATOM     37  C   UNL     1      -5.505  -4.650   5.567  1.00  0.00     0.031 C 
ATOM     38  C   UNL     1      -4.887  -6.547   0.956  1.00  0.00     0.029 A 
ATOM     39  N   UNL     1      -5.782  -7.887   2.509  1.00  0.00    -0.354 N 
ATOM     40  C   UNL     1      -6.443  -6.493   6.546  1.00  0.00     0.074 A 
ATOM     41  C   UNL     1      -5.968  -5.136   6.709  1.00  0.00     0.031 C 
ATOM     42  C   UNL     1      -5.166  -7.723   0.367  1.00  0.00     0.029 A 
ATOM     43  C   UNL     1      -5.736  -8.635   1.357  1.00  0.00     0.049 A 
ATOM     44  H   UNL     1      -6.139  -8.230   3.360  1.00  0.00     0.167 HD
ATOM     45  C   UNL     1      -7.026  -7.219   7.531  1.00  0.00     0.037 A 
ATOM     46  C   UNL     1      -6.108  -9.910   1.131  1.00  0.00     0.037 A 
ATOM     47  C   UNL     1      -7.503  -8.567   7.365  1.00  0.00     0.049 A 
ATOM     48  C   UNL     1      -6.712 -10.716   2.251  1.00  0.00     0.074 A 
ATOM     49  C   UNL     1      -8.124  -9.382   8.296  1.00  0.00     0.029 A 
ATOM     50  N   UNL     1      -7.407  -9.301   6.192  1.00  0.00    -0.354 N 
ATOM     51  N   UNL     1      -6.963 -10.355   3.487  1.00  0.00    -0.248 NA
ATOM     52  C   UNL     1      -7.090 -12.102   1.942  1.00  0.00     0.031 C 
ATOM     53  C   UNL     1      -8.365 -10.624   7.697  1.00  0.00     0.029 A 
ATOM     54  C   UNL     1      -7.938 -10.567   6.379  1.00  0.00     0.049 A 
ATOM     55  H   UNL     1      -7.018  -8.971   5.350  1.00  0.00     0.167 HD
ATOM     56  C   UNL     1      -7.558 -11.456   4.094  1.00  0.00     0.074 A 
ATOM     57  C   UNL     1      -7.630 -12.497   3.088  1.00  0.00     0.031 C 
ATOM     58  C   UNL     1      -8.010 -11.591   5.366  1.00  0.00     0.037 A 
BRANCH  45  59
ATOM     59  C   UNL     1      -7.144  -6.572   8.884  1.00  0.00     0.058 A 
ATOM     60  C   UNL     1      -8.046  -5.524   9.130  1.00  0.00     0.135 A 
ATOM     61  C   UNL     1      -6.333  -7.000   9.947  1.00  0.00     0.135 A 
ATOM     62  F   UNL     1      -8.834  -5.066   8.144  1.00  0.00    -0.206 F 
ATOM     63  C   UNL     1      -8.109  -4.895  10.369  1.00  0.00     0.059 A 
ATOM     64  C   UNL     1      -6.398  -6.402  11.202  1.00  0.00     0.059 A 
ATOM     65  F   UNL     1      -5.454  -7.998   9.768  1.00  0.00    -0.206 F 
ATOM     66  C   UNL     1      -7.273  -5.335  11.397  1.00  0.00     0.060 A 
BRANCH  66  67
ATOM     67  S   UNL     1      -7.337  -4.489  12.990  1.00  0.00     0.124 S 
ATOM     68  O   UNL     1      -6.609  -3.258  12.694  1.00  0.00    -0.237 OA
ATOM     69  O   UNL     1      -8.772  -4.338  13.210  1.00  0.00    -0.237 OA
ATOM     70  O   UNL     1      -6.662  -5.415  13.894  1.00  0.00    -0.744 OA
ENDBRANCH  66  67
ENDBRANCH  45  59
BRANCH  46  71
ATOM     71  C   UNL     1      -5.936 -10.496  -0.224  1.00  0.00     0.058 A 
ATOM     72  C   UNL     1      -7.041 -10.748  -1.050  1.00  0.00     0.135 A 
ATOM     73  C   UNL     1      -4.660 -10.792  -0.730  1.00  0.00     0.135 A 
ATOM     74  F   UNL     1      -8.281 -10.494  -0.605  1.00  0.00    -0.206 F 
ATOM     75  C   UNL     1      -6.890 -11.271  -2.330  1.00  0.00     0.059 A 
ATOM     76  C   UNL     1      -4.482 -11.295  -2.015  1.00  0.00     0.059 A 
ATOM     77  F   UNL     1      -3.570 -10.564   0.019  1.00  0.00    -0.206 F 
ATOM     78  C   UNL     1      -5.604 -11.535  -2.806  1.00  0.00     0.060 A 
BRANCH  78  79
ATOM     79  S   UNL     1      -5.414 -12.142  -4.497  1.00  0.00     0.124 S 
ATOM     80  O   UNL     1      -5.860 -13.524  -4.366  1.00  0.00    -0.237 OA
ATOM     81  O   UNL     1      -6.298 -11.254  -5.244  1.00  0.00    -0.237 OA
ATOM     82  O   UNL     1      -3.989 -11.960  -4.760  1.00  0.00    -0.744 OA
ENDBRANCH  78  79
ENDBRANCH  46  71
BRANCH  58  83
ATOM     83  C   UNL     1      -8.666 -12.894   5.734  1.00  0.00     0.058 A 
ATOM     84  C   UNL     1      -7.923 -14.069   5.927  1.00  0.00     0.135 A 
ATOM     85  C   UNL     1     -10.054 -12.954   5.942  1.00  0.00     0.135 A 
ATOM     86  F   UNL     1      -6.594 -14.067   5.739  1.00  0.00    -0.206 F 
ATOM     87  C   UNL     1      -8.537 -15.265   6.286  1.00  0.00     0.059 A 
ATOM     88  C   UNL     1     -10.685 -14.133   6.325  1.00  0.00     0.059 A 
ATOM     89  F   UNL     1     -10.809 -11.856   5.783  1.00  0.00    -0.206 F 
ATOM     90  C   UNL     1      -9.919 -15.288   6.481  1.00  0.00     0.060 A 
BRANCH  90  91
ATOM     91  S   UNL     1     -10.704 -16.839   6.970  1.00  0.00     0.124 S 
ATOM     92  O   UNL     1     -10.718 -17.571   5.707  1.00  0.00    -0.237 OA
ATOM     93  O   UNL     1      -9.789 -17.348   7.987  1.00  0.00    -0.237 OA
ATOM     94  O   UNL     1     -12.010 -16.417   7.466  1.00  0.00    -0.744 OA
ENDBRANCH  90  91
ENDBRANCH  58  83
ENDBRANCH  32  33
ENDBRANCH  25  27
ENDBRANCH  24  25
ENDBRANCH  23  24
ENDBRANCH  22  23
ENDBRANCH  21  22
ENDBRANCH  20  21
ENDBRANCH   1  20
TORSDOF 23
