REMARK SMILES NS(=O)(=O)c1ccc(-n2nc(C(=O)OCCOCCOC(=O)c3ccc(-c4c5nc(c(-c6c(F)cc(S(=O)(=O)[O-])cc6F)c6ccc([nH]6)c(-c6c(F)cc(S(=O)(=O)[O-])cc6F)c6nc(c(-c7c(F)cc(S(=O)(=O)[O-])cc7F)c7ccc4[nH]7)C=C6)C=C5)cc3)c(Cl)c2-c2ccc(Cl)cc2)cc1
REMARK SMILES IDX 17 1 16 2 15 3 14 4 12 5 13 6 11 7 9 8 10 9 91 10 89 11
REMARK SMILES IDX 90 12 8 13 5 14 6 15 100 16 7 17 99 18 2 19 3 20 4 21 1 22
REMARK SMILES IDX 92 25 93 26 98 27 94 28 97 29 95 30 96 31 18 32 19 33 20 34
REMARK SMILES IDX 21 35 22 36 23 37 24 38 88 39 25 40 87 41 26 42 27 43 28 44
REMARK SMILES IDX 81 45 29 46 86 47 80 48 82 49 30 50 85 51 79 52 78 53 31 55
REMARK SMILES IDX 65 56 44 57 64 58 45 59 48 60 63 61 83 62 46 63 47 64 62 66
REMARK SMILES IDX 84 67 49 68 32 69 33 70 42 71 34 72 35 73 41 74 43 75 36 76
REMARK SMILES IDX 37 77 38 78 39 79 40 80 66 81 67 82 76 83 68 84 69 85 75 86
REMARK SMILES IDX 77 87 70 88 71 89 72 90 73 91 74 92 50 93 51 94 60 95 52 96
REMARK SMILES IDX 53 97 59 98 61 99 54 100 55 101 56 102 57 103 58 104
REMARK H PARENT 1 23 1 24 82 54 48 65
REMARK Flexibility Score: inf
ROOT
ATOM      1  O   UNL     1       5.089  -7.422   9.444  1.00  0.00    -0.374 OA
ENDROOT
BRANCH   1   2
ATOM      2  C   UNL     1       4.729  -6.899  10.723  1.00  0.00     0.202 C 
BRANCH   2   3
ATOM      3  C   UNL     1       4.726  -5.383  10.891  1.00  0.00     0.261 C 
BRANCH   3   4
ATOM      4  O   UNL     1       3.670  -4.773  10.138  1.00  0.00    -0.458 OA
BRANCH   4   5
ATOM      5  C   UNL     1       4.031  -4.035   9.047  1.00  0.00     0.360 C 
ATOM      6  O   UNL     1       5.193  -3.843   8.706  1.00  0.00    -0.244 OA
BRANCH   5   7
ATOM      7  C   UNL     1       2.869  -3.532   8.302  1.00  0.00     0.190 A 
ATOM      8  N   UNL     1       1.761  -2.607   6.716  1.00  0.00    -0.231 N 
ATOM      9  N   UNL     1       2.944  -3.206   6.992  1.00  0.00    -0.159 NA
ATOM     10  C   UNL     1       0.924  -2.558   7.816  1.00  0.00     0.094 A 
ATOM     11  C   UNL     1       1.573  -3.268   8.806  1.00  0.00     0.102 A 
ATOM     12  Cl  UNL     1       0.976  -3.586  10.371  1.00  0.00    -0.079 Cl
BRANCH   8  13
ATOM     13  C   UNL     1       1.608  -1.881   5.513  1.00  0.00     0.065 A 
ATOM     14  C   UNL     1       1.029  -0.409   3.232  1.00  0.00     0.082 A 
ATOM     15  C   UNL     1       1.052  -1.810   3.163  1.00  0.00     0.024 A 
ATOM     16  C   UNL     1       1.340   0.254   4.423  1.00  0.00     0.024 A 
ATOM     17  C   UNL     1       1.362  -2.554   4.310  1.00  0.00     0.030 A 
ATOM     18  C   UNL     1       1.617  -0.483   5.571  1.00  0.00     0.030 A 
BRANCH  14  19
ATOM     19  S   UNL     1       0.586   0.567   1.825  1.00  0.00     0.238 S 
ATOM     20  O   UNL     1       1.269   1.845   1.911  1.00  0.00    -0.207 OA
ATOM     21  O   UNL     1      -0.832   0.461   1.614  1.00  0.00    -0.207 OA
BRANCH  19  22
ATOM     22  N   UNL     1       1.316  -0.211   0.528  1.00  0.00    -0.225 NA
ATOM     23  H   UNL     1       1.107   0.294  -0.333  1.00  0.00     0.137 HD
ATOM     24  H   UNL     1       0.959  -1.164   0.459  1.00  0.00     0.137 HD
ENDBRANCH  19  22
ENDBRANCH  14  19
ENDBRANCH   8  13
BRANCH  10  25
ATOM     25  C   UNL     1      -0.333  -1.824   7.907  1.00  0.00     0.002 A 
ATOM     26  C   UNL     1      -0.435  -0.808   8.871  1.00  0.00     0.012 A 
ATOM     27  C   UNL     1      -1.445  -2.146   7.125  1.00  0.00     0.012 A 
ATOM     28  C   UNL     1      -1.641  -0.144   9.077  1.00  0.00     0.021 A 
ATOM     29  C   UNL     1      -2.655  -1.474   7.329  1.00  0.00     0.021 A 
ATOM     30  C   UNL     1      -2.749  -0.486   8.309  1.00  0.00     0.041 A 
ATOM     31  Cl  UNL     1      -4.245   0.314   8.590  1.00  0.00    -0.084 Cl
ENDBRANCH  10  25
ENDBRANCH   5   7
ENDBRANCH   4   5
ENDBRANCH   3   4
ENDBRANCH   2   3
ENDBRANCH   1   2
BRANCH   1  32
ATOM     32  C   UNL     1       4.228  -7.243   8.323  1.00  0.00     0.202 C 
BRANCH  32  33
ATOM     33  C   UNL     1       2.933  -8.042   8.263  1.00  0.00     0.261 C 
BRANCH  33  34
ATOM     34  O   UNL     1       2.122  -7.808   9.400  1.00  0.00    -0.460 OA
BRANCH  34  35
ATOM     35  C   UNL     1       2.240  -8.751  10.364  1.00  0.00     0.338 C 
ATOM     36  O   UNL     1       3.069  -9.644  10.423  1.00  0.00    -0.246 OA
BRANCH  35  37
ATOM     37  C   UNL     1       1.109  -8.610  11.287  1.00  0.00     0.060 A 
ATOM     38  C   UNL     1       0.911  -9.694  12.143  1.00  0.00     0.016 A 
ATOM     39  C   UNL     1       0.090  -7.698  10.976  1.00  0.00     0.016 A 
ATOM     40  C   UNL     1      -0.383 -10.079  12.380  1.00  0.00     0.010 A 
ATOM     41  C   UNL     1      -1.200  -8.085  11.213  1.00  0.00     0.010 A 
ATOM     42  C   UNL     1      -1.405  -9.338  11.784  1.00  0.00    -0.014 A 
BRANCH  42  43
ATOM     43  C   UNL     1      -2.736  -9.889  11.781  1.00  0.00     0.031 A 
ATOM     44  C   UNL     1      -3.409  -9.694  13.078  1.00  0.00     0.074 A 
ATOM     45  C   UNL     1      -3.290 -10.396  10.664  1.00  0.00     0.049 A 
ATOM     46  N   UNL     1      -3.626 -10.579  13.992  1.00  0.00    -0.248 NA
ATOM     47  C   UNL     1      -3.622  -8.305  13.518  1.00  0.00     0.031 C 
ATOM     48  C   UNL     1      -2.783 -10.383   9.288  1.00  0.00     0.029 A 
ATOM     49  N   UNL     1      -4.524 -10.948  10.528  1.00  0.00    -0.354 N 
ATOM     50  C   UNL     1      -4.247  -9.881  15.018  1.00  0.00     0.074 A 
ATOM     51  C   UNL     1      -3.959  -8.491  14.794  1.00  0.00     0.031 C 
ATOM     52  C   UNL     1      -3.798 -10.670   8.438  1.00  0.00     0.029 A 
ATOM     53  C   UNL     1      -4.979 -11.006   9.211  1.00  0.00     0.049 A 
ATOM     54  H   UNL     1      -5.050 -11.278  11.292  1.00  0.00     0.167 HD
ATOM     55  C   UNL     1      -5.210 -10.460  15.784  1.00  0.00     0.037 A 
ATOM     56  C   UNL     1      -6.283 -11.185   8.868  1.00  0.00     0.037 A 
ATOM     57  C   UNL     1      -5.183 -11.897  15.662  1.00  0.00     0.049 A 
ATOM     58  C   UNL     1      -6.941 -11.813  10.059  1.00  0.00     0.074 A 
ATOM     59  C   UNL     1      -4.224 -12.863  15.902  1.00  0.00     0.029 A 
ATOM     60  N   UNL     1      -6.107 -12.488  14.830  1.00  0.00    -0.354 N 
ATOM     61  N   UNL     1      -6.627 -13.005  10.504  1.00  0.00    -0.248 NA
ATOM     62  C   UNL     1      -7.520 -10.914  11.052  1.00  0.00     0.031 C 
ATOM     63  C   UNL     1      -4.348 -13.782  14.819  1.00  0.00     0.029 A 
ATOM     64  C   UNL     1      -5.425 -13.374  14.030  1.00  0.00     0.049 A 
ATOM     65  H   UNL     1      -7.075 -12.309  14.811  1.00  0.00     0.167 HD
ATOM     66  C   UNL     1      -6.585 -12.877  11.888  1.00  0.00     0.074 A 
ATOM     67  C   UNL     1      -7.178 -11.568  12.166  1.00  0.00     0.031 C 
ATOM     68  C   UNL     1      -5.809 -13.689  12.670  1.00  0.00     0.037 A 
BRANCH  55  69
ATOM     69  C   UNL     1      -6.397  -9.704  16.320  1.00  0.00     0.058 A 
ATOM     70  C   UNL     1      -7.218 -10.313  17.285  1.00  0.00     0.135 A 
ATOM     71  C   UNL     1      -6.909  -8.517  15.742  1.00  0.00     0.135 A 
ATOM     72  F   UNL     1      -6.836 -11.452  17.885  1.00  0.00    -0.206 F 
ATOM     73  C   UNL     1      -8.480  -9.815  17.607  1.00  0.00     0.059 A 
ATOM     74  C   UNL     1      -8.132  -7.968  16.095  1.00  0.00     0.059 A 
ATOM     75  F   UNL     1      -6.301  -7.881  14.735  1.00  0.00    -0.206 F 
ATOM     76  C   UNL     1      -8.931  -8.647  16.996  1.00  0.00     0.060 A 
BRANCH  76  77
ATOM     77  S   UNL     1     -10.597  -8.058  17.328  1.00  0.00     0.124 S 
ATOM     78  O   UNL     1     -11.402  -9.099  16.701  1.00  0.00    -0.237 OA
ATOM     79  O   UNL     1     -10.617  -8.021  18.786  1.00  0.00    -0.237 OA
ATOM     80  O   UNL     1     -10.629  -6.753  16.672  1.00  0.00    -0.744 OA
ENDBRANCH  76  77
ENDBRANCH  55  69
BRANCH  56  81
ATOM     81  C   UNL     1      -7.034 -10.431   7.820  1.00  0.00     0.058 A 
ATOM     82  C   UNL     1      -8.328 -10.809   7.416  1.00  0.00     0.135 A 
ATOM     83  C   UNL     1      -6.602  -9.163   7.378  1.00  0.00     0.135 A 
ATOM     84  F   UNL     1      -8.838 -11.987   7.808  1.00  0.00    -0.206 F 
ATOM     85  C   UNL     1      -9.154  -9.967   6.653  1.00  0.00     0.059 A 
ATOM     86  C   UNL     1      -7.399  -8.313   6.612  1.00  0.00     0.059 A 
ATOM     87  F   UNL     1      -5.415  -8.662   7.751  1.00  0.00    -0.206 F 
ATOM     88  C   UNL     1      -8.684  -8.710   6.272  1.00  0.00     0.060 A 
BRANCH  88  89
ATOM     89  S   UNL     1      -9.787  -7.545   5.433  1.00  0.00     0.124 S 
ATOM     90  O   UNL     1      -9.970  -8.183   4.133  1.00  0.00    -0.237 OA
ATOM     91  O   UNL     1     -10.953  -7.537   6.309  1.00  0.00    -0.237 OA
ATOM     92  O   UNL     1      -9.017  -6.304   5.412  1.00  0.00    -0.744 OA
ENDBRANCH  88  89
ENDBRANCH  56  81
BRANCH  68  93
ATOM     93  C   UNL     1      -5.123 -14.875  12.035  1.00  0.00     0.058 A 
ATOM     94  C   UNL     1      -4.128 -14.779  11.043  1.00  0.00     0.135 A 
ATOM     95  C   UNL     1      -5.343 -16.145  12.588  1.00  0.00     0.135 A 
ATOM     96  F   UNL     1      -3.774 -13.588  10.540  1.00  0.00    -0.206 F 
ATOM     97  C   UNL     1      -3.417 -15.896  10.595  1.00  0.00     0.059 A 
ATOM     98  C   UNL     1      -4.627 -17.267  12.180  1.00  0.00     0.059 A 
ATOM     99  F   UNL     1      -6.228 -16.296  13.587  1.00  0.00    -0.206 F 
ATOM    100  C   UNL     1      -3.674 -17.139  11.172  1.00  0.00     0.060 A 
BRANCH 100 101
ATOM    101  S   UNL     1      -2.715 -18.575  10.641  1.00  0.00     0.124 S 
ATOM    102  O   UNL     1      -3.210 -18.789   9.285  1.00  0.00    -0.237 OA
ATOM    103  O   UNL     1      -1.340 -18.095  10.745  1.00  0.00    -0.237 OA
ATOM    104  O   UNL     1      -3.081 -19.608  11.608  1.00  0.00    -0.744 OA
ENDBRANCH 100 101
ENDBRANCH  68  93
ENDBRANCH  42  43
ENDBRANCH  35  37
ENDBRANCH  34  35
ENDBRANCH  33  34
ENDBRANCH  32  33
ENDBRANCH   1  32
TORSDOF 21
