REMARK SMILES O=C(CC[NH+]1CC[NH+](Cc2ccccc2C2CC2)CC1)OCCOCCOC(=O)c1ccc(-c2c3nc(c(-c4c(F)cc(S(=O)(=O)[O-])cc4F)c4ccc([nH]4)c(-c4c(F)cc(S(=O)(=O)[O-])cc4F)c4nc(c(-c5c(F)cc(S(=O)(=O)[O-])cc5F)c5ccc2[nH]5)C=C4)C=C3)cc1
REMARK SMILES IDX 23 1 22 2 21 3 2 4 1 5 3 6 4 7 5 8 6 9 20 10 7 12 19 13 8 14
REMARK SMILES IDX 9 16 10 17 11 18 15 19 12 20 14 21 13 22 16 23 17 24 18 25
REMARK SMILES IDX 24 26 25 27 26 28 27 29 28 30 29 31 30 32 31 33 95 34 32 35
REMARK SMILES IDX 94 36 33 37 34 38 35 39 88 40 36 41 93 42 87 43 89 44 37 45
REMARK SMILES IDX 92 46 86 47 85 48 38 50 72 51 51 52 71 53 52 54 55 55 70 56
REMARK SMILES IDX 90 57 53 58 54 59 69 61 91 62 56 63 39 64 40 65 49 66 41 67
REMARK SMILES IDX 42 68 48 69 50 70 43 71 44 72 45 73 46 74 47 75 73 76 74 77
REMARK SMILES IDX 83 78 75 79 76 80 82 81 84 82 77 83 78 84 79 85 80 86 81 87
REMARK SMILES IDX 57 88 58 89 67 90 59 91 60 92 66 93 68 94 61 95 62 96 63 97
REMARK SMILES IDX 64 98 65 99
REMARK H PARENT 5 11 8 15 89 49 55 60
REMARK Flexibility Score: inf
ROOT
ATOM      1  C   UNL     1       4.569  -1.217   1.310  1.00  0.00     0.202 C 
ENDROOT
BRANCH   1   2
ATOM      2  C   UNL     1       3.612  -0.067   1.670  1.00  0.00     0.261 C 
BRANCH   2   3
ATOM      3  O   UNL     1       2.294   0.060   1.065  1.00  0.00    -0.463 OA
BRANCH   3   4
ATOM      4  C   UNL     1       1.731  -0.121  -0.139  1.00  0.00     0.311 C 
ATOM      5  O   UNL     1       0.552   0.203  -0.295  1.00  0.00    -0.252 OA
BRANCH   4   6
ATOM      6  C   UNL     1       2.493  -0.711  -1.289  1.00  0.00     0.184 C 
BRANCH   6   7
ATOM      7  C   UNL     1       2.719   0.328  -2.406  1.00  0.00     0.274 C 
BRANCH   7   8
ATOM      8  N   UNL     1       4.011   1.026  -2.368  1.00  0.00    -0.325 N 
ATOM      9  C   UNL     1       4.077   2.213  -3.244  1.00  0.00     0.324 C 
ATOM     10  C   UNL     1       4.409   1.456  -1.034  1.00  0.00     0.324 C 
ATOM     11  H   UNL     1       4.655   0.312  -2.708  1.00  0.00     0.348 HD
ATOM     12  C   UNL     1       3.565   3.564  -2.643  1.00  0.00     0.324 C 
ATOM     13  C   UNL     1       3.610   2.635  -0.447  1.00  0.00     0.324 C 
ATOM     14  N   UNL     1       3.821   3.846  -1.223  1.00  0.00    -0.322 N 
ATOM     15  H   UNL     1       3.127   4.559  -0.997  1.00  0.00     0.348 HD
BRANCH  14  16
ATOM     16  C   UNL     1       5.016   4.612  -0.823  1.00  0.00     0.299 C 
BRANCH  16  17
ATOM     17  C   UNL     1       6.308   3.864  -0.504  1.00  0.00     0.010 A 
ATOM     18  C   UNL     1       6.516   3.517   0.864  1.00  0.00     0.010 A 
ATOM     19  C   UNL     1       7.245   3.425  -1.469  1.00  0.00    -0.036 A 
ATOM     20  C   UNL     1       7.556   2.683   1.273  1.00  0.00     0.001 A 
ATOM     21  C   UNL     1       8.283   2.567  -1.008  1.00  0.00     0.004 A 
ATOM     22  C   UNL     1       8.430   2.184   0.327  1.00  0.00     0.000 A 
BRANCH  19  23
ATOM     23  C   UNL     1       7.232   3.675  -2.967  1.00  0.00     0.020 C 
ATOM     24  C   UNL     1       6.499   4.740  -3.735  1.00  0.00     0.009 C 
ATOM     25  C   UNL     1       7.960   4.896  -3.483  1.00  0.00     0.009 C 
ENDBRANCH  19  23
ENDBRANCH  16  17
ENDBRANCH  14  16
ENDBRANCH   7   8
ENDBRANCH   6   7
ENDBRANCH   4   6
ENDBRANCH   3   4
ENDBRANCH   2   3
ENDBRANCH   1   2
BRANCH   1  26
ATOM     26  O   UNL     1       4.116  -2.561   1.256  1.00  0.00    -0.374 OA
BRANCH  26  27
ATOM     27  C   UNL     1       2.842  -2.893   1.769  1.00  0.00     0.202 C 
BRANCH  27  28
ATOM     28  C   UNL     1       2.721  -3.026   3.291  1.00  0.00     0.261 C 
BRANCH  28  29
ATOM     29  O   UNL     1       3.144  -1.869   4.030  1.00  0.00    -0.460 OA
BRANCH  29  30
ATOM     30  C   UNL     1       4.448  -1.872   4.415  1.00  0.00     0.338 C 
ATOM     31  O   UNL     1       5.249  -2.769   4.245  1.00  0.00    -0.246 OA
BRANCH  30  32
ATOM     32  C   UNL     1       4.837  -0.532   4.931  1.00  0.00     0.060 A 
ATOM     33  C   UNL     1       6.107  -0.044   4.588  1.00  0.00     0.016 A 
ATOM     34  C   UNL     1       4.013   0.205   5.787  1.00  0.00     0.016 A 
ATOM     35  C   UNL     1       6.602   1.114   5.185  1.00  0.00     0.010 A 
ATOM     36  C   UNL     1       4.514   1.363   6.397  1.00  0.00     0.010 A 
ATOM     37  C   UNL     1       5.839   1.772   6.157  1.00  0.00    -0.014 A 
BRANCH  37  38
ATOM     38  C   UNL     1       6.546   2.636   7.139  1.00  0.00     0.031 A 
ATOM     39  C   UNL     1       6.989   1.992   8.432  1.00  0.00     0.074 A 
ATOM     40  C   UNL     1       6.860   3.917   6.875  1.00  0.00     0.049 A 
ATOM     41  N   UNL     1       7.637   2.508   9.443  1.00  0.00    -0.248 NA
ATOM     42  C   UNL     1       6.654   0.567   8.602  1.00  0.00     0.031 C 
ATOM     43  C   UNL     1       6.540   4.633   5.642  1.00  0.00     0.029 A 
ATOM     44  N   UNL     1       7.529   4.841   7.638  1.00  0.00    -0.354 N 
ATOM     45  C   UNL     1       7.774   1.478  10.368  1.00  0.00     0.074 A 
ATOM     46  C   UNL     1       7.114   0.318   9.817  1.00  0.00     0.031 C 
ATOM     47  C   UNL     1       7.010   5.890   5.736  1.00  0.00     0.029 A 
ATOM     48  C   UNL     1       7.640   6.075   7.043  1.00  0.00     0.049 A 
ATOM     49  H   UNL     1       7.894   4.640   8.530  1.00  0.00     0.167 HD
ATOM     50  C   UNL     1       8.404   1.489  11.567  1.00  0.00     0.037 A 
ATOM     51  C   UNL     1       8.180   7.221   7.509  1.00  0.00     0.037 A 
ATOM     52  C   UNL     1       9.063   2.646  12.111  1.00  0.00     0.049 A 
ATOM     53  C   UNL     1       8.820   7.229   8.877  1.00  0.00     0.074 A 
ATOM     54  C   UNL     1       9.739   2.766  13.311  1.00  0.00     0.029 A 
ATOM     55  N   UNL     1       9.121   3.886  11.491  1.00  0.00    -0.354 N 
ATOM     56  N   UNL     1       8.956   6.244   9.734  1.00  0.00    -0.248 NA
ATOM     57  C   UNL     1       9.392   8.504   9.334  1.00  0.00     0.031 C 
ATOM     58  C   UNL     1      10.154   4.095  13.445  1.00  0.00     0.029 A 
ATOM     59  C   UNL     1       9.801   4.784  12.295  1.00  0.00     0.049 A 
ATOM     60  H   UNL     1       8.735   4.096  10.610  1.00  0.00     0.167 HD
ATOM     61  C   UNL     1       9.668   6.769  10.811  1.00  0.00     0.074 A 
ATOM     62  C   UNL     1       9.936   8.157  10.492  1.00  0.00     0.031 C 
ATOM     63  C   UNL     1      10.071   6.160  11.955  1.00  0.00     0.037 A 
BRANCH  50  64
ATOM     64  C   UNL     1       8.370   0.226  12.385  1.00  0.00     0.058 A 
ATOM     65  C   UNL     1       9.075  -0.929  12.007  1.00  0.00     0.135 A 
ATOM     66  C   UNL     1       7.628   0.176  13.576  1.00  0.00     0.135 A 
ATOM     67  F   UNL     1       9.782  -0.947  10.865  1.00  0.00    -0.206 F 
ATOM     68  C   UNL     1       9.022  -2.095  12.764  1.00  0.00     0.059 A 
ATOM     69  C   UNL     1       7.586  -0.969  14.366  1.00  0.00     0.059 A 
ATOM     70  F   UNL     1       6.928   1.247  13.982  1.00  0.00    -0.206 F 
ATOM     71  C   UNL     1       8.275  -2.105  13.943  1.00  0.00     0.060 A 
BRANCH  71  72
ATOM     72  S   UNL     1       8.220  -3.623  14.918  1.00  0.00     0.124 S 
ATOM     73  O   UNL     1       7.393  -4.481  14.075  1.00  0.00    -0.237 OA
ATOM     74  O   UNL     1       9.630  -3.988  15.005  1.00  0.00    -0.237 OA
ATOM     75  O   UNL     1       7.606  -3.200  16.173  1.00  0.00    -0.744 OA
ENDBRANCH  71  72
ENDBRANCH  50  64
BRANCH  51  76
ATOM     76  C   UNL     1       8.145   8.459   6.680  1.00  0.00     0.058 A 
ATOM     77  C   UNL     1       9.322   9.024   6.165  1.00  0.00     0.135 A 
ATOM     78  C   UNL     1       6.934   9.112   6.401  1.00  0.00     0.135 A 
ATOM     79  F   UNL     1      10.508   8.448   6.414  1.00  0.00    -0.206 F 
ATOM     80  C   UNL     1       9.303  10.200   5.420  1.00  0.00     0.059 A 
ATOM     81  C   UNL     1       6.886  10.273   5.634  1.00  0.00     0.059 A 
ATOM     82  F   UNL     1       5.778   8.611   6.864  1.00  0.00    -0.206 F 
ATOM     83  C   UNL     1       8.078  10.815   5.157  1.00  0.00     0.060 A 
BRANCH  83  84
ATOM     84  S   UNL     1       8.060  12.316   4.151  1.00  0.00     0.124 S 
ATOM     85  O   UNL     1       8.652  13.289   5.062  1.00  0.00    -0.237 OA
ATOM     86  O   UNL     1       8.883  11.927   3.010  1.00  0.00    -0.237 OA
ATOM     87  O   UNL     1       6.643  12.506   3.857  1.00  0.00    -0.744 OA
ENDBRANCH  83  84
ENDBRANCH  51  76
BRANCH  63  88
ATOM     88  C   UNL     1      10.903   6.964  12.918  1.00  0.00     0.058 A 
ATOM     89  C   UNL     1      10.369   8.026  13.665  1.00  0.00     0.135 A 
ATOM     90  C   UNL     1      12.255   6.637  13.123  1.00  0.00     0.135 A 
ATOM     91  F   UNL     1       9.084   8.381  13.512  1.00  0.00    -0.206 F 
ATOM     92  C   UNL     1      11.155   8.763  14.546  1.00  0.00     0.059 A 
ATOM     93  C   UNL     1      13.050   7.337  14.025  1.00  0.00     0.059 A 
ATOM     94  F   UNL     1      12.814   5.619  12.450  1.00  0.00    -0.206 F 
ATOM     95  C   UNL     1      12.496   8.412  14.716  1.00  0.00     0.060 A 
BRANCH  95  96
ATOM     96  S   UNL     1      13.506   9.374  15.863  1.00  0.00     0.124 S 
ATOM     97  O   UNL     1      13.691  10.615  15.119  1.00  0.00    -0.237 OA
ATOM     98  O   UNL     1      12.646   9.462  17.039  1.00  0.00    -0.237 OA
ATOM     99  O   UNL     1      14.704   8.557  16.029  1.00  0.00    -0.744 OA
ENDBRANCH  95  96
ENDBRANCH  63  88
ENDBRANCH  37  38
ENDBRANCH  30  32
ENDBRANCH  29  30
ENDBRANCH  28  29
ENDBRANCH  27  28
ENDBRANCH  26  27
ENDBRANCH   1  26
TORSDOF 22
