REMARK SMILES O=C(OCCOCCOC(=O)[C@@H]1CC(=O)N(c2ccc(Cl)cc2C(=O)c2ccccc2)C1)c1ccc(-c2c3nc(c(-c4c(F)cc(S(=O)(=O)[O-])cc4F)c4ccc([nH]4)c(-c4c(F)cc(S(=O)(=O)[O-])cc4F)c4nc(c(-c5c(F)cc(S(=O)(=O)[O-])cc5F)c5ccc2[nH]5)C=C4)C=C3)cc1
REMARK SMILES IDX 6 1 5 2 4 3 3 4 2 5 1 6 33 7 34 8 98 9 35 10 97 11 36 12
REMARK SMILES IDX 37 13 38 14 91 15 39 16 96 17 90 18 92 19 40 20 95 21 89 22
REMARK SMILES IDX 88 23 41 25 75 26 54 27 74 28 55 29 58 30 73 31 93 32 56 33
REMARK SMILES IDX 57 34 72 36 94 37 59 38 42 39 43 40 52 41 44 42 45 43 51 44
REMARK SMILES IDX 53 45 46 46 47 47 48 48 49 49 50 50 76 51 77 52 86 53 78 54
REMARK SMILES IDX 79 55 85 56 87 57 80 58 81 59 82 60 83 61 84 62 60 63 61 64
REMARK SMILES IDX 70 65 62 66 63 67 69 68 71 69 64 70 65 71 66 72 67 73 68 74
REMARK SMILES IDX 7 75 8 76 9 77 10 78 11 79 12 80 13 81 32 82 14 83 16 84
REMARK SMILES IDX 15 85 17 86 18 87 23 88 19 89 22 90 20 91 21 92 24 93 25 94
REMARK SMILES IDX 26 95 27 96 31 97 28 98 30 99 29 100
REMARK H PARENT 92 24 58 35
REMARK Flexibility Score: inf
ROOT
ATOM      1  O   UNL     1       4.765  -1.043   1.977  1.00  0.00    -0.374 OA
ENDROOT
BRANCH   1   2
ATOM      2  C   UNL     1       5.270  -0.182   0.958  1.00  0.00     0.202 C 
BRANCH   2   3
ATOM      3  C   UNL     1       4.767  -0.248  -0.513  1.00  0.00     0.261 C 
BRANCH   3   4
ATOM      4  O   UNL     1       3.338   0.038  -0.681  1.00  0.00    -0.460 OA
BRANCH   4   5
ATOM      5  C   UNL     1       2.365  -0.787  -1.195  1.00  0.00     0.338 C 
ATOM      6  O   UNL     1       1.273  -0.382  -1.575  1.00  0.00    -0.246 OA
BRANCH   5   7
ATOM      7  C   UNL     1       2.657  -2.223  -1.145  1.00  0.00     0.060 A 
ATOM      8  C   UNL     1       3.319  -2.610  -0.014  1.00  0.00     0.016 A 
ATOM      9  C   UNL     1       2.420  -3.161  -2.136  1.00  0.00     0.016 A 
ATOM     10  C   UNL     1       4.259  -3.579  -0.106  1.00  0.00     0.010 A 
ATOM     11  C   UNL     1       3.074  -4.395  -2.031  1.00  0.00     0.010 A 
ATOM     12  C   UNL     1       4.078  -4.558  -1.058  1.00  0.00    -0.014 A 
BRANCH  12  13
ATOM     13  C   UNL     1       5.033  -5.672  -0.994  1.00  0.00     0.031 A 
ATOM     14  C   UNL     1       5.888  -5.927  -2.190  1.00  0.00     0.074 A 
ATOM     15  C   UNL     1       5.231  -6.289   0.192  1.00  0.00     0.049 A 
ATOM     16  N   UNL     1       6.655  -6.946  -2.438  1.00  0.00    -0.248 NA
ATOM     17  C   UNL     1       5.878  -4.905  -3.255  1.00  0.00     0.031 C 
ATOM     18  C   UNL     1       4.564  -5.943   1.464  1.00  0.00     0.029 A 
ATOM     19  N   UNL     1       6.084  -7.292   0.555  1.00  0.00    -0.354 N 
ATOM     20  C   UNL     1       7.147  -6.736  -3.719  1.00  0.00     0.074 A 
ATOM     21  C   UNL     1       6.622  -5.477  -4.189  1.00  0.00     0.031 C 
ATOM     22  C   UNL     1       5.086  -6.663   2.462  1.00  0.00     0.029 A 
ATOM     23  C   UNL     1       5.970  -7.650   1.879  1.00  0.00     0.049 A 
ATOM     24  H   UNL     1       6.717  -7.716  -0.069  1.00  0.00     0.167 HD
ATOM     25  C   UNL     1       7.941  -7.567  -4.427  1.00  0.00     0.037 A 
ATOM     26  C   UNL     1       6.445  -8.729   2.523  1.00  0.00     0.037 A 
ATOM     27  C   UNL     1       8.436  -8.796  -3.868  1.00  0.00     0.049 A 
ATOM     28  C   UNL     1       7.229  -9.693   1.685  1.00  0.00     0.074 A 
ATOM     29  C   UNL     1       9.175  -9.791  -4.471  1.00  0.00     0.029 A 
ATOM     30  N   UNL     1       8.234  -9.183  -2.545  1.00  0.00    -0.354 N 
ATOM     31  N   UNL     1       7.574  -9.582   0.421  1.00  0.00    -0.248 NA
ATOM     32  C   UNL     1       7.658 -10.933   2.329  1.00  0.00     0.031 C 
ATOM     33  C   UNL     1       9.373 -10.805  -3.527  1.00  0.00     0.029 A 
ATOM     34  C   UNL     1       8.818 -10.411  -2.315  1.00  0.00     0.049 A 
ATOM     35  H   UNL     1       7.746  -8.657  -1.871  1.00  0.00     0.167 HD
ATOM     36  C   UNL     1       8.281 -10.732   0.118  1.00  0.00     0.074 A 
ATOM     37  C   UNL     1       8.327 -11.514   1.343  1.00  0.00     0.031 C 
ATOM     38  C   UNL     1       8.838 -11.119  -1.056  1.00  0.00     0.037 A 
BRANCH  25  39
ATOM     39  C   UNL     1       8.200  -7.222  -5.864  1.00  0.00     0.058 A 
ATOM     40  C   UNL     1       9.017  -6.148  -6.251  1.00  0.00     0.135 A 
ATOM     41  C   UNL     1       7.579  -7.967  -6.880  1.00  0.00     0.135 A 
ATOM     42  F   UNL     1       9.597  -5.370  -5.323  1.00  0.00    -0.206 F 
ATOM     43  C   UNL     1       9.199  -5.819  -7.592  1.00  0.00     0.059 A 
ATOM     44  C   UNL     1       7.766  -7.674  -8.226  1.00  0.00     0.059 A 
ATOM     45  F   UNL     1       6.761  -8.985  -6.566  1.00  0.00    -0.206 F 
ATOM     46  C   UNL     1       8.573  -6.592  -8.573  1.00  0.00     0.060 A 
BRANCH  46  47
ATOM     47  S   UNL     1       8.839  -6.169 -10.308  1.00  0.00     0.124 S 
ATOM     48  O   UNL     1       8.089  -4.923 -10.425  1.00  0.00    -0.237 OA
ATOM     49  O   UNL     1      10.291  -6.043 -10.376  1.00  0.00    -0.237 OA
ATOM     50  O   UNL     1       8.278  -7.309 -11.026  1.00  0.00    -0.744 OA
ENDBRANCH  46  47
ENDBRANCH  25  39
BRANCH  26  51
ATOM     51  C   UNL     1       6.087  -8.994   3.945  1.00  0.00     0.058 A 
ATOM     52  C   UNL     1       7.069  -9.068   4.941  1.00  0.00     0.135 A 
ATOM     53  C   UNL     1       4.749  -9.177   4.344  1.00  0.00     0.135 A 
ATOM     54  F   UNL     1       8.361  -8.897   4.622  1.00  0.00    -0.206 F 
ATOM     55  C   UNL     1       6.746  -9.340   6.269  1.00  0.00     0.059 A 
ATOM     56  C   UNL     1       4.397  -9.412   5.670  1.00  0.00     0.059 A 
ATOM     57  F   UNL     1       3.757  -9.100   3.442  1.00  0.00    -0.206 F 
ATOM     58  C   UNL     1       5.407  -9.514   6.623  1.00  0.00     0.060 A 
BRANCH  58  59
ATOM     59  S   UNL     1       5.000  -9.870   8.346  1.00  0.00     0.124 S 
ATOM     60  O   UNL     1       5.493 -11.235   8.486  1.00  0.00    -0.237 OA
ATOM     61  O   UNL     1       5.752  -8.841   9.057  1.00  0.00    -0.237 OA
ATOM     62  O   UNL     1       3.548  -9.716   8.388  1.00  0.00    -0.744 OA
ENDBRANCH  58  59
ENDBRANCH  26  51
BRANCH  38  63
ATOM     63  C   UNL     1       9.591 -12.410  -1.032  1.00  0.00     0.058 A 
ATOM     64  C   UNL     1       8.932 -13.646  -0.974  1.00  0.00     0.135 A 
ATOM     65  C   UNL     1      10.990 -12.398  -1.134  1.00  0.00     0.135 A 
ATOM     66  F   UNL     1       7.596 -13.697  -0.862  1.00  0.00    -0.206 F 
ATOM     67  C   UNL     1       9.643 -14.836  -1.000  1.00  0.00     0.059 A 
ATOM     68  C   UNL     1      11.717 -13.576  -1.198  1.00  0.00     0.059 A 
ATOM     69  F   UNL     1      11.655 -11.233  -1.200  1.00  0.00    -0.206 F 
ATOM     70  C   UNL     1      11.034 -14.789  -1.121  1.00  0.00     0.060 A 
BRANCH  70  71
ATOM     71  S   UNL     1      11.941 -16.343  -1.209  1.00  0.00     0.124 S 
ATOM     72  O   UNL     1      11.854 -16.810   0.171  1.00  0.00    -0.237 OA
ATOM     73  O   UNL     1      11.163 -17.100  -2.186  1.00  0.00    -0.237 OA
ATOM     74  O   UNL     1      13.270 -15.936  -1.653  1.00  0.00    -0.744 OA
ENDBRANCH  70  71
ENDBRANCH  38  63
ENDBRANCH  12  13
ENDBRANCH   5   7
ENDBRANCH   4   5
ENDBRANCH   3   4
ENDBRANCH   2   3
ENDBRANCH   1   2
BRANCH   1  75
ATOM     75  C   UNL     1       3.557  -0.605   2.628  1.00  0.00     0.202 C 
BRANCH  75  76
ATOM     76  C   UNL     1       3.760   0.277   3.859  1.00  0.00     0.261 C 
BRANCH  76  77
ATOM     77  O   UNL     1       4.193   1.599   3.481  1.00  0.00    -0.463 OA
BRANCH  77  78
ATOM     78  C   UNL     1       5.523   1.843   3.586  1.00  0.00     0.311 C 
ATOM     79  O   UNL     1       6.342   1.068   4.063  1.00  0.00    -0.252 OA
BRANCH  78  80
ATOM     80  C   UNL     1       5.934   3.140   2.930  1.00  0.00     0.128 C 
ATOM     81  C   UNL     1       5.178   4.390   3.351  1.00  0.00     0.117 C 
ATOM     82  C   UNL     1       5.730   3.084   1.429  1.00  0.00     0.141 C 
ATOM     83  C   UNL     1       5.204   5.254   2.100  1.00  0.00     0.227 C 
ATOM     84  N   UNL     1       5.468   4.424   1.021  1.00  0.00    -0.311 N 
ATOM     85  O   UNL     1       4.955   6.449   2.070  1.00  0.00    -0.274 OA
BRANCH  84  86
ATOM     86  C   UNL     1       5.472   4.769  -0.344  1.00  0.00     0.055 A 
ATOM     87  C   UNL     1       6.625   5.436  -0.789  1.00  0.00     0.028 A 
ATOM     88  C   UNL     1       4.555   4.259  -1.295  1.00  0.00     0.048 A 
ATOM     89  C   UNL     1       6.910   5.544  -2.152  1.00  0.00     0.023 A 
ATOM     90  C   UNL     1       4.875   4.361  -2.666  1.00  0.00     0.035 A 
ATOM     91  C   UNL     1       6.045   4.987  -3.084  1.00  0.00     0.041 A 
ATOM     92  Cl  UNL     1       6.424   5.066  -4.760  1.00  0.00    -0.084 Cl
BRANCH  88  93
ATOM     93  C   UNL     1       3.237   3.599  -1.017  1.00  0.00     0.195 C 
ATOM     94  O   UNL     1       2.709   2.934  -1.908  1.00  0.00    -0.289 OA
BRANCH  93  95
ATOM     95  C   UNL     1       2.507   3.700   0.265  1.00  0.00     0.023 A 
ATOM     96  C   UNL     1       1.990   2.528   0.825  1.00  0.00     0.012 A 
ATOM     97  C   UNL     1       2.307   4.912   0.918  1.00  0.00     0.012 A 
ATOM     98  C   UNL     1       1.411   2.534   2.091  1.00  0.00     0.001 A 
ATOM     99  C   UNL     1       1.708   4.923   2.183  1.00  0.00     0.001 A 
ATOM    100  C   UNL     1       1.295   3.732   2.783  1.00  0.00     0.000 A 
ENDBRANCH  93  95
ENDBRANCH  88  93
ENDBRANCH  84  86
ENDBRANCH  78  80
ENDBRANCH  77  78
ENDBRANCH  76  77
ENDBRANCH  75  76
ENDBRANCH   1  75
TORSDOF 20
