REMARK SMILES CC(C)[NH2+][C@]1(C(=O)OCCOCCOC(=O)c2ccc(-c3c4nc(c(-c5c(F)cc(S(=O)(=O)[O-])cc5F)c5ccc([nH]5)c(-c5c(F)cc(S(=O)(=O)[O-])cc5F)c5nc(c(-c6c(F)cc(S(=O)(=O)[O-])cc6F)c6ccc3[nH]6)C=C5)C=C4)cc2)CCC[C@@H](Sc2nnnn2C)C1
REMARK SMILES IDX 12 1 11 2 10 3 9 4 8 5 6 6 7 7 5 8 83 9 94 10 84 11 86 12
REMARK SMILES IDX 85 13 4 14 2 17 1 18 3 19 87 20 88 21 89 22 92 23 90 24
REMARK SMILES IDX 91 25 93 26 13 27 14 28 15 29 16 30 17 31 18 32 82 33 19 34
REMARK SMILES IDX 81 35 20 36 21 37 22 38 75 39 23 40 80 41 74 42 76 43 24 44
REMARK SMILES IDX 79 45 73 46 72 47 25 49 59 50 38 51 58 52 39 53 42 54 57 55
REMARK SMILES IDX 77 56 40 57 41 58 56 60 78 61 43 62 26 63 27 64 36 65 28 66
REMARK SMILES IDX 29 67 35 68 37 69 30 70 31 71 32 72 33 73 34 74 60 75 61 76
REMARK SMILES IDX 70 77 62 78 63 79 69 80 71 81 64 82 65 83 66 84 67 85 68 86
REMARK SMILES IDX 44 87 45 88 54 89 46 90 47 91 53 92 55 93 48 94 49 95 50 96
REMARK SMILES IDX 51 97 52 98
REMARK H PARENT 4 15 4 16 76 48 42 59
REMARK Flexibility Score: inf
ROOT
ATOM      1  C   UNL     1      -2.690  -0.139  -1.048  1.00  0.00     0.202 C 
ENDROOT
BRANCH   1   2
ATOM      2  O   UNL     1      -1.541  -0.913  -1.391  1.00  0.00    -0.374 OA
BRANCH   2   3
ATOM      3  C   UNL     1      -0.812  -1.488  -0.303  1.00  0.00     0.202 C 
BRANCH   3   4
ATOM      4  C   UNL     1       0.325  -0.627   0.266  1.00  0.00     0.261 C 
BRANCH   4   5
ATOM      5  O   UNL     1      -0.164   0.416   1.139  1.00  0.00    -0.459 OA
BRANCH   5   6
ATOM      6  C   UNL     1      -0.361   1.611   0.538  1.00  0.00     0.368 C 
ATOM      7  O   UNL     1      -0.109   1.804  -0.652  1.00  0.00    -0.245 OA
BRANCH   6   8
ATOM      8  C   UNL     1      -1.021   2.706   1.450  1.00  0.00     0.195 C 
ATOM      9  C   UNL     1      -0.263   2.986   2.761  1.00  0.00     0.081 C 
ATOM     10  C   UNL     1      -0.860   3.964   0.553  1.00  0.00     0.096 C 
ATOM     11  C   UNL     1      -0.687   4.309   3.422  1.00  0.00     0.008 C 
ATOM     12  C   UNL     1      -1.197   5.309   1.165  1.00  0.00     0.061 C 
ATOM     13  C   UNL     1      -0.480   5.512   2.498  1.00  0.00     0.015 C 
BRANCH   8  14
ATOM     14  N   UNL     1      -2.481   2.500   1.615  1.00  0.00    -0.330 N 
ATOM     15  H   UNL     1      -2.893   3.428   1.714  1.00  0.00     0.347 HD
ATOM     16  H   UNL     1      -2.718   1.946   0.792  1.00  0.00     0.347 HD
BRANCH  14  17
ATOM     17  C   UNL     1      -3.020   1.686   2.713  1.00  0.00     0.176 C 
ATOM     18  C   UNL     1      -4.542   1.599   2.508  1.00  0.00     0.075 C 
ATOM     19  C   UNL     1      -2.468   0.273   2.879  1.00  0.00     0.075 C 
ENDBRANCH  14  17
ENDBRANCH   8  14
BRANCH  12  20
ATOM     20  S   UNL     1      -0.835   6.612  -0.092  1.00  0.00    -0.081 SA
BRANCH  20  21
ATOM     21  C   UNL     1       0.886   6.543  -0.275  1.00  0.00     0.209 A 
ATOM     22  N   UNL     1       1.736   7.316   0.364  1.00  0.00    -0.102 NA
ATOM     23  N   UNL     1       1.592   5.742  -1.133  1.00  0.00    -0.224 N 
ATOM     24  N   UNL     1       2.983   6.967  -0.092  1.00  0.00    -0.023 NA
ATOM     25  N   UNL     1       2.908   6.005  -1.000  1.00  0.00    -0.045 NA
ATOM     26  C   UNL     1       1.189   4.700  -2.038  1.00  0.00     0.179 C 
ENDBRANCH  20  21
ENDBRANCH  12  20
ENDBRANCH   6   8
ENDBRANCH   5   6
ENDBRANCH   4   5
ENDBRANCH   3   4
ENDBRANCH   2   3
ENDBRANCH   1   2
BRANCH   1  27
ATOM     27  C   UNL     1      -3.978  -0.932  -0.792  1.00  0.00     0.261 C 
BRANCH  27  28
ATOM     28  O   UNL     1      -3.890  -1.677   0.438  1.00  0.00    -0.460 OA
BRANCH  28  29
ATOM     29  C   UNL     1      -3.753  -3.018   0.281  1.00  0.00     0.338 C 
ATOM     30  O   UNL     1      -3.870  -3.638  -0.757  1.00  0.00    -0.246 OA
BRANCH  29  31
ATOM     31  C   UNL     1      -3.230  -3.635   1.525  1.00  0.00     0.060 A 
ATOM     32  C   UNL     1      -2.228  -4.598   1.365  1.00  0.00     0.016 A 
ATOM     33  C   UNL     1      -3.707  -3.330   2.804  1.00  0.00     0.016 A 
ATOM     34  C   UNL     1      -1.761  -5.316   2.463  1.00  0.00     0.010 A 
ATOM     35  C   UNL     1      -3.228  -4.050   3.912  1.00  0.00     0.010 A 
ATOM     36  C   UNL     1      -2.288  -5.083   3.742  1.00  0.00    -0.014 A 
BRANCH  36  37
ATOM     37  C   UNL     1      -1.950  -6.049   4.826  1.00  0.00     0.031 A 
ATOM     38  C   UNL     1      -2.957  -7.102   5.219  1.00  0.00     0.074 A 
ATOM     39  C   UNL     1      -0.715  -6.084   5.364  1.00  0.00     0.049 A 
ATOM     40  N   UNL     1      -2.815  -8.125   6.023  1.00  0.00    -0.248 NA
ATOM     41  C   UNL     1      -4.298  -6.993   4.622  1.00  0.00     0.031 C 
ATOM     42  C   UNL     1       0.367  -5.146   5.068  1.00  0.00     0.029 A 
ATOM     43  N   UNL     1      -0.155  -6.965   6.260  1.00  0.00    -0.354 N 
ATOM     44  C   UNL     1      -4.036  -8.790   6.015  1.00  0.00     0.074 A 
ATOM     45  C   UNL     1      -4.926  -8.025   5.168  1.00  0.00     0.031 C 
ATOM     46  C   UNL     1       1.464  -5.510   5.755  1.00  0.00     0.029 A 
ATOM     47  C   UNL     1       1.162  -6.700   6.550  1.00  0.00     0.049 A 
ATOM     48  H   UNL     1      -0.653  -7.717   6.656  1.00  0.00     0.167 HD
ATOM     49  C   UNL     1      -4.384  -9.945   6.630  1.00  0.00     0.037 A 
ATOM     50  C   UNL     1       2.030  -7.343   7.358  1.00  0.00     0.037 A 
ATOM     51  C   UNL     1      -3.510 -10.723   7.469  1.00  0.00     0.049 A 
ATOM     52  C   UNL     1       1.600  -8.599   8.076  1.00  0.00     0.074 A 
ATOM     53  C   UNL     1      -3.781 -11.916   8.120  1.00  0.00     0.029 A 
ATOM     54  N   UNL     1      -2.200 -10.392   7.776  1.00  0.00    -0.354 N 
ATOM     55  N   UNL     1       0.452  -9.232   8.021  1.00  0.00    -0.248 NA
ATOM     56  C   UNL     1       2.592  -9.234   8.957  1.00  0.00     0.031 C 
ATOM     57  C   UNL     1      -2.648 -12.285   8.853  1.00  0.00     0.029 A 
ATOM     58  C   UNL     1      -1.657 -11.346   8.622  1.00  0.00     0.049 A 
ATOM     59  H   UNL     1      -1.725  -9.597   7.441  1.00  0.00     0.167 HD
ATOM     60  C   UNL     1       0.596 -10.350   8.839  1.00  0.00     0.074 A 
ATOM     61  C   UNL     1       1.945 -10.319   9.359  1.00  0.00     0.031 C 
ATOM     62  C   UNL     1      -0.311 -11.315   9.135  1.00  0.00     0.037 A 
BRANCH  49  63
ATOM     63  C   UNL     1      -5.782 -10.454   6.415  1.00  0.00     0.058 A 
ATOM     64  C   UNL     1      -6.167 -11.041   5.200  1.00  0.00     0.135 A 
ATOM     65  C   UNL     1      -6.724 -10.416   7.455  1.00  0.00     0.135 A 
ATOM     66  F   UNL     1      -5.309 -11.084   4.168  1.00  0.00    -0.206 F 
ATOM     67  C   UNL     1      -7.443 -11.563   5.019  1.00  0.00     0.059 A 
ATOM     68  C   UNL     1      -7.998 -10.953   7.304  1.00  0.00     0.059 A 
ATOM     69  F   UNL     1      -6.405  -9.862   8.636  1.00  0.00    -0.206 F 
ATOM     70  C   UNL     1      -8.351 -11.518   6.079  1.00  0.00     0.060 A 
BRANCH  70  71
ATOM     71  S   UNL     1      -9.992 -12.228   5.837  1.00  0.00     0.124 S 
ATOM     72  O   UNL     1     -10.611 -11.238   4.960  1.00  0.00    -0.237 OA
ATOM     73  O   UNL     1      -9.688 -13.517   5.223  1.00  0.00    -0.237 OA
ATOM     74  O   UNL     1     -10.537 -12.295   7.190  1.00  0.00    -0.744 OA
ENDBRANCH  70  71
ENDBRANCH  49  63
BRANCH  50  75
ATOM     75  C   UNL     1       3.408  -6.816   7.554  1.00  0.00     0.058 A 
ATOM     76  C   UNL     1       4.531  -7.513   7.085  1.00  0.00     0.135 A 
ATOM     77  C   UNL     1       3.627  -5.629   8.271  1.00  0.00     0.135 A 
ATOM     78  F   UNL     1       4.373  -8.659   6.405  1.00  0.00    -0.206 F 
ATOM     79  C   UNL     1       5.824  -7.073   7.349  1.00  0.00     0.059 A 
ATOM     80  C   UNL     1       4.909  -5.155   8.524  1.00  0.00     0.059 A 
ATOM     81  F   UNL     1       2.585  -4.920   8.732  1.00  0.00    -0.206 F 
ATOM     82  C   UNL     1       6.003  -5.894   8.075  1.00  0.00     0.060 A 
BRANCH  82  83
ATOM     83  S   UNL     1       7.682  -5.321   8.409  1.00  0.00     0.124 S 
ATOM     84  O   UNL     1       8.092  -6.222   9.479  1.00  0.00    -0.237 OA
ATOM     85  O   UNL     1       8.337  -5.519   7.119  1.00  0.00    -0.237 OA
ATOM     86  O   UNL     1       7.487  -3.927   8.794  1.00  0.00    -0.744 OA
ENDBRANCH  82  83
ENDBRANCH  50  75
BRANCH  62  87
ATOM     87  C   UNL     1       0.133 -12.432  10.041  1.00  0.00     0.058 A 
ATOM     88  C   UNL     1       0.356 -12.225  11.412  1.00  0.00     0.135 A 
ATOM     89  C   UNL     1       0.321 -13.729   9.538  1.00  0.00     0.135 A 
ATOM     90  F   UNL     1       0.193 -11.004  11.946  1.00  0.00    -0.206 F 
ATOM     91  C   UNL     1       0.789 -13.255  12.243  1.00  0.00     0.059 A 
ATOM     92  C   UNL     1       0.726 -14.780  10.356  1.00  0.00     0.059 A 
ATOM     93  F   UNL     1       0.107 -13.988   8.238  1.00  0.00    -0.206 F 
ATOM     94  C   UNL     1       0.977 -14.528  11.704  1.00  0.00     0.060 A 
BRANCH  94  95
ATOM     95  S   UNL     1       1.540 -15.857  12.790  1.00  0.00     0.124 S 
ATOM     96  O   UNL     1       2.956 -15.536  12.935  1.00  0.00    -0.237 OA
ATOM     97  O   UNL     1       0.721 -15.659  13.982  1.00  0.00    -0.237 OA
ATOM     98  O   UNL     1       1.244 -17.066  12.028  1.00  0.00    -0.744 OA
ENDBRANCH  94  95
ENDBRANCH  62  87
ENDBRANCH  36  37
ENDBRANCH  29  31
ENDBRANCH  28  29
ENDBRANCH  27  28
ENDBRANCH   1  27
TORSDOF 21
