REMARK SMILES O=C(/C=C/c1cccs1)NCC(=O)OCCOCCOC(=O)c1ccc(-c2c3nc(c(-c4c(F)cc(S(=O)(=O)[O-])cc4F)c4ccc([nH]4)c(-c4c(F)cc(S(=O)(=O)[O-])cc4F)c4nc(c(-c5c(F)cc(S(=O)(=O)[O-])cc5F)c5ccc2[nH]5)C=C4)C=C3)cc1
REMARK SMILES IDX 17 1 16 2 15 3 14 4 12 5 13 6 11 7 10 8 1 9 2 10 3 12 4 13
REMARK SMILES IDX 5 14 6 15 9 16 7 17 8 18 18 19 19 20 20 21 21 22 22 23 23 24
REMARK SMILES IDX 24 25 88 26 25 27 87 28 26 29 27 30 28 31 81 32 29 33 86 34
REMARK SMILES IDX 80 35 82 36 30 37 85 38 79 39 78 40 31 42 65 43 44 44 64 45
REMARK SMILES IDX 45 46 48 47 63 48 83 49 46 50 47 51 62 53 84 54 49 55 32 56
REMARK SMILES IDX 33 57 42 58 34 59 35 60 41 61 43 62 36 63 37 64 38 65 39 66
REMARK SMILES IDX 40 67 66 68 67 69 76 70 68 71 69 72 75 73 77 74 70 75 71 76
REMARK SMILES IDX 72 77 73 78 74 79 50 80 51 81 60 82 52 83 53 84 59 85 61 86
REMARK SMILES IDX 54 87 55 88 56 89 57 90 58 91
REMARK H PARENT 10 11 82 41 48 52
REMARK Flexibility Score: inf
ROOT
ATOM      1  O   UNL     1       4.597  -0.852  -5.262  1.00  0.00    -0.374 OA
ENDROOT
BRANCH   1   2
ATOM      2  C   UNL     1       3.699   0.236  -5.493  1.00  0.00     0.202 C 
BRANCH   2   3
ATOM      3  C   UNL     1       2.251   0.015  -5.048  1.00  0.00     0.261 C 
BRANCH   3   4
ATOM      4  O   UNL     1       2.180  -0.167  -3.623  1.00  0.00    -0.462 OA
BRANCH   4   5
ATOM      5  C   UNL     1       1.416  -1.213  -3.207  1.00  0.00     0.325 C 
ATOM      6  O   UNL     1       0.698  -1.891  -3.934  1.00  0.00    -0.250 OA
BRANCH   5   7
ATOM      7  C   UNL     1       1.672  -1.580  -1.748  1.00  0.00     0.239 C 
BRANCH   7   8
ATOM      8  N   UNL     1       2.496  -0.689  -0.940  1.00  0.00    -0.342 N 
ATOM      9  O   UNL     1       0.739   0.118   0.273  1.00  0.00    -0.270 OA
ATOM     10  C   UNL     1       1.946   0.048   0.069  1.00  0.00     0.244 C 
ATOM     11  H   UNL     1       3.461  -0.619  -1.124  1.00  0.00     0.164 HD
BRANCH  10  12
ATOM     12  C   UNL     1       2.875   0.693   1.033  1.00  0.00     0.072 C 
ATOM     13  C   UNL     1       4.213   0.774   0.971  1.00  0.00     0.024 C 
BRANCH  13  14
ATOM     14  C   UNL     1       4.957   1.337   2.053  1.00  0.00     0.027 A 
ATOM     15  C   UNL     1       4.664   1.393   3.408  1.00  0.00     0.020 A 
ATOM     16  S   UNL     1       6.495   2.055   1.750  1.00  0.00    -0.144 S 
ATOM     17  C   UNL     1       5.670   2.045   4.177  1.00  0.00     0.012 A 
ATOM     18  C   UNL     1       6.717   2.469   3.393  1.00  0.00     0.065 A 
ENDBRANCH  13  14
ENDBRANCH  10  12
ENDBRANCH   7   8
ENDBRANCH   5   7
ENDBRANCH   4   5
ENDBRANCH   3   4
ENDBRANCH   2   3
ENDBRANCH   1   2
BRANCH   1  19
ATOM     19  C   UNL     1       5.010  -1.098  -3.920  1.00  0.00     0.202 C 
BRANCH  19  20
ATOM     20  C   UNL     1       6.015  -0.111  -3.309  1.00  0.00     0.261 C 
BRANCH  20  21
ATOM     21  O   UNL     1       5.475   1.214  -3.150  1.00  0.00    -0.460 OA
BRANCH  21  22
ATOM     22  C   UNL     1       6.077   2.158  -3.918  1.00  0.00     0.338 C 
ATOM     23  O   UNL     1       7.042   1.996  -4.653  1.00  0.00    -0.246 OA
BRANCH  22  24
ATOM     24  C   UNL     1       5.311   3.418  -3.906  1.00  0.00     0.060 A 
ATOM     25  C   UNL     1       4.949   3.964  -5.145  1.00  0.00     0.016 A 
ATOM     26  C   UNL     1       5.038   4.108  -2.722  1.00  0.00     0.016 A 
ATOM     27  C   UNL     1       4.356   5.224  -5.209  1.00  0.00     0.010 A 
ATOM     28  C   UNL     1       4.451   5.378  -2.791  1.00  0.00     0.010 A 
ATOM     29  C   UNL     1       4.138   5.957  -4.035  1.00  0.00    -0.014 A 
BRANCH  29  30
ATOM     30  C   UNL     1       3.712   7.376  -4.128  1.00  0.00     0.031 A 
ATOM     31  C   UNL     1       4.747   8.463  -4.005  1.00  0.00     0.074 A 
ATOM     32  C   UNL     1       2.425   7.696  -4.357  1.00  0.00     0.049 A 
ATOM     33  N   UNL     1       4.594   9.761  -4.034  1.00  0.00    -0.248 NA
ATOM     34  C   UNL     1       6.141   8.025  -3.826  1.00  0.00     0.031 C 
ATOM     35  C   UNL     1       1.337   6.736  -4.534  1.00  0.00     0.029 A 
ATOM     36  N   UNL     1       1.817   8.921  -4.474  1.00  0.00    -0.354 N 
ATOM     37  C   UNL     1       5.867  10.297  -3.872  1.00  0.00     0.074 A 
ATOM     38  C   UNL     1       6.778   9.183  -3.719  1.00  0.00     0.031 C 
ATOM     39  C   UNL     1       0.189   7.410  -4.725  1.00  0.00     0.029 A 
ATOM     40  C   UNL     1       0.457   8.845  -4.657  1.00  0.00     0.049 A 
ATOM     41  H   UNL     1       2.308   9.773  -4.430  1.00  0.00     0.167 HD
ATOM     42  C   UNL     1       6.243  11.599  -3.859  1.00  0.00     0.037 A 
ATOM     43  C   UNL     1      -0.468   9.822  -4.741  1.00  0.00     0.037 A 
ATOM     44  C   UNL     1       5.335  12.706  -4.013  1.00  0.00     0.049 A 
ATOM     45  C   UNL     1      -0.035  11.263  -4.665  1.00  0.00     0.074 A 
ATOM     46  C   UNL     1       5.624  14.060  -4.027  1.00  0.00     0.029 A 
ATOM     47  N   UNL     1       3.963  12.589  -4.173  1.00  0.00    -0.354 N 
ATOM     48  N   UNL     1       1.175  11.754  -4.530  1.00  0.00    -0.248 NA
ATOM     49  C   UNL     1      -1.090  12.283  -4.756  1.00  0.00     0.031 C 
ATOM     50  C   UNL     1       4.421  14.762  -4.155  1.00  0.00     0.029 A 
ATOM     51  C   UNL     1       3.388  13.846  -4.267  1.00  0.00     0.049 A 
ATOM     52  H   UNL     1       3.470  11.738  -4.214  1.00  0.00     0.167 HD
ATOM     53  C   UNL     1       1.028  13.138  -4.548  1.00  0.00     0.074 A 
ATOM     54  C   UNL     1      -0.386  13.406  -4.712  1.00  0.00     0.031 C 
ATOM     55  C   UNL     1       1.979  14.099  -4.442  1.00  0.00     0.037 A 
BRANCH  42  56
ATOM     56  C   UNL     1       7.701  11.898  -3.647  1.00  0.00     0.058 A 
ATOM     57  C   UNL     1       8.654  11.671  -4.652  1.00  0.00     0.135 A 
ATOM     58  C   UNL     1       8.145  12.447  -2.433  1.00  0.00     0.135 A 
ATOM     59  F   UNL     1       8.285  11.132  -5.824  1.00  0.00    -0.206 F 
ATOM     60  C   UNL     1      10.002  11.954  -4.452  1.00  0.00     0.059 A 
ATOM     61  C   UNL     1       9.484  12.760  -2.220  1.00  0.00     0.059 A 
ATOM     62  F   UNL     1       7.275  12.683  -1.439  1.00  0.00    -0.206 F 
ATOM     63  C   UNL     1      10.408  12.496  -3.231  1.00  0.00     0.060 A 
BRANCH  63  64
ATOM     64  S   UNL     1      12.159  12.857  -2.984  1.00  0.00     0.124 S 
ATOM     65  O   UNL     1      12.708  11.517  -2.799  1.00  0.00    -0.237 OA
ATOM     66  O   UNL     1      12.522  13.523  -4.231  1.00  0.00    -0.237 OA
ATOM     67  O   UNL     1      12.168  13.707  -1.797  1.00  0.00    -0.744 OA
ENDBRANCH  63  64
ENDBRANCH  42  56
BRANCH  43  68
ATOM     68  C   UNL     1      -1.904   9.470  -4.896  1.00  0.00     0.058 A 
ATOM     69  C   UNL     1      -2.584   9.709  -6.099  1.00  0.00     0.135 A 
ATOM     70  C   UNL     1      -2.624   8.884  -3.843  1.00  0.00     0.135 A 
ATOM     71  F   UNL     1      -1.942  10.278  -7.131  1.00  0.00    -0.206 F 
ATOM     72  C   UNL     1      -3.930   9.390  -6.251  1.00  0.00     0.059 A 
ATOM     73  C   UNL     1      -3.964   8.535  -3.978  1.00  0.00     0.059 A 
ATOM     74  F   UNL     1      -2.016   8.628  -2.674  1.00  0.00    -0.206 F 
ATOM     75  C   UNL     1      -4.611   8.801  -5.184  1.00  0.00     0.060 A 
BRANCH  75  76
ATOM     76  S   UNL     1      -6.344   8.344  -5.407  1.00  0.00     0.124 S 
ATOM     77  O   UNL     1      -7.001   9.644  -5.342  1.00  0.00    -0.237 OA
ATOM     78  O   UNL     1      -6.327   7.702  -6.717  1.00  0.00    -0.237 OA
ATOM     79  O   UNL     1      -6.601   7.449  -4.282  1.00  0.00    -0.744 OA
ENDBRANCH  75  76
ENDBRANCH  43  68
BRANCH  55  80
ATOM     80  C   UNL     1       1.536  15.532  -4.539  1.00  0.00     0.058 A 
ATOM     81  C   UNL     1       0.866  16.171  -3.485  1.00  0.00     0.135 A 
ATOM     82  C   UNL     1       1.841  16.293  -5.680  1.00  0.00     0.135 A 
ATOM     83  F   UNL     1       0.545  15.488  -2.375  1.00  0.00    -0.206 F 
ATOM     84  C   UNL     1       0.497  17.511  -3.564  1.00  0.00     0.059 A 
ATOM     85  C   UNL     1       1.503  17.640  -5.771  1.00  0.00     0.059 A 
ATOM     86  F   UNL     1       2.490  15.733  -6.712  1.00  0.00    -0.206 F 
ATOM     87  C   UNL     1       0.822  18.238  -4.712  1.00  0.00     0.060 A 
BRANCH  87  88
ATOM     88  S   UNL     1       0.376  19.986  -4.788  1.00  0.00     0.124 S 
ATOM     89  O   UNL     1      -1.058  19.913  -5.042  1.00  0.00    -0.237 OA
ATOM     90  O   UNL     1       0.762  20.467  -3.464  1.00  0.00    -0.237 OA
ATOM     91  O   UNL     1       1.185  20.495  -5.891  1.00  0.00    -0.744 OA
ENDBRANCH  87  88
ENDBRANCH  55  80
ENDBRANCH  29  30
ENDBRANCH  22  24
ENDBRANCH  21  22
ENDBRANCH  20  21
ENDBRANCH  19  20
ENDBRANCH   1  19
TORSDOF 20
