REMARK SMILES CCn1cc(C[N@@H+]2CCC[C@H]2C(=O)OCCOCCOC(=O)c2ccc(-c3c4nc(c(-c5c(F)cc(S(=O)(=O)[O-])cc5F)c5ccc([nH]5)c(-c5c(F)cc(S(=O)(=O)[O-])cc5F)c5nc(c(-c6c(F)cc(S(=O)(=O)[O-])cc6F)c6ccc3[nH]6)C=C5)C=C4)cc2)c(C)n1
REMARK SMILES IDX 17 1 16 2 15 3 14 4 12 5 13 6 11 7 7 8 8 9 9 11 10 12 6 13
REMARK SMILES IDX 5 14 3 15 4 16 91 17 89 18 90 19 2 20 1 21 18 22 19 23 20 24
REMARK SMILES IDX 21 25 22 26 23 27 24 28 88 29 25 30 87 31 26 32 27 33 28 34
REMARK SMILES IDX 81 35 29 36 86 37 80 38 82 39 30 40 85 41 79 42 78 43 31 45
REMARK SMILES IDX 65 46 44 47 64 48 45 49 48 50 63 51 83 52 46 53 47 54 62 56
REMARK SMILES IDX 84 57 49 58 32 59 33 60 42 61 34 62 35 63 41 64 43 65 36 66
REMARK SMILES IDX 37 67 38 68 39 69 40 70 66 71 67 72 76 73 68 74 69 75 75 76
REMARK SMILES IDX 77 77 70 78 71 79 72 80 73 81 74 82 50 83 51 84 60 85 52 86
REMARK SMILES IDX 53 87 59 88 61 89 54 90 55 91 56 92 57 93 58 94
REMARK H PARENT 7 10 82 44 48 55
REMARK Flexibility Score: inf
ROOT
ATOM      1  O   UNL     1      -0.697   0.532  10.012  1.00  0.00    -0.374 OA
ENDROOT
BRANCH   1   2
ATOM      2  C   UNL     1      -1.976   0.921   9.511  1.00  0.00     0.202 C 
BRANCH   2   3
ATOM      3  C   UNL     1      -1.994   1.585   8.129  1.00  0.00     0.261 C 
BRANCH   3   4
ATOM      4  O   UNL     1      -1.676   0.644   7.089  1.00  0.00    -0.459 OA
BRANCH   4   5
ATOM      5  C   UNL     1      -0.484   0.797   6.444  1.00  0.00     0.365 C 
ATOM      6  O   UNL     1       0.248   1.774   6.564  1.00  0.00    -0.245 OA
BRANCH   5   7
ATOM      7  C   UNL     1      -0.150  -0.422   5.551  1.00  0.00     0.295 C 
ATOM      8  N   UNL     1       1.156  -1.013   5.960  1.00  0.00    -0.319 N 
ATOM      9  C   UNL     1       0.937  -2.388   6.392  1.00  0.00     0.263 C 
ATOM     10  H   UNL     1       1.499  -0.462   6.746  1.00  0.00     0.349 HD
ATOM     11  C   UNL     1      -0.338  -2.841   5.720  1.00  0.00     0.068 C 
ATOM     12  C   UNL     1      -1.162  -1.575   5.601  1.00  0.00     0.083 C 
BRANCH   8  13
ATOM     13  C   UNL     1       2.259  -0.858   5.006  1.00  0.00     0.303 C 
BRANCH  13  14
ATOM     14  C   UNL     1       1.971  -1.425   3.653  1.00  0.00     0.047 A 
ATOM     15  N   UNL     1       1.296  -1.591   1.565  1.00  0.00    -0.272 N 
ATOM     16  C   UNL     1       1.499  -0.704   2.574  1.00  0.00     0.118 A 
ATOM     17  N   UNL     1       1.680  -2.837   1.874  1.00  0.00    -0.178 NA
ATOM     18  C   UNL     1       2.103  -2.754   3.142  1.00  0.00     0.068 A 
ATOM     19  C   UNL     1       2.581  -3.995   3.809  1.00  0.00     0.069 C 
BRANCH  15  20
ATOM     20  C   UNL     1       0.664  -1.336   0.286  1.00  0.00     0.141 C 
ATOM     21  C   UNL     1       1.055  -0.006  -0.335  1.00  0.00     0.029 C 
ENDBRANCH  15  20
ENDBRANCH  13  14
ENDBRANCH   8  13
ENDBRANCH   5   7
ENDBRANCH   4   5
ENDBRANCH   3   4
ENDBRANCH   2   3
ENDBRANCH   1   2
BRANCH   1  22
ATOM     22  C   UNL     1      -0.089  -0.627   9.451  1.00  0.00     0.202 C 
BRANCH  22  23
ATOM     23  C   UNL     1      -0.659  -1.974   9.869  1.00  0.00     0.261 C 
BRANCH  23  24
ATOM     24  O   UNL     1      -1.948  -2.203   9.310  1.00  0.00    -0.460 OA
BRANCH  24  25
ATOM     25  C   UNL     1      -2.950  -2.178  10.222  1.00  0.00     0.338 C 
ATOM     26  O   UNL     1      -2.944  -1.615  11.298  1.00  0.00    -0.246 OA
BRANCH  25  27
ATOM     27  C   UNL     1      -3.993  -3.115   9.783  1.00  0.00     0.060 A 
ATOM     28  C   UNL     1      -5.036  -3.345  10.679  1.00  0.00     0.016 A 
ATOM     29  C   UNL     1      -3.812  -3.910   8.639  1.00  0.00     0.016 A 
ATOM     30  C   UNL     1      -5.796  -4.484  10.519  1.00  0.00     0.010 A 
ATOM     31  C   UNL     1      -4.571  -5.049   8.482  1.00  0.00     0.010 A 
ATOM     32  C   UNL     1      -5.508  -5.360   9.461  1.00  0.00    -0.014 A 
BRANCH  32  33
ATOM     33  C   UNL     1      -6.367  -6.516   9.291  1.00  0.00     0.031 A 
ATOM     34  C   UNL     1      -7.733  -6.099   8.907  1.00  0.00     0.074 A 
ATOM     35  C   UNL     1      -5.957  -7.795   9.409  1.00  0.00     0.049 A 
ATOM     36  N   UNL     1      -8.754  -6.014   9.691  1.00  0.00    -0.248 NA
ATOM     37  C   UNL     1      -7.938  -5.457   7.597  1.00  0.00     0.031 C 
ATOM     38  C   UNL     1      -4.584  -8.290   9.546  1.00  0.00     0.029 A 
ATOM     39  N   UNL     1      -6.691  -8.945   9.368  1.00  0.00    -0.354 N 
ATOM     40  C   UNL     1      -9.804  -5.601   8.882  1.00  0.00     0.074 A 
ATOM     41  C   UNL     1      -9.204  -5.045   7.701  1.00  0.00     0.031 C 
ATOM     42  C   UNL     1      -4.565  -9.631   9.348  1.00  0.00     0.029 A 
ATOM     43  C   UNL     1      -5.933 -10.108   9.232  1.00  0.00     0.049 A 
ATOM     44  H   UNL     1      -7.673  -8.953   9.429  1.00  0.00     0.167 HD
ATOM     45  C   UNL     1     -11.057  -6.075   9.117  1.00  0.00     0.037 A 
ATOM     46  C   UNL     1      -6.408 -11.367   9.039  1.00  0.00     0.037 A 
ATOM     47  C   UNL     1     -11.120  -6.707  10.411  1.00  0.00     0.049 A 
ATOM     48  C   UNL     1      -7.795 -11.389   9.562  1.00  0.00     0.074 A 
ATOM     49  C   UNL     1     -11.181  -6.298  11.725  1.00  0.00     0.029 A 
ATOM     50  N   UNL     1     -10.685  -8.008  10.405  1.00  0.00    -0.354 N 
ATOM     51  N   UNL     1      -8.076 -11.246  10.828  1.00  0.00    -0.248 NA
ATOM     52  C   UNL     1      -8.911 -11.172   8.647  1.00  0.00     0.031 C 
ATOM     53  C   UNL     1     -10.626  -7.360  12.499  1.00  0.00     0.029 A 
ATOM     54  C   UNL     1     -10.290  -8.412  11.650  1.00  0.00     0.049 A 
ATOM     55  H   UNL     1     -10.659  -8.579   9.603  1.00  0.00     0.167 HD
ATOM     56  C   UNL     1      -9.246 -10.512  10.839  1.00  0.00     0.074 A 
ATOM     57  C   UNL     1      -9.798 -10.644   9.495  1.00  0.00     0.031 C 
ATOM     58  C   UNL     1      -9.485  -9.601  11.824  1.00  0.00     0.037 A 
BRANCH  45  59
ATOM     59  C   UNL     1     -12.050  -6.441   8.034  1.00  0.00     0.058 A 
ATOM     60  C   UNL     1     -13.355  -6.824   8.410  1.00  0.00     0.135 A 
ATOM     61  C   UNL     1     -11.698  -6.724   6.696  1.00  0.00     0.135 A 
ATOM     62  F   UNL     1     -13.795  -6.616   9.662  1.00  0.00    -0.206 F 
ATOM     63  C   UNL     1     -14.221  -7.487   7.538  1.00  0.00     0.059 A 
ATOM     64  C   UNL     1     -12.561  -7.339   5.798  1.00  0.00     0.059 A 
ATOM     65  F   UNL     1     -10.469  -6.509   6.214  1.00  0.00    -0.206 F 
ATOM     66  C   UNL     1     -13.809  -7.747   6.235  1.00  0.00     0.060 A 
BRANCH  66  67
ATOM     67  S   UNL     1     -14.899  -8.651   5.122  1.00  0.00     0.124 S 
ATOM     68  O   UNL     1     -14.915  -9.974   5.734  1.00  0.00    -0.237 OA
ATOM     69  O   UNL     1     -16.134  -7.881   5.223  1.00  0.00    -0.237 OA
ATOM     70  O   UNL     1     -14.214  -8.558   3.835  1.00  0.00    -0.744 OA
ENDBRANCH  66  67
ENDBRANCH  45  59
BRANCH  46  71
ATOM     71  C   UNL     1      -5.863 -12.476   8.210  1.00  0.00     0.058 A 
ATOM     72  C   UNL     1      -6.314 -13.803   8.354  1.00  0.00     0.135 A 
ATOM     73  C   UNL     1      -5.121 -12.198   7.047  1.00  0.00     0.135 A 
ATOM     74  F   UNL     1      -7.044 -14.155   9.424  1.00  0.00    -0.206 F 
ATOM     75  C   UNL     1      -6.090 -14.782   7.376  1.00  0.00     0.059 A 
ATOM     76  C   UNL     1      -4.886 -13.156   6.058  1.00  0.00     0.059 A 
ATOM     77  F   UNL     1      -4.687 -10.954   6.794  1.00  0.00    -0.206 F 
ATOM     78  C   UNL     1      -5.395 -14.441   6.217  1.00  0.00     0.060 A 
BRANCH  78  79
ATOM     79  S   UNL     1      -5.259 -15.645   4.870  1.00  0.00     0.124 S 
ATOM     80  O   UNL     1      -4.352 -16.635   5.439  1.00  0.00    -0.237 OA
ATOM     81  O   UNL     1      -6.643 -16.075   4.696  1.00  0.00    -0.237 OA
ATOM     82  O   UNL     1      -4.712 -14.859   3.767  1.00  0.00    -0.744 OA
ENDBRANCH  78  79
ENDBRANCH  46  71
BRANCH  58  83
ATOM     83  C   UNL     1      -8.778  -9.793  13.132  1.00  0.00     0.058 A 
ATOM     84  C   UNL     1      -7.401  -9.617  13.344  1.00  0.00     0.135 A 
ATOM     85  C   UNL     1      -9.571 -10.100  14.246  1.00  0.00     0.135 A 
ATOM     86  F   UNL     1      -6.590  -9.249  12.341  1.00  0.00    -0.206 F 
ATOM     87  C   UNL     1      -6.835  -9.772  14.612  1.00  0.00     0.059 A 
ATOM     88  C   UNL     1      -9.035 -10.230  15.520  1.00  0.00     0.059 A 
ATOM     89  F   UNL     1     -10.901 -10.237  14.108  1.00  0.00    -0.206 F 
ATOM     90  C   UNL     1      -7.662 -10.079  15.694  1.00  0.00     0.060 A 
BRANCH  90  91
ATOM     91  S   UNL     1      -6.946 -10.227  17.345  1.00  0.00     0.124 S 
ATOM     92  O   UNL     1      -6.189 -11.470  17.241  1.00  0.00    -0.237 OA
ATOM     93  O   UNL     1      -6.152  -9.007  17.456  1.00  0.00    -0.237 OA
ATOM     94  O   UNL     1      -8.115 -10.281  18.220  1.00  0.00    -0.744 OA
ENDBRANCH  90  91
ENDBRANCH  58  83
ENDBRANCH  32  33
ENDBRANCH  25  27
ENDBRANCH  24  25
ENDBRANCH  23  24
ENDBRANCH  22  23
ENDBRANCH   1  22
TORSDOF 20
