REMARK SMILES COC(=O)c1ccc(-c2ccc(C(=O)OCCOCCOC(=O)c3ccc(-c4c5nc(c(-c6c(F)cc(S(=O)(=O)[O-])cc6F)c6ccc([nH]6)c(-c6c(F)cc(S(=O)(=O)[O-])cc6F)c6nc(c(-c7c(F)cc(S(=O)(=O)[O-])cc7F)c7ccc4[nH]7)C=C6)C=C5)cc3)cc2O)cc1F
REMARK SMILES IDX 18 1 17 2 16 3 15 4 13 5 14 6 12 7 9 8 10 9 91 10 11 11
REMARK SMILES IDX 90 12 8 13 5 14 6 15 94 16 7 17 93 18 95 19 3 20 4 21 2 22
REMARK SMILES IDX 1 23 92 24 19 26 20 27 21 28 22 29 23 30 24 31 25 32 89 33
REMARK SMILES IDX 26 34 88 35 27 36 28 37 29 38 82 39 30 40 87 41 81 42 83 43
REMARK SMILES IDX 31 44 86 45 80 46 79 47 32 49 66 50 45 51 65 52 46 53 49 54
REMARK SMILES IDX 64 55 84 56 47 57 48 58 63 60 85 61 50 62 33 63 34 64 43 65
REMARK SMILES IDX 35 66 36 67 42 68 44 69 37 70 38 71 39 72 40 73 41 74 67 75
REMARK SMILES IDX 68 76 77 77 69 78 70 79 76 80 78 81 71 82 72 83 73 84 74 85
REMARK SMILES IDX 75 86 51 87 52 88 61 89 53 90 54 91 60 92 62 93 55 94 56 95
REMARK SMILES IDX 57 96 58 97 59 98
REMARK H PARENT 92 25 83 48 49 59
REMARK Flexibility Score: inf
ROOT
ATOM      1  O   UNL     1      -1.842   1.503 -14.075  1.00  0.00    -0.374 OA
ENDROOT
BRANCH   1   2
ATOM      2  C   UNL     1      -3.210   1.913 -14.095  1.00  0.00     0.202 C 
BRANCH   2   3
ATOM      3  C   UNL     1      -4.149   1.166 -13.143  1.00  0.00     0.261 C 
BRANCH   3   4
ATOM      4  O   UNL     1      -3.774   1.380 -11.771  1.00  0.00    -0.460 OA
BRANCH   4   5
ATOM      5  C   UNL     1      -3.252   0.298 -11.149  1.00  0.00     0.338 C 
ATOM      6  O   UNL     1      -3.198  -0.844 -11.581  1.00  0.00    -0.246 OA
BRANCH   5   7
ATOM      7  C   UNL     1      -2.583   0.699  -9.891  1.00  0.00     0.063 A 
ATOM      8  C   UNL     1      -1.299   1.225  -7.441  1.00  0.00     0.024 A 
ATOM      9  C   UNL     1      -0.813   0.231  -8.305  1.00  0.00     0.013 A 
ATOM     10  C   UNL     1      -2.397   1.998  -7.870  1.00  0.00     0.124 A 
ATOM     11  C   UNL     1      -1.453  -0.036  -9.514  1.00  0.00     0.016 A 
ATOM     12  C   UNL     1      -3.037   1.749  -9.088  1.00  0.00     0.062 A 
BRANCH   8  13
ATOM     13  C   UNL     1      -0.731   1.328  -6.087  1.00  0.00    -0.012 A 
ATOM     14  C   UNL     1       0.346   1.285  -3.481  1.00  0.00     0.095 A 
ATOM     15  C   UNL     1       1.149   1.653  -4.569  1.00  0.00     0.019 A 
ATOM     16  C   UNL     1      -0.995   0.978  -3.694  1.00  0.00     0.138 A 
ATOM     17  C   UNL     1       0.614   1.666  -5.864  1.00  0.00     0.010 A 
ATOM     18  C   UNL     1      -1.528   0.997  -4.979  1.00  0.00     0.049 A 
ATOM     19  F   UNL     1      -1.811   0.661  -2.678  1.00  0.00    -0.206 F 
BRANCH  14  20
ATOM     20  C   UNL     1       0.948   1.240  -2.135  1.00  0.00     0.340 C 
ATOM     21  O   UNL     1       1.875   1.957  -1.788  1.00  0.00    -0.246 OA
BRANCH  20  22
ATOM     22  O   UNL     1       0.388   0.247  -1.404  1.00  0.00    -0.465 OA
ATOM     23  C   UNL     1       0.904   0.120  -0.081  1.00  0.00     0.282 C 
ENDBRANCH  20  22
ENDBRANCH  14  20
ENDBRANCH   8  13
BRANCH  10  24
ATOM     24  O   UNL     1      -2.856   2.999  -7.054  1.00  0.00    -0.507 OA
ATOM     25  H   UNL     1      -2.430   3.170  -6.237  1.00  0.00     0.293 HD
ENDBRANCH  10  24
ENDBRANCH   5   7
ENDBRANCH   4   5
ENDBRANCH   3   4
ENDBRANCH   2   3
ENDBRANCH   1   2
BRANCH   1  26
ATOM     26  C   UNL     1      -1.019   2.049 -13.042  1.00  0.00     0.202 C 
BRANCH  26  27
ATOM     27  C   UNL     1      -0.500   3.474 -13.266  1.00  0.00     0.261 C 
BRANCH  27  28
ATOM     28  O   UNL     1      -1.561   4.446 -13.219  1.00  0.00    -0.460 OA
BRANCH  28  29
ATOM     29  C   UNL     1      -1.865   5.011 -14.412  1.00  0.00     0.338 C 
ATOM     30  O   UNL     1      -1.287   4.840 -15.476  1.00  0.00    -0.246 OA
BRANCH  29  31
ATOM     31  C   UNL     1      -3.136   5.753 -14.311  1.00  0.00     0.060 A 
ATOM     32  C   UNL     1      -4.120   5.481 -15.270  1.00  0.00     0.016 A 
ATOM     33  C   UNL     1      -3.344   6.738 -13.342  1.00  0.00     0.016 A 
ATOM     34  C   UNL     1      -5.295   6.228 -15.296  1.00  0.00     0.010 A 
ATOM     35  C   UNL     1      -4.522   7.492 -13.375  1.00  0.00     0.010 A 
ATOM     36  C   UNL     1      -5.488   7.263 -14.372  1.00  0.00    -0.014 A 
BRANCH  36  37
ATOM     37  C   UNL     1      -6.640   8.184 -14.533  1.00  0.00     0.031 A 
ATOM     38  C   UNL     1      -6.418   9.527 -15.175  1.00  0.00     0.074 A 
ATOM     39  C   UNL     1      -7.872   7.817 -14.136  1.00  0.00     0.049 A 
ATOM     40  N   UNL     1      -7.272  10.496 -15.378  1.00  0.00    -0.248 NA
ATOM     41  C   UNL     1      -5.056   9.816 -15.652  1.00  0.00     0.031 C 
ATOM     42  C   UNL     1      -8.215   6.529 -13.534  1.00  0.00     0.029 A 
ATOM     43  N   UNL     1      -9.063   8.498 -14.176  1.00  0.00    -0.354 N 
ATOM     44  C   UNL     1      -6.552  11.511 -15.997  1.00  0.00     0.074 A 
ATOM     45  C   UNL     1      -5.186  11.051 -16.117  1.00  0.00     0.031 C 
ATOM     46  C   UNL     1      -9.528   6.518 -13.248  1.00  0.00     0.029 A 
ATOM     47  C   UNL     1     -10.112   7.807 -13.618  1.00  0.00     0.049 A 
ATOM     48  H   UNL     1      -9.157   9.397 -14.566  1.00  0.00     0.167 HD
ATOM     49  C   UNL     1      -6.995  12.713 -16.433  1.00  0.00     0.037 A 
ATOM     50  C   UNL     1     -11.391   8.179 -13.409  1.00  0.00     0.037 A 
ATOM     51  C   UNL     1      -8.360  13.159 -16.328  1.00  0.00     0.049 A 
ATOM     52  C   UNL     1     -11.848   9.543 -13.857  1.00  0.00     0.074 A 
ATOM     53  C   UNL     1      -8.909  14.348 -16.774  1.00  0.00     0.029 A 
ATOM     54  N   UNL     1      -9.386  12.441 -15.734  1.00  0.00    -0.354 N 
ATOM     55  N   UNL     1     -11.161  10.483 -14.461  1.00  0.00    -0.248 NA
ATOM     56  C   UNL     1     -13.251   9.898 -13.597  1.00  0.00     0.031 C 
ATOM     57  C   UNL     1     -10.258  14.370 -16.407  1.00  0.00     0.029 A 
ATOM     58  C   UNL     1     -10.560  13.173 -15.778  1.00  0.00     0.049 A 
ATOM     59  H   UNL     1      -9.294  11.543 -15.340  1.00  0.00     0.167 HD
ATOM     60  C   UNL     1     -12.051  11.531 -14.669  1.00  0.00     0.074 A 
ATOM     61  C   UNL     1     -13.330  11.107 -14.138  1.00  0.00     0.031 C 
ATOM     62  C   UNL     1     -11.828  12.737 -15.248  1.00  0.00     0.037 A 
BRANCH  49  63
ATOM     63  C   UNL     1      -6.001  13.648 -17.062  1.00  0.00     0.058 A 
ATOM     64  C   UNL     1      -5.604  14.815 -16.391  1.00  0.00     0.135 A 
ATOM     65  C   UNL     1      -5.513  13.439 -18.361  1.00  0.00     0.135 A 
ATOM     66  F   UNL     1      -6.034  15.057 -15.142  1.00  0.00    -0.206 F 
ATOM     67  C   UNL     1      -4.778  15.756 -16.996  1.00  0.00     0.059 A 
ATOM     68  C   UNL     1      -4.668  14.357 -18.978  1.00  0.00     0.059 A 
ATOM     69  F   UNL     1      -5.845  12.327 -19.036  1.00  0.00    -0.206 F 
ATOM     70  C   UNL     1      -4.322  15.522 -18.294  1.00  0.00     0.060 A 
BRANCH  70  71
ATOM     71  S   UNL     1      -3.252  16.755 -19.064  1.00  0.00     0.124 S 
ATOM     72  O   UNL     1      -4.176  17.863 -19.279  1.00  0.00    -0.237 OA
ATOM     73  O   UNL     1      -2.236  16.963 -18.037  1.00  0.00    -0.237 OA
ATOM     74  O   UNL     1      -2.780  16.085 -20.273  1.00  0.00    -0.744 OA
ENDBRANCH  70  71
ENDBRANCH  49  63
BRANCH  50  75
ATOM     75  C   UNL     1     -12.327   7.247 -12.725  1.00  0.00     0.058 A 
ATOM     76  C   UNL     1     -12.174   6.941 -11.363  1.00  0.00     0.135 A 
ATOM     77  C   UNL     1     -13.376   6.628 -13.420  1.00  0.00     0.135 A 
ATOM     78  F   UNL     1     -11.183   7.503 -10.653  1.00  0.00    -0.206 F 
ATOM     79  C   UNL     1     -13.011   6.036 -10.722  1.00  0.00     0.059 A 
ATOM     80  C   UNL     1     -14.242   5.736 -12.793  1.00  0.00     0.059 A 
ATOM     81  F   UNL     1     -13.572   6.902 -14.719  1.00  0.00    -0.206 F 
ATOM     82  C   UNL     1     -14.039   5.434 -11.447  1.00  0.00     0.060 A 
BRANCH  82  83
ATOM     83  S   UNL     1     -15.104   4.248 -10.598  1.00  0.00     0.124 S 
ATOM     84  O   UNL     1     -14.194   3.123 -10.414  1.00  0.00    -0.237 OA
ATOM     85  O   UNL     1     -15.468   4.976  -9.387  1.00  0.00    -0.237 OA
ATOM     86  O   UNL     1     -16.191   4.030 -11.547  1.00  0.00    -0.744 OA
ENDBRANCH  82  83
ENDBRANCH  50  75
BRANCH  62  87
ATOM     87  C   UNL     1     -12.986  13.690 -15.359  1.00  0.00     0.058 A 
ATOM     88  C   UNL     1     -13.557  13.974 -16.610  1.00  0.00     0.135 A 
ATOM     89  C   UNL     1     -13.468  14.392 -14.243  1.00  0.00     0.135 A 
ATOM     90  F   UNL     1     -13.128  13.335 -17.710  1.00  0.00    -0.206 F 
ATOM     91  C   UNL     1     -14.550  14.936 -16.755  1.00  0.00     0.059 A 
ATOM     92  C   UNL     1     -14.479  15.341 -14.361  1.00  0.00     0.059 A 
ATOM     93  F   UNL     1     -12.963  14.149 -13.024  1.00  0.00    -0.206 F 
ATOM     94  C   UNL     1     -15.000  15.620 -15.625  1.00  0.00     0.060 A 
BRANCH  94  95
ATOM     95  S   UNL     1     -16.291  16.865 -15.830  1.00  0.00     0.124 S 
ATOM     96  O   UNL     1     -15.568  17.938 -16.503  1.00  0.00    -0.237 OA
ATOM     97  O   UNL     1     -17.277  16.157 -16.642  1.00  0.00    -0.237 OA
ATOM     98  O   UNL     1     -16.708  17.151 -14.460  1.00  0.00    -0.744 OA
ENDBRANCH  94  95
ENDBRANCH  62  87
ENDBRANCH  36  37
ENDBRANCH  29  31
ENDBRANCH  28  29
ENDBRANCH  27  28
ENDBRANCH  26  27
ENDBRANCH   1  26
TORSDOF 21
