REMARK SMILES CC[C@@](C)([NH2+]CC(=O)N[C@@H](C)c1ccc(F)cc1)C(=O)OCCOCCOC(=O)c1ccc(-c2c3nc(c(-c4c(F)cc(S(=O)(=O)[O-])cc4F)c4ccc([nH]4)c(-c4c(F)cc(S(=O)(=O)[O-])cc4F)c4nc(c(-c5c(F)cc(S(=O)(=O)[O-])cc5F)c5ccc2[nH]5)C=C4)C=C3)cc1
REMARK SMILES IDX 23 1 22 2 21 3 19 4 20 5 3 6 4 7 2 8 1 9 5 10 6 13 7 14 8 15
REMARK SMILES IDX 9 16 10 18 11 19 12 20 13 21 18 22 14 23 17 24 15 25 16 26
REMARK SMILES IDX 24 27 25 28 26 29 27 30 28 31 29 32 30 33 31 34 95 35 32 36
REMARK SMILES IDX 94 37 33 38 34 39 35 40 88 41 36 42 93 43 87 44 89 45 37 46
REMARK SMILES IDX 92 47 86 48 85 49 38 51 72 52 51 53 71 54 52 55 55 56 70 57
REMARK SMILES IDX 90 58 53 59 54 60 69 62 91 63 56 64 39 65 40 66 49 67 41 68
REMARK SMILES IDX 42 69 48 70 50 71 43 72 44 73 45 74 46 75 47 76 73 77 74 78
REMARK SMILES IDX 83 79 75 80 76 81 82 82 84 83 77 84 78 85 79 86 80 87 81 88
REMARK SMILES IDX 57 89 58 90 67 91 59 92 60 93 66 94 68 95 61 96 62 97 63 98
REMARK SMILES IDX 64 99 65 100
REMARK H PARENT 5 11 5 12 9 17 89 50 55 61
REMARK Flexibility Score: inf
ROOT
ATOM      1  C   UNL     1       5.239   2.797  -0.393  1.00  0.00     0.202 C 
ENDROOT
BRANCH   1   2
ATOM      2  C   UNL     1       4.308   1.767  -1.048  1.00  0.00     0.261 C 
BRANCH   2   3
ATOM      3  O   UNL     1       2.963   2.263  -1.016  1.00  0.00    -0.459 OA
BRANCH   3   4
ATOM      4  C   UNL     1       1.922   1.385  -1.027  1.00  0.00     0.367 C 
ATOM      5  O   UNL     1       2.051   0.170  -1.113  1.00  0.00    -0.245 OA
BRANCH   4   6
ATOM      6  C   UNL     1       0.551   2.129  -0.907  1.00  0.00     0.191 C 
ATOM      7  C   UNL     1      -0.635   1.463  -1.621  1.00  0.00     0.092 C 
BRANCH   6   8
ATOM      8  C   UNL     1       0.206   2.095   0.618  1.00  0.00     0.077 C 
ATOM      9  C   UNL     1       0.214   0.683   1.229  1.00  0.00     0.011 C 
ENDBRANCH   6   8
BRANCH   6  10
ATOM     10  N   UNL     1       0.620   3.544  -1.389  1.00  0.00    -0.325 N 
ATOM     11  H   UNL     1       1.133   4.077  -0.687  1.00  0.00     0.347 HD
ATOM     12  H   UNL     1      -0.355   3.808  -1.530  1.00  0.00     0.347 HD
BRANCH  10  13
ATOM     13  C   UNL     1       1.266   3.818  -2.708  1.00  0.00     0.362 C 
BRANCH  13  14
ATOM     14  C   UNL     1       0.508   3.352  -3.964  1.00  0.00     0.275 C 
ATOM     15  O   UNL     1      -0.527   3.922  -4.320  1.00  0.00    -0.268 OA
ATOM     16  N   UNL     1       0.987   2.311  -4.728  1.00  0.00    -0.345 N 
ATOM     17  H   UNL     1       0.777   2.345  -5.690  1.00  0.00     0.164 HD
BRANCH  16  18
ATOM     18  C   UNL     1       1.769   1.163  -4.280  1.00  0.00     0.109 C 
ATOM     19  C   UNL     1       0.897  -0.104  -4.288  1.00  0.00     0.036 C 
BRANCH  18  20
ATOM     20  C   UNL     1       3.141   0.981  -4.908  1.00  0.00    -0.026 A 
ATOM     21  C   UNL     1       3.925   2.088  -5.271  1.00  0.00     0.009 A 
ATOM     22  C   UNL     1       3.743  -0.296  -4.954  1.00  0.00     0.009 A 
ATOM     23  C   UNL     1       5.260   1.922  -5.654  1.00  0.00     0.039 A 
ATOM     24  C   UNL     1       5.073  -0.462  -5.338  1.00  0.00     0.039 A 
ATOM     25  C   UNL     1       5.823   0.652  -5.676  1.00  0.00     0.123 A 
ATOM     26  F   UNL     1       7.114   0.499  -5.996  1.00  0.00    -0.207 F 
ENDBRANCH  18  20
ENDBRANCH  16  18
ENDBRANCH  13  14
ENDBRANCH  10  13
ENDBRANCH   6  10
ENDBRANCH   4   6
ENDBRANCH   3   4
ENDBRANCH   2   3
ENDBRANCH   1   2
BRANCH   1  27
ATOM     27  O   UNL     1       5.028   3.035   1.002  1.00  0.00    -0.374 OA
BRANCH  27  28
ATOM     28  C   UNL     1       3.798   3.646   1.386  1.00  0.00     0.202 C 
BRANCH  28  29
ATOM     29  C   UNL     1       3.638   5.154   1.155  1.00  0.00     0.261 C 
BRANCH  29  30
ATOM     30  O   UNL     1       3.828   5.582  -0.202  1.00  0.00    -0.460 OA
BRANCH  30  31
ATOM     31  C   UNL     1       5.006   6.217  -0.421  1.00  0.00     0.338 C 
ATOM     32  O   UNL     1       5.911   6.392   0.377  1.00  0.00    -0.246 OA
BRANCH  31  33
ATOM     33  C   UNL     1       5.119   6.620  -1.834  1.00  0.00     0.060 A 
ATOM     34  C   UNL     1       6.247   6.200  -2.549  1.00  0.00     0.016 A 
ATOM     35  C   UNL     1       4.212   7.518  -2.399  1.00  0.00     0.016 A 
ATOM     36  C   UNL     1       6.500   6.717  -3.819  1.00  0.00     0.010 A 
ATOM     37  C   UNL     1       4.471   8.040  -3.670  1.00  0.00     0.010 A 
ATOM     38  C   UNL     1       5.634   7.671  -4.369  1.00  0.00    -0.014 A 
BRANCH  38  39
ATOM     39  C   UNL     1       5.995   8.388  -5.616  1.00  0.00     0.031 A 
ATOM     40  C   UNL     1       6.548   9.783  -5.526  1.00  0.00     0.074 A 
ATOM     41  C   UNL     1       5.803   7.814  -6.816  1.00  0.00     0.049 A 
ATOM     42  N   UNL     1       6.798  10.638  -6.482  1.00  0.00    -0.248 NA
ATOM     43  C   UNL     1       6.852  10.282  -4.175  1.00  0.00     0.031 C 
ATOM     44  C   UNL     1       5.317   6.452  -7.028  1.00  0.00     0.029 A 
ATOM     45  N   UNL     1       5.969   8.317  -8.082  1.00  0.00    -0.354 N 
ATOM     46  C   UNL     1       7.263  11.786  -5.851  1.00  0.00     0.074 A 
ATOM     47  C   UNL     1       7.252  11.520  -4.429  1.00  0.00     0.031 C 
ATOM     48  C   UNL     1       5.199   6.235  -8.349  1.00  0.00     0.029 A 
ATOM     49  C   UNL     1       5.557   7.457  -9.070  1.00  0.00     0.049 A 
ATOM     50  H   UNL     1       6.347   9.207  -8.264  1.00  0.00     0.167 HD
ATOM     51  C   UNL     1       7.661  12.953  -6.410  1.00  0.00     0.037 A 
ATOM     52  C   UNL     1       5.441   7.644 -10.401  1.00  0.00     0.037 A 
ATOM     53  C   UNL     1       7.678  13.202  -7.828  1.00  0.00     0.049 A 
ATOM     54  C   UNL     1       5.822   8.970 -11.001  1.00  0.00     0.074 A 
ATOM     55  C   UNL     1       8.112  14.334  -8.495  1.00  0.00     0.029 A 
ATOM     56  N   UNL     1       7.229  12.314  -8.795  1.00  0.00    -0.354 N 
ATOM     57  N   UNL     1       6.284  10.040 -10.399  1.00  0.00    -0.248 NA
ATOM     58  C   UNL     1       5.662   9.120 -12.454  1.00  0.00     0.031 C 
ATOM     59  C   UNL     1       7.873  14.152  -9.861  1.00  0.00     0.029 A 
ATOM     60  C   UNL     1       7.340  12.886 -10.051  1.00  0.00     0.049 A 
ATOM     61  H   UNL     1       6.883  11.411  -8.614  1.00  0.00     0.167 HD
ATOM     62  C   UNL     1       6.482  10.987 -11.399  1.00  0.00     0.074 A 
ATOM     63  C   UNL     1       6.094  10.361 -12.647  1.00  0.00     0.031 C 
ATOM     64  C   UNL     1       6.947  12.256 -11.289  1.00  0.00     0.037 A 
BRANCH  51  65
ATOM     65  C   UNL     1       8.072  14.066  -5.486  1.00  0.00     0.058 A 
ATOM     66  C   UNL     1       7.255  15.198  -5.337  1.00  0.00     0.135 A 
ATOM     67  C   UNL     1       9.279  14.031  -4.770  1.00  0.00     0.135 A 
ATOM     68  F   UNL     1       6.087  15.281  -5.994  1.00  0.00    -0.206 F 
ATOM     69  C   UNL     1       7.619  16.256  -4.511  1.00  0.00     0.059 A 
ATOM     70  C   UNL     1       9.652  15.068  -3.918  1.00  0.00     0.059 A 
ATOM     71  F   UNL     1      10.088  12.964  -4.862  1.00  0.00    -0.206 F 
ATOM     72  C   UNL     1       8.818  16.180  -3.802  1.00  0.00     0.060 A 
BRANCH  72  73
ATOM     73  S   UNL     1       9.241  17.529  -2.679  1.00  0.00     0.124 S 
ATOM     74  O   UNL     1       9.611  18.590  -3.608  1.00  0.00    -0.237 OA
ATOM     75  O   UNL     1       7.992  17.727  -1.950  1.00  0.00    -0.237 OA
ATOM     76  O   UNL     1      10.335  16.975  -1.885  1.00  0.00    -0.744 OA
ENDBRANCH  72  73
ENDBRANCH  51  65
BRANCH  52  77
ATOM     77  C   UNL     1       4.918   6.532 -11.236  1.00  0.00     0.058 A 
ATOM     78  C   UNL     1       3.571   6.144 -11.160  1.00  0.00     0.135 A 
ATOM     79  C   UNL     1       5.776   5.772 -12.043  1.00  0.00     0.135 A 
ATOM     80  F   UNL     1       2.712   6.838 -10.397  1.00  0.00    -0.206 F 
ATOM     81  C   UNL     1       3.104   5.008 -11.810  1.00  0.00     0.059 A 
ATOM     82  C   UNL     1       5.327   4.642 -12.721  1.00  0.00     0.059 A 
ATOM     83  F   UNL     1       7.066   6.119 -12.159  1.00  0.00    -0.206 F 
ATOM     84  C   UNL     1       3.996   4.252 -12.574  1.00  0.00     0.060 A 
BRANCH  84  85
ATOM     85  S   UNL     1       3.392   2.729 -13.332  1.00  0.00     0.124 S 
ATOM     86  O   UNL     1       3.143   1.899 -12.157  1.00  0.00    -0.237 OA
ATOM     87  O   UNL     1       2.207   3.191 -14.046  1.00  0.00    -0.237 OA
ATOM     88  O   UNL     1       4.506   2.305 -14.174  1.00  0.00    -0.744 OA
ENDBRANCH  84  85
ENDBRANCH  52  77
BRANCH  64  89
ATOM     89  C   UNL     1       7.079  13.076 -12.542  1.00  0.00     0.058 A 
ATOM     90  C   UNL     1       8.348  13.390 -13.055  1.00  0.00     0.135 A 
ATOM     91  C   UNL     1       5.960  13.660 -13.155  1.00  0.00     0.135 A 
ATOM     92  F   UNL     1       9.451  12.860 -12.502  1.00  0.00    -0.206 F 
ATOM     93  C   UNL     1       8.507  14.286 -14.107  1.00  0.00     0.059 A 
ATOM     94  C   UNL     1       6.094  14.543 -14.225  1.00  0.00     0.059 A 
ATOM     95  F   UNL     1       4.725  13.382 -12.711  1.00  0.00    -0.206 F 
ATOM     96  C   UNL     1       7.373  14.868 -14.677  1.00  0.00     0.060 A 
BRANCH  96  97
ATOM     97  S   UNL     1       7.601  16.061 -16.013  1.00  0.00     0.124 S 
ATOM     98  O   UNL     1       8.193  17.192 -15.307  1.00  0.00    -0.237 OA
ATOM     99  O   UNL     1       8.491  15.341 -16.919  1.00  0.00    -0.237 OA
ATOM    100  O   UNL     1       6.246  16.272 -16.514  1.00  0.00    -0.744 OA
ENDBRANCH  96  97
ENDBRANCH  64  89
ENDBRANCH  38  39
ENDBRANCH  31  33
ENDBRANCH  30  31
ENDBRANCH  29  30
ENDBRANCH  28  29
ENDBRANCH  27  28
ENDBRANCH   1  27
TORSDOF 23
