REMARK SMILES Cc1cc(Cl)c(C)c2c1O[C@H](C(F)(F)F)C(C(=O)OCCOCCOC(=O)c1ccc(-c3c4nc(c(-c5c(F)cc(S(=O)(=O)[O-])cc5F)c5ccc([nH]5)c(-c5c(F)cc(S(=O)(=O)[O-])cc5F)c5nc(c(-c6c(F)cc(S(=O)(=O)[O-])cc6F)c6ccc3[nH]6)C=C5)C=C4)cc1)=C2
REMARK SMILES IDX 23 1 22 2 21 3 20 4 19 5 17 6 18 7 16 8 1 9 2 10 3 11 9 12
REMARK SMILES IDX 4 13 8 14 10 15 5 16 6 17 94 18 11 19 7 20 12 21 13 22 14 23
REMARK SMILES IDX 15 24 24 25 25 26 26 27 27 28 28 29 29 30 93 31 30 32 92 33
REMARK SMILES IDX 31 34 32 35 33 36 86 37 34 38 91 39 85 40 87 41 35 42 90 43
REMARK SMILES IDX 84 44 83 45 36 47 70 48 49 49 69 50 50 51 53 52 68 53 88 54
REMARK SMILES IDX 51 55 52 56 67 58 89 59 54 60 37 61 38 62 47 63 39 64 40 65
REMARK SMILES IDX 46 66 48 67 41 68 42 69 43 70 44 71 45 72 71 73 72 74 81 75
REMARK SMILES IDX 73 76 74 77 80 78 82 79 75 80 76 81 77 82 78 83 79 84 55 85
REMARK SMILES IDX 56 86 65 87 57 88 58 89 64 90 66 91 59 92 60 93 61 94 62 95
REMARK SMILES IDX 63 96
REMARK H PARENT 87 46 53 57
REMARK Flexibility Score: inf
ROOT
ATOM      1  C   UNL     1       0.865  -7.769   1.855  1.00  0.00     0.202 C 
ENDROOT
BRANCH   1   2
ATOM      2  O   UNL     1       1.835  -8.813   1.747  1.00  0.00    -0.374 OA
BRANCH   2   3
ATOM      3  C   UNL     1       3.073  -8.645   2.436  1.00  0.00     0.202 C 
BRANCH   3   4
ATOM      4  C   UNL     1       4.110  -7.727   1.782  1.00  0.00     0.261 C 
BRANCH   4   5
ATOM      5  O   UNL     1       3.584  -6.412   1.546  1.00  0.00    -0.460 OA
BRANCH   5   6
ATOM      6  C   UNL     1       3.409  -6.102   0.242  1.00  0.00     0.338 C 
ATOM      7  O   UNL     1       3.751  -6.768  -0.724  1.00  0.00    -0.246 OA
BRANCH   6   8
ATOM      8  C   UNL     1       2.602  -4.873   0.121  1.00  0.00     0.087 C 
ATOM      9  C   UNL     1       0.970  -0.056   0.082  1.00  0.00     0.048 C 
ATOM     10  C   UNL     1       0.622  -1.301  -0.684  1.00  0.00    -0.007 A 
ATOM     11  C   UNL     1      -0.277  -1.235  -1.753  1.00  0.00     0.028 A 
ATOM     12  C   UNL     1       1.198  -2.536  -0.358  1.00  0.00     0.131 A 
ATOM     13  C   UNL     1      -0.614  -2.381  -2.480  1.00  0.00     0.045 A 
ATOM     14  C   UNL     1       0.906  -3.683  -1.114  1.00  0.00     0.022 A 
ATOM     15  O   UNL     1       2.027  -2.541   0.732  1.00  0.00    -0.475 OA
ATOM     16  Cl  UNL     1      -1.741  -2.172  -3.777  1.00  0.00    -0.084 Cl
ATOM     17  C   UNL     1      -0.040  -3.626  -2.170  1.00  0.00    -0.021 A 
ATOM     18  C   UNL     1       1.656  -4.901  -0.826  1.00  0.00     0.027 C 
ATOM     19  C   UNL     1       2.876  -3.689   0.995  1.00  0.00     0.316 C 
ATOM     20  C   UNL     1      -0.405  -4.879  -2.929  1.00  0.00     0.047 C 
BRANCH  19  21
ATOM     21  C   UNL     1       4.338  -3.225   0.938  1.00  0.00     0.430 C 
ATOM     22  F   UNL     1       4.530  -2.125   1.705  1.00  0.00    -0.167 F 
ATOM     23  F   UNL     1       5.185  -4.174   1.395  1.00  0.00    -0.167 F 
ATOM     24  F   UNL     1       4.716  -2.912  -0.322  1.00  0.00    -0.167 F 
ENDBRANCH  19  21
ENDBRANCH   6   8
ENDBRANCH   5   6
ENDBRANCH   4   5
ENDBRANCH   3   4
ENDBRANCH   2   3
ENDBRANCH   1   2
BRANCH   1  25
ATOM     25  C   UNL     1       0.147  -7.602   3.200  1.00  0.00     0.261 C 
BRANCH  25  26
ATOM     26  O   UNL     1       1.030  -7.138   4.238  1.00  0.00    -0.460 OA
BRANCH  26  27
ATOM     27  C   UNL     1       1.227  -8.018   5.250  1.00  0.00     0.338 C 
ATOM     28  O   UNL     1       0.695  -9.111   5.390  1.00  0.00    -0.246 OA
BRANCH  27  29
ATOM     29  C   UNL     1       2.340  -7.566   6.101  1.00  0.00     0.060 A 
ATOM     30  C   UNL     1       3.442  -8.420   6.240  1.00  0.00     0.016 A 
ATOM     31  C   UNL     1       2.270  -6.372   6.821  1.00  0.00     0.016 A 
ATOM     32  C   UNL     1       4.461  -8.103   7.133  1.00  0.00     0.010 A 
ATOM     33  C   UNL     1       3.289  -6.062   7.728  1.00  0.00     0.010 A 
ATOM     34  C   UNL     1       4.371  -6.942   7.912  1.00  0.00    -0.014 A 
BRANCH  34  35
ATOM     35  C   UNL     1       5.330  -6.739   9.024  1.00  0.00     0.031 A 
ATOM     36  C   UNL     1       4.921  -7.134  10.418  1.00  0.00     0.074 A 
ATOM     37  C   UNL     1       6.567  -6.266   8.787  1.00  0.00     0.049 A 
ATOM     38  N   UNL     1       5.592  -7.039  11.536  1.00  0.00    -0.248 NA
ATOM     39  C   UNL     1       3.578  -7.720  10.569  1.00  0.00     0.031 C 
ATOM     40  C   UNL     1       7.095  -5.905   7.472  1.00  0.00     0.029 A 
ATOM     41  N   UNL     1       7.607  -6.015   9.648  1.00  0.00    -0.354 N 
ATOM     42  C   UNL     1       4.762  -7.563  12.520  1.00  0.00     0.074 A 
ATOM     43  C   UNL     1       3.522  -7.937  11.876  1.00  0.00     0.031 C 
ATOM     44  C   UNL     1       8.364  -5.482   7.613  1.00  0.00     0.029 A 
ATOM     45  C   UNL     1       8.727  -5.514   9.029  1.00  0.00     0.049 A 
ATOM     46  H   UNL     1       7.555  -6.179  10.617  1.00  0.00     0.167 HD
ATOM     47  C   UNL     1       5.018  -7.732  13.839  1.00  0.00     0.037 A 
ATOM     48  C   UNL     1       9.905  -5.114   9.549  1.00  0.00     0.037 A 
ATOM     49  C   UNL     1       6.251  -7.354  14.476  1.00  0.00     0.049 A 
ATOM     50  C   UNL     1      10.126  -5.217  11.037  1.00  0.00     0.074 A 
ATOM     51  C   UNL     1       6.601  -7.472  15.810  1.00  0.00     0.029 A 
ATOM     52  N   UNL     1       7.337  -6.787  13.827  1.00  0.00    -0.354 N 
ATOM     53  N   UNL     1       9.329  -5.706  11.957  1.00  0.00    -0.248 NA
ATOM     54  C   UNL     1      11.403  -4.709  11.558  1.00  0.00     0.031 C 
ATOM     55  C   UNL     1       7.882  -6.937  15.975  1.00  0.00     0.029 A 
ATOM     56  C   UNL     1       8.349  -6.529  14.736  1.00  0.00     0.049 A 
ATOM     57  H   UNL     1       7.381  -6.595  12.862  1.00  0.00     0.167 HD
ATOM     58  C   UNL     1      10.018  -5.587  13.160  1.00  0.00     0.074 A 
ATOM     59  C   UNL     1      11.300  -4.990  12.850  1.00  0.00     0.031 C 
ATOM     60  C   UNL     1       9.624  -5.941  14.409  1.00  0.00     0.037 A 
BRANCH  47  61
ATOM     61  C   UNL     1       3.942  -8.351  14.686  1.00  0.00     0.058 A 
ATOM     62  C   UNL     1       3.651  -9.722  14.611  1.00  0.00     0.135 A 
ATOM     63  C   UNL     1       3.239  -7.581  15.627  1.00  0.00     0.135 A 
ATOM     64  F   UNL     1       4.280 -10.499  13.715  1.00  0.00    -0.206 F 
ATOM     65  C   UNL     1       2.693 -10.307  15.432  1.00  0.00     0.059 A 
ATOM     66  C   UNL     1       2.293  -8.150  16.474  1.00  0.00     0.059 A 
ATOM     67  F   UNL     1       3.476  -6.264  15.734  1.00  0.00    -0.206 F 
ATOM     68  C   UNL     1       2.023  -9.513  16.365  1.00  0.00     0.060 A 
BRANCH  68  69
ATOM     69  S   UNL     1       0.804 -10.297  17.442  1.00  0.00     0.124 S 
ATOM     70  O   UNL     1      -0.265 -10.604  16.496  1.00  0.00    -0.237 OA
ATOM     71  O   UNL     1       1.540 -11.444  17.961  1.00  0.00    -0.237 OA
ATOM     72  O   UNL     1       0.494  -9.258  18.419  1.00  0.00    -0.744 OA
ENDBRANCH  68  69
ENDBRANCH  47  61
BRANCH  48  73
ATOM     73  C   UNL     1      10.970  -4.578   8.662  1.00  0.00     0.058 A 
ATOM     74  C   UNL     1      12.158  -5.292   8.447  1.00  0.00     0.135 A 
ATOM     75  C   UNL     1      10.828  -3.339   8.017  1.00  0.00     0.135 A 
ATOM     76  F   UNL     1      12.347  -6.476   9.050  1.00  0.00    -0.206 F 
ATOM     77  C   UNL     1      13.172  -4.793   7.635  1.00  0.00     0.059 A 
ATOM     78  C   UNL     1      11.817  -2.830   7.182  1.00  0.00     0.059 A 
ATOM     79  F   UNL     1       9.707  -2.619   8.185  1.00  0.00    -0.206 F 
ATOM     80  C   UNL     1      12.991  -3.561   7.005  1.00  0.00     0.060 A 
BRANCH  80  81
ATOM     81  S   UNL     1      14.298  -2.943   5.923  1.00  0.00     0.124 S 
ATOM     82  O   UNL     1      15.337  -2.597   6.886  1.00  0.00    -0.237 OA
ATOM     83  O   UNL     1      14.569  -4.103   5.080  1.00  0.00    -0.237 OA
ATOM     84  O   UNL     1      13.667  -1.816   5.243  1.00  0.00    -0.744 OA
ENDBRANCH  80  81
ENDBRANCH  48  73
BRANCH  60  85
ATOM     85  C   UNL     1      10.591  -5.715  15.538  1.00  0.00     0.058 A 
ATOM     86  C   UNL     1      10.840  -4.430  16.044  1.00  0.00     0.135 A 
ATOM     87  C   UNL     1      11.210  -6.803  16.175  1.00  0.00     0.135 A 
ATOM     88  F   UNL     1      10.277  -3.356  15.468  1.00  0.00    -0.206 F 
ATOM     89  C   UNL     1      11.678  -4.231  17.137  1.00  0.00     0.059 A 
ATOM     90  C   UNL     1      12.031  -6.629  17.285  1.00  0.00     0.059 A 
ATOM     91  F   UNL     1      10.996  -8.054  15.736  1.00  0.00    -0.206 F 
ATOM     92  C   UNL     1      12.264  -5.337  17.755  1.00  0.00     0.060 A 
BRANCH  92  93
ATOM     93  S   UNL     1      13.305  -5.065  19.204  1.00  0.00     0.124 S 
ATOM     94  O   UNL     1      14.488  -4.454  18.607  1.00  0.00    -0.237 OA
ATOM     95  O   UNL     1      12.478  -4.180  20.019  1.00  0.00    -0.237 OA
ATOM     96  O   UNL     1      13.497  -6.407  19.744  1.00  0.00    -0.744 OA
ENDBRANCH  92  93
ENDBRANCH  60  85
ENDBRANCH  34  35
ENDBRANCH  27  29
ENDBRANCH  26  27
ENDBRANCH  25  26
ENDBRANCH   1  25
TORSDOF 18
