REMARK SMILES Cc1cccc(C(=O)Nc2cc(C(=O)OCCOCCOC(=O)c3ccc(-c4c5nc(c(-c6c(F)cc(S(=O)(=O)[O-])cc6F)c6ccc([nH]6)c(-c6c(F)cc(S(=O)(=O)[O-])cc6F)c6nc(c(-c7c(F)cc(S(=O)(=O)[O-])cc7F)c7ccc4[nH]7)C=C6)C=C5)cc3)ccc2N2CC[NH+](CC(=O)NC(C)(C)C)CC2)c1
REMARK SMILES IDX 17 1 16 2 15 3 13 4 14 5 12 6 10 7 11 8 92 9 91 10 90 11
REMARK SMILES IDX 9 12 7 13 8 14 6 16 1 17 2 18 3 19 107 20 4 21 5 22 93 23
REMARK SMILES IDX 94 24 106 25 95 26 105 27 96 28 97 30 98 31 99 32 100 33
REMARK SMILES IDX 101 35 102 36 103 37 104 38 18 39 19 40 20 41 21 42 22 43
REMARK SMILES IDX 23 44 24 45 25 46 89 47 26 48 88 49 27 50 28 51 29 52 82 53
REMARK SMILES IDX 30 54 87 55 81 56 83 57 31 58 86 59 80 60 79 61 32 63 66 64
REMARK SMILES IDX 45 65 65 66 46 67 49 68 64 69 84 70 47 71 48 72 63 74 85 75
REMARK SMILES IDX 50 76 33 77 34 78 43 79 35 80 36 81 42 82 44 83 37 84 38 85
REMARK SMILES IDX 39 86 40 87 41 88 67 89 68 90 77 91 69 92 70 93 76 94 78 95
REMARK SMILES IDX 71 96 72 97 73 98 74 99 75 100 51 101 52 102 61 103 53 104
REMARK SMILES IDX 54 105 60 106 62 107 55 108 56 109 57 110 58 111 59 112
REMARK H PARENT 9 15 96 29 100 34 83 62 49 73
REMARK Flexibility Score: inf
ROOT
ATOM      1  C   UNL     1       2.818   2.819  -4.512  1.00  0.00     0.202 C 
ENDROOT
BRANCH   1   2
ATOM      2  C   UNL     1       2.519   1.567  -3.723  1.00  0.00     0.261 C 
BRANCH   2   3
ATOM      3  O   UNL     1       2.286   1.886  -2.354  1.00  0.00    -0.460 OA
BRANCH   3   4
ATOM      4  C   UNL     1       3.217   2.500  -1.591  1.00  0.00     0.338 C 
ATOM      5  O   UNL     1       4.420   2.361  -1.534  1.00  0.00    -0.246 OA
BRANCH   4   6
ATOM      6  C   UNL     1       2.446   3.550  -0.898  1.00  0.00     0.062 A 
ATOM      7  C   UNL     1       0.297   4.454  -0.353  1.00  0.00     0.065 A 
ATOM      8  C   UNL     1       1.057   3.491  -0.963  1.00  0.00     0.044 A 
ATOM      9  C   UNL     1       0.900   5.581   0.272  1.00  0.00     0.061 A 
ATOM     10  C   UNL     1       2.304   5.631   0.318  1.00  0.00     0.029 A 
ATOM     11  C   UNL     1       3.078   4.603  -0.238  1.00  0.00     0.018 A 
BRANCH   7  12
ATOM     12  N   UNL     1      -1.084   4.198  -0.254  1.00  0.00    -0.320 N 
ATOM     13  C   UNL     1      -1.707   3.073   0.288  1.00  0.00     0.255 C 
ATOM     14  O   UNL     1      -2.941   3.034   0.276  1.00  0.00    -0.269 OA
ATOM     15  H   UNL     1      -1.681   4.895  -0.610  1.00  0.00     0.170 HD
BRANCH  13  16
ATOM     16  C   UNL     1      -0.970   1.990   1.049  1.00  0.00     0.040 A 
ATOM     17  C   UNL     1       2.398   1.256   2.656  1.00  0.00     0.044 C 
ATOM     18  C   UNL     1       0.938   1.117   2.325  1.00  0.00    -0.050 A 
ATOM     19  C   UNL     1       0.269  -0.094   2.507  1.00  0.00     0.003 A 
ATOM     20  C   UNL     1       0.279   2.163   1.666  1.00  0.00     0.017 A 
ATOM     21  C   UNL     1      -1.004  -0.271   1.964  1.00  0.00     0.001 A 
ATOM     22  C   UNL     1      -1.612   0.757   1.230  1.00  0.00     0.014 A 
ENDBRANCH  13  16
ENDBRANCH   7  12
BRANCH   9  23
ATOM     23  N   UNL     1       0.109   6.460   0.998  1.00  0.00    -0.359 N 
ATOM     24  C   UNL     1       0.465   7.827   1.402  1.00  0.00     0.178 C 
ATOM     25  C   UNL     1      -0.618   5.781   2.059  1.00  0.00     0.178 C 
ATOM     26  C   UNL     1      -0.816   8.567   1.942  1.00  0.00     0.284 C 
ATOM     27  C   UNL     1      -1.968   6.471   2.217  1.00  0.00     0.284 C 
ATOM     28  N   UNL     1      -1.813   7.819   2.760  1.00  0.00    -0.324 N 
ATOM     29  H   UNL     1      -2.677   8.354   2.664  1.00  0.00     0.348 HD
BRANCH  28  30
ATOM     30  C   UNL     1      -1.649   7.824   4.230  1.00  0.00     0.363 C 
BRANCH  30  31
ATOM     31  C   UNL     1      -0.508   6.992   4.817  1.00  0.00     0.275 C 
ATOM     32  O   UNL     1       0.628   7.485   4.866  1.00  0.00    -0.268 OA
ATOM     33  N   UNL     1      -0.628   5.722   5.303  1.00  0.00    -0.347 N 
ATOM     34  H   UNL     1       0.215   5.455   5.736  1.00  0.00     0.164 HD
BRANCH  33  35
ATOM     35  C   UNL     1      -1.616   4.600   5.395  1.00  0.00     0.032 C 
ATOM     36  C   UNL     1      -1.455   3.591   4.246  1.00  0.00     0.034 C 
ATOM     37  C   UNL     1      -1.257   3.806   6.671  1.00  0.00     0.034 C 
ATOM     38  C   UNL     1      -3.080   5.026   5.506  1.00  0.00     0.034 C 
ENDBRANCH  33  35
ENDBRANCH  30  31
ENDBRANCH  28  30
ENDBRANCH   9  23
ENDBRANCH   4   6
ENDBRANCH   3   4
ENDBRANCH   2   3
ENDBRANCH   1   2
BRANCH   1  39
ATOM     39  O   UNL     1       4.089   3.251  -4.040  1.00  0.00    -0.374 OA
BRANCH  39  40
ATOM     40  C   UNL     1       4.538   4.521  -4.443  1.00  0.00     0.202 C 
BRANCH  40  41
ATOM     41  C   UNL     1       4.895   4.526  -5.925  1.00  0.00     0.261 C 
BRANCH  41  42
ATOM     42  O   UNL     1       5.934   3.550  -6.161  1.00  0.00    -0.460 OA
BRANCH  42  43
ATOM     43  C   UNL     1       5.507   2.390  -6.739  1.00  0.00     0.338 C 
ATOM     44  O   UNL     1       4.987   2.329  -7.840  1.00  0.00    -0.246 OA
BRANCH  43  45
ATOM     45  C   UNL     1       5.679   1.238  -5.800  1.00  0.00     0.060 A 
ATOM     46  C   UNL     1       4.952   0.048  -5.992  1.00  0.00     0.016 A 
ATOM     47  C   UNL     1       6.370   1.427  -4.606  1.00  0.00     0.016 A 
ATOM     48  C   UNL     1       4.821  -0.894  -4.948  1.00  0.00     0.010 A 
ATOM     49  C   UNL     1       6.185   0.533  -3.563  1.00  0.00     0.010 A 
ATOM     50  C   UNL     1       5.386  -0.622  -3.699  1.00  0.00    -0.014 A 
BRANCH  50  51
ATOM     51  C   UNL     1       5.026  -1.263  -2.410  1.00  0.00     0.031 A 
ATOM     52  C   UNL     1       6.085  -1.488  -1.379  1.00  0.00     0.074 A 
ATOM     53  C   UNL     1       3.774  -1.055  -1.941  1.00  0.00     0.049 A 
ATOM     54  N   UNL     1       5.883  -1.595  -0.108  1.00  0.00    -0.248 NA
ATOM     55  C   UNL     1       7.486  -1.674  -1.737  1.00  0.00     0.031 C 
ATOM     56  C   UNL     1       3.471  -0.501  -0.621  1.00  0.00     0.029 A 
ATOM     57  N   UNL     1       2.524  -1.185  -2.535  1.00  0.00    -0.354 N 
ATOM     58  C   UNL     1       7.095  -1.589   0.536  1.00  0.00     0.074 A 
ATOM     59  C   UNL     1       8.057  -1.748  -0.530  1.00  0.00     0.031 C 
ATOM     60  C   UNL     1       2.150  -0.463  -0.470  1.00  0.00     0.029 A 
ATOM     61  C   UNL     1       1.535  -1.158  -1.555  1.00  0.00     0.049 A 
ATOM     62  H   UNL     1       2.363  -1.282  -3.502  1.00  0.00     0.167 HD
ATOM     63  C   UNL     1       7.142  -1.401   1.890  1.00  0.00     0.037 A 
ATOM     64  C   UNL     1       0.540  -2.060  -1.367  1.00  0.00     0.037 A 
ATOM     65  C   UNL     1       5.811  -1.582   2.533  1.00  0.00     0.049 A 
ATOM     66  C   UNL     1       0.863  -2.959  -0.176  1.00  0.00     0.074 A 
ATOM     67  C   UNL     1       5.069  -0.980   3.536  1.00  0.00     0.029 A 
ATOM     68  N   UNL     1       4.976  -2.600   2.054  1.00  0.00    -0.354 N 
ATOM     69  N   UNL     1       1.703  -2.672   0.796  1.00  0.00    -0.248 NA
ATOM     70  C   UNL     1       0.337  -4.313  -0.050  1.00  0.00     0.031 C 
ATOM     71  C   UNL     1       3.836  -1.703   3.695  1.00  0.00     0.029 A 
ATOM     72  C   UNL     1       3.794  -2.717   2.757  1.00  0.00     0.049 A 
ATOM     73  H   UNL     1       5.210  -3.176   1.291  1.00  0.00     0.167 HD
ATOM     74  C   UNL     1       1.967  -3.798   1.539  1.00  0.00     0.074 A 
ATOM     75  C   UNL     1       1.060  -4.791   0.978  1.00  0.00     0.031 C 
ATOM     76  C   UNL     1       2.941  -3.881   2.506  1.00  0.00     0.037 A 
BRANCH  63  77
ATOM     77  C   UNL     1       8.433  -1.046   2.652  1.00  0.00     0.058 A 
ATOM     78  C   UNL     1       8.496  -1.056   4.065  1.00  0.00     0.135 A 
ATOM     79  C   UNL     1       9.637  -0.608   2.042  1.00  0.00     0.135 A 
ATOM     80  F   UNL     1       7.433  -1.393   4.807  1.00  0.00    -0.206 F 
ATOM     81  C   UNL     1       9.644  -0.695   4.795  1.00  0.00     0.059 A 
ATOM     82  C   UNL     1      10.815  -0.318   2.743  1.00  0.00     0.059 A 
ATOM     83  F   UNL     1       9.721  -0.357   0.731  1.00  0.00    -0.206 F 
ATOM     84  C   UNL     1      10.808  -0.342   4.125  1.00  0.00     0.060 A 
BRANCH  84  85
ATOM     85  S   UNL     1      12.279   0.135   5.057  1.00  0.00     0.124 S 
ATOM     86  O   UNL     1      11.859   1.395   5.661  1.00  0.00    -0.237 OA
ATOM     87  O   UNL     1      12.449  -0.986   5.976  1.00  0.00    -0.237 OA
ATOM     88  O   UNL     1      13.312   0.253   4.029  1.00  0.00    -0.744 OA
ENDBRANCH  84  85
ENDBRANCH  63  77
BRANCH  64  89
ATOM     89  C   UNL     1      -0.250  -2.278  -2.616  1.00  0.00     0.058 A 
ATOM     90  C   UNL     1      -1.105  -1.194  -2.930  1.00  0.00     0.135 A 
ATOM     91  C   UNL     1       0.343  -2.953  -3.690  1.00  0.00     0.135 A 
ATOM     92  F   UNL     1      -1.776  -0.568  -1.948  1.00  0.00    -0.206 F 
ATOM     93  C   UNL     1      -1.094  -0.599  -4.189  1.00  0.00     0.059 A 
ATOM     94  C   UNL     1       0.376  -2.368  -4.959  1.00  0.00     0.059 A 
ATOM     95  F   UNL     1       1.139  -4.007  -3.458  1.00  0.00    -0.206 F 
ATOM     96  C   UNL     1      -0.267  -1.143  -5.169  1.00  0.00     0.060 A 
BRANCH  96  97
ATOM     97  S   UNL     1       0.266  -0.096  -6.559  1.00  0.00     0.124 S 
ATOM     98  O   UNL     1      -0.650  -0.506  -7.614  1.00  0.00    -0.237 OA
ATOM     99  O   UNL     1       0.084   1.260  -6.048  1.00  0.00    -0.237 OA
ATOM    100  O   UNL     1       1.660  -0.500  -6.722  1.00  0.00    -0.744 OA
ENDBRANCH  96  97
ENDBRANCH  64  89
BRANCH  76 101
ATOM    101  C   UNL     1       3.263  -5.158   3.272  1.00  0.00     0.058 A 
ATOM    102  C   UNL     1       2.291  -6.076   3.698  1.00  0.00     0.135 A 
ATOM    103  C   UNL     1       4.590  -5.462   3.670  1.00  0.00     0.135 A 
ATOM    104  F   UNL     1       0.983  -5.823   3.534  1.00  0.00    -0.206 F 
ATOM    105  C   UNL     1       2.621  -7.275   4.337  1.00  0.00     0.059 A 
ATOM    106  C   UNL     1       4.936  -6.620   4.363  1.00  0.00     0.059 A 
ATOM    107  F   UNL     1       5.619  -4.652   3.387  1.00  0.00    -0.206 F 
ATOM    108  C   UNL     1       3.949  -7.545   4.653  1.00  0.00     0.060 A 
BRANCH 108 109
ATOM    109  S   UNL     1       4.364  -9.097   5.469  1.00  0.00     0.124 S 
ATOM    110  O   UNL     1       3.374  -9.157   6.540  1.00  0.00    -0.237 OA
ATOM    111  O   UNL     1       4.179 -10.056   4.384  1.00  0.00    -0.237 OA
ATOM    112  O   UNL     1       5.742  -8.902   5.905  1.00  0.00    -0.744 OA
ENDBRANCH 108 109
ENDBRANCH  76 101
ENDBRANCH  50  51
ENDBRANCH  43  45
ENDBRANCH  42  43
ENDBRANCH  41  42
ENDBRANCH  40  41
ENDBRANCH  39  40
ENDBRANCH   1  39
TORSDOF 23
