REMARK SMILES CS(=O)(=O)c1ccc(N2N=C(C(=O)OCCOCCOC(=O)c3ccc(-c4c5nc(c(-c6c(F)cc(S(=O)(=O)[O-])cc6F)c6ccc([nH]6)c(-c6c(F)cc(S(=O)(=O)[O-])cc6F)c6nc(c(-c7c(F)cc(S(=O)(=O)[O-])cc7F)c7ccc4[nH]7)C=C6)C=C5)cc3)C[C@H]2c2ccco2)cc1
REMARK SMILES IDX 18 1 17 2 16 3 15 4 14 5 12 6 13 7 11 8 9 9 10 10 90 11
REMARK SMILES IDX 89 12 8 13 5 14 6 15 97 16 7 17 96 18 2 19 1 20 3 21 4 22
REMARK SMILES IDX 91 23 92 24 95 25 93 26 94 27 19 28 20 29 21 30 22 31 23 32
REMARK SMILES IDX 24 33 88 34 25 35 87 36 26 37 27 38 28 39 81 40 29 41 86 42
REMARK SMILES IDX 80 43 82 44 30 45 85 46 79 47 78 48 31 50 65 51 44 52 64 53
REMARK SMILES IDX 45 54 48 55 63 56 83 57 46 58 47 59 62 61 84 62 49 63 32 64
REMARK SMILES IDX 33 65 42 66 34 67 35 68 41 69 43 70 36 71 37 72 38 73 39 74
REMARK SMILES IDX 40 75 66 76 67 77 76 78 68 79 69 80 75 81 77 82 70 83 71 84
REMARK SMILES IDX 72 85 73 86 74 87 50 88 51 89 60 90 52 91 53 92 59 93 61 94
REMARK SMILES IDX 54 95 55 96 56 97 57 98 58 99
REMARK H PARENT 82 49 48 60
REMARK Flexibility Score: inf
ROOT
ATOM      1  C   UNL     1       3.774   4.274   8.339  1.00  0.00     0.202 C 
ENDROOT
BRANCH   1   2
ATOM      2  O   UNL     1       4.991   4.853   8.817  1.00  0.00    -0.374 OA
BRANCH   2   3
ATOM      3  C   UNL     1       4.885   6.201   9.293  1.00  0.00     0.202 C 
BRANCH   3   4
ATOM      4  C   UNL     1       5.082   7.215   8.164  1.00  0.00     0.261 C 
BRANCH   4   5
ATOM      5  O   UNL     1       3.914   7.177   7.329  1.00  0.00    -0.459 OA
BRANCH   5   6
ATOM      6  C   UNL     1       4.140   7.133   6.002  1.00  0.00     0.354 C 
ATOM      7  O   UNL     1       5.168   7.364   5.403  1.00  0.00    -0.245 OA
BRANCH   6   8
ATOM      8  C   UNL     1       2.895   6.593   5.348  1.00  0.00     0.148 C 
ATOM      9  N   UNL     1       1.620   5.456   4.106  1.00  0.00    -0.254 N 
ATOM     10  N   UNL     1       2.923   5.651   4.453  1.00  0.00    -0.169 NA
ATOM     11  C   UNL     1       0.721   6.496   4.624  1.00  0.00     0.180 C 
ATOM     12  C   UNL     1       1.538   7.026   5.809  1.00  0.00     0.101 C 
BRANCH   9  13
ATOM     13  C   UNL     1       1.310   4.559   3.101  1.00  0.00     0.060 A 
ATOM     14  C   UNL     1       0.680   2.692   1.099  1.00  0.00     0.067 A 
ATOM     15  C   UNL     1       0.822   2.267   2.420  1.00  0.00     0.022 A 
ATOM     16  C   UNL     1       0.863   4.036   0.765  1.00  0.00     0.022 A 
ATOM     17  C   UNL     1       1.147   3.201   3.408  1.00  0.00     0.029 A 
ATOM     18  C   UNL     1       1.177   4.959   1.767  1.00  0.00     0.029 A 
BRANCH  14  19
ATOM     19  S   UNL     1       0.283   1.534  -0.187  1.00  0.00     0.175 S 
ATOM     20  C   UNL     1       1.216   0.070   0.170  1.00  0.00     0.163 C 
ATOM     21  O   UNL     1       0.804   2.070  -1.432  1.00  0.00    -0.224 OA
ATOM     22  O   UNL     1      -1.125   1.219  -0.044  1.00  0.00    -0.224 OA
ENDBRANCH  14  19
ENDBRANCH   9  13
BRANCH  11  23
ATOM     23  C   UNL     1       0.342   7.599   3.680  1.00  0.00     0.128 A 
ATOM     24  C   UNL     1      -0.729   7.781   2.826  1.00  0.00     0.048 A 
ATOM     25  O   UNL     1       1.176   8.680   3.605  1.00  0.00    -0.467 OA
ATOM     26  C   UNL     1      -0.539   9.040   2.206  1.00  0.00     0.042 A 
ATOM     27  C   UNL     1       0.630   9.549   2.720  1.00  0.00     0.195 A 
ENDBRANCH  11  23
ENDBRANCH   6   8
ENDBRANCH   5   6
ENDBRANCH   4   5
ENDBRANCH   3   4
ENDBRANCH   2   3
ENDBRANCH   1   2
BRANCH   1  28
ATOM     28  C   UNL     1       3.041   3.469   9.413  1.00  0.00     0.261 C 
BRANCH  28  29
ATOM     29  O   UNL     1       2.521   4.353  10.422  1.00  0.00    -0.460 OA
BRANCH  29  30
ATOM     30  C   UNL     1       3.197   4.341  11.597  1.00  0.00     0.338 C 
ATOM     31  O   UNL     1       4.096   3.579  11.911  1.00  0.00    -0.246 OA
BRANCH  30  32
ATOM     32  C   UNL     1       2.777   5.484  12.443  1.00  0.00     0.060 A 
ATOM     33  C   UNL     1       3.718   5.985  13.351  1.00  0.00     0.016 A 
ATOM     34  C   UNL     1       1.496   6.048  12.380  1.00  0.00     0.016 A 
ATOM     35  C   UNL     1       3.370   7.014  14.223  1.00  0.00     0.010 A 
ATOM     36  C   UNL     1       1.148   7.083  13.258  1.00  0.00     0.010 A 
ATOM     37  C   UNL     1       2.075   7.547  14.203  1.00  0.00    -0.014 A 
BRANCH  37  38
ATOM     38  C   UNL     1       1.690   8.500  15.269  1.00  0.00     0.031 A 
ATOM     39  C   UNL     1       1.091   7.972  16.540  1.00  0.00     0.074 A 
ATOM     40  C   UNL     1       1.936   9.815  15.137  1.00  0.00     0.049 A 
ATOM     41  N   UNL     1       0.873   8.592  17.670  1.00  0.00    -0.248 NA
ATOM     42  C   UNL     1       0.685   6.558  16.535  1.00  0.00     0.031 C 
ATOM     43  C   UNL     1       2.478  10.460  13.944  1.00  0.00     0.029 A 
ATOM     44  N   UNL     1       1.767  10.841  16.031  1.00  0.00    -0.354 N 
ATOM     45  C   UNL     1       0.326   7.641  18.521  1.00  0.00     0.074 A 
ATOM     46  C   UNL     1       0.206   6.412  17.763  1.00  0.00     0.031 C 
ATOM     47  C   UNL     1       2.597  11.778  14.179  1.00  0.00     0.029 A 
ATOM     48  C   UNL     1       2.160  12.063  15.546  1.00  0.00     0.049 A 
ATOM     49  H   UNL     1       1.399  10.713  16.935  1.00  0.00     0.167 HD
ATOM     50  C   UNL     1      -0.026   7.770  19.822  1.00  0.00     0.037 A 
ATOM     51  C   UNL     1       2.187  13.269  16.144  1.00  0.00     0.037 A 
ATOM     52  C   UNL     1       0.081   8.989  20.576  1.00  0.00     0.049 A 
ATOM     53  C   UNL     1       1.814  13.392  17.594  1.00  0.00     0.074 A 
ATOM     54  C   UNL     1      -0.207   9.208  21.913  1.00  0.00     0.029 A 
ATOM     55  N   UNL     1       0.496  10.203  20.052  1.00  0.00    -0.354 N 
ATOM     56  N   UNL     1       1.401  12.461  18.420  1.00  0.00    -0.248 NA
ATOM     57  C   UNL     1       1.938  14.725  18.202  1.00  0.00     0.031 C 
ATOM     58  C   UNL     1       0.015  10.563  22.191  1.00  0.00     0.029 A 
ATOM     59  C   UNL     1       0.457  11.181  21.032  1.00  0.00     0.049 A 
ATOM     60  H   UNL     1       0.779  10.349  19.121  1.00  0.00     0.167 HD
ATOM     61  C   UNL     1       1.230  13.090  19.648  1.00  0.00     0.074 A 
ATOM     62  C   UNL     1       1.591  14.481  19.459  1.00  0.00     0.031 C 
ATOM     63  C   UNL     1       0.817  12.561  20.826  1.00  0.00     0.037 A 
BRANCH  50  64
ATOM     64  C   UNL     1      -0.563   6.544  20.495  1.00  0.00     0.058 A 
ATOM     65  C   UNL     1       0.295   5.519  20.925  1.00  0.00     0.135 A 
ATOM     66  C   UNL     1      -1.942   6.371  20.677  1.00  0.00     0.135 A 
ATOM     67  F   UNL     1       1.622   5.632  20.753  1.00  0.00    -0.206 F 
ATOM     68  C   UNL     1      -0.201   4.345  21.481  1.00  0.00     0.059 A 
ATOM     69  C   UNL     1      -2.459   5.210  21.242  1.00  0.00     0.059 A 
ATOM     70  F   UNL     1      -2.801   7.320  20.273  1.00  0.00    -0.206 F 
ATOM     71  C   UNL     1      -1.581   4.194  21.620  1.00  0.00     0.060 A 
BRANCH  71  72
ATOM     72  S   UNL     1      -2.230   2.649  22.294  1.00  0.00     0.124 S 
ATOM     73  O   UNL     1      -2.263   1.808  21.101  1.00  0.00    -0.237 OA
ATOM     74  O   UNL     1      -1.230   2.289  23.294  1.00  0.00    -0.237 OA
ATOM     75  O   UNL     1      -3.531   3.039  22.827  1.00  0.00    -0.744 OA
ENDBRANCH  71  72
ENDBRANCH  50  64
BRANCH  51  76
ATOM     76  C   UNL     1       2.628  14.451  15.366  1.00  0.00     0.058 A 
ATOM     77  C   UNL     1       3.930  14.955  15.488  1.00  0.00     0.135 A 
ATOM     78  C   UNL     1       1.765  15.064  14.447  1.00  0.00     0.135 A 
ATOM     79  F   UNL     1       4.786  14.399  16.359  1.00  0.00    -0.206 F 
ATOM     80  C   UNL     1       4.368  16.026  14.716  1.00  0.00     0.059 A 
ATOM     81  C   UNL     1       2.182  16.129  13.657  1.00  0.00     0.059 A 
ATOM     82  F   UNL     1       0.513  14.606  14.292  1.00  0.00    -0.206 F 
ATOM     83  C   UNL     1       3.487  16.604  13.800  1.00  0.00     0.060 A 
BRANCH  83  84
ATOM     84  S   UNL     1       4.081  17.930  12.727  1.00  0.00     0.124 S 
ATOM     85  O   UNL     1       3.924  19.096  13.588  1.00  0.00    -0.237 OA
ATOM     86  O   UNL     1       5.454  17.520  12.451  1.00  0.00    -0.237 OA
ATOM     87  O   UNL     1       3.175  17.858  11.584  1.00  0.00    -0.744 OA
ENDBRANCH  83  84
ENDBRANCH  51  76
BRANCH  63  88
ATOM     88  C   UNL     1       0.737  13.489  22.003  1.00  0.00     0.058 A 
ATOM     89  C   UNL     1      -0.347  14.363  22.168  1.00  0.00     0.135 A 
ATOM     90  C   UNL     1       1.734  13.479  22.990  1.00  0.00     0.135 A 
ATOM     91  F   UNL     1      -1.322  14.411  21.246  1.00  0.00    -0.206 F 
ATOM     92  C   UNL     1      -0.433  15.213  23.266  1.00  0.00     0.059 A 
ATOM     93  C   UNL     1       1.661  14.310  24.104  1.00  0.00     0.059 A 
ATOM     94  F   UNL     1       2.787  12.654  22.880  1.00  0.00    -0.206 F 
ATOM     95  C   UNL     1       0.580  15.182  24.227  1.00  0.00     0.060 A 
BRANCH  95  96
ATOM     96  S   UNL     1       0.458  16.266  25.667  1.00  0.00     0.124 S 
ATOM     97  O   UNL     1       1.036  17.502  25.152  1.00  0.00    -0.237 OA
ATOM     98  O   UNL     1      -0.978  16.298  25.926  1.00  0.00    -0.237 OA
ATOM     99  O   UNL     1       1.252  15.569  26.675  1.00  0.00    -0.744 OA
ENDBRANCH  95  96
ENDBRANCH  63  88
ENDBRANCH  37  38
ENDBRANCH  30  32
ENDBRANCH  29  30
ENDBRANCH  28  29
ENDBRANCH   1  28
TORSDOF 20
