REMARK SMILES Cc1cc(C(=O)OCCOCCOC(=O)c2ccc(-c3c4nc(c(-c5c(F)cc(S(=O)(=O)[O-])cc5F)c5ccc([nH]5)c(-c5c(F)cc(S(=O)(=O)[O-])cc5F)c5nc(c(-c6c(F)cc(S(=O)(=O)[O-])cc6F)c6ccc3[nH]6)C=C5)C=C4)cc2)nn1[C@H]1CCS(=O)(=O)C1
REMARK SMILES IDX 11 1 10 2 9 3 8 4 7 5 5 6 6 7 4 8 1 9 2 10 3 11 83 12 82 13
REMARK SMILES IDX 84 14 85 15 90 16 86 17 87 18 88 19 89 20 12 21 13 22 14 23
REMARK SMILES IDX 15 24 16 25 17 26 81 27 18 28 80 29 19 30 20 31 21 32 74 33
REMARK SMILES IDX 22 34 79 35 73 36 75 37 23 38 78 39 72 40 71 41 24 43 58 44
REMARK SMILES IDX 37 45 57 46 38 47 41 48 56 49 76 50 39 51 40 52 55 54 77 55
REMARK SMILES IDX 42 56 25 57 26 58 35 59 27 60 28 61 34 62 36 63 29 64 30 65
REMARK SMILES IDX 31 66 32 67 33 68 59 69 60 70 69 71 61 72 62 73 68 74 70 75
REMARK SMILES IDX 63 76 64 77 65 78 66 79 67 80 43 81 44 82 53 83 45 84 46 85
REMARK SMILES IDX 52 86 54 87 47 88 48 89 49 90 50 91 51 92
REMARK H PARENT 75 42 41 53
REMARK Flexibility Score: inf
ROOT
ATOM      1  C   UNL     1       4.509   7.869  -0.960  1.00  0.00     0.202 C 
ENDROOT
BRANCH   1   2
ATOM      2  O   UNL     1       4.054   8.864  -1.872  1.00  0.00    -0.374 OA
BRANCH   2   3
ATOM      3  C   UNL     1       2.968   9.712  -1.505  1.00  0.00     0.202 C 
BRANCH   3   4
ATOM      4  C   UNL     1       1.566   9.102  -1.507  1.00  0.00     0.261 C 
BRANCH   4   5
ATOM      5  O   UNL     1       1.412   8.076  -0.514  1.00  0.00    -0.458 OA
BRANCH   5   6
ATOM      6  C   UNL     1       1.401   6.794  -0.998  1.00  0.00     0.358 C 
ATOM      7  O   UNL     1       1.431   6.509  -2.189  1.00  0.00    -0.244 OA
BRANCH   6   8
ATOM      8  C   UNL     1       1.425   5.795   0.082  1.00  0.00     0.170 A 
ATOM      9  C   UNL     1       0.704   4.317   3.377  1.00  0.00     0.066 C 
ATOM     10  C   UNL     1       1.140   4.709   2.013  1.00  0.00     0.037 A 
ATOM     11  C   UNL     1       1.092   5.968   1.444  1.00  0.00     0.061 A 
ATOM     12  N   UNL     1       1.611   3.876   1.026  1.00  0.00    -0.265 N 
ATOM     13  N   UNL     1       1.792   4.523  -0.143  1.00  0.00    -0.165 NA
BRANCH  12  14
ATOM     14  C   UNL     1       1.757   2.434   0.957  1.00  0.00     0.123 C 
ATOM     15  C   UNL     1       3.150   1.970   0.471  1.00  0.00     0.044 C 
ATOM     16  C   UNL     1       1.516   1.621   2.218  1.00  0.00     0.164 C 
ATOM     17  C   UNL     1       3.109   0.443   0.446  1.00  0.00     0.139 C 
ATOM     18  S   UNL     1       1.958  -0.028   1.726  1.00  0.00     0.152 S 
ATOM     19  O   UNL     1       0.799  -0.632   1.101  1.00  0.00    -0.229 OA
ATOM     20  O   UNL     1       2.672  -0.667   2.809  1.00  0.00    -0.229 OA
ENDBRANCH  12  14
ENDBRANCH   6   8
ENDBRANCH   5   6
ENDBRANCH   4   5
ENDBRANCH   3   4
ENDBRANCH   2   3
ENDBRANCH   1   2
BRANCH   1  21
ATOM     21  C   UNL     1       5.220   8.327   0.302  1.00  0.00     0.261 C 
BRANCH  21  22
ATOM     22  O   UNL     1       4.394   9.141   1.120  1.00  0.00    -0.460 OA
BRANCH  22  23
ATOM     23  C   UNL     1       4.745  10.450   1.107  1.00  0.00     0.338 C 
ATOM     24  O   UNL     1       5.316  11.051   0.219  1.00  0.00    -0.246 OA
BRANCH  23  25
ATOM     25  C   UNL     1       4.495  10.997   2.443  1.00  0.00     0.060 A 
ATOM     26  C   UNL     1       4.838  12.335   2.651  1.00  0.00     0.016 A 
ATOM     27  C   UNL     1       4.211  10.123   3.502  1.00  0.00     0.016 A 
ATOM     28  C   UNL     1       5.078  12.751   3.941  1.00  0.00     0.010 A 
ATOM     29  C   UNL     1       4.482  10.530   4.782  1.00  0.00     0.010 A 
ATOM     30  C   UNL     1       4.976  11.817   4.977  1.00  0.00    -0.014 A 
BRANCH  30  31
ATOM     31  C   UNL     1       5.187  12.267   6.337  1.00  0.00     0.031 A 
ATOM     32  C   UNL     1       4.034  13.078   6.786  1.00  0.00     0.074 A 
ATOM     33  C   UNL     1       6.217  11.825   7.088  1.00  0.00     0.049 A 
ATOM     34  N   UNL     1       3.986  14.361   6.929  1.00  0.00    -0.248 NA
ATOM     35  C   UNL     1       2.703  12.436   6.819  1.00  0.00     0.031 C 
ATOM     36  C   UNL     1       7.191  10.793   6.712  1.00  0.00     0.029 A 
ATOM     37  N   UNL     1       6.550  12.098   8.383  1.00  0.00    -0.354 N 
ATOM     38  C   UNL     1       2.714  14.600   7.438  1.00  0.00     0.074 A 
ATOM     39  C   UNL     1       1.906  13.483   7.043  1.00  0.00     0.031 C 
ATOM     40  C   UNL     1       7.836  10.360   7.817  1.00  0.00     0.029 A 
ATOM     41  C   UNL     1       7.423  11.167   8.951  1.00  0.00     0.049 A 
ATOM     42  H   UNL     1       6.206  12.881   8.872  1.00  0.00     0.167 HD
ATOM     43  C   UNL     1       2.581  15.413   8.522  1.00  0.00     0.037 A 
ATOM     44  C   UNL     1       7.728  11.044  10.271  1.00  0.00     0.037 A 
ATOM     45  C   UNL     1       3.770  16.207   8.700  1.00  0.00     0.049 A 
ATOM     46  C   UNL     1       7.409  12.345  10.910  1.00  0.00     0.074 A 
ATOM     47  C   UNL     1       4.380  17.267   8.066  1.00  0.00     0.029 A 
ATOM     48  N   UNL     1       4.719  15.585   9.465  1.00  0.00    -0.354 N 
ATOM     49  N   UNL     1       8.054  13.449  10.641  1.00  0.00    -0.248 NA
ATOM     50  C   UNL     1       6.114  12.521  11.561  1.00  0.00     0.031 C 
ATOM     51  C   UNL     1       5.760  17.207   8.423  1.00  0.00     0.029 A 
ATOM     52  C   UNL     1       5.952  16.149   9.308  1.00  0.00     0.049 A 
ATOM     53  H   UNL     1       4.534  14.822  10.058  1.00  0.00     0.167 HD
ATOM     54  C   UNL     1       7.083  14.430  10.686  1.00  0.00     0.074 A 
ATOM     55  C   UNL     1       5.965  13.840  11.411  1.00  0.00     0.031 C 
ATOM     56  C   UNL     1       7.129  15.490   9.829  1.00  0.00     0.037 A 
BRANCH  43  57
ATOM     57  C   UNL     1       1.696  15.092   9.717  1.00  0.00     0.058 A 
ATOM     58  C   UNL     1       1.543  16.068  10.723  1.00  0.00     0.135 A 
ATOM     59  C   UNL     1       1.255  13.794  10.067  1.00  0.00     0.135 A 
ATOM     60  F   UNL     1       1.952  17.330  10.514  1.00  0.00    -0.206 F 
ATOM     61  C   UNL     1       1.035  15.766  11.989  1.00  0.00     0.059 A 
ATOM     62  C   UNL     1       0.700  13.484  11.301  1.00  0.00     0.059 A 
ATOM     63  F   UNL     1       1.422  12.729   9.277  1.00  0.00    -0.206 F 
ATOM     64  C   UNL     1       0.620  14.468  12.268  1.00  0.00     0.060 A 
BRANCH  64  65
ATOM     65  S   UNL     1      -0.000  14.054  13.905  1.00  0.00     0.124 S 
ATOM     66  O   UNL     1       1.206  14.178  14.715  1.00  0.00    -0.237 OA
ATOM     67  O   UNL     1      -1.019  15.079  14.105  1.00  0.00    -0.237 OA
ATOM     68  O   UNL     1      -0.512  12.697  13.735  1.00  0.00    -0.744 OA
ENDBRANCH  64  65
ENDBRANCH  43  57
BRANCH  44  69
ATOM     69  C   UNL     1       8.001   9.814  11.066  1.00  0.00     0.058 A 
ATOM     70  C   UNL     1       8.524   9.884  12.372  1.00  0.00     0.135 A 
ATOM     71  C   UNL     1       7.485   8.562  10.677  1.00  0.00     0.135 A 
ATOM     72  F   UNL     1       9.028  11.038  12.835  1.00  0.00    -0.206 F 
ATOM     73  C   UNL     1       8.481   8.799  13.258  1.00  0.00     0.059 A 
ATOM     74  C   UNL     1       7.439   7.465  11.538  1.00  0.00     0.059 A 
ATOM     75  F   UNL     1       6.921   8.392   9.472  1.00  0.00    -0.206 F 
ATOM     76  C   UNL     1       7.912   7.598  12.838  1.00  0.00     0.060 A 
BRANCH  76  77
ATOM     77  S   UNL     1       7.684   6.251  14.026  1.00  0.00     0.124 S 
ATOM     78  O   UNL     1       9.058   5.825  14.269  1.00  0.00    -0.237 OA
ATOM     79  O   UNL     1       7.020   6.925  15.136  1.00  0.00    -0.237 OA
ATOM     80  O   UNL     1       6.855   5.294  13.296  1.00  0.00    -0.744 OA
ENDBRANCH  76  77
ENDBRANCH  44  69
BRANCH  56  81
ATOM     81  C   UNL     1       8.466  15.933   9.325  1.00  0.00     0.058 A 
ATOM     82  C   UNL     1       9.285  15.217   8.438  1.00  0.00     0.135 A 
ATOM     83  C   UNL     1       8.890  17.213   9.713  1.00  0.00     0.135 A 
ATOM     84  F   UNL     1       8.907  14.020   7.965  1.00  0.00    -0.206 F 
ATOM     85  C   UNL     1      10.493  15.748   7.980  1.00  0.00     0.059 A 
ATOM     86  C   UNL     1      10.069  17.773   9.245  1.00  0.00     0.059 A 
ATOM     87  F   UNL     1       8.123  17.958  10.527  1.00  0.00    -0.206 F 
ATOM     88  C   UNL     1      10.875  17.029   8.389  1.00  0.00     0.060 A 
BRANCH  88  89
ATOM     89  S   UNL     1      12.407  17.745   7.759  1.00  0.00     0.124 S 
ATOM     90  O   UNL     1      13.420  16.924   8.412  1.00  0.00    -0.237 OA
ATOM     91  O   UNL     1      12.270  17.560   6.317  1.00  0.00    -0.237 OA
ATOM     92  O   UNL     1      12.345  19.134   8.208  1.00  0.00    -0.744 OA
ENDBRANCH  88  89
ENDBRANCH  56  81
ENDBRANCH  30  31
ENDBRANCH  23  25
ENDBRANCH  22  23
ENDBRANCH  21  22
ENDBRANCH   1  21
TORSDOF 18
