REMARK SMILES Cc1cccc(S(=O)(=O)Nc2cc(C(=O)OCCOCCOC(=O)c3ccc(-c4c5nc(c(-c6c(F)cc(S(=O)(=O)[O-])cc6F)c6ccc([nH]6)c(-c6c(F)cc(S(=O)(=O)[O-])cc6F)c6nc(c(-c7c(F)cc(S(=O)(=O)[O-])cc7F)c7ccc4[nH]7)C=C6)C=C5)cc3)ccc2N2CCC[C@H](C[NH+]3CCCC3)C2)c1
REMARK SMILES IDX 19 1 18 2 17 3 16 4 14 5 15 6 13 7 11 8 12 9 93 10 92 11
REMARK SMILES IDX 91 12 10 13 7 15 8 16 9 17 6 18 1 19 2 20 3 21 106 22 4 23
REMARK SMILES IDX 5 24 94 25 95 26 105 27 96 28 98 29 97 30 99 31 100 32
REMARK SMILES IDX 101 33 104 34 102 36 103 37 20 38 21 39 22 40 23 41 24 42
REMARK SMILES IDX 25 43 26 44 90 45 27 46 89 47 28 48 29 49 30 50 83 51 31 52
REMARK SMILES IDX 88 53 82 54 84 55 32 56 87 57 81 58 80 59 33 61 67 62 46 63
REMARK SMILES IDX 66 64 47 65 50 66 65 67 85 68 48 69 49 70 64 72 86 73 51 74
REMARK SMILES IDX 34 75 35 76 44 77 36 78 37 79 43 80 45 81 38 82 39 83 40 84
REMARK SMILES IDX 41 85 42 86 68 87 69 88 78 89 70 90 71 91 77 92 79 93 72 94
REMARK SMILES IDX 73 95 74 96 75 97 76 98 52 99 53 100 62 101 54 102 55 103
REMARK SMILES IDX 61 104 63 105 56 106 57 107 58 108 59 109 60 110
REMARK H PARENT 10 14 100 35 84 60 50 71
REMARK Flexibility Score: inf
ROOT
ATOM      1  O   UNL     1       4.001   2.372  -4.043  1.00  0.00    -0.374 OA
ENDROOT
BRANCH   1   2
ATOM      2  C   UNL     1       2.766   2.298  -4.716  1.00  0.00     0.202 C 
BRANCH   2   3
ATOM      3  C   UNL     1       1.893   1.649  -3.721  1.00  0.00     0.261 C 
BRANCH   3   4
ATOM      4  O   UNL     1       1.972   2.402  -2.522  1.00  0.00    -0.460 OA
BRANCH   4   5
ATOM      5  C   UNL     1       3.037   2.693  -1.754  1.00  0.00     0.338 C 
ATOM      6  O   UNL     1       4.081   2.128  -1.509  1.00  0.00    -0.246 OA
BRANCH   5   7
ATOM      7  C   UNL     1       2.557   3.864  -1.032  1.00  0.00     0.062 A 
ATOM      8  C   UNL     1       0.473   4.542  -0.165  1.00  0.00     0.073 A 
ATOM      9  C   UNL     1       1.206   4.195  -1.243  1.00  0.00     0.044 A 
ATOM     10  C   UNL     1       1.163   5.093   0.921  1.00  0.00     0.061 A 
ATOM     11  C   UNL     1       2.564   4.939   1.047  1.00  0.00     0.029 A 
ATOM     12  C   UNL     1       3.266   4.239   0.099  1.00  0.00     0.018 A 
BRANCH   8  13
ATOM     13  N   UNL     1      -0.945   4.338  -0.256  1.00  0.00    -0.277 N 
ATOM     14  H   UNL     1      -1.523   5.101  -0.485  1.00  0.00     0.180 HD
BRANCH  13  15
ATOM     15  S   UNL     1      -1.680   2.772   0.029  1.00  0.00     0.261 S 
ATOM     16  O   UNL     1      -2.861   2.782  -0.815  1.00  0.00    -0.201 OA
ATOM     17  O   UNL     1      -1.861   2.717   1.468  1.00  0.00    -0.201 OA
BRANCH  15  18
ATOM     18  C   UNL     1      -0.656   1.275  -0.420  1.00  0.00     0.088 A 
ATOM     19  C   UNL     1       3.865   0.230   1.061  1.00  0.00     0.044 C 
ATOM     20  C   UNL     1       2.625  -0.100   0.292  1.00  0.00    -0.050 A 
ATOM     21  C   UNL     1       1.598  -1.945  -0.102  1.00  0.00     0.003 A 
ATOM     22  C   UNL     1       1.323   1.466   0.147  1.00  0.00     0.025 A 
ATOM     23  C   UNL     1      -0.321  -2.213  -0.772  1.00  0.00     0.002 A 
ATOM     24  C   UNL     1      -1.615  -0.487  -0.838  1.00  0.00     0.022 A 
ENDBRANCH  15  18
ENDBRANCH  13  15
ENDBRANCH   8  13
BRANCH  10  25
ATOM     25  N   UNL     1       0.496   5.926   1.789  1.00  0.00    -0.369 N 
ATOM     26  C   UNL     1       0.966   7.306   1.796  1.00  0.00     0.116 C 
ATOM     27  C   UNL     1      -0.228   5.318   2.886  1.00  0.00     0.126 C 
ATOM     28  C   UNL     1       1.614   7.625   3.127  1.00  0.00     0.022 C 
ATOM     29  C   UNL     1       0.361   5.716   4.243  1.00  0.00     0.064 C 
ATOM     30  C   UNL     1       0.637   7.231   4.224  1.00  0.00     0.013 C 
BRANCH  29  31
ATOM     31  C   UNL     1       1.562   4.807   4.625  1.00  0.00     0.267 C 
BRANCH  31  32
ATOM     32  N   UNL     1       2.093   4.850   5.994  1.00  0.00    -0.335 N 
ATOM     33  C   UNL     1       1.111   4.543   7.032  1.00  0.00     0.262 C 
ATOM     34  C   UNL     1       2.764   6.085   6.392  1.00  0.00     0.262 C 
ATOM     35  H   UNL     1       2.793   4.111   5.934  1.00  0.00     0.348 HD
ATOM     36  C   UNL     1       0.622   5.895   7.513  1.00  0.00     0.067 C 
ATOM     37  C   UNL     1       1.858   6.773   7.413  1.00  0.00     0.067 C 
ENDBRANCH  31  32
ENDBRANCH  29  31
ENDBRANCH  10  25
ENDBRANCH   5   7
ENDBRANCH   4   5
ENDBRANCH   3   4
ENDBRANCH   2   3
ENDBRANCH   1   2
BRANCH   1  38
ATOM     38  C   UNL     1       4.766   3.535  -4.118  1.00  0.00     0.202 C 
BRANCH  38  39
ATOM     39  C   UNL     1       5.070   3.720  -5.577  1.00  0.00     0.261 C 
BRANCH  39  40
ATOM     40  O   UNL     1       5.859   2.563  -6.042  1.00  0.00    -0.460 OA
BRANCH  40  41
ATOM     41  C   UNL     1       5.256   1.397  -6.478  1.00  0.00     0.338 C 
ATOM     42  O   UNL     1       4.917   1.249  -7.644  1.00  0.00    -0.246 OA
BRANCH  41  43
ATOM     43  C   UNL     1       5.112   0.290  -5.430  1.00  0.00     0.060 A 
ATOM     44  C   UNL     1       4.153  -0.729  -5.559  1.00  0.00     0.016 A 
ATOM     45  C   UNL     1       5.676   0.437  -4.176  1.00  0.00     0.016 A 
ATOM     46  C   UNL     1       3.518  -1.296  -4.409  1.00  0.00     0.010 A 
ATOM     47  C   UNL     1       4.943  -0.015  -3.058  1.00  0.00     0.010 A 
ATOM     48  C   UNL     1       3.737  -0.760  -3.136  1.00  0.00    -0.014 A 
BRANCH  48  49
ATOM     49  C   UNL     1       3.014  -1.093  -1.786  1.00  0.00     0.031 A 
ATOM     50  C   UNL     1       4.255  -2.029  -1.028  1.00  0.00     0.074 A 
ATOM     51  C   UNL     1       1.681  -0.486  -1.061  1.00  0.00     0.049 A 
ATOM     52  N   UNL     1       4.410  -2.330   0.228  1.00  0.00    -0.248 NA
ATOM     53  C   UNL     1       5.493  -2.459  -1.749  1.00  0.00     0.031 C 
ATOM     54  C   UNL     1       1.213  -0.582   1.069  1.00  0.00     0.029 A 
ATOM     55  N   UNL     1       0.823   0.364  -1.254  1.00  0.00    -0.354 N 
ATOM     56  C   UNL     1       5.766  -2.610   0.511  1.00  0.00     0.074 A 
ATOM     57  C   UNL     1       6.393  -2.669  -0.776  1.00  0.00     0.031 C 
ATOM     58  C   UNL     1       0.451   0.269   1.766  1.00  0.00     0.029 A 
ATOM     59  C   UNL     1       0.246  -0.052   0.455  1.00  0.00     0.049 A 
ATOM     60  H   UNL     1       0.562   0.979  -1.977  1.00  0.00     0.167 HD
ATOM     61  C   UNL     1       6.203  -2.684   1.819  1.00  0.00     0.037 A 
ATOM     62  C   UNL     1      -0.510  -0.962   0.252  1.00  0.00     0.037 A 
ATOM     63  C   UNL     1       5.018  -2.682   2.700  1.00  0.00     0.049 A 
ATOM     64  C   UNL     1      -0.754  -2.189   1.521  1.00  0.00     0.074 A 
ATOM     65  C   UNL     1       4.509  -1.841   3.670  1.00  0.00     0.029 A 
ATOM     66  N   UNL     1       4.006  -3.601   2.449  1.00  0.00    -0.354 N 
ATOM     67  N   UNL     1       0.144  -2.364   2.485  1.00  0.00    -0.248 NA
ATOM     68  C   UNL     1      -1.554  -3.396   1.325  1.00  0.00     0.031 C 
ATOM     69  C   UNL     1       3.134  -2.199   3.888  1.00  0.00     0.029 A 
ATOM     70  C   UNL     1       2.829  -3.328   3.139  1.00  0.00     0.049 A 
ATOM     71  H   UNL     1       4.112  -4.369   1.842  1.00  0.00     0.167 HD
ATOM     72  C   UNL     1       0.470  -3.704   2.498  1.00  0.00     0.074 A 
ATOM     73  C   UNL     1      -0.640  -4.285   1.746  1.00  0.00     0.031 C 
ATOM     74  C   UNL     1       1.678  -4.238   2.917  1.00  0.00     0.037 A 
BRANCH  61  75
ATOM     75  C   UNL     1       7.656  -2.687   2.432  1.00  0.00     0.058 A 
ATOM     76  C   UNL     1       7.804  -2.682   3.849  1.00  0.00     0.135 A 
ATOM     77  C   UNL     1       8.911  -2.635   1.768  1.00  0.00     0.135 A 
ATOM     78  F   UNL     1       6.746  -2.789   4.661  1.00  0.00    -0.206 F 
ATOM     79  C   UNL     1       9.025  -2.576   4.535  1.00  0.00     0.059 A 
ATOM     80  C   UNL     1      10.169  -2.561   2.445  1.00  0.00     0.059 A 
ATOM     81  F   UNL     1       8.992  -2.655   0.431  1.00  0.00    -0.206 F 
ATOM     82  C   UNL     1      10.213  -2.512   3.834  1.00  0.00     0.060 A 
BRANCH  82  83
ATOM     83  S   UNL     1      11.750  -2.391   4.794  1.00  0.00     0.124 S 
ATOM     84  O   UNL     1      11.598  -1.100   5.459  1.00  0.00    -0.237 OA
ATOM     85  O   UNL     1      11.668  -3.558   5.668  1.00  0.00    -0.237 OA
ATOM     86  O   UNL     1      12.799  -2.447   3.780  1.00  0.00    -0.744 OA
ENDBRANCH  82  83
ENDBRANCH  61  75
BRANCH  62  87
ATOM     87  C   UNL     1      -0.366  -0.926  -1.981  1.00  0.00     0.058 A 
ATOM     88  C   UNL     1      -1.129   0.147  -2.943  1.00  0.00     0.135 A 
ATOM     89  C   UNL     1       0.227  -1.872  -3.006  1.00  0.00     0.135 A 
ATOM     90  F   UNL     1      -1.984   1.070  -2.449  1.00  0.00    -0.206 F 
ATOM     91  C   UNL     1      -1.091   0.300  -4.326  1.00  0.00     0.059 A 
ATOM     92  C   UNL     1       0.263  -1.658  -4.424  1.00  0.00     0.059 A 
ATOM     93  F   UNL     1       0.836  -3.023  -2.648  1.00  0.00    -0.206 F 
ATOM     94  C   UNL     1      -0.297  -0.543  -5.045  1.00  0.00     0.060 A 
BRANCH  94  95
ATOM     95  S   UNL     1       0.208   0.033  -6.687  1.00  0.00     0.124 S 
ATOM     96  O   UNL     1      -0.974  -0.237  -7.492  1.00  0.00    -0.237 OA
ATOM     97  O   UNL     1       0.489   1.448  -6.446  1.00  0.00    -0.237 OA
ATOM     98  O   UNL     1       1.378  -0.787  -6.968  1.00  0.00    -0.744 OA
ENDBRANCH  94  95
ENDBRANCH  62  87
BRANCH  74  99
ATOM     99  C   UNL     1       1.899  -5.741   3.200  1.00  0.00     0.058 A 
ATOM    100  C   UNL     1       0.888  -6.713   3.137  1.00  0.00     0.135 A 
ATOM    101  C   UNL     1       3.115  -6.230   3.771  1.00  0.00     0.135 A 
ATOM    102  F   UNL     1      -0.335  -6.498   2.663  1.00  0.00    -0.206 F 
ATOM    103  C   UNL     1       1.017  -7.990   3.652  1.00  0.00     0.059 A 
ATOM    104  C   UNL     1       3.265  -7.512   4.301  1.00  0.00     0.059 A 
ATOM    105  F   UNL     1       4.213  -5.475   3.906  1.00  0.00    -0.206 F 
ATOM    106  C   UNL     1       2.182  -8.364   4.283  1.00  0.00     0.060 A 
BRANCH 106 107
ATOM    107  S   UNL     1       2.160  -9.922   5.153  1.00  0.00     0.124 S 
ATOM    108  O   UNL     1       1.155  -9.664   6.181  1.00  0.00    -0.237 OA
ATOM    109  O   UNL     1       1.757 -10.845   4.096  1.00  0.00    -0.237 OA
ATOM    110  O   UNL     1       3.529 -10.069   5.631  1.00  0.00    -0.744 OA
ENDBRANCH 106 107
ENDBRANCH  74  99
ENDBRANCH  48  49
ENDBRANCH  41  43
ENDBRANCH  40  41
ENDBRANCH  39  40
ENDBRANCH  38  39
ENDBRANCH   1  38
TORSDOF 23
