REMARK SMILES Cc1ccc(NC(=O)C[C@@H](C(=O)OCCOCCOC(=O)c2ccc(-c3c4nc(c(-c5c(F)cc(S(=O)(=O)[O-])cc5F)c5ccc([nH]5)c(-c5c(F)cc(S(=O)(=O)[O-])cc5F)c5nc(c(-c6c(F)cc(S(=O)(=O)[O-])cc6F)c6ccc3[nH]6)C=C5)C=C4)cc2)[NH+](C)C)cc1Cl
REMARK SMILES IDX 16 1 15 2 14 3 13 4 11 5 12 6 10 7 9 8 7 9 6 10 8 12 5 13
REMARK SMILES IDX 1 14 2 15 3 16 92 17 4 18 91 19 93 20 88 21 89 22 90 23
REMARK SMILES IDX 17 25 18 26 19 27 20 28 21 29 22 30 23 31 87 32 24 33 86 34
REMARK SMILES IDX 25 35 26 36 27 37 80 38 28 39 85 40 79 41 81 42 29 43 84 44
REMARK SMILES IDX 78 45 77 46 30 48 64 49 43 50 63 51 44 52 47 53 62 54 82 55
REMARK SMILES IDX 45 56 46 57 61 59 83 60 48 61 31 62 32 63 41 64 33 65 34 66
REMARK SMILES IDX 40 67 42 68 35 69 36 70 37 71 38 72 39 73 65 74 66 75 75 76
REMARK SMILES IDX 67 77 68 78 74 79 76 80 69 81 70 82 71 83 72 84 73 85 49 86
REMARK SMILES IDX 50 87 59 88 51 89 52 90 58 91 60 92 53 93 54 94 55 95 56 96
REMARK SMILES IDX 57 97
REMARK H PARENT 6 11 88 24 81 47 47 58
REMARK Flexibility Score: inf
ROOT
ATOM      1  O   UNL     1      -0.935   0.210   0.473  1.00  0.00    -0.374 OA
ENDROOT
BRANCH   1   2
ATOM      2  C   UNL     1      -0.925   0.222  -1.522  1.00  0.00     0.202 C 
BRANCH   2   3
ATOM      3  C   UNL     1      -1.722  -0.774  -2.617  1.00  0.00     0.261 C 
BRANCH   3   4
ATOM      4  O   UNL     1      -1.381  -2.180  -2.642  1.00  0.00    -0.459 OA
BRANCH   4   5
ATOM      5  C   UNL     1      -0.074  -2.506  -2.776  1.00  0.00     0.365 C 
ATOM      6  O   UNL     1       0.714  -1.765  -3.348  1.00  0.00    -0.245 OA
BRANCH   5   7
ATOM      7  C   UNL     1       0.245  -3.889  -2.093  1.00  0.00     0.304 C 
BRANCH   7   8
ATOM      8  C   UNL     1      -0.522  -4.223  -0.779  1.00  0.00     0.177 C 
BRANCH   8   9
ATOM      9  C   UNL     1      -1.984  -3.872  -0.635  1.00  0.00     0.231 C 
ATOM     10  N   UNL     1      -2.385  -2.624  -0.254  1.00  0.00    -0.326 N 
ATOM     11  H   UNL     1      -3.328  -2.568   0.021  1.00  0.00     0.169 HD
ATOM     12  O   UNL     1      -2.845  -4.739  -0.809  1.00  0.00    -0.274 OA
BRANCH  10  13
ATOM     13  C   UNL     1      -1.687  -1.403  -0.186  1.00  0.00     0.042 A 
ATOM     14  C   UNL     1       0.447   3.238  -0.036  1.00  0.00     0.046 C 
ATOM     15  C   UNL     1      -0.186   1.894  -0.184  1.00  0.00    -0.032 A 
ATOM     16  C   UNL     1      -1.980   1.718  -0.098  1.00  0.00     0.007 A 
ATOM     17  C   UNL     1       0.867   0.442  -0.284  1.00  0.00     0.046 A 
ATOM     18  C   UNL     1      -2.728   0.079  -0.144  1.00  0.00     0.026 A 
ATOM     19  C   UNL     1       0.116  -1.214  -0.293  1.00  0.00     0.047 A 
ATOM     20  Cl  UNL     1       2.580   0.586  -0.379  1.00  0.00    -0.084 Cl
ENDBRANCH  10  13
ENDBRANCH   8   9
ENDBRANCH   7   8
BRANCH   7  21
ATOM     21  N   UNL     1       1.728  -4.210  -1.952  1.00  0.00    -0.328 N 
ATOM     22  C   UNL     1       2.589  -3.672  -3.005  1.00  0.00     0.333 C 
ATOM     23  C   UNL     1       2.384  -4.008  -0.661  1.00  0.00     0.333 C 
ATOM     24  H   UNL     1       1.637  -5.221  -2.050  1.00  0.00     0.348 HD
ENDBRANCH   7  21
ENDBRANCH   5   7
ENDBRANCH   4   5
ENDBRANCH   3   4
ENDBRANCH   2   3
ENDBRANCH   1   2
BRANCH   1  25
ATOM     25  C   UNL     1      -0.220  -0.007   1.824  1.00  0.00     0.202 C 
BRANCH  25  26
ATOM     26  C   UNL     1      -0.891  -1.036   2.762  1.00  0.00     0.261 C 
BRANCH  26  27
ATOM     27  O   UNL     1      -2.311  -0.967   2.807  1.00  0.00    -0.460 OA
BRANCH  27  28
ATOM     28  C   UNL     1      -2.846   0.215   3.182  1.00  0.00     0.338 C 
ATOM     29  O   UNL     1      -2.268   1.166   3.679  1.00  0.00    -0.246 OA
BRANCH  28  30
ATOM     30  C   UNL     1      -4.244   0.209   2.710  1.00  0.00     0.060 A 
ATOM     31  C   UNL     1      -4.768   1.393   2.181  1.00  0.00     0.016 A 
ATOM     32  C   UNL     1      -4.993  -0.977   2.688  1.00  0.00     0.016 A 
ATOM     33  C   UNL     1      -6.049   1.397   1.634  1.00  0.00     0.010 A 
ATOM     34  C   UNL     1      -6.281  -0.970   2.161  1.00  0.00     0.010 A 
ATOM     35  C   UNL     1      -6.820   0.226   1.665  1.00  0.00    -0.014 A 
BRANCH  35  36
ATOM     36  C   UNL     1      -8.281   0.328   1.478  1.00  0.00     0.031 A 
ATOM     37  C   UNL     1      -9.092   0.656   2.700  1.00  0.00     0.074 A 
ATOM     38  C   UNL     1      -8.861   0.141   0.281  1.00  0.00     0.049 A 
ATOM     39  N   UNL     1     -10.379   0.824   2.821  1.00  0.00    -0.248 NA
ATOM     40  C   UNL     1      -8.340   0.818   3.959  1.00  0.00     0.031 C 
ATOM     41  C   UNL     1      -8.161  -0.164  -0.966  1.00  0.00     0.029 A 
ATOM     42  N   UNL     1     -10.184   0.176  -0.075  1.00  0.00    -0.354 N 
ATOM     43  C   UNL     1     -10.588   1.128   4.160  1.00  0.00     0.074 A 
ATOM     44  C   UNL     1      -9.306   1.083   4.822  1.00  0.00     0.031 C 
ATOM     45  C   UNL     1      -9.068  -0.298  -1.952  1.00  0.00     0.029 A 
ATOM     46  C   UNL     1     -10.409  -0.108  -1.401  1.00  0.00     0.049 A 
ATOM     47  H   UNL     1     -10.907   0.386   0.560  1.00  0.00     0.167 HD
ATOM     48  C   UNL     1     -11.749   1.426   4.784  1.00  0.00     0.037 A 
ATOM     49  C   UNL     1     -11.572  -0.211  -2.076  1.00  0.00     0.037 A 
ATOM     50  C   UNL     1     -13.024   1.422   4.125  1.00  0.00     0.049 A 
ATOM     51  C   UNL     1     -12.865   0.043  -1.339  1.00  0.00     0.074 A 
ATOM     52  C   UNL     1     -14.269   1.699   4.657  1.00  0.00     0.029 A 
ATOM     53  N   UNL     1     -13.217   1.100   2.788  1.00  0.00    -0.354 N 
ATOM     54  N   UNL     1     -13.049   0.383  -0.083  1.00  0.00    -0.248 NA
ATOM     55  C   UNL     1     -14.109  -0.095  -2.109  1.00  0.00     0.031 C 
ATOM     56  C   UNL     1     -15.222   1.490   3.655  1.00  0.00     0.029 A 
ATOM     57  C   UNL     1     -14.565   1.143   2.483  1.00  0.00     0.049 A 
ATOM     58  H   UNL     1     -12.500   0.873   2.153  1.00  0.00     0.167 HD
ATOM     59  C   UNL     1     -14.424   0.532   0.077  1.00  0.00     0.074 A 
ATOM     60  C   UNL     1     -15.023   0.252  -1.213  1.00  0.00     0.031 C 
ATOM     61  C   UNL     1     -15.130   0.871   1.185  1.00  0.00     0.037 A 
BRANCH  48  62
ATOM     62  C   UNL     1     -11.680   1.737   6.250  1.00  0.00     0.058 A 
ATOM     63  C   UNL     1     -11.101   2.925   6.726  1.00  0.00     0.135 A 
ATOM     64  C   UNL     1     -12.188   0.831   7.194  1.00  0.00     0.135 A 
ATOM     65  F   UNL     1     -10.570   3.810   5.867  1.00  0.00    -0.206 F 
ATOM     66  C   UNL     1     -11.007   3.193   8.087  1.00  0.00     0.059 A 
ATOM     67  C   UNL     1     -12.129   1.091   8.559  1.00  0.00     0.059 A 
ATOM     68  F   UNL     1     -12.735  -0.327   6.793  1.00  0.00    -0.206 F 
ATOM     69  C   UNL     1     -11.524   2.269   8.996  1.00  0.00     0.060 A 
BRANCH  69  70
ATOM     70  S   UNL     1     -11.397   2.632  10.759  1.00  0.00     0.124 S 
ATOM     71  O   UNL     1      -9.968   2.445  10.993  1.00  0.00    -0.237 OA
ATOM     72  O   UNL     1     -11.875   4.010  10.827  1.00  0.00    -0.237 OA
ATOM     73  O   UNL     1     -12.269   1.637  11.375  1.00  0.00    -0.744 OA
ENDBRANCH  69  70
ENDBRANCH  48  62
BRANCH  49  74
ATOM     74  C   UNL     1     -11.575  -0.568  -3.521  1.00  0.00     0.058 A 
ATOM     75  C   UNL     1     -11.978   0.356  -4.498  1.00  0.00     0.135 A 
ATOM     76  C   UNL     1     -11.193  -1.847  -3.956  1.00  0.00     0.135 A 
ATOM     77  F   UNL     1     -12.365   1.588  -4.135  1.00  0.00    -0.206 F 
ATOM     78  C   UNL     1     -12.020   0.021  -5.848  1.00  0.00     0.059 A 
ATOM     79  C   UNL     1     -11.201  -2.197  -5.304  1.00  0.00     0.059 A 
ATOM     80  F   UNL     1     -10.792  -2.768  -3.066  1.00  0.00    -0.206 F 
ATOM     81  C   UNL     1     -11.627  -1.259  -6.242  1.00  0.00     0.060 A 
BRANCH  81  82
ATOM     82  S   UNL     1     -11.646  -1.667  -8.002  1.00  0.00     0.124 S 
ATOM     83  O   UNL     1     -13.077  -1.750  -8.270  1.00  0.00    -0.237 OA
ATOM     84  O   UNL     1     -10.951  -0.525  -8.587  1.00  0.00    -0.237 OA
ATOM     85  O   UNL     1     -10.918  -2.932  -8.061  1.00  0.00    -0.744 OA
ENDBRANCH  81  82
ENDBRANCH  49  74
BRANCH  61  86
ATOM     86  C   UNL     1     -16.622   1.004   1.048  1.00  0.00     0.058 A 
ATOM     87  C   UNL     1     -17.455  -0.116   0.903  1.00  0.00     0.135 A 
ATOM     88  C   UNL     1     -17.230   2.267   1.145  1.00  0.00     0.135 A 
ATOM     89  F   UNL     1     -16.924  -1.345   0.803  1.00  0.00    -0.206 F 
ATOM     90  C   UNL     1     -18.838   0.013   0.837  1.00  0.00     0.059 A 
ATOM     91  C   UNL     1     -18.612   2.416   1.114  1.00  0.00     0.059 A 
ATOM     92  F   UNL     1     -16.479   3.369   1.301  1.00  0.00    -0.206 F 
ATOM     93  C   UNL     1     -19.407   1.284   0.948  1.00  0.00     0.060 A 
BRANCH  93  94
ATOM     94  S   UNL     1     -21.206   1.433   0.904  1.00  0.00     0.124 S 
ATOM     95  O   UNL     1     -21.486   1.192  -0.507  1.00  0.00    -0.237 OA
ATOM     96  O   UNL     1     -21.629   0.382   1.824  1.00  0.00    -0.237 OA
ATOM     97  O   UNL     1     -21.445   2.797   1.368  1.00  0.00    -0.744 OA
ENDBRANCH  93  94
ENDBRANCH  61  86
ENDBRANCH  35  36
ENDBRANCH  28  30
ENDBRANCH  27  28
ENDBRANCH  26  27
ENDBRANCH  25  26
ENDBRANCH   1  25
TORSDOF 21
