REMARK SMILES O=C(OCCOCCOC(=O)c1ccc(-c2ccc(Cl)cc2)cc1F)c1ccc(-c2c3nc(c(-c4c(F)cc(S(=O)(=O)[O-])cc4F)c4ccc([nH]4)c(-c4c(F)cc(S(=O)(=O)[O-])cc4F)c4nc(c(-c5c(F)cc(S(=O)(=O)[O-])cc5F)c5ccc2[nH]5)C=C4)C=C3)cc1
REMARK SMILES IDX 5 1 4 2 3 3 2 4 1 5 26 6 27 7 91 8 28 9 90 10 29 11 30 12
REMARK SMILES IDX 31 13 84 14 32 15 89 16 83 17 85 18 33 19 88 20 82 21 81 22
REMARK SMILES IDX 34 24 68 25 47 26 67 27 48 28 51 29 66 30 86 31 49 32 50 33
REMARK SMILES IDX 65 35 87 36 52 37 35 38 36 39 45 40 37 41 38 42 44 43 46 44
REMARK SMILES IDX 39 45 40 46 41 47 42 48 43 49 69 50 70 51 79 52 71 53 72 54
REMARK SMILES IDX 78 55 80 56 73 57 74 58 75 59 76 60 77 61 53 62 54 63 63 64
REMARK SMILES IDX 55 65 56 66 62 67 64 68 57 69 58 70 59 71 60 72 61 73 6 74
REMARK SMILES IDX 7 75 8 76 9 77 10 78 11 79 12 80 13 81 24 82 14 83 23 84
REMARK SMILES IDX 25 85 15 86 16 87 17 88 22 89 18 90 21 91 19 92 20 93
REMARK H PARENT 85 23 51 34
REMARK Flexibility Score: inf
ROOT
ATOM      1  C   UNL     1       4.285  -1.579   0.368  1.00  0.00     0.202 C 
ENDROOT
BRANCH   1   2
ATOM      2  C   UNL     1       4.023  -0.350   1.241  1.00  0.00     0.261 C 
BRANCH   2   3
ATOM      3  O   UNL     1       2.628  -0.012   1.204  1.00  0.00    -0.460 OA
BRANCH   3   4
ATOM      4  C   UNL     1       2.011   0.947   0.477  1.00  0.00     0.338 C 
ATOM      5  O   UNL     1       0.788   1.048   0.573  1.00  0.00    -0.246 OA
BRANCH   4   6
ATOM      6  C   UNL     1       2.723   1.902  -0.427  1.00  0.00     0.060 A 
ATOM      7  C   UNL     1       3.922   1.646  -1.099  1.00  0.00     0.016 A 
ATOM      8  C   UNL     1       2.069   3.118  -0.689  1.00  0.00     0.016 A 
ATOM      9  C   UNL     1       4.482   2.569  -1.970  1.00  0.00     0.010 A 
ATOM     10  C   UNL     1       2.615   4.048  -1.575  1.00  0.00     0.010 A 
ATOM     11  C   UNL     1       3.833   3.774  -2.204  1.00  0.00    -0.014 A 
BRANCH  11  12
ATOM     12  C   UNL     1       4.515   4.791  -3.014  1.00  0.00     0.031 A 
ATOM     13  C   UNL     1       5.232   5.886  -2.294  1.00  0.00     0.074 A 
ATOM     14  C   UNL     1       4.548   4.669  -4.351  1.00  0.00     0.049 A 
ATOM     15  N   UNL     1       5.802   6.954  -2.775  1.00  0.00    -0.248 NA
ATOM     16  C   UNL     1       5.329   5.752  -0.830  1.00  0.00     0.031 C 
ATOM     17  C   UNL     1       3.989   3.545  -5.106  1.00  0.00     0.029 A 
ATOM     18  N   UNL     1       5.080   5.486  -5.309  1.00  0.00    -0.354 N 
ATOM     19  C   UNL     1       6.292   7.640  -1.672  1.00  0.00     0.074 A 
ATOM     20  C   UNL     1       5.965   6.865  -0.498  1.00  0.00     0.031 C 
ATOM     21  C   UNL     1       4.208   3.747  -6.415  1.00  0.00     0.029 A 
ATOM     22  C   UNL     1       4.858   5.042  -6.590  1.00  0.00     0.049 A 
ATOM     23  H   UNL     1       5.575   6.312  -5.101  1.00  0.00     0.167 HD
ATOM     24  C   UNL     1       6.941   8.825  -1.657  1.00  0.00     0.037 A 
ATOM     25  C   UNL     1       5.114   5.647  -7.766  1.00  0.00     0.037 A 
ATOM     26  C   UNL     1       7.229   9.565  -2.854  1.00  0.00     0.049 A 
ATOM     27  C   UNL     1       5.748   7.011  -7.729  1.00  0.00     0.074 A 
ATOM     28  C   UNL     1       7.816  10.808  -2.983  1.00  0.00     0.029 A 
ATOM     29  N   UNL     1       6.939   9.117  -4.139  1.00  0.00    -0.354 N 
ATOM     30  N   UNL     1       6.140   7.701  -6.681  1.00  0.00    -0.248 NA
ATOM     31  C   UNL     1       5.955   7.692  -9.011  1.00  0.00     0.031 C 
ATOM     32  C   UNL     1       7.841  11.130  -4.344  1.00  0.00     0.029 A 
ATOM     33  C   UNL     1       7.317  10.066  -5.068  1.00  0.00     0.049 A 
ATOM     34  H   UNL     1       6.524   8.250  -4.354  1.00  0.00     0.167 HD
ATOM     35  C   UNL     1       6.651   8.893  -7.176  1.00  0.00     0.074 A 
ATOM     36  C   UNL     1       6.522   8.828  -8.620  1.00  0.00     0.031 C 
ATOM     37  C   UNL     1       7.178   9.945  -6.502  1.00  0.00     0.037 A 
BRANCH  24  38
ATOM     38  C   UNL     1       7.282   9.404  -0.314  1.00  0.00     0.058 A 
ATOM     39  C   UNL     1       6.547  10.488   0.191  1.00  0.00     0.135 A 
ATOM     40  C   UNL     1       8.291   8.862   0.499  1.00  0.00     0.135 A 
ATOM     41  F   UNL     1       5.559  11.033  -0.535  1.00  0.00    -0.206 F 
ATOM     42  C   UNL     1       6.793  11.009   1.457  1.00  0.00     0.059 A 
ATOM     43  C   UNL     1       8.539   9.352   1.779  1.00  0.00     0.059 A 
ATOM     44  F   UNL     1       8.998   7.800   0.080  1.00  0.00    -0.206 F 
ATOM     45  C   UNL     1       7.785  10.428   2.248  1.00  0.00     0.060 A 
BRANCH  45  46
ATOM     46  S   UNL     1       8.019  11.047   3.929  1.00  0.00     0.124 S 
ATOM     47  O   UNL     1       8.677  12.326   3.690  1.00  0.00    -0.237 OA
ATOM     48  O   UNL     1       6.647  11.118   4.425  1.00  0.00    -0.237 OA
ATOM     49  O   UNL     1       8.846  10.018   4.554  1.00  0.00    -0.744 OA
ENDBRANCH  45  46
ENDBRANCH  24  38
BRANCH  25  50
ATOM     50  C   UNL     1       4.733   4.971  -9.035  1.00  0.00     0.058 A 
ATOM     51  C   UNL     1       3.383   4.757  -9.364  1.00  0.00     0.135 A 
ATOM     52  C   UNL     1       5.703   4.436  -9.893  1.00  0.00     0.135 A 
ATOM     53  F   UNL     1       2.412   5.244  -8.575  1.00  0.00    -0.206 F 
ATOM     54  C   UNL     1       3.011   3.995 -10.467  1.00  0.00     0.059 A 
ATOM     55  C   UNL     1       5.355   3.688 -11.017  1.00  0.00     0.059 A 
ATOM     56  F   UNL     1       7.005   4.625  -9.632  1.00  0.00    -0.206 F 
ATOM     57  C   UNL     1       4.005   3.452 -11.280  1.00  0.00     0.060 A 
BRANCH  57  58
ATOM     58  S   UNL     1       3.500   2.412 -12.669  1.00  0.00     0.124 S 
ATOM     59  O   UNL     1       2.949   1.250 -11.979  1.00  0.00    -0.237 OA
ATOM     60  O   UNL     1       2.532   3.263 -13.352  1.00  0.00    -0.237 OA
ATOM     61  O   UNL     1       4.748   2.180 -13.389  1.00  0.00    -0.744 OA
ENDBRANCH  57  58
ENDBRANCH  25  50
BRANCH  37  62
ATOM     62  C   UNL     1       7.680  11.106  -7.307  1.00  0.00     0.058 A 
ATOM     63  C   UNL     1       9.060  11.335  -7.419  1.00  0.00     0.135 A 
ATOM     64  C   UNL     1       6.801  12.075  -7.812  1.00  0.00     0.135 A 
ATOM     65  F   UNL     1       9.937  10.435  -6.944  1.00  0.00    -0.206 F 
ATOM     66  C   UNL     1       9.554  12.513  -7.962  1.00  0.00     0.059 A 
ATOM     67  C   UNL     1       7.274  13.253  -8.379  1.00  0.00     0.059 A 
ATOM     68  F   UNL     1       5.474  11.889  -7.734  1.00  0.00    -0.206 F 
ATOM     69  C   UNL     1       8.652  13.474  -8.421  1.00  0.00     0.060 A 
BRANCH  69  70
ATOM     70  S   UNL     1       9.310  15.030  -9.054  1.00  0.00     0.124 S 
ATOM     71  O   UNL     1       9.808  15.660  -7.836  1.00  0.00    -0.237 OA
ATOM     72  O   UNL     1      10.328  14.574  -9.995  1.00  0.00    -0.237 OA
ATOM     73  O   UNL     1       8.146  15.669  -9.661  1.00  0.00    -0.744 OA
ENDBRANCH  69  70
ENDBRANCH  37  62
ENDBRANCH  11  12
ENDBRANCH   4   6
ENDBRANCH   3   4
ENDBRANCH   2   3
ENDBRANCH   1   2
BRANCH   1  74
ATOM     74  O   UNL     1       4.039  -1.375  -1.022  1.00  0.00    -0.374 OA
BRANCH  74  75
ATOM     75  C   UNL     1       2.701  -1.623  -1.473  1.00  0.00     0.202 C 
BRANCH  75  76
ATOM     76  C   UNL     1       2.741  -2.613  -2.637  1.00  0.00     0.261 C 
BRANCH  76  77
ATOM     77  O   UNL     1       3.174  -3.878  -2.117  1.00  0.00    -0.460 OA
BRANCH  77  78
ATOM     78  C   UNL     1       4.514  -4.068  -2.085  1.00  0.00     0.341 C 
ATOM     79  O   UNL     1       5.375  -3.468  -2.706  1.00  0.00    -0.246 OA
BRANCH  78  80
ATOM     80  C   UNL     1       4.807  -4.971  -0.964  1.00  0.00     0.095 A 
ATOM     81  C   UNL     1       5.872  -4.662  -0.106  1.00  0.00     0.019 A 
ATOM     82  C   UNL     1       4.008  -6.077  -0.705  1.00  0.00     0.138 A 
ATOM     83  C   UNL     1       6.116  -5.455   1.019  1.00  0.00     0.010 A 
ATOM     84  C   UNL     1       4.257  -6.874   0.403  1.00  0.00     0.049 A 
ATOM     85  F   UNL     1       3.001  -6.420  -1.520  1.00  0.00    -0.206 F 
ATOM     86  C   UNL     1       5.319  -6.580   1.273  1.00  0.00    -0.015 A 
BRANCH  86  87
ATOM     87  C   UNL     1       5.620  -7.511   2.358  1.00  0.00    -0.018 A 
ATOM     88  C   UNL     1       6.256  -8.725   2.050  1.00  0.00     0.010 A 
ATOM     89  C   UNL     1       5.215  -7.272   3.678  1.00  0.00     0.010 A 
ATOM     90  C   UNL     1       6.452  -9.698   3.028  1.00  0.00     0.021 A 
ATOM     91  C   UNL     1       5.413  -8.247   4.661  1.00  0.00     0.021 A 
ATOM     92  C   UNL     1       6.019  -9.459   4.329  1.00  0.00     0.041 A 
ATOM     93  Cl  UNL     1       6.216 -10.678   5.526  1.00  0.00    -0.084 Cl
ENDBRANCH  86  87
ENDBRANCH  78  80
ENDBRANCH  77  78
ENDBRANCH  76  77
ENDBRANCH  75  76
ENDBRANCH  74  75
ENDBRANCH   1  74
TORSDOF 18
