REMARK SMILES Nc1oc2ccc(F)cc2c(=O)c1[C@@H]1[NH2+][C@H](C(=O)OCCOCCOC(=O)c2ccc(-c3c4nc(c(-c5c(F)cc(S(=O)(=O)[O-])cc5F)c5ccc([nH]5)c(-c5c(F)cc(S(=O)(=O)[O-])cc5F)c5nc(c(-c6c(F)cc(S(=O)(=O)[O-])cc6F)c6ccc3[nH]6)C=C5)C=C4)cc2)CS1
REMARK SMILES IDX 23 1 22 2 21 3 20 4 19 5 17 6 18 7 16 8 14 9 15 10 95 11
REMARK SMILES IDX 94 14 13 15 2 16 3 17 4 18 11 19 5 20 10 21 12 22 6 23 9 24
REMARK SMILES IDX 7 25 8 26 1 27 24 30 25 31 26 32 27 33 28 34 29 35 93 36
REMARK SMILES IDX 30 37 92 38 31 39 32 40 33 41 86 42 34 43 91 44 85 45 87 46
REMARK SMILES IDX 35 47 90 48 84 49 83 50 36 52 70 53 49 54 69 55 50 56 53 57
REMARK SMILES IDX 68 58 88 59 51 60 52 61 67 63 89 64 54 65 37 66 38 67 47 68
REMARK SMILES IDX 39 69 40 70 46 71 48 72 41 73 42 74 43 75 44 76 45 77 71 78
REMARK SMILES IDX 72 79 81 80 73 81 74 82 80 83 82 84 75 85 76 86 77 87 78 88
REMARK SMILES IDX 79 89 55 90 56 91 65 92 57 93 58 94 64 95 66 96 59 97 60 98
REMARK SMILES IDX 61 99 62 100 63 101
REMARK H PARENT 15 12 15 13 1 28 1 29 87 51 53 62
REMARK Flexibility Score: inf
ROOT
ATOM      1  C   UNL     1      -1.918  -3.162   2.211  1.00  0.00     0.202 C 
ENDROOT
BRANCH   1   2
ATOM      2  O   UNL     1      -2.911  -2.166   2.454  1.00  0.00    -0.374 OA
BRANCH   2   3
ATOM      3  C   UNL     1      -3.042  -1.112   1.497  1.00  0.00     0.202 C 
BRANCH   3   4
ATOM      4  C   UNL     1      -1.899  -0.096   1.432  1.00  0.00     0.261 C 
BRANCH   4   5
ATOM      5  O   UNL     1      -0.670  -0.758   1.115  1.00  0.00    -0.459 OA
BRANCH   5   6
ATOM      6  C   UNL     1       0.424  -0.395   1.831  1.00  0.00     0.365 C 
ATOM      7  O   UNL     1       0.463   0.546   2.619  1.00  0.00    -0.245 OA
BRANCH   6   8
ATOM      8  C   UNL     1       1.597  -1.377   1.675  1.00  0.00     0.304 C 
ATOM      9  C   UNL     1       1.968  -1.950  -0.632  1.00  0.00     0.283 C 
ATOM     10  N   UNL     1       1.418  -2.434   0.642  1.00  0.00    -0.319 N 
ATOM     11  S   UNL     1       3.464  -1.014  -0.214  1.00  0.00    -0.087 SA
ATOM     12  H   UNL     1       1.910  -3.280   0.928  1.00  0.00     0.348 HD
ATOM     13  H   UNL     1       0.426  -2.647   0.532  1.00  0.00     0.348 HD
ATOM     14  C   UNL     1       2.918  -0.643   1.473  1.00  0.00     0.153 C 
BRANCH   9  15
ATOM     15  C   UNL     1       0.977  -1.218  -1.497  1.00  0.00     0.128 A 
ATOM     16  C   UNL     1       0.645   0.094  -1.511  1.00  0.00     0.205 A 
ATOM     17  O   UNL     1      -0.363   0.607  -2.308  1.00  0.00    -0.440 OA
ATOM     18  C   UNL     1      -0.612  -0.038  -3.481  1.00  0.00     0.140 A 
ATOM     19  C   UNL     1       0.327  -2.082  -2.531  1.00  0.00     0.205 A 
ATOM     20  C   UNL     1      -1.152   0.704  -4.522  1.00  0.00     0.051 A 
ATOM     21  C   UNL     1      -0.299  -1.379  -3.657  1.00  0.00     0.068 A 
ATOM     22  O   UNL     1       0.391  -3.305  -2.522  1.00  0.00    -0.288 OA
ATOM     23  C   UNL     1      -1.347   0.093  -5.758  1.00  0.00     0.043 A 
ATOM     24  C   UNL     1      -0.512  -2.002  -4.884  1.00  0.00     0.055 A 
ATOM     25  C   UNL     1      -1.034  -1.250  -5.928  1.00  0.00     0.124 A 
ATOM     26  F   UNL     1      -1.246  -1.831  -7.114  1.00  0.00    -0.207 F 
BRANCH  16  27
ATOM     27  N   UNL     1       1.223   1.074  -0.756  1.00  0.00    -0.369 N 
ATOM     28  H   UNL     1       0.912   2.005  -0.836  1.00  0.00     0.159 HD
ATOM     29  H   UNL     1       1.951   0.851  -0.133  1.00  0.00     0.159 HD
ENDBRANCH  16  27
ENDBRANCH   9  15
ENDBRANCH   6   8
ENDBRANCH   5   6
ENDBRANCH   4   5
ENDBRANCH   3   4
ENDBRANCH   2   3
ENDBRANCH   1   2
BRANCH   1  30
ATOM     30  C   UNL     1      -2.172  -4.189   1.096  1.00  0.00     0.261 C 
BRANCH  30  31
ATOM     31  O   UNL     1      -2.478  -3.624  -0.188  1.00  0.00    -0.460 OA
BRANCH  31  32
ATOM     32  C   UNL     1      -3.782  -3.692  -0.544  1.00  0.00     0.338 C 
ATOM     33  O   UNL     1      -4.706  -4.160   0.117  1.00  0.00    -0.246 OA
BRANCH  32  34
ATOM     34  C   UNL     1      -4.002  -2.978  -1.813  1.00  0.00     0.060 A 
ATOM     35  C   UNL     1      -3.369  -3.385  -2.984  1.00  0.00     0.016 A 
ATOM     36  C   UNL     1      -4.938  -1.937  -1.844  1.00  0.00     0.016 A 
ATOM     37  C   UNL     1      -3.695  -2.750  -4.189  1.00  0.00     0.010 A 
ATOM     38  C   UNL     1      -5.259  -1.308  -3.053  1.00  0.00     0.010 A 
ATOM     39  C   UNL     1      -4.644  -1.707  -4.245  1.00  0.00    -0.014 A 
BRANCH  39  40
ATOM     40  C   UNL     1      -5.060  -1.154  -5.568  1.00  0.00     0.031 A 
ATOM     41  C   UNL     1      -4.778   0.266  -5.986  1.00  0.00     0.074 A 
ATOM     42  C   UNL     1      -5.673  -1.973  -6.447  1.00  0.00     0.049 A 
ATOM     43  N   UNL     1      -4.755   0.765  -7.198  1.00  0.00    -0.248 NA
ATOM     44  C   UNL     1      -4.443   1.245  -4.941  1.00  0.00     0.031 C 
ATOM     45  C   UNL     1      -6.072  -3.356  -6.177  1.00  0.00     0.029 A 
ATOM     46  N   UNL     1      -6.066  -1.762  -7.745  1.00  0.00    -0.354 N 
ATOM     47  C   UNL     1      -4.247   2.052  -7.075  1.00  0.00     0.074 A 
ATOM     48  C   UNL     1      -4.110   2.313  -5.660  1.00  0.00     0.031 C 
ATOM     49  C   UNL     1      -6.643  -3.871  -7.276  1.00  0.00     0.029 A 
ATOM     50  C   UNL     1      -6.676  -2.851  -8.319  1.00  0.00     0.049 A 
ATOM     51  H   UNL     1      -5.924  -0.911  -8.219  1.00  0.00     0.167 HD
ATOM     52  C   UNL     1      -3.865   2.900  -8.059  1.00  0.00     0.037 A 
ATOM     53  C   UNL     1      -7.214  -3.009  -9.544  1.00  0.00     0.037 A 
ATOM     54  C   UNL     1      -4.214   2.734  -9.445  1.00  0.00     0.049 A 
ATOM     55  C   UNL     1      -7.109  -1.893 -10.545  1.00  0.00     0.074 A 
ATOM     56  C   UNL     1      -3.957   3.584 -10.507  1.00  0.00     0.029 A 
ATOM     57  N   UNL     1      -4.980   1.693  -9.946  1.00  0.00    -0.354 N 
ATOM     58  N   UNL     1      -6.448  -0.764 -10.453  1.00  0.00    -0.248 NA
ATOM     59  C   UNL     1      -7.821  -2.072 -11.817  1.00  0.00     0.031 C 
ATOM     60  C   UNL     1      -4.665   3.115 -11.621  1.00  0.00     0.029 A 
ATOM     61  C   UNL     1      -5.297   1.932 -11.273  1.00  0.00     0.049 A 
ATOM     62  H   UNL     1      -5.258   0.900  -9.433  1.00  0.00     0.167 HD
ATOM     63  C   UNL     1      -6.636  -0.112 -11.667  1.00  0.00     0.074 A 
ATOM     64  C   UNL     1      -7.471  -0.977 -12.477  1.00  0.00     0.031 C 
ATOM     65  C   UNL     1      -6.150   1.088 -12.074  1.00  0.00     0.037 A 
BRANCH  52  66
ATOM     66  C   UNL     1      -3.015   4.081  -7.683  1.00  0.00     0.058 A 
ATOM     67  C   UNL     1      -1.630   3.924  -7.495  1.00  0.00     0.135 A 
ATOM     68  C   UNL     1      -3.538   5.379  -7.622  1.00  0.00     0.135 A 
ATOM     69  F   UNL     1      -1.071   2.707  -7.560  1.00  0.00    -0.206 F 
ATOM     70  C   UNL     1      -0.798   5.010  -7.249  1.00  0.00     0.059 A 
ATOM     71  C   UNL     1      -2.721   6.484  -7.391  1.00  0.00     0.059 A 
ATOM     72  F   UNL     1      -4.852   5.583  -7.803  1.00  0.00    -0.206 F 
ATOM     73  C   UNL     1      -1.353   6.289  -7.203  1.00  0.00     0.060 A 
BRANCH  73  74
ATOM     74  S   UNL     1      -0.251   7.686  -6.893  1.00  0.00     0.124 S 
ATOM     75  O   UNL     1       0.219   7.393  -5.542  1.00  0.00    -0.237 OA
ATOM     76  O   UNL     1       0.740   7.538  -7.954  1.00  0.00    -0.237 OA
ATOM     77  O   UNL     1      -1.129   8.845  -7.010  1.00  0.00    -0.744 OA
ENDBRANCH  73  74
ENDBRANCH  52  66
BRANCH  53  78
ATOM     78  C   UNL     1      -7.925  -4.273  -9.873  1.00  0.00     0.058 A 
ATOM     79  C   UNL     1      -7.432  -5.165 -10.834  1.00  0.00     0.135 A 
ATOM     80  C   UNL     1      -9.117  -4.616  -9.211  1.00  0.00     0.135 A 
ATOM     81  F   UNL     1      -6.306  -4.876 -11.504  1.00  0.00    -0.206 F 
ATOM     82  C   UNL     1      -8.095  -6.352 -11.131  1.00  0.00     0.059 A 
ATOM     83  C   UNL     1      -9.781  -5.809  -9.469  1.00  0.00     0.059 A 
ATOM     84  F   UNL     1      -9.629  -3.797  -8.279  1.00  0.00    -0.206 F 
ATOM     85  C   UNL     1      -9.266  -6.668 -10.438  1.00  0.00     0.060 A 
BRANCH  85  86
ATOM     86  S   UNL     1     -10.091  -8.233 -10.796  1.00  0.00     0.124 S 
ATOM     87  O   UNL     1     -10.613  -7.991 -12.136  1.00  0.00    -0.237 OA
ATOM     88  O   UNL     1      -8.990  -9.187 -10.700  1.00  0.00    -0.237 OA
ATOM     89  O   UNL     1     -11.093  -8.335  -9.738  1.00  0.00    -0.744 OA
ENDBRANCH  85  86
ENDBRANCH  53  78
BRANCH  65  90
ATOM     90  C   UNL     1      -6.505   1.547 -13.462  1.00  0.00     0.058 A 
ATOM     91  C   UNL     1      -7.812   1.935 -13.797  1.00  0.00     0.135 A 
ATOM     92  C   UNL     1      -5.522   1.629 -14.462  1.00  0.00     0.135 A 
ATOM     93  F   UNL     1      -8.792   1.873 -12.882  1.00  0.00    -0.206 F 
ATOM     94  C   UNL     1      -8.139   2.354 -15.083  1.00  0.00     0.059 A 
ATOM     95  C   UNL     1      -5.820   2.079 -15.745  1.00  0.00     0.059 A 
ATOM     96  F   UNL     1      -4.253   1.284 -14.195  1.00  0.00    -0.206 F 
ATOM     97  C   UNL     1      -7.136   2.422 -16.051  1.00  0.00     0.060 A 
BRANCH  97  98
ATOM     98  S   UNL     1      -7.573   2.977 -17.712  1.00  0.00     0.124 S 
ATOM     99  O   UNL     1      -8.323   1.831 -18.216  1.00  0.00    -0.237 OA
ATOM    100  O   UNL     1      -8.356   4.179 -17.443  1.00  0.00    -0.237 OA
ATOM    101  O   UNL     1      -6.279   3.208 -18.346  1.00  0.00    -0.744 OA
ENDBRANCH  97  98
ENDBRANCH  65  90
ENDBRANCH  39  40
ENDBRANCH  32  34
ENDBRANCH  31  32
ENDBRANCH  30  31
ENDBRANCH   1  30
TORSDOF 19
