REMARK SMILES CCCN(C(=O)NCC(=O)OCCOCCOC(=O)c1ccc(-c2c3nc(c(-c4c(F)cc(S(=O)(=O)[O-])cc4F)c4ccc([nH]4)c(-c4c(F)cc(S(=O)(=O)[O-])cc4F)c4nc(c(-c5c(F)cc(S(=O)(=O)[O-])cc5F)c5ccc2[nH]5)C=C4)C=C3)cc1)C(C)C
REMARK SMILES IDX 13 1 12 2 11 3 9 4 10 5 8 6 7 7 5 8 6 9 4 11 3 12 2 13 1 14
REMARK SMILES IDX 86 15 87 16 88 17 14 18 15 19 16 20 17 21 18 22 19 23 20 24
REMARK SMILES IDX 21 25 85 26 22 27 84 28 23 29 24 30 25 31 78 32 26 33 83 34
REMARK SMILES IDX 77 35 79 36 27 37 82 38 76 39 75 40 28 42 62 43 41 44 61 45
REMARK SMILES IDX 42 46 45 47 60 48 80 49 43 50 44 51 59 53 81 54 46 55 29 56
REMARK SMILES IDX 30 57 39 58 31 59 32 60 38 61 40 62 33 63 34 64 35 65 36 66
REMARK SMILES IDX 37 67 63 68 64 69 73 70 65 71 66 72 72 73 74 74 67 75 68 76
REMARK SMILES IDX 69 77 70 78 71 79 47 80 48 81 57 82 49 83 50 84 56 85 58 86
REMARK SMILES IDX 51 87 52 88 53 89 54 90 55 91
REMARK H PARENT 7 10 79 41 45 52
REMARK Flexibility Score: inf
ROOT
ATOM      1  C   UNL     1       1.921  -2.059  -7.884  1.00  0.00     0.202 C 
ENDROOT
BRANCH   1   2
ATOM      2  C   UNL     1       2.344  -1.097  -6.769  1.00  0.00     0.261 C 
BRANCH   2   3
ATOM      3  O   UNL     1       1.504  -1.269  -5.617  1.00  0.00    -0.462 OA
BRANCH   3   4
ATOM      4  C   UNL     1       0.827  -0.166  -5.202  1.00  0.00     0.325 C 
ATOM      5  O   UNL     1       1.023   0.977  -5.598  1.00  0.00    -0.250 OA
BRANCH   4   6
ATOM      6  C   UNL     1      -0.337  -0.518  -4.280  1.00  0.00     0.240 C 
BRANCH   6   7
ATOM      7  N   UNL     1      -0.419  -1.871  -3.754  1.00  0.00    -0.327 N 
ATOM      8  C   UNL     1      -0.050  -2.520  -2.640  1.00  0.00     0.318 C 
ATOM      9  O   UNL     1      -0.531  -3.656  -2.555  1.00  0.00    -0.249 OA
ATOM     10  H   UNL     1      -0.868  -2.475  -4.388  1.00  0.00     0.166 HD
BRANCH   8  11
ATOM     11  N   UNL     1       0.776  -1.990  -1.677  1.00  0.00    -0.322 N 
BRANCH  11  12
ATOM     12  C   UNL     1       1.483  -0.706  -1.757  1.00  0.00     0.121 C 
BRANCH  12  13
ATOM     13  C   UNL     1       0.687   0.516  -1.280  1.00  0.00     0.018 C 
ATOM     14  C   UNL     1       0.955   0.939   0.154  1.00  0.00     0.006 C 
ENDBRANCH  12  13
ENDBRANCH  11  12
BRANCH  11  15
ATOM     15  C   UNL     1       1.067  -2.878  -0.515  1.00  0.00     0.080 C 
ATOM     16  C   UNL     1       2.560  -3.140  -0.294  1.00  0.00     0.031 C 
ATOM     17  C   UNL     1       0.394  -2.402   0.769  1.00  0.00     0.031 C 
ENDBRANCH  11  15
ENDBRANCH   8  11
ENDBRANCH   6   7
ENDBRANCH   4   6
ENDBRANCH   3   4
ENDBRANCH   2   3
ENDBRANCH   1   2
BRANCH   1  18
ATOM     18  O   UNL     1       0.607  -1.857  -8.412  1.00  0.00    -0.374 OA
BRANCH  18  19
ATOM     19  C   UNL     1      -0.490  -2.352  -7.644  1.00  0.00     0.202 C 
BRANCH  19  20
ATOM     20  C   UNL     1      -0.763  -3.860  -7.709  1.00  0.00     0.261 C 
BRANCH  20  21
ATOM     21  O   UNL     1       0.322  -4.639  -7.181  1.00  0.00    -0.460 OA
BRANCH  21  22
ATOM     22  C   UNL     1       1.011  -5.343  -8.109  1.00  0.00     0.338 C 
ATOM     23  O   UNL     1       0.754  -5.428  -9.305  1.00  0.00    -0.246 OA
BRANCH  22  24
ATOM     24  C   UNL     1       2.257  -5.884  -7.535  1.00  0.00     0.060 A 
ATOM     25  C   UNL     1       3.442  -5.647  -8.243  1.00  0.00     0.016 A 
ATOM     26  C   UNL     1       2.267  -6.672  -6.382  1.00  0.00     0.016 A 
ATOM     27  C   UNL     1       4.632  -6.244  -7.835  1.00  0.00     0.010 A 
ATOM     28  C   UNL     1       3.463  -7.278  -5.978  1.00  0.00     0.010 A 
ATOM     29  C   UNL     1       4.642  -7.097  -6.724  1.00  0.00    -0.014 A 
BRANCH  29  30
ATOM     30  C   UNL     1       5.859  -7.895  -6.434  1.00  0.00     0.031 A 
ATOM     31  C   UNL     1       5.918  -9.332  -6.881  1.00  0.00     0.074 A 
ATOM     32  C   UNL     1       6.913  -7.336  -5.811  1.00  0.00     0.049 A 
ATOM     33  N   UNL     1       6.877 -10.207  -6.727  1.00  0.00    -0.248 NA
ATOM     34  C   UNL     1       4.739  -9.851  -7.594  1.00  0.00     0.031 C 
ATOM     35  C   UNL     1       6.982  -5.950  -5.348  1.00  0.00     0.029 A 
ATOM     36  N   UNL     1       8.125  -7.871  -5.451  1.00  0.00    -0.354 N 
ATOM     37  C   UNL     1       6.415 -11.383  -7.308  1.00  0.00     0.074 A 
ATOM     38  C   UNL     1       5.083 -11.114  -7.805  1.00  0.00     0.031 C 
ATOM     39  C   UNL     1       8.167  -5.750  -4.745  1.00  0.00     0.029 A 
ATOM     40  C   UNL     1       8.929  -6.997  -4.759  1.00  0.00     0.049 A 
ATOM     41  H   UNL     1       8.393  -8.793  -5.668  1.00  0.00     0.167 HD
ATOM     42  C   UNL     1       7.047 -12.575  -7.421  1.00  0.00     0.037 A 
ATOM     43  C   UNL     1      10.132  -7.189  -4.182  1.00  0.00     0.037 A 
ATOM     44  C   UNL     1       8.382 -12.831  -6.945  1.00  0.00     0.049 A 
ATOM     45  C   UNL     1      10.803  -8.534  -4.300  1.00  0.00     0.074 A 
ATOM     46  C   UNL     1       9.129 -13.990  -7.067  1.00  0.00     0.029 A 
ATOM     47  N   UNL     1       9.164 -11.923  -6.249  1.00  0.00    -0.354 N 
ATOM     48  N   UNL     1      10.377  -9.617  -4.904  1.00  0.00    -0.248 NA
ATOM     49  C   UNL     1      12.121  -8.680  -3.664  1.00  0.00     0.031 C 
ATOM     50  C   UNL     1      10.344 -13.799  -6.402  1.00  0.00     0.029 A 
ATOM     51  C   UNL     1      10.373 -12.505  -5.907  1.00  0.00     0.049 A 
ATOM     52  H   UNL     1       8.899 -11.000  -6.029  1.00  0.00     0.167 HD
ATOM     53  C   UNL     1      11.383 -10.565  -4.741  1.00  0.00     0.074 A 
ATOM     54  C   UNL     1      12.444  -9.923  -3.994  1.00  0.00     0.031 C 
ATOM     55  C   UNL     1      11.424 -11.851  -5.170  1.00  0.00     0.037 A 
BRANCH  42  56
ATOM     56  C   UNL     1       6.304 -13.710  -8.066  1.00  0.00     0.058 A 
ATOM     57  C   UNL     1       6.102 -13.770  -9.454  1.00  0.00     0.135 A 
ATOM     58  C   UNL     1       5.854 -14.790  -7.290  1.00  0.00     0.135 A 
ATOM     59  F   UNL     1       6.497 -12.755 -10.239  1.00  0.00    -0.206 F 
ATOM     60  C   UNL     1       5.474 -14.859 -10.049  1.00  0.00     0.059 A 
ATOM     61  C   UNL     1       5.243 -15.900  -7.866  1.00  0.00     0.059 A 
ATOM     62  F   UNL     1       6.019 -14.780  -5.958  1.00  0.00    -0.206 F 
ATOM     63  C   UNL     1       5.053 -15.922  -9.247  1.00  0.00     0.060 A 
BRANCH  63  64
ATOM     64  S   UNL     1       4.277 -17.348 -10.039  1.00  0.00     0.124 S 
ATOM     65  O   UNL     1       2.968 -16.808 -10.393  1.00  0.00    -0.237 OA
ATOM     66  O   UNL     1       5.177 -17.612 -11.157  1.00  0.00    -0.237 OA
ATOM     67  O   UNL     1       4.274 -18.361  -8.988  1.00  0.00    -0.744 OA
ENDBRANCH  63  64
ENDBRANCH  42  56
BRANCH  43  68
ATOM     68  C   UNL     1      10.771  -6.090  -3.409  1.00  0.00     0.058 A 
ATOM     69  C   UNL     1      11.935  -5.455  -3.865  1.00  0.00     0.135 A 
ATOM     70  C   UNL     1      10.236  -5.671  -2.181  1.00  0.00     0.135 A 
ATOM     71  F   UNL     1      12.490  -5.827  -5.029  1.00  0.00    -0.206 F 
ATOM     72  C   UNL     1      12.560  -4.458  -3.122  1.00  0.00     0.059 A 
ATOM     73  C   UNL     1      10.828  -4.659  -1.432  1.00  0.00     0.059 A 
ATOM     74  F   UNL     1       9.117  -6.238  -1.705  1.00  0.00    -0.206 F 
ATOM     75  C   UNL     1      11.999  -4.069  -1.904  1.00  0.00     0.060 A 
BRANCH  75  76
ATOM     76  S   UNL     1      12.797  -2.754  -0.957  1.00  0.00     0.124 S 
ATOM     77  O   UNL     1      13.940  -3.457  -0.387  1.00  0.00    -0.237 OA
ATOM     78  O   UNL     1      13.102  -1.771  -1.992  1.00  0.00    -0.237 OA
ATOM     79  O   UNL     1      11.763  -2.352  -0.008  1.00  0.00    -0.744 OA
ENDBRANCH  75  76
ENDBRANCH  43  68
BRANCH  55  80
ATOM     80  C   UNL     1      12.667 -12.643  -4.874  1.00  0.00     0.058 A 
ATOM     81  C   UNL     1      12.951 -13.113  -3.582  1.00  0.00     0.135 A 
ATOM     82  C   UNL     1      13.557 -12.984  -5.906  1.00  0.00     0.135 A 
ATOM     83  F   UNL     1      12.136 -12.811  -2.559  1.00  0.00    -0.206 F 
ATOM     84  C   UNL     1      14.087 -13.873  -3.319  1.00  0.00     0.059 A 
ATOM     85  C   UNL     1      14.684 -13.764  -5.671  1.00  0.00     0.059 A 
ATOM     86  F   UNL     1      13.325 -12.570  -7.162  1.00  0.00    -0.206 F 
ATOM     87  C   UNL     1      14.948 -14.194  -4.371  1.00  0.00     0.060 A 
BRANCH  87  88
ATOM     88  S   UNL     1      16.402 -15.205  -4.024  1.00  0.00     0.124 S 
ATOM     89  O   UNL     1      17.283 -14.240  -3.374  1.00  0.00    -0.237 OA
ATOM     90  O   UNL     1      15.860 -16.250  -3.160  1.00  0.00    -0.237 OA
ATOM     91  O   UNL     1      16.828 -15.653  -5.347  1.00  0.00    -0.744 OA
ENDBRANCH  87  88
ENDBRANCH  55  80
ENDBRANCH  29  30
ENDBRANCH  22  24
ENDBRANCH  21  22
ENDBRANCH  20  21
ENDBRANCH  19  20
ENDBRANCH  18  19
ENDBRANCH   1  18
TORSDOF 22
