REMARK SMILES CCN(CC)c1ccc([C@@H]2[NH2+][C@@H](C(=O)OCCOCCOC(=O)c3ccc(-c4c5nc(c(-c6c(F)cc(S(=O)(=O)[O-])cc6F)c6ccc([nH]6)c(-c6c(F)cc(S(=O)(=O)[O-])cc6F)c6nc(c(-c7c(F)cc(S(=O)(=O)[O-])cc7F)c7ccc4[nH]7)C=C6)C=C5)cc3)Cc3c2[nH]c2ccccc32)cc1
REMARK SMILES IDX 18 1 17 2 16 3 15 4 13 5 14 6 12 7 10 8 11 9 92 10 91 13
REMARK SMILES IDX 93 14 90 15 99 16 94 17 98 19 95 20 97 21 96 22 9 23 6 24
REMARK SMILES IDX 7 25 101 26 8 27 100 28 3 29 2 30 1 31 4 32 5 33 19 34 20 35
REMARK SMILES IDX 21 36 22 37 23 38 24 39 25 40 89 41 26 42 88 43 27 44 28 45
REMARK SMILES IDX 29 46 82 47 30 48 87 49 81 50 83 51 31 52 86 53 80 54 79 55
REMARK SMILES IDX 32 57 66 58 45 59 65 60 46 61 49 62 64 63 84 64 47 65 48 66
REMARK SMILES IDX 63 68 85 69 50 70 33 71 34 72 43 73 35 74 36 75 42 76 44 77
REMARK SMILES IDX 37 78 38 79 39 80 40 81 41 82 67 83 68 84 77 85 69 86 70 87
REMARK SMILES IDX 76 88 78 89 71 90 72 91 73 92 74 93 75 94 51 95 52 96 61 97
REMARK SMILES IDX 53 98 54 99 60 100 62 101 55 102 56 103 57 104 58 105 59 106
REMARK H PARENT 11 11 11 12 93 18 83 56 49 67
REMARK Flexibility Score: inf
ROOT
ATOM      1  O   UNL     1       9.799   2.165   1.351  1.00  0.00    -0.374 OA
ENDROOT
BRANCH   1   2
ATOM      2  C   UNL     1       9.520   0.962   2.049  1.00  0.00     0.202 C 
BRANCH   2   3
ATOM      3  C   UNL     1       8.390   0.028   1.598  1.00  0.00     0.261 C 
BRANCH   3   4
ATOM      4  O   UNL     1       8.278  -0.264   0.199  1.00  0.00    -0.459 OA
BRANCH   4   5
ATOM      5  C   UNL     1       7.325   0.498  -0.412  1.00  0.00     0.365 C 
ATOM      6  O   UNL     1       6.984   1.615  -0.028  1.00  0.00    -0.245 OA
BRANCH   5   7
ATOM      7  C   UNL     1       6.560  -0.243  -1.500  1.00  0.00     0.298 C 
ATOM      8  C   UNL     1       6.082  -2.639  -0.729  1.00  0.00     0.262 C 
ATOM      9  N   UNL     1       5.678  -1.204  -0.829  1.00  0.00    -0.323 N 
ATOM     10  C   UNL     1       6.798  -3.017  -1.990  1.00  0.00     0.083 A 
ATOM     11  H   UNL     1       5.546  -0.868   0.124  1.00  0.00     0.347 HD
ATOM     12  H   UNL     1       4.857  -1.232  -1.433  1.00  0.00     0.347 HD
ATOM     13  C   UNL     1       7.079  -2.152  -3.029  1.00  0.00    -0.006 A 
ATOM     14  N   UNL     1       7.074  -4.273  -2.476  1.00  0.00    -0.353 N 
ATOM     15  C   UNL     1       7.309  -0.704  -2.761  1.00  0.00     0.115 C 
ATOM     16  C   UNL     1       6.566  -2.882  -4.140  1.00  0.00     0.003 A 
ATOM     17  C   UNL     1       6.730  -4.237  -3.821  1.00  0.00     0.046 A 
ATOM     18  H   UNL     1       7.440  -5.038  -1.976  1.00  0.00     0.166 HD
ATOM     19  C   UNL     1       5.863  -2.557  -5.317  1.00  0.00     0.010 A 
ATOM     20  C   UNL     1       6.404  -5.276  -4.697  1.00  0.00     0.026 A 
ATOM     21  C   UNL     1       5.374  -3.596  -6.123  1.00  0.00     0.001 A 
ATOM     22  C   UNL     1       5.685  -4.928  -5.844  1.00  0.00     0.002 A 
BRANCH   8  23
ATOM     23  C   UNL     1       4.673  -3.297  -0.554  1.00  0.00     0.016 A 
ATOM     24  C   UNL     1       1.911  -2.739  -0.849  1.00  0.00     0.037 A 
ATOM     25  C   UNL     1       2.601  -3.474  -1.812  1.00  0.00     0.026 A 
ATOM     26  C   UNL     1       2.567  -2.525   0.370  1.00  0.00     0.026 A 
ATOM     27  C   UNL     1       3.959  -3.767  -1.666  1.00  0.00     0.012 A 
ATOM     28  C   UNL     1       3.921  -2.840   0.543  1.00  0.00     0.012 A 
BRANCH  24  29
ATOM     29  N   UNL     1       0.676  -2.159  -1.109  1.00  0.00    -0.372 N 
BRANCH  29  30
ATOM     30  C   UNL     1       0.617  -0.696  -1.269  1.00  0.00     0.113 C 
ATOM     31  C   UNL     1       0.594   0.053   0.054  1.00  0.00     0.027 C 
ENDBRANCH  29  30
BRANCH  29  32
ATOM     32  C   UNL     1      -0.411  -2.960  -1.669  1.00  0.00     0.113 C 
ATOM     33  C   UNL     1      -0.469  -2.946  -3.192  1.00  0.00     0.027 C 
ENDBRANCH  29  32
ENDBRANCH  24  29
ENDBRANCH   8  23
ENDBRANCH   5   7
ENDBRANCH   4   5
ENDBRANCH   3   4
ENDBRANCH   2   3
ENDBRANCH   1   2
BRANCH   1  34
ATOM     34  C   UNL     1      10.181   2.110  -0.013  1.00  0.00     0.202 C 
BRANCH  34  35
ATOM     35  C   UNL     1      11.470   1.389  -0.436  1.00  0.00     0.261 C 
BRANCH  35  36
ATOM     36  O   UNL     1      11.815   0.229   0.326  1.00  0.00    -0.460 OA
BRANCH  36  37
ATOM     37  C   UNL     1      12.767   0.466   1.267  1.00  0.00     0.338 C 
ATOM     38  O   UNL     1      13.326   1.525   1.492  1.00  0.00    -0.246 OA
BRANCH  37  39
ATOM     39  C   UNL     1      12.970  -0.731   2.107  1.00  0.00     0.060 A 
ATOM     40  C   UNL     1      12.986  -0.544   3.494  1.00  0.00     0.016 A 
ATOM     41  C   UNL     1      13.232  -1.989   1.558  1.00  0.00     0.016 A 
ATOM     42  C   UNL     1      13.325  -1.601   4.334  1.00  0.00     0.010 A 
ATOM     43  C   UNL     1      13.575  -3.050   2.405  1.00  0.00     0.010 A 
ATOM     44  C   UNL     1      13.661  -2.851   3.793  1.00  0.00    -0.014 A 
BRANCH  44  45
ATOM     45  C   UNL     1      14.207  -3.895   4.695  1.00  0.00     0.031 A 
ATOM     46  C   UNL     1      15.695  -4.102   4.777  1.00  0.00     0.074 A 
ATOM     47  C   UNL     1      13.382  -4.602   5.489  1.00  0.00     0.049 A 
ATOM     48  N   UNL     1      16.378  -4.892   5.565  1.00  0.00    -0.248 NA
ATOM     49  C   UNL     1      16.523  -3.315   3.850  1.00  0.00     0.031 C 
ATOM     50  C   UNL     1      11.924  -4.485   5.508  1.00  0.00     0.029 A 
ATOM     51  N   UNL     1      13.657  -5.550   6.441  1.00  0.00    -0.354 N 
ATOM     52  C   UNL     1      17.715  -4.693   5.238  1.00  0.00     0.074 A 
ATOM     53  C   UNL     1      17.744  -3.736   4.152  1.00  0.00     0.031 C 
ATOM     54  C   UNL     1      11.432  -5.326   6.434  1.00  0.00     0.029 A 
ATOM     55  C   UNL     1      12.537  -6.048   7.062  1.00  0.00     0.049 A 
ATOM     56  H   UNL     1      14.570  -5.846   6.660  1.00  0.00     0.167 HD
ATOM     57  C   UNL     1      18.817  -5.245   5.800  1.00  0.00     0.037 A 
ATOM     58  C   UNL     1      12.416  -6.977   8.030  1.00  0.00     0.037 A 
ATOM     59  C   UNL     1      18.788  -6.198   6.880  1.00  0.00     0.049 A 
ATOM     60  C   UNL     1      13.655  -7.595   8.621  1.00  0.00     0.074 A 
ATOM     61  C   UNL     1      19.853  -6.795   7.533  1.00  0.00     0.029 A 
ATOM     62  N   UNL     1      17.633  -6.697   7.465  1.00  0.00    -0.354 N 
ATOM     63  N   UNL     1      14.913  -7.366   8.327  1.00  0.00    -0.248 NA
ATOM     64  C   UNL     1      13.456  -8.586   9.687  1.00  0.00     0.031 C 
ATOM     65  C   UNL     1      19.341  -7.686   8.485  1.00  0.00     0.029 A 
ATOM     66  C   UNL     1      17.959  -7.611   8.455  1.00  0.00     0.049 A 
ATOM     67  H   UNL     1      16.717  -6.441   7.213  1.00  0.00     0.167 HD
ATOM     68  C   UNL     1      15.656  -8.172   9.183  1.00  0.00     0.074 A 
ATOM     69  C   UNL     1      14.706  -8.878  10.020  1.00  0.00     0.031 C 
ATOM     70  C   UNL     1      17.002  -8.316   9.271  1.00  0.00     0.037 A 
BRANCH  57  71
ATOM     71  C   UNL     1      20.155  -4.840   5.245  1.00  0.00     0.058 A 
ATOM     72  C   UNL     1      20.703  -3.572   5.496  1.00  0.00     0.135 A 
ATOM     73  C   UNL     1      20.913  -5.742   4.481  1.00  0.00     0.135 A 
ATOM     74  F   UNL     1      20.013  -2.666   6.207  1.00  0.00    -0.206 F 
ATOM     75  C   UNL     1      21.945  -3.204   4.989  1.00  0.00     0.059 A 
ATOM     76  C   UNL     1      22.168  -5.403   3.983  1.00  0.00     0.059 A 
ATOM     77  F   UNL     1      20.434  -6.966   4.210  1.00  0.00    -0.206 F 
ATOM     78  C   UNL     1      22.670  -4.126   4.232  1.00  0.00     0.060 A 
BRANCH  78  79
ATOM     79  S   UNL     1      24.283  -3.637   3.584  1.00  0.00     0.124 S 
ATOM     80  O   UNL     1      23.900  -2.750   2.490  1.00  0.00    -0.237 OA
ATOM     81  O   UNL     1      24.902  -2.991   4.737  1.00  0.00    -0.237 OA
ATOM     82  O   UNL     1      24.886  -4.905   3.183  1.00  0.00    -0.744 OA
ENDBRANCH  78  79
ENDBRANCH  57  71
BRANCH  58  83
ATOM     83  C   UNL     1      11.067  -7.375   8.508  1.00  0.00     0.058 A 
ATOM     84  C   UNL     1      10.608  -7.006   9.781  1.00  0.00     0.135 A 
ATOM     85  C   UNL     1      10.208  -8.130   7.695  1.00  0.00     0.135 A 
ATOM     86  F   UNL     1      11.399  -6.292  10.597  1.00  0.00    -0.206 F 
ATOM     87  C   UNL     1       9.350  -7.383  10.239  1.00  0.00     0.059 A 
ATOM     88  C   UNL     1       8.937  -8.499   8.121  1.00  0.00     0.059 A 
ATOM     89  F   UNL     1      10.596  -8.496   6.464  1.00  0.00    -0.206 F 
ATOM     90  C   UNL     1       8.520  -8.129   9.399  1.00  0.00     0.060 A 
BRANCH  90  91
ATOM     91  S   UNL     1       6.867  -8.569   9.977  1.00  0.00     0.124 S 
ATOM     92  O   UNL     1       7.159  -9.658  10.901  1.00  0.00    -0.237 OA
ATOM     93  O   UNL     1       6.410  -7.322  10.583  1.00  0.00    -0.237 OA
ATOM     94  O   UNL     1       6.175  -8.948   8.749  1.00  0.00    -0.744 OA
ENDBRANCH  90  91
ENDBRANCH  58  83
BRANCH  70  95
ATOM     95  C   UNL     1      17.520  -9.263  10.318  1.00  0.00     0.058 A 
ATOM     96  C   UNL     1      17.390 -10.654  10.182  1.00  0.00     0.135 A 
ATOM     97  C   UNL     1      18.153  -8.774  11.473  1.00  0.00     0.135 A 
ATOM     98  F   UNL     1      16.790 -11.173   9.098  1.00  0.00    -0.206 F 
ATOM     99  C   UNL     1      17.826 -11.527  11.174  1.00  0.00     0.059 A 
ATOM    100  C   UNL     1      18.622  -9.630  12.466  1.00  0.00     0.059 A 
ATOM    101  F   UNL     1      18.318  -7.454  11.647  1.00  0.00    -0.206 F 
ATOM    102  C   UNL     1      18.433 -11.004  12.317  1.00  0.00     0.060 A 
BRANCH 102 103
ATOM    103  S   UNL     1      18.982 -12.140  13.608  1.00  0.00     0.124 S 
ATOM    104  O   UNL     1      17.724 -12.451  14.278  1.00  0.00    -0.237 OA
ATOM    105  O   UNL     1      19.578 -13.229  12.840  1.00  0.00    -0.237 OA
ATOM    106  O   UNL     1      19.926 -11.340  14.383  1.00  0.00    -0.744 OA
ENDBRANCH 102 103
ENDBRANCH  70  95
ENDBRANCH  44  45
ENDBRANCH  37  39
ENDBRANCH  36  37
ENDBRANCH  35  36
ENDBRANCH  34  35
ENDBRANCH   1  34
TORSDOF 21
