REMARK SMILES O=C(Nc1ccc(O)cc1C(=O)OCCOCCOC(=O)c1ccc(-c2c3nc(c(-c4c(F)cc(S(=O)(=O)[O-])cc4F)c4ccc([nH]4)c(-c4c(F)cc(S(=O)(=O)[O-])cc4F)c4nc(c(-c5c(F)cc(S(=O)(=O)[O-])cc5F)c5ccc2[nH]5)C=C4)C=C3)cc1)c1ccc(Br)nc1
REMARK SMILES IDX 17 1 16 2 15 3 14 4 13 5 11 6 12 7 10 8 4 9 5 10 6 11 9 12
REMARK SMILES IDX 7 13 3 14 1 15 2 16 88 18 89 19 94 20 90 21 93 22 91 23
REMARK SMILES IDX 92 24 8 25 18 27 19 28 20 29 21 30 22 31 23 32 87 33 24 34
REMARK SMILES IDX 86 35 25 36 26 37 27 38 80 39 28 40 85 41 79 42 81 43 29 44
REMARK SMILES IDX 84 45 78 46 77 47 30 49 64 50 43 51 63 52 44 53 47 54 62 55
REMARK SMILES IDX 82 56 45 57 46 58 61 60 83 61 48 62 31 63 32 64 41 65 33 66
REMARK SMILES IDX 34 67 40 68 42 69 35 70 36 71 37 72 38 73 39 74 65 75 66 76
REMARK SMILES IDX 75 77 67 78 68 79 74 80 76 81 69 82 70 83 71 84 72 85 73 86
REMARK SMILES IDX 49 87 50 88 59 89 51 90 52 91 58 92 60 93 53 94 54 95 55 96
REMARK SMILES IDX 56 97 57 98
REMARK H PARENT 3 17 8 26 81 48 47 59
REMARK Flexibility Score: inf
ROOT
ATOM      1  C   UNL     1       4.793  -1.499   4.337  1.00  0.00     0.202 C 
ENDROOT
BRANCH   1   2
ATOM      2  O   UNL     1       4.226  -0.929   5.517  1.00  0.00    -0.374 OA
BRANCH   2   3
ATOM      3  C   UNL     1       2.950  -0.299   5.393  1.00  0.00     0.202 C 
BRANCH   3   4
ATOM      4  C   UNL     1       2.957   1.127   4.835  1.00  0.00     0.261 C 
BRANCH   4   5
ATOM      5  O   UNL     1       3.456   1.147   3.484  1.00  0.00    -0.460 OA
BRANCH   5   6
ATOM      6  C   UNL     1       4.631   1.800   3.318  1.00  0.00     0.340 C 
ATOM      7  O   UNL     1       5.190   2.495   4.154  1.00  0.00    -0.246 OA
BRANCH   6   8
ATOM      8  C   UNL     1       5.270   1.463   2.017  1.00  0.00     0.087 A 
ATOM      9  C   UNL     1       4.604   1.069   0.837  1.00  0.00     0.056 A 
ATOM     10  C   UNL     1       5.370   0.929  -0.332  1.00  0.00     0.031 A 
ATOM     11  C   UNL     1       6.765   0.987  -0.307  1.00  0.00     0.048 A 
ATOM     12  C   UNL     1       6.678   1.509   2.035  1.00  0.00     0.064 A 
ATOM     13  C   UNL     1       7.410   1.234   0.891  1.00  0.00     0.116 A 
BRANCH   9  14
ATOM     14  N   UNL     1       3.209   0.831   0.822  1.00  0.00    -0.321 N 
ATOM     15  O   UNL     1       1.196   0.206  -0.018  1.00  0.00    -0.269 OA
ATOM     16  C   UNL     1       2.419   0.105  -0.050  1.00  0.00     0.257 C 
ATOM     17  H   UNL     1       2.716   1.255   1.560  1.00  0.00     0.170 HD
BRANCH  16  18
ATOM     18  C   UNL     1       3.004  -0.874  -0.985  1.00  0.00     0.058 A 
ATOM     19  C   UNL     1       2.662  -0.855  -2.337  1.00  0.00     0.018 A 
ATOM     20  C   UNL     1       3.906  -1.835  -0.548  1.00  0.00     0.126 A 
ATOM     21  C   UNL     1       3.292  -1.743  -3.208  1.00  0.00     0.037 A 
ATOM     22  N   UNL     1       4.546  -2.698  -1.375  1.00  0.00    -0.249 NA
ATOM     23  C   UNL     1       4.229  -2.629  -2.689  1.00  0.00     0.106 A 
ATOM     24  Br  UNL     1       5.152  -3.788  -3.873  1.00  0.00    -0.029 Br
ENDBRANCH  16  18
ENDBRANCH   9  14
BRANCH  13  25
ATOM     25  O   UNL     1       8.767   1.225   0.984  1.00  0.00    -0.508 OA
ATOM     26  H   UNL     1       9.287   1.042   0.227  1.00  0.00     0.293 HD
ENDBRANCH  13  25
ENDBRANCH   6   8
ENDBRANCH   5   6
ENDBRANCH   4   5
ENDBRANCH   3   4
ENDBRANCH   2   3
ENDBRANCH   1   2
BRANCH   1  27
ATOM     27  C   UNL     1       4.230  -2.851   3.883  1.00  0.00     0.261 C 
BRANCH  27  28
ATOM     28  O   UNL     1       2.869  -2.746   3.427  1.00  0.00    -0.460 OA
BRANCH  28  29
ATOM     29  C   UNL     1       1.955  -3.319   4.248  1.00  0.00     0.338 C 
ATOM     30  O   UNL     1       2.182  -3.959   5.267  1.00  0.00    -0.246 OA
BRANCH  29  31
ATOM     31  C   UNL     1       0.591  -2.911   3.862  1.00  0.00     0.060 A 
ATOM     32  C   UNL     1      -0.234  -2.388   4.866  1.00  0.00     0.016 A 
ATOM     33  C   UNL     1       0.102  -3.097   2.567  1.00  0.00     0.016 A 
ATOM     34  C   UNL     1      -1.568  -2.095   4.592  1.00  0.00     0.010 A 
ATOM     35  C   UNL     1      -1.241  -2.809   2.297  1.00  0.00     0.010 A 
ATOM     36  C   UNL     1      -2.091  -2.341   3.316  1.00  0.00    -0.014 A 
BRANCH  36  37
ATOM     37  C   UNL     1      -3.553  -2.233   3.090  1.00  0.00     0.031 A 
ATOM     38  C   UNL     1      -4.387  -3.487   3.086  1.00  0.00     0.074 A 
ATOM     39  C   UNL     1      -4.136  -1.033   2.920  1.00  0.00     0.049 A 
ATOM     40  N   UNL     1      -5.670  -3.629   2.876  1.00  0.00    -0.248 NA
ATOM     41  C   UNL     1      -3.677  -4.749   3.353  1.00  0.00     0.031 C 
ATOM     42  C   UNL     1      -3.439   0.253   2.939  1.00  0.00     0.029 A 
ATOM     43  N   UNL     1      -5.448  -0.702   2.691  1.00  0.00    -0.354 N 
ATOM     44  C   UNL     1      -5.922  -4.992   2.977  1.00  0.00     0.074 A 
ATOM     45  C   UNL     1      -4.654  -5.638   3.240  1.00  0.00     0.031 C 
ATOM     46  C   UNL     1      -4.331   1.234   2.721  1.00  0.00     0.029 A 
ATOM     47  C   UNL     1      -5.653   0.645   2.513  1.00  0.00     0.049 A 
ATOM     48  H   UNL     1      -6.173  -1.367   2.656  1.00  0.00     0.167 HD
ATOM     49  C   UNL     1      -7.104  -5.645   2.867  1.00  0.00     0.037 A 
ATOM     50  C   UNL     1      -6.774   1.323   2.196  1.00  0.00     0.037 A 
ATOM     51  C   UNL     1      -8.363  -4.996   2.607  1.00  0.00     0.049 A 
ATOM     52  C   UNL     1      -8.066   0.568   2.017  1.00  0.00     0.074 A 
ATOM     53  C   UNL     1      -9.619  -5.568   2.497  1.00  0.00     0.029 A 
ATOM     54  N   UNL     1      -8.526  -3.633   2.407  1.00  0.00    -0.354 N 
ATOM     55  N   UNL     1      -8.295  -0.719   2.136  1.00  0.00    -0.248 NA
ATOM     56  C   UNL     1      -9.254   1.357   1.661  1.00  0.00     0.031 C 
ATOM     57  C   UNL     1     -10.534  -4.557   2.184  1.00  0.00     0.029 A 
ATOM     58  C   UNL     1      -9.857  -3.348   2.151  1.00  0.00     0.049 A 
ATOM     59  H   UNL     1      -7.802  -2.967   2.442  1.00  0.00     0.167 HD
ATOM     60  C   UNL     1      -9.655  -0.888   1.898  1.00  0.00     0.074 A 
ATOM     61  C   UNL     1     -10.200   0.428   1.636  1.00  0.00     0.031 C 
ATOM     62  C   UNL     1     -10.387  -2.030   1.899  1.00  0.00     0.037 A 
BRANCH  49  63
ATOM     63  C   UNL     1      -7.088  -7.143   3.003  1.00  0.00     0.058 A 
ATOM     64  C   UNL     1      -6.877  -7.772   4.240  1.00  0.00     0.135 A 
ATOM     65  C   UNL     1      -7.322  -7.960   1.885  1.00  0.00     0.135 A 
ATOM     66  F   UNL     1      -6.632  -7.039   5.338  1.00  0.00    -0.206 F 
ATOM     67  C   UNL     1      -6.875  -9.158   4.360  1.00  0.00     0.059 A 
ATOM     68  C   UNL     1      -7.351  -9.348   1.986  1.00  0.00     0.059 A 
ATOM     69  F   UNL     1      -7.528  -7.411   0.677  1.00  0.00    -0.206 F 
ATOM     70  C   UNL     1      -7.112  -9.938   3.227  1.00  0.00     0.060 A 
BRANCH  70  71
ATOM     71  S   UNL     1      -7.111 -11.735   3.399  1.00  0.00     0.124 S 
ATOM     72  O   UNL     1      -5.688 -12.010   3.573  1.00  0.00    -0.237 OA
ATOM     73  O   UNL     1      -7.944 -11.937   4.580  1.00  0.00    -0.237 OA
ATOM     74  O   UNL     1      -7.689 -12.198   2.141  1.00  0.00    -0.744 OA
ENDBRANCH  70  71
ENDBRANCH  49  63
BRANCH  50  75
ATOM     75  C   UNL     1      -6.725   2.798   2.016  1.00  0.00     0.058 A 
ATOM     76  C   UNL     1      -7.343   3.662   2.932  1.00  0.00     0.135 A 
ATOM     77  C   UNL     1      -6.057   3.374   0.924  1.00  0.00     0.135 A 
ATOM     78  F   UNL     1      -8.004   3.159   3.986  1.00  0.00    -0.206 F 
ATOM     79  C   UNL     1      -7.311   5.043   2.767  1.00  0.00     0.059 A 
ATOM     80  C   UNL     1      -5.990   4.752   0.751  1.00  0.00     0.059 A 
ATOM     81  F   UNL     1      -5.443   2.591   0.022  1.00  0.00    -0.206 F 
ATOM     82  C   UNL     1      -6.629   5.579   1.673  1.00  0.00     0.060 A 
BRANCH  82  83
ATOM     83  S   UNL     1      -6.552   7.375   1.495  1.00  0.00     0.124 S 
ATOM     84  O   UNL     1      -7.910   7.686   1.066  1.00  0.00    -0.237 OA
ATOM     85  O   UNL     1      -6.194   7.802   2.844  1.00  0.00    -0.237 OA
ATOM     86  O   UNL     1      -5.512   7.567   0.488  1.00  0.00    -0.744 OA
ENDBRANCH  82  83
ENDBRANCH  50  75
BRANCH  62  87
ATOM     87  C   UNL     1     -11.866  -1.909   1.646  1.00  0.00     0.058 A 
ATOM     88  C   UNL     1     -12.378  -1.627   0.370  1.00  0.00     0.135 A 
ATOM     89  C   UNL     1     -12.784  -2.133   2.686  1.00  0.00     0.135 A 
ATOM     90  F   UNL     1     -11.544  -1.400  -0.657  1.00  0.00    -0.206 F 
ATOM     91  C   UNL     1     -13.748  -1.549   0.138  1.00  0.00     0.059 A 
ATOM     92  C   UNL     1     -14.158  -2.087   2.470  1.00  0.00     0.059 A 
ATOM     93  F   UNL     1     -12.348  -2.418   3.923  1.00  0.00    -0.206 F 
ATOM     94  C   UNL     1     -14.630  -1.782   1.194  1.00  0.00     0.060 A 
BRANCH  94  95
ATOM     95  S   UNL     1     -16.406  -1.711   0.873  1.00  0.00     0.124 S 
ATOM     96  O   UNL     1     -16.625  -0.274   0.749  1.00  0.00    -0.237 OA
ATOM     97  O   UNL     1     -16.532  -2.481  -0.362  1.00  0.00    -0.237 OA
ATOM     98  O   UNL     1     -16.991  -2.336   2.055  1.00  0.00    -0.744 OA
ENDBRANCH  94  95
ENDBRANCH  62  87
ENDBRANCH  36  37
ENDBRANCH  29  31
ENDBRANCH  28  29
ENDBRANCH  27  28
ENDBRANCH   1  27
TORSDOF 20
