REMARK SMILES Cc1nn2c(nnc3c(=O)n(CCCC(=O)OCCOCCOC(=O)c4ccc(-c5c6nc(c(-c7c(F)cc(S(=O)(=O)[O-])cc7F)c7ccc([nH]7)c(-c7c(F)cc(S(=O)(=O)[O-])cc7F)c7nc(c(-c8c(F)cc(S(=O)(=O)[O-])cc8F)c8ccc5[nH]8)C=C7)C=C6)cc4)ccc32)c1-c1ccc(F)cc1
REMARK SMILES IDX 19 1 18 2 17 3 15 4 16 5 14 6 13 7 12 8 11 9 1 10 2 11 3 12
REMARK SMILES IDX 95 13 4 14 5 15 94 16 6 17 8 18 93 19 7 20 9 21 92 22 10 23
REMARK SMILES IDX 96 24 97 25 102 26 98 27 101 28 99 29 100 30 20 31 21 32
REMARK SMILES IDX 22 33 23 34 24 35 25 36 26 37 27 38 91 39 28 40 90 41 29 42
REMARK SMILES IDX 30 43 31 44 84 45 32 46 89 47 83 48 85 49 33 50 88 51 82 52
REMARK SMILES IDX 81 53 34 55 68 56 47 57 67 58 48 59 51 60 66 61 86 62 49 63
REMARK SMILES IDX 50 64 65 66 87 67 52 68 35 69 36 70 45 71 37 72 38 73 44 74
REMARK SMILES IDX 46 75 39 76 40 77 41 78 42 79 43 80 69 81 70 82 79 83 71 84
REMARK SMILES IDX 72 85 78 86 80 87 73 88 74 89 75 90 76 91 77 92 53 93 54 94
REMARK SMILES IDX 63 95 55 96 56 97 62 98 64 99 57 100 58 101 59 102 60 103
REMARK SMILES IDX 61 104
REMARK H PARENT 85 54 51 65
REMARK Flexibility Score: inf
ROOT
ATOM      1  C   UNL     1      -4.892   2.758 -10.845  1.00  0.00     0.202 C 
ENDROOT
BRANCH   1   2
ATOM      2  C   UNL     1      -4.133   2.002  -9.761  1.00  0.00     0.261 C 
BRANCH   2   3
ATOM      3  O   UNL     1      -2.870   2.620  -9.480  1.00  0.00    -0.463 OA
BRANCH   3   4
ATOM      4  C   UNL     1      -1.785   1.817  -9.603  1.00  0.00     0.305 C 
ATOM      5  O   UNL     1      -1.797   0.669 -10.037  1.00  0.00    -0.252 OA
BRANCH   4   6
ATOM      6  C   UNL     1      -0.493   2.497  -9.204  1.00  0.00     0.124 C 
BRANCH   6   7
ATOM      7  C   UNL     1      -0.515   3.963  -8.756  1.00  0.00     0.034 C 
BRANCH   7   8
ATOM      8  C   UNL     1      -1.346   4.349  -7.518  1.00  0.00     0.126 C 
BRANCH   8   9
ATOM      9  N   UNL     1      -1.038   3.578  -6.316  1.00  0.00    -0.313 N 
ATOM     10  C   UNL     1       1.061   0.233   0.191  1.00  0.00     0.069 C 
ATOM     11  C   UNL     1       0.592   0.286  -1.215  1.00  0.00     0.070 A 
ATOM     12  N   UNL     1       0.555   1.462  -1.861  1.00  0.00    -0.170 NA
ATOM     13  C   UNL     1       0.165  -0.781  -2.035  1.00  0.00     0.051 A 
ATOM     14  N   UNL     1      -0.006   1.179  -3.069  1.00  0.00    -0.210 N 
ATOM     15  C   UNL     1      -0.253  -0.182  -3.199  1.00  0.00     0.186 A 
ATOM     16  C   UNL     1      -0.375   2.034  -4.106  1.00  0.00     0.102 A 
ATOM     17  N   UNL     1      -0.838  -0.689  -4.320  1.00  0.00    -0.129 NA
ATOM     18  C   UNL     1      -1.032   1.447  -5.122  1.00  0.00     0.177 A 
ATOM     19  C   UNL     1      -0.083   3.454  -4.145  1.00  0.00     0.049 A 
ATOM     20  N   UNL     1      -1.254   0.089  -5.210  1.00  0.00    -0.141 NA
ATOM     21  C   UNL     1      -1.574   2.296  -6.209  1.00  0.00     0.280 A 
ATOM     22  C   UNL     1      -0.355   4.157  -5.256  1.00  0.00     0.091 A 
ATOM     23  O   UNL     1      -2.428   1.835  -6.960  1.00  0.00    -0.267 OA
BRANCH  13  24
ATOM     24  C   UNL     1       0.034  -2.207  -1.837  1.00  0.00    -0.012 A 
ATOM     25  C   UNL     1      -0.949  -2.715  -0.981  1.00  0.00     0.012 A 
ATOM     26  C   UNL     1       0.818  -3.084  -2.602  1.00  0.00     0.012 A 
ATOM     27  C   UNL     1      -1.145  -4.095  -0.892  1.00  0.00     0.040 A 
ATOM     28  C   UNL     1       0.620  -4.462  -2.510  1.00  0.00     0.040 A 
ATOM     29  C   UNL     1      -0.360  -4.953  -1.657  1.00  0.00     0.123 A 
ATOM     30  F   UNL     1      -0.562  -6.275  -1.579  1.00  0.00    -0.207 F 
ENDBRANCH  13  24
ENDBRANCH   8   9
ENDBRANCH   7   8
ENDBRANCH   6   7
ENDBRANCH   4   6
ENDBRANCH   3   4
ENDBRANCH   2   3
ENDBRANCH   1   2
BRANCH   1  31
ATOM     31  O   UNL     1      -4.268   2.920 -12.119  1.00  0.00    -0.374 OA
BRANCH  31  32
ATOM     32  C   UNL     1      -3.007   3.575 -12.233  1.00  0.00     0.202 C 
BRANCH  32  33
ATOM     33  C   UNL     1      -2.930   5.077 -11.981  1.00  0.00     0.261 C 
BRANCH  33  34
ATOM     34  O   UNL     1      -3.407   5.433 -10.693  1.00  0.00    -0.460 OA
BRANCH  34  35
ATOM     35  C   UNL     1      -4.698   5.842 -10.717  1.00  0.00     0.338 C 
ATOM     36  O   UNL     1      -5.464   5.791 -11.663  1.00  0.00    -0.246 OA
BRANCH  35  37
ATOM     37  C   UNL     1      -5.043   6.476  -9.437  1.00  0.00     0.060 A 
ATOM     38  C   UNL     1      -6.344   6.981  -9.394  1.00  0.00     0.016 A 
ATOM     39  C   UNL     1      -3.992   7.031  -8.698  1.00  0.00     0.016 A 
ATOM     40  C   UNL     1      -6.499   8.269  -8.951  1.00  0.00     0.010 A 
ATOM     41  C   UNL     1      -4.144   8.323  -8.273  1.00  0.00     0.010 A 
ATOM     42  C   UNL     1      -5.359   8.954  -8.527  1.00  0.00    -0.014 A 
BRANCH  42  43
ATOM     43  C   UNL     1      -5.465  10.379  -8.341  1.00  0.00     0.031 A 
ATOM     44  C   UNL     1      -6.004  10.730  -7.016  1.00  0.00     0.074 A 
ATOM     45  C   UNL     1      -5.018  11.254  -9.260  1.00  0.00     0.049 A 
ATOM     46  N   UNL     1      -7.185  11.168  -6.737  1.00  0.00    -0.248 NA
ATOM     47  C   UNL     1      -5.210  10.324  -5.844  1.00  0.00     0.031 C 
ATOM     48  C   UNL     1      -4.222  11.006 -10.465  1.00  0.00     0.029 A 
ATOM     49  N   UNL     1      -5.119  12.606  -9.235  1.00  0.00    -0.354 N 
ATOM     50  C   UNL     1      -7.200  11.295  -5.356  1.00  0.00     0.074 A 
ATOM     51  C   UNL     1      -6.076  10.546  -4.857  1.00  0.00     0.031 C 
ATOM     52  C   UNL     1      -3.723  12.183 -10.916  1.00  0.00     0.029 A 
ATOM     53  C   UNL     1      -4.268  13.265 -10.114  1.00  0.00     0.049 A 
ATOM     54  H   UNL     1      -5.745  13.082  -8.643  1.00  0.00     0.167 HD
ATOM     55  C   UNL     1      -7.969  12.222  -4.727  1.00  0.00     0.037 A 
ATOM     56  C   UNL     1      -3.980  14.591 -10.058  1.00  0.00     0.037 A 
ATOM     57  C   UNL     1      -8.966  12.776  -5.602  1.00  0.00     0.049 A 
ATOM     58  C   UNL     1      -5.080  15.232  -9.274  1.00  0.00     0.074 A 
ATOM     59  C   UNL     1     -10.053  12.253  -6.274  1.00  0.00     0.029 A 
ATOM     60  N   UNL     1      -8.676  13.970  -6.220  1.00  0.00    -0.354 N 
ATOM     61  N   UNL     1      -6.321  15.289  -9.682  1.00  0.00    -0.248 NA
ATOM     62  C   UNL     1      -4.896  15.359  -7.834  1.00  0.00     0.031 C 
ATOM     63  C   UNL     1     -10.069  12.920  -7.533  1.00  0.00     0.029 A 
ATOM     64  C   UNL     1      -9.028  13.850  -7.543  1.00  0.00     0.049 A 
ATOM     65  H   UNL     1      -8.287  14.766  -5.792  1.00  0.00     0.167 HD
ATOM     66  C   UNL     1      -7.090  15.057  -8.547  1.00  0.00     0.074 A 
ATOM     67  C   UNL     1      -6.155  15.165  -7.429  1.00  0.00     0.031 C 
ATOM     68  C   UNL     1      -8.343  14.519  -8.631  1.00  0.00     0.037 A 
BRANCH  55  69
ATOM     69  C   UNL     1      -7.575  12.844  -3.422  1.00  0.00     0.058 A 
ATOM     70  C   UNL     1      -8.540  13.472  -2.621  1.00  0.00     0.135 A 
ATOM     71  C   UNL     1      -6.228  13.030  -3.033  1.00  0.00     0.135 A 
ATOM     72  F   UNL     1      -9.843  13.390  -2.933  1.00  0.00    -0.206 F 
ATOM     73  C   UNL     1      -8.190  14.243  -1.512  1.00  0.00     0.059 A 
ATOM     74  C   UNL     1      -5.860  13.734  -1.897  1.00  0.00     0.059 A 
ATOM     75  F   UNL     1      -5.205  12.611  -3.791  1.00  0.00    -0.206 F 
ATOM     76  C   UNL     1      -6.846  14.366  -1.160  1.00  0.00     0.060 A 
BRANCH  76  77
ATOM     77  S   UNL     1      -6.386  15.415   0.227  1.00  0.00     0.124 S 
ATOM     78  O   UNL     1      -6.727  16.738  -0.283  1.00  0.00    -0.237 OA
ATOM     79  O   UNL     1      -7.239  14.898   1.292  1.00  0.00    -0.237 OA
ATOM     80  O   UNL     1      -4.959  15.150   0.391  1.00  0.00    -0.744 OA
ENDBRANCH  76  77
ENDBRANCH  55  69
BRANCH  56  81
ATOM     81  C   UNL     1      -2.639  15.224 -10.219  1.00  0.00     0.058 A 
ATOM     82  C   UNL     1      -2.502  16.622 -10.312  1.00  0.00     0.135 A 
ATOM     83  C   UNL     1      -1.449  14.502  -9.995  1.00  0.00     0.135 A 
ATOM     84  F   UNL     1      -3.583  17.393 -10.501  1.00  0.00    -0.206 F 
ATOM     85  C   UNL     1      -1.269  17.266 -10.141  1.00  0.00     0.059 A 
ATOM     86  C   UNL     1      -0.210  15.120  -9.832  1.00  0.00     0.059 A 
ATOM     87  F   UNL     1      -1.464  13.171  -9.832  1.00  0.00    -0.206 F 
ATOM     88  C   UNL     1      -0.131  16.505  -9.878  1.00  0.00     0.060 A 
BRANCH  88  89
ATOM     89  S   UNL     1       1.427  17.334  -9.476  1.00  0.00     0.124 S 
ATOM     90  O   UNL     1       1.762  17.978 -10.742  1.00  0.00    -0.237 OA
ATOM     91  O   UNL     1       1.028  18.224  -8.392  1.00  0.00    -0.237 OA
ATOM     92  O   UNL     1       2.305  16.234  -9.085  1.00  0.00    -0.744 OA
ENDBRANCH  88  89
ENDBRANCH  56  81
BRANCH  68  93
ATOM     93  C   UNL     1      -8.979  14.404  -9.996  1.00  0.00     0.058 A 
ATOM     94  C   UNL     1      -8.505  13.564 -11.021  1.00  0.00     0.135 A 
ATOM     95  C   UNL     1     -10.212  15.035 -10.209  1.00  0.00     0.135 A 
ATOM     96  F   UNL     1      -7.385  12.846 -10.857  1.00  0.00    -0.206 F 
ATOM     97  C   UNL     1      -9.210  13.386 -12.214  1.00  0.00     0.059 A 
ATOM     98  C   UNL     1     -10.947  14.850 -11.377  1.00  0.00     0.059 A 
ATOM     99  F   UNL     1     -10.749  15.801  -9.244  1.00  0.00    -0.206 F 
ATOM    100  C   UNL     1     -10.436  14.031 -12.381  1.00  0.00     0.060 A 
BRANCH 100 101
ATOM    101  S   UNL     1     -11.387  13.740 -13.889  1.00  0.00     0.124 S 
ATOM    102  O   UNL     1     -10.565  14.394 -14.902  1.00  0.00    -0.237 OA
ATOM    103  O   UNL     1     -11.437  12.283 -13.956  1.00  0.00    -0.237 OA
ATOM    104  O   UNL     1     -12.668  14.387 -13.616  1.00  0.00    -0.744 OA
ENDBRANCH 100 101
ENDBRANCH  68  93
ENDBRANCH  42  43
ENDBRANCH  35  37
ENDBRANCH  34  35
ENDBRANCH  33  34
ENDBRANCH  32  33
ENDBRANCH  31  32
ENDBRANCH   1  31
TORSDOF 21
