REMARK SMILES CCCCCCNC(=O)Oc1cccc(-c2ccc([C@H](C)C(=O)OCCOCCOC(=O)c3ccc(-c4c5nc(c(-c6c(F)cc(S(=O)(=O)[O-])cc6F)c6ccc([nH]6)c(-c6c(F)cc(S(=O)(=O)[O-])cc6F)c6nc(c(-c7c(F)cc(S(=O)(=O)[O-])cc7F)c7ccc4[nH]7)C=C6)C=C5)cc3)cc2F)c1
REMARK SMILES IDX 24 1 22 2 23 3 20 4 21 5 19 6 16 7 17 8 100 9 18 10 99 11
REMARK SMILES IDX 101 12 15 13 11 14 12 15 102 16 13 17 14 18 10 19 8 20 7 21
REMARK SMILES IDX 9 23 6 24 5 25 4 26 3 27 2 28 1 29 25 30 26 31 27 32 28 33
REMARK SMILES IDX 29 34 30 35 31 36 32 37 33 38 34 39 98 40 35 41 97 42 36 43
REMARK SMILES IDX 37 44 38 45 91 46 39 47 96 48 90 49 92 50 40 51 95 52 89 53
REMARK SMILES IDX 88 54 41 56 75 57 54 58 74 59 55 60 58 61 73 62 93 63 56 64
REMARK SMILES IDX 57 65 72 67 94 68 59 69 42 70 43 71 52 72 44 73 45 74 51 75
REMARK SMILES IDX 53 76 46 77 47 78 48 79 49 80 50 81 76 82 77 83 86 84 78 85
REMARK SMILES IDX 79 86 85 87 87 88 80 89 81 90 82 91 83 92 84 93 60 94 61 95
REMARK SMILES IDX 70 96 62 97 63 98 69 99 71 100 64 101 65 102 66 103 67 104
REMARK SMILES IDX 68 105
REMARK H PARENT 7 22 92 55 58 66
REMARK Flexibility Score: inf
ROOT
ATOM      1  O   UNL     1      -2.714   3.067 -14.364  1.00  0.00    -0.463 OA
ENDROOT
BRANCH   1   2
ATOM      2  C   UNL     1      -3.269   1.856 -14.652  1.00  0.00     0.313 C 
ATOM      3  O   UNL     1      -2.832   1.058 -15.473  1.00  0.00    -0.252 OA
BRANCH   2   4
ATOM      4  C   UNL     1      -4.549   1.613 -13.861  1.00  0.00     0.126 C 
ATOM      5  C   UNL     1      -4.606   2.267 -12.481  1.00  0.00     0.025 C 
BRANCH   4   6
ATOM      6  C   UNL     1      -5.757   2.002 -14.680  1.00  0.00    -0.031 A 
ATOM      7  C   UNL     1      -7.993   2.715 -16.228  1.00  0.00     0.018 A 
ATOM      8  C   UNL     1      -6.881   3.563 -16.154  1.00  0.00     0.012 A 
ATOM      9  C   UNL     1      -7.975   1.522 -15.497  1.00  0.00     0.131 A 
ATOM     10  C   UNL     1      -5.782   3.218 -15.379  1.00  0.00     0.005 A 
ATOM     11  C   UNL     1      -6.872   1.159 -14.732  1.00  0.00     0.044 A 
ATOM     12  F   UNL     1      -9.034   0.698 -15.512  1.00  0.00    -0.206 F 
BRANCH   7  13
ATOM     13  C   UNL     1      -9.155   3.138 -16.999  1.00  0.00    -0.012 A 
ATOM     14  C   UNL     1     -11.415   3.978 -17.043  1.00  0.00     0.133 A 
ATOM     15  C   UNL     1     -11.346   4.164 -18.421  1.00  0.00     0.047 A 
ATOM     16  C   UNL     1     -10.347   3.440 -16.335  1.00  0.00     0.056 A 
ATOM     17  C   UNL     1     -10.171   3.841 -19.096  1.00  0.00     0.004 A 
ATOM     18  C   UNL     1      -9.079   3.337 -18.387  1.00  0.00     0.009 A 
BRANCH  14  19
ATOM     19  O   UNL     1     -12.627   4.268 -16.407  1.00  0.00    -0.410 OA
BRANCH  19  20
ATOM     20  C   UNL     1     -12.581   5.009 -15.237  1.00  0.00     0.412 C 
ATOM     21  N   UNL     1     -13.781   5.052 -14.592  1.00  0.00    -0.321 N 
ATOM     22  H   UNL     1     -13.832   5.608 -13.781  1.00  0.00     0.167 HD
ATOM     23  O   UNL     1     -11.598   5.580 -14.770  1.00  0.00    -0.224 OA
BRANCH  21  24
ATOM     24  C   UNL     1     -14.986   4.358 -14.988  1.00  0.00     0.119 C 
BRANCH  24  25
ATOM     25  C   UNL     1     -15.491   3.437 -13.880  1.00  0.00     0.021 C 
BRANCH  25  26
ATOM     26  C   UNL     1     -15.936   4.163 -12.606  1.00  0.00     0.002 C 
BRANCH  26  27
ATOM     27  C   UNL     1     -17.029   5.219 -12.806  1.00  0.00    -0.000 C 
BRANCH  27  28
ATOM     28  C   UNL     1     -18.319   4.706 -13.450  1.00  0.00    -0.003 C 
ATOM     29  C   UNL     1     -19.026   3.654 -12.611  1.00  0.00     0.004 C 
ENDBRANCH  27  28
ENDBRANCH  26  27
ENDBRANCH  25  26
ENDBRANCH  24  25
ENDBRANCH  21  24
ENDBRANCH  19  20
ENDBRANCH  14  19
ENDBRANCH   7  13
ENDBRANCH   4   6
ENDBRANCH   2   4
ENDBRANCH   1   2
BRANCH   1  30
ATOM     30  C   UNL     1      -1.534   3.394 -15.109  1.00  0.00     0.261 C 
BRANCH  30  31
ATOM     31  C   UNL     1      -0.265   3.318 -14.258  1.00  0.00     0.202 C 
BRANCH  31  32
ATOM     32  O   UNL     1       0.042   2.081 -13.622  1.00  0.00    -0.374 OA
BRANCH  32  33
ATOM     33  C   UNL     1      -0.760   1.656 -12.524  1.00  0.00     0.202 C 
BRANCH  33  34
ATOM     34  C   UNL     1      -0.725   2.470 -11.223  1.00  0.00     0.261 C 
BRANCH  34  35
ATOM     35  O   UNL     1      -1.214   3.816 -11.365  1.00  0.00    -0.460 OA
BRANCH  35  36
ATOM     36  C   UNL     1      -0.262   4.772 -11.208  1.00  0.00     0.338 C 
ATOM     37  O   UNL     1       0.920   4.596 -10.961  1.00  0.00    -0.246 OA
BRANCH  36  38
ATOM     38  C   UNL     1      -0.794   6.102 -11.550  1.00  0.00     0.060 A 
ATOM     39  C   UNL     1      -0.159   6.809 -12.580  1.00  0.00     0.016 A 
ATOM     40  C   UNL     1      -1.795   6.705 -10.787  1.00  0.00     0.016 A 
ATOM     41  C   UNL     1      -0.484   8.143 -12.815  1.00  0.00     0.010 A 
ATOM     42  C   UNL     1      -2.116   8.047 -11.022  1.00  0.00     0.010 A 
ATOM     43  C   UNL     1      -1.433   8.783 -12.009  1.00  0.00    -0.014 A 
BRANCH  43  44
ATOM     44  C   UNL     1      -1.604  10.255 -12.105  1.00  0.00     0.031 A 
ATOM     45  C   UNL     1      -0.992  11.136 -11.049  1.00  0.00     0.074 A 
ATOM     46  C   UNL     1      -2.271  10.801 -13.138  1.00  0.00     0.049 A 
ATOM     47  N   UNL     1      -1.060  12.434 -10.910  1.00  0.00    -0.248 NA
ATOM     48  C   UNL     1      -0.198  10.461 -10.008  1.00  0.00     0.031 C 
ATOM     49  C   UNL     1      -2.868  10.054 -14.245  1.00  0.00     0.029 A 
ATOM     50  N   UNL     1      -2.564  12.111 -13.419  1.00  0.00    -0.354 N 
ATOM     51  C   UNL     1      -0.333  12.733  -9.763  1.00  0.00     0.074 A 
ATOM     52  C   UNL     1       0.144  11.476  -9.227  1.00  0.00     0.031 C 
ATOM     53  C   UNL     1      -3.469  10.919 -15.079  1.00  0.00     0.029 A 
ATOM     54  C   UNL     1      -3.333  12.274 -14.547  1.00  0.00     0.049 A 
ATOM     55  H   UNL     1      -2.255  12.864 -12.865  1.00  0.00     0.167 HD
ATOM     56  C   UNL     1      -0.080  13.944  -9.212  1.00  0.00     0.037 A 
ATOM     57  C   UNL     1      -3.886  13.384 -15.075  1.00  0.00     0.037 A 
ATOM     58  C   UNL     1      -0.555  15.191  -9.757  1.00  0.00     0.049 A 
ATOM     59  C   UNL     1      -3.649  14.714 -14.407  1.00  0.00     0.074 A 
ATOM     60  C   UNL     1      -0.337  16.474  -9.285  1.00  0.00     0.029 A 
ATOM     61  N   UNL     1      -1.351  15.312 -10.887  1.00  0.00    -0.354 N 
ATOM     62  N   UNL     1      -2.944  14.985 -13.334  1.00  0.00    -0.248 NA
ATOM     63  C   UNL     1      -4.279  15.891 -15.023  1.00  0.00     0.031 C 
ATOM     64  C   UNL     1      -1.048  17.364 -10.095  1.00  0.00     0.029 A 
ATOM     65  C   UNL     1      -1.655  16.644 -11.113  1.00  0.00     0.049 A 
ATOM     66  H   UNL     1      -1.655  14.561 -11.447  1.00  0.00     0.167 HD
ATOM     67  C   UNL     1      -3.016  16.365 -13.167  1.00  0.00     0.074 A 
ATOM     68  C   UNL     1      -3.830  16.873 -14.252  1.00  0.00     0.031 C 
ATOM     69  C   UNL     1      -2.454  17.140 -12.207  1.00  0.00     0.037 A 
BRANCH  56  70
ATOM     70  C   UNL     1       0.722  13.983  -7.939  1.00  0.00     0.058 A 
ATOM     71  C   UNL     1       2.093  13.681  -7.913  1.00  0.00     0.135 A 
ATOM     72  C   UNL     1       0.117  14.369  -6.731  1.00  0.00     0.135 A 
ATOM     73  F   UNL     1       2.721  13.292  -9.034  1.00  0.00    -0.206 F 
ATOM     74  C   UNL     1       2.828  13.733  -6.733  1.00  0.00     0.059 A 
ATOM     75  C   UNL     1       0.839  14.457  -5.544  1.00  0.00     0.059 A 
ATOM     76  F   UNL     1      -1.191  14.669  -6.696  1.00  0.00    -0.206 F 
ATOM     77  C   UNL     1       2.192  14.123  -5.553  1.00  0.00     0.060 A 
BRANCH  77  78
ATOM     78  S   UNL     1       3.161  14.188  -4.031  1.00  0.00     0.124 S 
ATOM     79  O   UNL     1       3.376  12.769  -3.762  1.00  0.00    -0.237 OA
ATOM     80  O   UNL     1       4.341  14.940  -4.445  1.00  0.00    -0.237 OA
ATOM     81  O   UNL     1       2.279  14.876  -3.094  1.00  0.00    -0.744 OA
ENDBRANCH  77  78
ENDBRANCH  56  70
BRANCH  57  82
ATOM     82  C   UNL     1      -4.728  13.283 -16.297  1.00  0.00     0.058 A 
ATOM     83  C   UNL     1      -4.302  13.823 -17.519  1.00  0.00     0.135 A 
ATOM     84  C   UNL     1      -5.974  12.635 -16.269  1.00  0.00     0.135 A 
ATOM     85  F   UNL     1      -3.125  14.462 -17.596  1.00  0.00    -0.206 F 
ATOM     86  C   UNL     1      -5.085  13.738 -18.666  1.00  0.00     0.059 A 
ATOM     87  C   UNL     1      -6.761  12.511 -17.409  1.00  0.00     0.059 A 
ATOM     88  F   UNL     1      -6.423  12.091 -15.127  1.00  0.00    -0.206 F 
ATOM     89  C   UNL     1      -6.312  13.074 -18.602  1.00  0.00     0.060 A 
BRANCH  89  90
ATOM     90  S   UNL     1      -7.294  12.925 -20.110  1.00  0.00     0.124 S 
ATOM     91  O   UNL     1      -7.753  14.297 -20.299  1.00  0.00    -0.237 OA
ATOM     92  O   UNL     1      -6.305  12.444 -21.070  1.00  0.00    -0.237 OA
ATOM     93  O   UNL     1      -8.325  11.959 -19.747  1.00  0.00    -0.744 OA
ENDBRANCH  89  90
ENDBRANCH  57  82
BRANCH  69  94
ATOM     94  C   UNL     1      -2.648  18.630 -12.305  1.00  0.00     0.058 A 
ATOM     95  C   UNL     1      -3.881  19.241 -12.030  1.00  0.00     0.135 A 
ATOM     96  C   UNL     1      -1.559  19.465 -12.609  1.00  0.00     0.135 A 
ATOM     97  F   UNL     1      -4.957  18.491 -11.741  1.00  0.00    -0.206 F 
ATOM     98  C   UNL     1      -4.033  20.624 -12.070  1.00  0.00     0.059 A 
ATOM     99  C   UNL     1      -1.680  20.851 -12.624  1.00  0.00     0.059 A 
ATOM    100  F   UNL     1      -0.353  18.935 -12.870  1.00  0.00    -0.206 F 
ATOM    101  C   UNL     1      -2.924  21.421 -12.362  1.00  0.00     0.060 A 
BRANCH 101 102
ATOM    102  S   UNL     1      -3.124  23.215 -12.362  1.00  0.00     0.124 S 
ATOM    103  O   UNL     1      -3.900  23.426 -13.579  1.00  0.00    -0.237 OA
ATOM    104  O   UNL     1      -3.834  23.449 -11.108  1.00  0.00    -0.237 OA
ATOM    105  O   UNL     1      -1.751  23.711 -12.399  1.00  0.00    -0.744 OA
ENDBRANCH 101 102
ENDBRANCH  69  94
ENDBRANCH  43  44
ENDBRANCH  36  38
ENDBRANCH  35  36
ENDBRANCH  34  35
ENDBRANCH  33  34
ENDBRANCH  32  33
ENDBRANCH  31  32
ENDBRANCH  30  31
ENDBRANCH   1  30
TORSDOF 26
