REMARK SMILES Cc1cc(C(=O)N[C@H]2C=C[C@H](C(=O)OCCOCCOC(=O)c3ccc(-c4c5nc(c(-c6c(F)cc(S(=O)(=O)[O-])cc6F)c6ccc([nH]6)c(-c6c(F)cc(S(=O)(=O)[O-])cc6F)c6nc(c(-c7c(F)cc(S(=O)(=O)[O-])cc7F)c7ccc4[nH]7)C=C6)C=C5)cc3)C2)ccc1F
REMARK SMILES IDX 18 1 17 2 16 3 15 4 14 5 12 6 13 7 11 8 8 9 9 10 89 11 10 12
REMARK SMILES IDX 7 13 5 14 6 15 4 17 1 18 2 19 3 20 92 21 91 22 93 23 90 24
REMARK SMILES IDX 19 25 20 26 21 27 22 28 23 29 24 30 88 31 25 32 87 33 26 34
REMARK SMILES IDX 27 35 28 36 81 37 29 38 86 39 80 40 82 41 30 42 85 43 79 44
REMARK SMILES IDX 78 45 31 47 65 48 44 49 64 50 45 51 48 52 63 53 83 54 46 55
REMARK SMILES IDX 47 56 62 58 84 59 49 60 32 61 33 62 42 63 34 64 35 65 41 66
REMARK SMILES IDX 43 67 36 68 37 69 38 70 39 71 40 72 66 73 67 74 76 75 68 76
REMARK SMILES IDX 69 77 75 78 77 79 70 80 71 81 72 82 73 83 74 84 50 85 51 86
REMARK SMILES IDX 60 87 52 88 53 89 59 90 61 91 54 92 55 93 56 94 57 95 58 96
REMARK H PARENT 7 16 82 46 48 57
REMARK Flexibility Score: inf
ROOT
ATOM      1  C   UNL     1       1.539   3.710   3.044  1.00  0.00     0.202 C 
ENDROOT
BRANCH   1   2
ATOM      2  O   UNL     1       1.404   3.698   1.611  1.00  0.00    -0.374 OA
BRANCH   2   3
ATOM      3  C   UNL     1       2.518   4.322   0.953  1.00  0.00     0.202 C 
BRANCH   3   4
ATOM      4  C   UNL     1       2.064   5.364  -0.083  1.00  0.00     0.261 C 
BRANCH   4   5
ATOM      5  O   UNL     1       0.760   5.875   0.238  1.00  0.00    -0.463 OA
BRANCH   5   6
ATOM      6  C   UNL     1      -0.253   5.129  -0.274  1.00  0.00     0.312 C 
ATOM      7  O   UNL     1      -0.169   4.471  -1.308  1.00  0.00    -0.252 OA
BRANCH   6   8
ATOM      8  C   UNL     1      -1.472   5.123   0.654  1.00  0.00     0.124 C 
ATOM      9  C   UNL     1      -2.760   3.360  -0.342  1.00  0.00     0.106 C 
ATOM     10  C   UNL     1      -3.472   4.672  -0.499  1.00  0.00    -0.006 C 
ATOM     11  C   UNL     1      -1.899   3.666   0.889  1.00  0.00     0.048 C 
ATOM     12  C   UNL     1      -2.719   5.662   0.007  1.00  0.00    -0.014 C 
BRANCH   9  13
ATOM     13  N   UNL     1      -3.660   2.255  -0.200  1.00  0.00    -0.346 N 
ATOM     14  C   UNL     1      -3.421   0.902  -0.274  1.00  0.00     0.251 C 
ATOM     15  O   UNL     1      -4.412   0.166  -0.292  1.00  0.00    -0.269 OA
ATOM     16  H   UNL     1      -4.596   2.501  -0.022  1.00  0.00     0.164 HD
BRANCH  14  17
ATOM     17  C   UNL     1      -2.057   0.265  -0.272  1.00  0.00     0.040 A 
ATOM     18  C   UNL     1       1.683   0.963  -0.639  1.00  0.00     0.047 C 
ATOM     19  C   UNL     1       0.391   0.223  -0.451  1.00  0.00    -0.015 A 
ATOM     20  C   UNL     1      -0.843   0.885  -0.599  1.00  0.00     0.020 A 
ATOM     21  C   UNL     1       0.396  -1.105  -0.035  1.00  0.00     0.126 A 
ATOM     22  C   UNL     1      -0.793  -1.770   0.229  1.00  0.00     0.040 A 
ATOM     23  F   UNL     1       1.555  -1.760   0.114  1.00  0.00    -0.207 F 
ATOM     24  C   UNL     1      -2.008  -1.087   0.119  1.00  0.00     0.017 A 
ENDBRANCH  14  17
ENDBRANCH   9  13
ENDBRANCH   6   8
ENDBRANCH   5   6
ENDBRANCH   4   5
ENDBRANCH   3   4
ENDBRANCH   2   3
ENDBRANCH   1   2
BRANCH   1  25
ATOM     25  C   UNL     1       0.763   4.857   3.702  1.00  0.00     0.261 C 
BRANCH  25  26
ATOM     26  O   UNL     1       0.817   6.094   2.985  1.00  0.00    -0.460 OA
BRANCH  26  27
ATOM     27  C   UNL     1       2.018   6.687   2.989  1.00  0.00     0.338 C 
ATOM     28  O   UNL     1       3.069   6.239   3.450  1.00  0.00    -0.246 OA
BRANCH  27  29
ATOM     29  C   UNL     1       1.942   8.079   2.526  1.00  0.00     0.060 A 
ATOM     30  C   UNL     1       3.203   8.677   2.364  1.00  0.00     0.016 A 
ATOM     31  C   UNL     1       0.857   8.774   3.060  1.00  0.00     0.016 A 
ATOM     32  C   UNL     1       3.494   9.785   3.133  1.00  0.00     0.010 A 
ATOM     33  C   UNL     1       1.152   9.863   3.840  1.00  0.00     0.010 A 
ATOM     34  C   UNL     1       2.484  10.285   3.951  1.00  0.00    -0.014 A 
BRANCH  34  35
ATOM     35  C   UNL     1       2.739  11.244   5.001  1.00  0.00     0.031 A 
ATOM     36  C   UNL     1       2.761  12.668   4.648  1.00  0.00     0.074 A 
ATOM     37  C   UNL     1       2.899  10.832   6.277  1.00  0.00     0.049 A 
ATOM     38  N   UNL     1       3.406  13.568   5.305  1.00  0.00    -0.248 NA
ATOM     39  C   UNL     1       2.089  13.174   3.456  1.00  0.00     0.031 C 
ATOM     40  C   UNL     1       2.834  11.675   7.462  1.00  0.00     0.029 A 
ATOM     41  N   UNL     1       3.347   9.594   6.755  1.00  0.00    -0.354 N 
ATOM     42  C   UNL     1       3.016  14.786   4.804  1.00  0.00     0.074 A 
ATOM     43  C   UNL     1       2.259  14.490   3.608  1.00  0.00     0.031 C 
ATOM     44  C   UNL     1       3.480  11.057   8.460  1.00  0.00     0.029 A 
ATOM     45  C   UNL     1       4.101   9.862   7.908  1.00  0.00     0.049 A 
ATOM     46  H   UNL     1       3.169   8.710   6.359  1.00  0.00     0.167 HD
ATOM     47  C   UNL     1       3.240  15.915   5.531  1.00  0.00     0.037 A 
ATOM     48  C   UNL     1       5.402   9.506   8.102  1.00  0.00     0.037 A 
ATOM     49  C   UNL     1       3.924  15.614   6.783  1.00  0.00     0.049 A 
ATOM     50  C   UNL     1       6.301  10.687   8.387  1.00  0.00     0.074 A 
ATOM     51  C   UNL     1       3.442  15.329   8.051  1.00  0.00     0.029 A 
ATOM     52  N   UNL     1       5.257  15.223   6.771  1.00  0.00    -0.354 N 
ATOM     53  N   UNL     1       5.957  11.923   8.146  1.00  0.00    -0.248 NA
ATOM     54  C   UNL     1       7.657  10.586   8.920  1.00  0.00     0.031 C 
ATOM     55  C   UNL     1       4.479  14.707   8.786  1.00  0.00     0.029 A 
ATOM     56  C   UNL     1       5.596  14.627   7.972  1.00  0.00     0.049 A 
ATOM     57  H   UNL     1       5.873  15.353   6.014  1.00  0.00     0.167 HD
ATOM     58  C   UNL     1       7.003  12.760   8.432  1.00  0.00     0.074 A 
ATOM     59  C   UNL     1       8.037  11.877   8.940  1.00  0.00     0.031 C 
ATOM     60  C   UNL     1       6.935  14.105   8.202  1.00  0.00     0.037 A 
BRANCH  47  61
ATOM     61  C   UNL     1       2.528  17.206   5.230  1.00  0.00     0.058 A 
ATOM     62  C   UNL     1       2.003  18.001   6.269  1.00  0.00     0.135 A 
ATOM     63  C   UNL     1       2.282  17.679   3.926  1.00  0.00     0.135 A 
ATOM     64  F   UNL     1       2.211  17.699   7.557  1.00  0.00    -0.206 F 
ATOM     65  C   UNL     1       1.216  19.126   6.032  1.00  0.00     0.059 A 
ATOM     66  C   UNL     1       1.452  18.772   3.662  1.00  0.00     0.059 A 
ATOM     67  F   UNL     1       2.855  17.093   2.862  1.00  0.00    -0.206 F 
ATOM     68  C   UNL     1       0.918  19.488   4.726  1.00  0.00     0.060 A 
BRANCH  68  69
ATOM     69  S   UNL     1      -0.180  20.891   4.451  1.00  0.00     0.124 S 
ATOM     70  O   UNL     1      -1.315  20.570   5.311  1.00  0.00    -0.237 OA
ATOM     71  O   UNL     1       0.649  22.010   4.883  1.00  0.00    -0.237 OA
ATOM     72  O   UNL     1      -0.456  20.829   3.018  1.00  0.00    -0.744 OA
ENDBRANCH  68  69
ENDBRANCH  47  61
BRANCH  48  73
ATOM     73  C   UNL     1       5.822   8.219   7.498  1.00  0.00     0.058 A 
ATOM     74  C   UNL     1       5.547   7.044   8.215  1.00  0.00     0.135 A 
ATOM     75  C   UNL     1       6.086   8.096   6.125  1.00  0.00     0.135 A 
ATOM     76  F   UNL     1       5.318   7.102   9.537  1.00  0.00    -0.206 F 
ATOM     77  C   UNL     1       5.400   5.817   7.576  1.00  0.00     0.059 A 
ATOM     78  C   UNL     1       5.925   6.878   5.458  1.00  0.00     0.059 A 
ATOM     79  F   UNL     1       6.340   9.191   5.391  1.00  0.00    -0.206 F 
ATOM     80  C   UNL     1       5.527   5.756   6.188  1.00  0.00     0.060 A 
BRANCH  80  81
ATOM     81  S   UNL     1       5.051   4.212   5.370  1.00  0.00     0.124 S 
ATOM     82  O   UNL     1       5.864   3.229   6.079  1.00  0.00    -0.237 OA
ATOM     83  O   UNL     1       3.619   4.146   5.653  1.00  0.00    -0.237 OA
ATOM     84  O   UNL     1       5.423   4.419   3.973  1.00  0.00    -0.744 OA
ENDBRANCH  80  81
ENDBRANCH  48  73
BRANCH  60  85
ATOM     85  C   UNL     1       8.097  15.066   8.256  1.00  0.00     0.058 A 
ATOM     86  C   UNL     1       9.417  14.709   7.937  1.00  0.00     0.135 A 
ATOM     87  C   UNL     1       7.877  16.444   8.498  1.00  0.00     0.135 A 
ATOM     88  F   UNL     1       9.732  13.458   7.572  1.00  0.00    -0.206 F 
ATOM     89  C   UNL     1      10.461  15.635   7.932  1.00  0.00     0.059 A 
ATOM     90  C   UNL     1       8.893  17.394   8.442  1.00  0.00     0.059 A 
ATOM     91  F   UNL     1       6.653  16.916   8.783  1.00  0.00    -0.206 F 
ATOM     92  C   UNL     1      10.191  16.976   8.187  1.00  0.00     0.060 A 
BRANCH  92  93
ATOM     93  S   UNL     1      11.524  18.186   8.130  1.00  0.00     0.124 S 
ATOM     94  O   UNL     1      11.962  18.199   9.522  1.00  0.00    -0.237 OA
ATOM     95  O   UNL     1      12.461  17.593   7.181  1.00  0.00    -0.237 OA
ATOM     96  O   UNL     1      10.854  19.396   7.665  1.00  0.00    -0.744 OA
ENDBRANCH  92  93
ENDBRANCH  60  85
ENDBRANCH  34  35
ENDBRANCH  27  29
ENDBRANCH  26  27
ENDBRANCH  25  26
ENDBRANCH   1  25
TORSDOF 19
