REMARK SMILES CCOc1ccc2[nH]c(C)c/c(=N\c3cccc(C(=O)OCCOCCOC(=O)c4ccc(-c5c6nc(c(-c7c(F)cc(S(=O)(=O)[O-])cc7F)c7ccc([nH]7)c(-c7c(F)cc(S(=O)(=O)[O-])cc7F)c7nc(c(-c8c(F)cc(S(=O)(=O)[O-])cc8F)c8ccc5[nH]8)C=C7)C=C6)cc4)c3)c2c1
REMARK SMILES IDX 24 1 23 2 22 3 21 4 19 5 20 6 18 7 14 8 15 9 96 10 16 11
REMARK SMILES IDX 17 12 13 13 4 14 5 15 98 16 6 17 97 18 7 19 12 20 8 21 11 22
REMARK SMILES IDX 9 23 10 25 3 26 2 27 1 28 25 29 26 30 27 31 28 32 29 33
REMARK SMILES IDX 30 34 31 35 95 36 32 37 94 38 33 39 34 40 35 41 88 42 36 43
REMARK SMILES IDX 93 44 87 45 89 46 37 47 92 48 86 49 85 50 38 52 72 53 51 54
REMARK SMILES IDX 71 55 52 56 55 57 70 58 90 59 53 60 54 61 69 63 91 64 56 65
REMARK SMILES IDX 39 66 40 67 49 68 41 69 42 70 48 71 50 72 43 73 44 74 45 75
REMARK SMILES IDX 46 76 47 77 73 78 74 79 83 80 75 81 76 82 82 83 84 84 77 85
REMARK SMILES IDX 78 86 79 87 80 88 81 89 57 90 58 91 67 92 59 93 60 94 66 95
REMARK SMILES IDX 68 96 61 97 62 98 63 99 64 100 65 101
REMARK H PARENT 8 24 89 51 55 62
REMARK Flexibility Score: inf
ROOT
ATOM      1  O   UNL     1       8.169   9.775  -4.732  1.00  0.00    -0.374 OA
ENDROOT
BRANCH   1   2
ATOM      2  C   UNL     1       7.048  10.298  -4.022  1.00  0.00     0.202 C 
BRANCH   2   3
ATOM      3  C   UNL     1       5.672  10.198  -4.690  1.00  0.00     0.261 C 
BRANCH   3   4
ATOM      4  O   UNL     1       5.314   8.839  -4.990  1.00  0.00    -0.460 OA
BRANCH   4   5
ATOM      5  C   UNL     1       5.286   8.541  -6.312  1.00  0.00     0.338 C 
ATOM      6  O   UNL     1       5.422   9.328  -7.237  1.00  0.00    -0.246 OA
BRANCH   5   7
ATOM      7  C   UNL     1       5.258   7.073  -6.524  1.00  0.00     0.062 A 
ATOM      8  C   UNL     1       4.719   4.795  -5.893  1.00  0.00     0.065 A 
ATOM      9  C   UNL     1       5.276   4.353  -7.105  1.00  0.00     0.028 A 
ATOM     10  C   UNL     1       4.688   6.167  -5.618  1.00  0.00     0.044 A 
ATOM     11  C   UNL     1       5.890   5.244  -7.983  1.00  0.00     0.003 A 
ATOM     12  C   UNL     1       5.884   6.602  -7.689  1.00  0.00     0.016 A 
BRANCH   8  13
ATOM     13  N   UNL     1       4.181   3.871  -4.977  1.00  0.00    -0.248 NA
ATOM     14  C   UNL     1       2.448   0.942  -2.372  1.00  0.00     0.120 A 
ATOM     15  C   UNL     1       3.266  -0.080  -1.895  1.00  0.00     0.048 A 
ATOM     16  C   UNL     1       2.970   1.947  -3.190  1.00  0.00     0.059 A 
ATOM     17  C   UNL     1       4.626  -0.079  -2.189  1.00  0.00     0.030 A 
ATOM     18  C   UNL     1       4.340   1.947  -3.495  1.00  0.00     0.027 A 
ATOM     19  C   UNL     1       5.173   0.927  -2.990  1.00  0.00     0.048 A 
ATOM     20  C   UNL     1       4.949   2.991  -4.394  1.00  0.00     0.075 A 
ATOM     21  N   UNL     1       6.536   0.892  -3.306  1.00  0.00    -0.359 N 
ATOM     22  C   UNL     1       6.442   2.904  -4.564  1.00  0.00     0.050 A 
ATOM     23  C   UNL     1       7.133   1.873  -4.056  1.00  0.00     0.014 A 
ATOM     24  H   UNL     1       7.082   0.141  -2.980  1.00  0.00     0.166 HD
ATOM     25  C   UNL     1       8.610   1.740  -4.296  1.00  0.00     0.064 C 
BRANCH  14  26
ATOM     26  O   UNL     1       1.098   0.882  -2.157  1.00  0.00    -0.494 OA
BRANCH  26  27
ATOM     27  C   UNL     1       0.716   1.290  -0.834  1.00  0.00     0.226 C 
ATOM     28  C   UNL     1       0.753   0.138   0.162  1.00  0.00     0.049 C 
ENDBRANCH  26  27
ENDBRANCH  14  26
ENDBRANCH   8  13
ENDBRANCH   5   7
ENDBRANCH   4   5
ENDBRANCH   3   4
ENDBRANCH   2   3
ENDBRANCH   1   2
BRANCH   1  29
ATOM     29  C   UNL     1       8.338   8.358  -4.760  1.00  0.00     0.202 C 
BRANCH  29  30
ATOM     30  C   UNL     1       8.825   7.669  -3.478  1.00  0.00     0.261 C 
BRANCH  30  31
ATOM     31  O   UNL     1       7.875   7.753  -2.404  1.00  0.00    -0.460 OA
BRANCH  31  32
ATOM     32  C   UNL     1       8.225   8.580  -1.387  1.00  0.00     0.338 C 
ATOM     33  O   UNL     1       9.269   9.201  -1.269  1.00  0.00    -0.246 OA
BRANCH  32  34
ATOM     34  C   UNL     1       7.055   8.791  -0.512  1.00  0.00     0.060 A 
ATOM     35  C   UNL     1       6.357   7.715   0.038  1.00  0.00     0.016 A 
ATOM     36  C   UNL     1       6.670  10.108  -0.229  1.00  0.00     0.016 A 
ATOM     37  C   UNL     1       5.283   7.966   0.896  1.00  0.00     0.010 A 
ATOM     38  C   UNL     1       5.596  10.355   0.628  1.00  0.00     0.010 A 
ATOM     39  C   UNL     1       4.906   9.285   1.212  1.00  0.00    -0.014 A 
BRANCH  39  40
ATOM     40  C   UNL     1       3.874   9.535   2.250  1.00  0.00     0.031 A 
ATOM     41  C   UNL     1       2.503  10.028   1.895  1.00  0.00     0.074 A 
ATOM     42  C   UNL     1       4.200   9.317   3.539  1.00  0.00     0.049 A 
ATOM     43  N   UNL     1       1.473  10.220   2.678  1.00  0.00    -0.248 NA
ATOM     44  C   UNL     1       2.257  10.357   0.483  1.00  0.00     0.031 C 
ATOM     45  C   UNL     1       5.518   8.879   4.006  1.00  0.00     0.029 A 
ATOM     46  N   UNL     1       3.457   9.422   4.687  1.00  0.00    -0.354 N 
ATOM     47  C   UNL     1       0.447  10.670   1.857  1.00  0.00     0.074 A 
ATOM     48  C   UNL     1       0.998  10.775   0.521  1.00  0.00     0.031 C 
ATOM     49  C   UNL     1       5.478   8.716   5.337  1.00  0.00     0.029 A 
ATOM     50  C   UNL     1       4.147   9.068   5.822  1.00  0.00     0.049 A 
ATOM     51  H   UNL     1       2.520   9.721   4.697  1.00  0.00     0.167 HD
ATOM     52  C   UNL     1      -0.838  10.948   2.187  1.00  0.00     0.037 A 
ATOM     53  C   UNL     1       3.754   9.026   7.110  1.00  0.00     0.037 A 
ATOM     54  C   UNL     1      -1.369  10.857   3.525  1.00  0.00     0.049 A 
ATOM     55  C   UNL     1       2.335   9.380   7.457  1.00  0.00     0.074 A 
ATOM     56  C   UNL     1      -2.668  11.082   3.951  1.00  0.00     0.029 A 
ATOM     57  N   UNL     1      -0.633  10.533   4.656  1.00  0.00    -0.354 N 
ATOM     58  N   UNL     1       1.355   9.727   6.657  1.00  0.00    -0.248 NA
ATOM     59  C   UNL     1       1.964   9.333   8.877  1.00  0.00     0.031 C 
ATOM     60  C   UNL     1      -2.703  10.951   5.343  1.00  0.00     0.029 A 
ATOM     61  C   UNL     1      -1.441  10.584   5.782  1.00  0.00     0.049 A 
ATOM     62  H   UNL     1       0.324  10.300   4.659  1.00  0.00     0.167 HD
ATOM     63  C   UNL     1       0.247   9.923   7.474  1.00  0.00     0.074 A 
ATOM     64  C   UNL     1       0.674   9.638   8.829  1.00  0.00     0.031 C 
ATOM     65  C   UNL     1      -1.008  10.306   7.130  1.00  0.00     0.037 A 
BRANCH  52  66
ATOM     66  C   UNL     1      -1.771  11.373   1.083  1.00  0.00     0.058 A 
ATOM     67  C   UNL     1      -2.199  10.469   0.097  1.00  0.00     0.135 A 
ATOM     68  C   UNL     1      -2.297  12.675   1.047  1.00  0.00     0.135 A 
ATOM     69  F   UNL     1      -1.724   9.213   0.079  1.00  0.00    -0.206 F 
ATOM     70  C   UNL     1      -3.094  10.847  -0.898  1.00  0.00     0.059 A 
ATOM     71  C   UNL     1      -3.216  13.067   0.077  1.00  0.00     0.059 A 
ATOM     72  F   UNL     1      -1.927  13.579   1.967  1.00  0.00    -0.206 F 
ATOM     73  C   UNL     1      -3.599  12.149  -0.899  1.00  0.00     0.060 A 
BRANCH  73  74
ATOM     74  S   UNL     1      -4.763  12.617  -2.198  1.00  0.00     0.124 S 
ATOM     75  O   UNL     1      -3.905  12.598  -3.378  1.00  0.00    -0.237 OA
ATOM     76  O   UNL     1      -5.757  11.552  -2.120  1.00  0.00    -0.237 OA
ATOM     77  O   UNL     1      -5.226  13.937  -1.782  1.00  0.00    -0.744 OA
ENDBRANCH  73  74
ENDBRANCH  52  66
BRANCH  53  78
ATOM     78  C   UNL     1       4.719   8.593   8.155  1.00  0.00     0.058 A 
ATOM     79  C   UNL     1       4.578   7.356   8.799  1.00  0.00     0.135 A 
ATOM     80  C   UNL     1       5.830   9.384   8.493  1.00  0.00     0.135 A 
ATOM     81  F   UNL     1       3.530   6.568   8.516  1.00  0.00    -0.206 F 
ATOM     82  C   UNL     1       5.502   6.916   9.741  1.00  0.00     0.059 A 
ATOM     83  C   UNL     1       6.782   8.953   9.411  1.00  0.00     0.059 A 
ATOM     84  F   UNL     1       6.018  10.570   7.893  1.00  0.00    -0.206 F 
ATOM     85  C   UNL     1       6.607   7.718  10.032  1.00  0.00     0.060 A 
BRANCH  85  86
ATOM     86  S   UNL     1       7.836   7.099  11.200  1.00  0.00     0.124 S 
ATOM     87  O   UNL     1       7.091   7.123  12.454  1.00  0.00    -0.237 OA
ATOM     88  O   UNL     1       8.130   5.776  10.658  1.00  0.00    -0.237 OA
ATOM     89  O   UNL     1       8.922   8.068  11.093  1.00  0.00    -0.744 OA
ENDBRANCH  85  86
ENDBRANCH  53  78
BRANCH  65  90
ATOM     90  C   UNL     1      -2.025  10.438   8.233  1.00  0.00     0.058 A 
ATOM     91  C   UNL     1      -1.972  11.489   9.162  1.00  0.00     0.135 A 
ATOM     92  C   UNL     1      -3.108   9.546   8.317  1.00  0.00     0.135 A 
ATOM     93  F   UNL     1      -0.956  12.365   9.133  1.00  0.00    -0.206 F 
ATOM     94  C   UNL     1      -2.947  11.644  10.142  1.00  0.00     0.059 A 
ATOM     95  C   UNL     1      -4.110   9.699   9.270  1.00  0.00     0.059 A 
ATOM     96  F   UNL     1      -3.213   8.527   7.450  1.00  0.00    -0.206 F 
ATOM     97  C   UNL     1      -4.017  10.748  10.183  1.00  0.00     0.060 A 
BRANCH  97  98
ATOM     98  S   UNL     1      -5.298  10.993  11.432  1.00  0.00     0.124 S 
ATOM     99  O   UNL     1      -4.580  10.665  12.660  1.00  0.00    -0.237 OA
ATOM    100  O   UNL     1      -5.638  12.401  11.255  1.00  0.00    -0.237 OA
ATOM    101  O   UNL     1      -6.340  10.047  11.044  1.00  0.00    -0.744 OA
ENDBRANCH  97  98
ENDBRANCH  65  90
ENDBRANCH  39  40
ENDBRANCH  32  34
ENDBRANCH  31  32
ENDBRANCH  30  31
ENDBRANCH  29  30
ENDBRANCH   1  29
TORSDOF 20
