REMARK SMILES O=C(OCCOCCOC(=O)[C@H]1CC=CC[C@@H]1C(=O)Nc1ccccc1C(=O)NCc1ccco1)c1ccc(-c2c3nc(c(-c4c(F)cc(S(=O)(=O)[O-])cc4F)c4ccc([nH]4)c(-c4c(F)cc(S(=O)(=O)[O-])cc4F)c4nc(c(-c5c(F)cc(S(=O)(=O)[O-])cc5F)c5ccc2[nH]5)C=C4)C=C3)cc1
REMARK SMILES IDX 7 1 6 2 5 3 4 4 3 5 2 6 1 7 36 8 37 9 101 10 38 11 100 12
REMARK SMILES IDX 39 13 40 14 41 15 94 16 42 17 99 18 93 19 95 20 43 21 98 22
REMARK SMILES IDX 92 23 91 24 44 26 78 27 57 28 77 29 58 30 61 31 76 32 96 33
REMARK SMILES IDX 59 34 60 35 75 37 97 38 62 39 45 40 46 41 55 42 47 43 48 44
REMARK SMILES IDX 54 45 56 46 49 47 50 48 51 49 52 50 53 51 79 52 80 53 89 54
REMARK SMILES IDX 81 55 82 56 88 57 90 58 83 59 84 60 85 61 86 62 87 63 63 64
REMARK SMILES IDX 64 65 73 66 65 67 66 68 72 69 74 70 67 71 68 72 69 73 70 74
REMARK SMILES IDX 71 75 8 76 9 77 10 78 11 79 12 80 13 81 17 82 14 83 16 84
REMARK SMILES IDX 15 85 18 86 19 87 20 88 21 90 22 91 26 92 23 93 25 94 24 95
REMARK SMILES IDX 27 96 28 97 29 98 30 100 31 101 32 102 35 103 33 104 34 105
REMARK H PARENT 95 25 61 36 20 89 29 99
REMARK Flexibility Score: inf
ROOT
ATOM      1  C   UNL     1       2.105  -1.950  -0.143  1.00  0.00     0.202 C 
ENDROOT
BRANCH   1   2
ATOM      2  O   UNL     1       3.490  -1.587  -0.098  1.00  0.00    -0.374 OA
BRANCH   2   3
ATOM      3  C   UNL     1       3.919  -0.927   1.093  1.00  0.00     0.202 C 
BRANCH   3   4
ATOM      4  C   UNL     1       3.640   0.575   1.178  1.00  0.00     0.261 C 
BRANCH   4   5
ATOM      5  O   UNL     1       2.252   0.845   0.951  1.00  0.00    -0.460 OA
BRANCH   5   6
ATOM      6  C   UNL     1       1.700   1.247  -0.219  1.00  0.00     0.338 C 
ATOM      7  O   UNL     1       0.479   1.360  -0.299  1.00  0.00    -0.246 OA
BRANCH   6   8
ATOM      8  C   UNL     1       2.525   1.601  -1.405  1.00  0.00     0.060 A 
ATOM      9  C   UNL     1       3.651   0.886  -1.822  1.00  0.00     0.016 A 
ATOM     10  C   UNL     1       2.079   2.669  -2.193  1.00  0.00     0.016 A 
ATOM     11  C   UNL     1       4.365   1.248  -2.945  1.00  0.00     0.010 A 
ATOM     12  C   UNL     1       2.758   3.006  -3.363  1.00  0.00     0.010 A 
ATOM     13  C   UNL     1       3.905   2.292  -3.732  1.00  0.00    -0.014 A 
BRANCH  13  14
ATOM     14  C   UNL     1       4.701   2.666  -4.904  1.00  0.00     0.031 A 
ATOM     15  C   UNL     1       5.486   3.929  -4.835  1.00  0.00     0.074 A 
ATOM     16  C   UNL     1       4.754   1.829  -5.954  1.00  0.00     0.049 A 
ATOM     17  N   UNL     1       6.103   4.568  -5.785  1.00  0.00    -0.248 NA
ATOM     18  C   UNL     1       5.583   4.564  -3.509  1.00  0.00     0.031 C 
ATOM     19  C   UNL     1       4.119   0.507  -6.012  1.00  0.00     0.029 A 
ATOM     20  N   UNL     1       5.367   1.958  -7.168  1.00  0.00    -0.354 N 
ATOM     21  C   UNL     1       6.611   5.714  -5.188  1.00  0.00     0.074 A 
ATOM     22  C   UNL     1       6.242   5.675  -3.792  1.00  0.00     0.031 C 
ATOM     23  C   UNL     1       4.366  -0.046  -7.208  1.00  0.00     0.029 A 
ATOM     24  C   UNL     1       5.089   0.920  -8.025  1.00  0.00     0.049 A 
ATOM     25  H   UNL     1       5.948   2.717  -7.405  1.00  0.00     0.167 HD
ATOM     26  C   UNL     1       7.299   6.712  -5.785  1.00  0.00     0.037 A 
ATOM     27  C   UNL     1       5.330   0.810  -9.344  1.00  0.00     0.037 A 
ATOM     28  C   UNL     1       7.627   6.683  -7.185  1.00  0.00     0.049 A 
ATOM     29  C   UNL     1       6.028   1.963 -10.010  1.00  0.00     0.074 A 
ATOM     30  C   UNL     1       8.276   7.635  -7.944  1.00  0.00     0.029 A 
ATOM     31  N   UNL     1       7.314   5.627  -8.038  1.00  0.00    -0.354 N 
ATOM     32  N   UNL     1       6.447   3.087  -9.471  1.00  0.00    -0.248 NA
ATOM     33  C   UNL     1       6.275   1.853 -11.450  1.00  0.00     0.031 C 
ATOM     34  C   UNL     1       8.307   7.177  -9.266  1.00  0.00     0.029 A 
ATOM     35  C   UNL     1       7.736   5.911  -9.322  1.00  0.00     0.049 A 
ATOM     36  H   UNL     1       6.858   4.799  -7.765  1.00  0.00     0.167 HD
ATOM     37  C   UNL     1       7.023   3.816 -10.501  1.00  0.00     0.074 A 
ATOM     38  C   UNL     1       6.903   2.997 -11.695  1.00  0.00     0.031 C 
ATOM     39  C   UNL     1       7.599   5.044 -10.470  1.00  0.00     0.037 A 
BRANCH  26  40
ATOM     40  C   UNL     1       7.614   7.919  -4.947  1.00  0.00     0.058 A 
ATOM     41  C   UNL     1       8.521   7.878  -3.875  1.00  0.00     0.135 A 
ATOM     42  C   UNL     1       6.921   9.121  -5.167  1.00  0.00     0.135 A 
ATOM     43  F   UNL     1       9.188   6.746  -3.596  1.00  0.00    -0.206 F 
ATOM     44  C   UNL     1       8.689   8.965  -3.020  1.00  0.00     0.059 A 
ATOM     45  C   UNL     1       7.096  10.230  -4.344  1.00  0.00     0.059 A 
ATOM     46  F   UNL     1       6.032   9.216  -6.168  1.00  0.00    -0.206 F 
ATOM     47  C   UNL     1       7.962  10.133  -3.257  1.00  0.00     0.060 A 
BRANCH  47  48
ATOM     48  S   UNL     1       8.140  11.513  -2.107  1.00  0.00     0.124 S 
ATOM     49  O   UNL     1       7.411  11.018  -0.943  1.00  0.00    -0.237 OA
ATOM     50  O   UNL     1       9.588  11.606  -1.953  1.00  0.00    -0.237 OA
ATOM     51  O   UNL     1       7.514  12.627  -2.811  1.00  0.00    -0.744 OA
ENDBRANCH  47  48
ENDBRANCH  26  40
BRANCH  27  52
ATOM     52  C   UNL     1       4.838  -0.381 -10.087  1.00  0.00     0.058 A 
ATOM     53  C   UNL     1       5.720  -1.335 -10.610  1.00  0.00     0.135 A 
ATOM     54  C   UNL     1       3.460  -0.628 -10.222  1.00  0.00     0.135 A 
ATOM     55  F   UNL     1       7.045  -1.148 -10.515  1.00  0.00    -0.206 F 
ATOM     56  C   UNL     1       5.258  -2.493 -11.233  1.00  0.00     0.059 A 
ATOM     57  C   UNL     1       2.973  -1.790 -10.814  1.00  0.00     0.059 A 
ATOM     58  F   UNL     1       2.568   0.245  -9.727  1.00  0.00    -0.206 F 
ATOM     59  C   UNL     1       3.881  -2.716 -11.321  1.00  0.00     0.060 A 
BRANCH  59  60
ATOM     60  S   UNL     1       3.295  -4.255 -12.065  1.00  0.00     0.124 S 
ATOM     61  O   UNL     1       3.615  -4.043 -13.472  1.00  0.00    -0.237 OA
ATOM     62  O   UNL     1       4.099  -5.256 -11.371  1.00  0.00    -0.237 OA
ATOM     63  O   UNL     1       1.872  -4.268 -11.737  1.00  0.00    -0.744 OA
ENDBRANCH  59  60
ENDBRANCH  27  52
BRANCH  39  64
ATOM     64  C   UNL     1       8.183   5.553 -11.754  1.00  0.00     0.058 A 
ATOM     65  C   UNL     1       7.373   6.058 -12.781  1.00  0.00     0.135 A 
ATOM     66  C   UNL     1       9.576   5.646 -11.896  1.00  0.00     0.135 A 
ATOM     67  F   UNL     1       6.037   5.978 -12.691  1.00  0.00    -0.206 F 
ATOM     68  C   UNL     1       7.929   6.647 -13.909  1.00  0.00     0.059 A 
ATOM     69  C   UNL     1      10.152   6.258 -13.001  1.00  0.00     0.059 A 
ATOM     70  F   UNL     1      10.387   5.183 -10.931  1.00  0.00    -0.206 F 
ATOM     71  C   UNL     1       9.319   6.756 -14.002  1.00  0.00     0.060 A 
BRANCH  71  72
ATOM     72  S   UNL     1      10.023   7.611 -15.425  1.00  0.00     0.124 S 
ATOM     73  O   UNL     1       9.803   6.638 -16.490  1.00  0.00    -0.237 OA
ATOM     74  O   UNL     1       9.210   8.822 -15.493  1.00  0.00    -0.237 OA
ATOM     75  O   UNL     1      11.416   7.819 -15.042  1.00  0.00    -0.744 OA
ENDBRANCH  71  72
ENDBRANCH  39  64
ENDBRANCH  13  14
ENDBRANCH   6   8
ENDBRANCH   5   6
ENDBRANCH   4   5
ENDBRANCH   3   4
ENDBRANCH   2   3
ENDBRANCH   1   2
BRANCH   1  76
ATOM     76  C   UNL     1       1.976  -3.443  -0.425  1.00  0.00     0.261 C 
BRANCH  76  77
ATOM     77  O   UNL     1       2.747  -4.154   0.563  1.00  0.00    -0.463 OA
BRANCH  77  78
ATOM     78  C   UNL     1       3.954  -4.598   0.116  1.00  0.00     0.310 C 
ATOM     79  O   UNL     1       4.299  -4.607  -1.061  1.00  0.00    -0.252 OA
BRANCH  78  80
ATOM     80  C   UNL     1       4.832  -5.049   1.274  1.00  0.00     0.116 C 
ATOM     81  C   UNL     1       5.775  -6.169   0.803  1.00  0.00     0.043 C 
ATOM     82  C   UNL     1       5.664  -3.879   1.853  1.00  0.00     0.097 C 
ATOM     83  C   UNL     1       6.989  -5.656   0.071  1.00  0.00    -0.030 C 
ATOM     84  C   UNL     1       6.543  -3.301   0.744  1.00  0.00     0.041 C 
ATOM     85  C   UNL     1       7.316  -4.356   0.015  1.00  0.00    -0.030 C 
BRANCH  82  86
ATOM     86  C   UNL     1       6.282  -4.352   3.181  1.00  0.00     0.228 C 
ATOM     87  O   UNL     1       5.540  -4.910   4.006  1.00  0.00    -0.274 OA
ATOM     88  N   UNL     1       7.563  -4.159   3.611  1.00  0.00    -0.325 N 
ATOM     89  H   UNL     1       7.693  -4.240   4.584  1.00  0.00     0.169 HD
BRANCH  88  90
ATOM     90  C   UNL     1       8.717  -3.862   2.885  1.00  0.00     0.054 A 
ATOM     91  C   UNL     1       9.438  -5.018   2.498  1.00  0.00     0.027 A 
ATOM     92  C   UNL     1       9.177  -2.585   2.522  1.00  0.00     0.063 A 
ATOM     93  C   UNL     1      10.515  -4.946   1.621  1.00  0.00     0.002 A 
ATOM     94  C   UNL     1      10.272  -2.557   1.613  1.00  0.00     0.016 A 
ATOM     95  C   UNL     1      10.913  -3.710   1.148  1.00  0.00     0.001 A 
BRANCH  92  96
ATOM     96  C   UNL     1       8.692  -1.203   2.884  1.00  0.00     0.253 C 
ATOM     97  O   UNL     1       9.198  -0.246   2.280  1.00  0.00    -0.269 OA
ATOM     98  N   UNL     1       7.771  -0.797   3.801  1.00  0.00    -0.345 N 
ATOM     99  H   UNL     1       7.742   0.186   3.850  1.00  0.00     0.164 HD
BRANCH  98 100
ATOM    100  C   UNL     1       6.827  -1.377   4.722  1.00  0.00     0.191 C 
BRANCH 100 101
ATOM    101  C   UNL     1       7.257  -1.187   6.124  1.00  0.00     0.122 A 
ATOM    102  C   UNL     1       7.503  -0.078   6.906  1.00  0.00     0.047 A 
ATOM    103  O   UNL     1       7.364  -2.320   6.878  1.00  0.00    -0.467 OA
ATOM    104  C   UNL     1       7.758  -0.560   8.213  1.00  0.00     0.042 A 
ATOM    105  C   UNL     1       7.662  -1.930   8.142  1.00  0.00     0.195 A 
ENDBRANCH 100 101
ENDBRANCH  98 100
ENDBRANCH  92  96
ENDBRANCH  88  90
ENDBRANCH  82  86
ENDBRANCH  78  80
ENDBRANCH  77  78
ENDBRANCH  76  77
ENDBRANCH   1  76
TORSDOF 22
