REMARK SMILES Cc1c[nH]c(C[N@H+]2C[C@@H]3CN(S(C)(=O)=O)C[C@]3(C(=O)OCCOCCOC(=O)c3ccc(-c4c5nc(c(-c6c(F)cc(S(=O)(=O)[O-])cc6F)c6ccc([nH]6)c(-c6c(F)cc(S(=O)(=O)[O-])cc6F)c6nc(c(-c7c(F)cc(S(=O)(=O)[O-])cc7F)c7ccc4[nH]7)C=C6)C=C5)cc3)C2)n1
REMARK SMILES IDX 24 1 23 2 22 3 21 4 20 5 18 6 19 7 17 8 7 9 8 10 95 11 9 13
REMARK SMILES IDX 10 14 16 15 11 16 6 17 5 18 1 19 2 20 3 21 96 22 4 23 12 25
REMARK SMILES IDX 13 26 14 27 15 28 25 29 26 30 27 31 28 32 29 33 30 34 94 35
REMARK SMILES IDX 31 36 93 37 32 38 33 39 34 40 87 41 35 42 92 43 86 44 88 45
REMARK SMILES IDX 36 46 91 47 85 48 84 49 37 51 71 52 50 53 70 54 51 55 54 56
REMARK SMILES IDX 69 57 89 58 52 59 53 60 68 62 90 63 55 64 38 65 39 66 48 67
REMARK SMILES IDX 40 68 41 69 47 70 49 71 42 72 43 73 44 74 45 75 46 76 72 77
REMARK SMILES IDX 73 78 82 79 74 80 75 81 81 82 83 83 76 84 77 85 78 86 79 87
REMARK SMILES IDX 80 88 56 89 57 90 66 91 58 92 59 93 65 94 67 95 60 96 61 97
REMARK SMILES IDX 62 98 63 99 64 100
REMARK H PARENT 7 12 4 24 88 50 54 61
REMARK Flexibility Score: inf
ROOT
ATOM      1  C   UNL     1       2.493   5.468   1.847  1.00  0.00     0.202 C 
ENDROOT
BRANCH   1   2
ATOM      2  O   UNL     1       2.142   6.672   1.167  1.00  0.00    -0.374 OA
BRANCH   2   3
ATOM      3  C   UNL     1       1.019   7.383   1.688  1.00  0.00     0.202 C 
BRANCH   3   4
ATOM      4  C   UNL     1      -0.311   7.008   1.034  1.00  0.00     0.261 C 
BRANCH   4   5
ATOM      5  O   UNL     1      -0.895   5.844   1.643  1.00  0.00    -0.463 OA
BRANCH   5   6
ATOM      6  C   UNL     1      -0.483   4.560   1.372  1.00  0.00     0.319 C 
ATOM      7  O   UNL     1       0.244   4.233   0.454  1.00  0.00    -0.251 OA
BRANCH   6   8
ATOM      8  C   UNL     1      -1.212   3.652   2.364  1.00  0.00     0.140 C 
ATOM      9  N   UNL     1      -2.840   1.986   1.535  1.00  0.00    -0.327 N 
ATOM     10  C   UNL     1      -2.124   1.405   2.651  1.00  0.00     0.268 C 
ATOM     11  C   UNL     1      -2.520   3.425   1.571  1.00  0.00     0.283 C 
ATOM     12  H   UNL     1      -3.848   1.859   1.627  1.00  0.00     0.348 HD
ATOM     13  C   UNL     1      -0.843   2.232   2.840  1.00  0.00     0.084 C 
ATOM     14  C   UNL     1      -0.594   2.238   4.357  1.00  0.00     0.113 C 
ATOM     15  C   UNL     1      -1.111   4.465   3.677  1.00  0.00     0.127 C 
ATOM     16  N   UNL     1      -1.096   3.528   4.782  1.00  0.00    -0.200 NA
BRANCH   9  17
ATOM     17  C   UNL     1      -2.636   1.294   0.243  1.00  0.00     0.338 C 
BRANCH  17  18
ATOM     18  C   UNL     1      -1.372   0.493   0.066  1.00  0.00     0.161 A 
ATOM     19  C   UNL     1       2.148  -0.055  -0.060  1.00  0.00     0.068 C 
ATOM     20  C   UNL     1       0.674  -0.185  -0.051  1.00  0.00     0.056 A 
ATOM     21  C   UNL     1      -0.098  -1.324  -0.074  1.00  0.00     0.107 A 
ATOM     22  N   UNL     1      -0.130   0.930   0.013  1.00  0.00    -0.233 NA
ATOM     23  N   UNL     1      -1.390  -0.882  -0.020  1.00  0.00    -0.344 N 
ATOM     24  H   UNL     1      -2.195  -1.449  -0.040  1.00  0.00     0.167 HD
ENDBRANCH  17  18
ENDBRANCH   9  17
BRANCH  16  25
ATOM     25  S   UNL     1      -1.870   3.869   6.207  1.00  0.00     0.211 S 
ATOM     26  C   UNL     1      -3.551   4.061   5.646  1.00  0.00     0.176 C 
ATOM     27  O   UNL     1      -1.800   2.696   7.059  1.00  0.00    -0.213 OA
ATOM     28  O   UNL     1      -1.405   5.159   6.651  1.00  0.00    -0.213 OA
ENDBRANCH  16  25
ENDBRANCH   6   8
ENDBRANCH   5   6
ENDBRANCH   4   5
ENDBRANCH   3   4
ENDBRANCH   2   3
ENDBRANCH   1   2
BRANCH   1  29
ATOM     29  C   UNL     1       3.475   5.621   3.005  1.00  0.00     0.261 C 
BRANCH  29  30
ATOM     30  O   UNL     1       2.911   6.428   4.051  1.00  0.00    -0.460 OA
BRANCH  30  31
ATOM     31  C   UNL     1       3.274   7.729   3.974  1.00  0.00     0.338 C 
ATOM     32  O   UNL     1       4.084   8.216   3.202  1.00  0.00    -0.246 OA
BRANCH  31  33
ATOM     33  C   UNL     1       2.438   8.563   4.857  1.00  0.00     0.060 A 
ATOM     34  C   UNL     1       2.004   9.782   4.326  1.00  0.00     0.016 A 
ATOM     35  C   UNL     1       2.179   8.233   6.189  1.00  0.00     0.016 A 
ATOM     36  C   UNL     1       1.414  10.727   5.153  1.00  0.00     0.010 A 
ATOM     37  C   UNL     1       1.580   9.186   7.022  1.00  0.00     0.010 A 
ATOM     38  C   UNL     1       1.258  10.459   6.520  1.00  0.00    -0.014 A 
BRANCH  38  39
ATOM     39  C   UNL     1       0.932  11.593   7.418  1.00  0.00     0.031 A 
ATOM     40  C   UNL     1       2.036  12.228   8.225  1.00  0.00     0.074 A 
ATOM     41  C   UNL     1      -0.304  12.123   7.420  1.00  0.00     0.049 A 
ATOM     42  N   UNL     1       1.996  13.281   8.999  1.00  0.00    -0.248 NA
ATOM     43  C   UNL     1       3.362  11.594   8.146  1.00  0.00     0.031 C 
ATOM     44  C   UNL     1      -1.437  11.616   6.646  1.00  0.00     0.029 A 
ATOM     45  N   UNL     1      -0.806  13.214   8.081  1.00  0.00    -0.354 N 
ATOM     46  C   UNL     1       3.284  13.435   9.500  1.00  0.00     0.074 A 
ATOM     47  C   UNL     1       4.074  12.345   8.974  1.00  0.00     0.031 C 
ATOM     48  C   UNL     1      -2.502  12.403   6.870  1.00  0.00     0.029 A 
ATOM     49  C   UNL     1      -2.135  13.448   7.823  1.00  0.00     0.049 A 
ATOM     50  H   UNL     1      -0.266  13.776   8.682  1.00  0.00     0.167 HD
ATOM     51  C   UNL     1       3.767  14.405  10.313  1.00  0.00     0.037 A 
ATOM     52  C   UNL     1      -2.963  14.393   8.311  1.00  0.00     0.037 A 
ATOM     53  C   UNL     1       2.970  15.489  10.831  1.00  0.00     0.049 A 
ATOM     54  C   UNL     1      -2.415  15.429   9.256  1.00  0.00     0.074 A 
ATOM     55  C   UNL     1       3.364  16.529  11.654  1.00  0.00     0.029 A 
ATOM     56  N   UNL     1       1.616  15.667  10.583  1.00  0.00    -0.354 N 
ATOM     57  N   UNL     1      -1.191  15.574   9.706  1.00  0.00    -0.248 NA
ATOM     58  C   UNL     1      -3.360  16.440   9.750  1.00  0.00     0.031 C 
ATOM     59  C   UNL     1       2.237  17.302  11.952  1.00  0.00     0.029 A 
ATOM     60  C   UNL     1       1.154  16.787  11.257  1.00  0.00     0.049 A 
ATOM     61  H   UNL     1       1.065  15.085  10.013  1.00  0.00     0.167 HD
ATOM     62  C   UNL     1      -1.210  16.712  10.507  1.00  0.00     0.074 A 
ATOM     63  C   UNL     1      -2.566  17.222  10.467  1.00  0.00     0.031 C 
ATOM     64  C   UNL     1      -0.198  17.286  11.206  1.00  0.00     0.037 A 
BRANCH  51  65
ATOM     65  C   UNL     1       5.215  14.324  10.720  1.00  0.00     0.058 A 
ATOM     66  C   UNL     1       6.260  14.552   9.808  1.00  0.00     0.135 A 
ATOM     67  C   UNL     1       5.564  14.051  12.053  1.00  0.00     0.135 A 
ATOM     68  F   UNL     1       5.989  14.800   8.517  1.00  0.00    -0.206 F 
ATOM     69  C   UNL     1       7.595  14.488  10.198  1.00  0.00     0.059 A 
ATOM     70  C   UNL     1       6.891  14.013  12.472  1.00  0.00     0.059 A 
ATOM     71  F   UNL     1       4.608  13.823  12.968  1.00  0.00    -0.206 F 
ATOM     72  C   UNL     1       7.900  14.220  11.534  1.00  0.00     0.060 A 
BRANCH  72  73
ATOM     73  S   UNL     1       9.636  14.153  12.026  1.00  0.00     0.124 S 
ATOM     74  O   UNL     1      10.073  12.914  11.391  1.00  0.00    -0.237 OA
ATOM     75  O   UNL     1      10.170  15.383  11.451  1.00  0.00    -0.237 OA
ATOM     76  O   UNL     1       9.576  14.122  13.485  1.00  0.00    -0.744 OA
ENDBRANCH  72  73
ENDBRANCH  51  65
BRANCH  52  77
ATOM     77  C   UNL     1      -4.396  14.399   7.912  1.00  0.00     0.058 A 
ATOM     78  C   UNL     1      -4.932  15.427   7.122  1.00  0.00     0.135 A 
ATOM     79  C   UNL     1      -5.260  13.367   8.312  1.00  0.00     0.135 A 
ATOM     80  F   UNL     1      -4.150  16.441   6.720  1.00  0.00    -0.206 F 
ATOM     81  C   UNL     1      -6.275  15.442   6.758  1.00  0.00     0.059 A 
ATOM     82  C   UNL     1      -6.598  13.344   7.936  1.00  0.00     0.059 A 
ATOM     83  F   UNL     1      -4.796  12.352   9.058  1.00  0.00    -0.206 F 
ATOM     84  C   UNL     1      -7.099  14.392   7.167  1.00  0.00     0.060 A 
BRANCH  84  85
ATOM     85  S   UNL     1      -8.828  14.395   6.647  1.00  0.00     0.124 S 
ATOM     86  O   UNL     1      -9.378  15.475   7.457  1.00  0.00    -0.237 OA
ATOM     87  O   UNL     1      -8.716  14.662   5.216  1.00  0.00    -0.237 OA
ATOM     88  O   UNL     1      -9.285  13.052   6.992  1.00  0.00    -0.744 OA
ENDBRANCH  84  85
ENDBRANCH  52  77
BRANCH  64  89
ATOM     89  C   UNL     1      -0.506  18.564  11.943  1.00  0.00     0.058 A 
ATOM     90  C   UNL     1      -1.339  18.594  13.073  1.00  0.00     0.135 A 
ATOM     91  C   UNL     1       0.062  19.778  11.520  1.00  0.00     0.135 A 
ATOM     92  F   UNL     1      -1.910  17.465  13.522  1.00  0.00    -0.206 F 
ATOM     93  C   UNL     1      -1.638  19.786  13.726  1.00  0.00     0.059 A 
ATOM     94  C   UNL     1      -0.193  20.976  12.179  1.00  0.00     0.059 A 
ATOM     95  F   UNL     1       0.880  19.808  10.456  1.00  0.00    -0.206 F 
ATOM     96  C   UNL     1      -1.062  20.973  13.268  1.00  0.00     0.060 A 
BRANCH  96  97
ATOM     97  S   UNL     1      -1.462  22.514  14.119  1.00  0.00     0.124 S 
ATOM     98  O   UNL     1      -2.836  22.742  13.685  1.00  0.00    -0.237 OA
ATOM     99  O   UNL     1      -1.293  22.149  15.522  1.00  0.00    -0.237 OA
ATOM    100  O   UNL     1      -0.476  23.456  13.600  1.00  0.00    -0.744 OA
ENDBRANCH  96  97
ENDBRANCH  64  89
ENDBRANCH  38  39
ENDBRANCH  31  33
ENDBRANCH  30  31
ENDBRANCH  29  30
ENDBRANCH   1  29
TORSDOF 20
