REMARK SMILES COC(=O)[C@@H]([NH2+]CC(C)(C)C(=O)OCCOCCOC(=O)c1ccc(-c2c3nc(c(-c4c(F)cc(S(=O)(=O)[O-])cc4F)c4ccc([nH]4)c(-c4c(F)cc(S(=O)(=O)[O-])cc4F)c4nc(c(-c5c(F)cc(S(=O)(=O)[O-])cc5F)c5ccc2[nH]5)C=C4)C=C3)cc1)c1ccccc1
REMARK SMILES IDX 15 1 14 2 13 3 11 4 12 5 8 6 9 7 10 8 7 9 6 10 5 13 3 14
REMARK SMILES IDX 4 15 2 16 1 17 88 18 89 19 93 20 90 21 92 22 91 23 16 24
REMARK SMILES IDX 17 25 18 26 19 27 20 28 21 29 22 30 23 31 87 32 24 33 86 34
REMARK SMILES IDX 25 35 26 36 27 37 80 38 28 39 85 40 79 41 81 42 29 43 84 44
REMARK SMILES IDX 78 45 77 46 30 48 64 49 43 50 63 51 44 52 47 53 62 54 82 55
REMARK SMILES IDX 45 56 46 57 61 59 83 60 48 61 31 62 32 63 41 64 33 65 34 66
REMARK SMILES IDX 40 67 42 68 35 69 36 70 37 71 38 72 39 73 65 74 66 75 75 76
REMARK SMILES IDX 67 77 68 78 74 79 76 80 69 81 70 82 71 83 72 84 73 85 49 86
REMARK SMILES IDX 50 87 59 88 51 89 52 90 58 91 60 92 53 93 54 94 55 95 56 96
REMARK SMILES IDX 57 97
REMARK H PARENT 6 11 6 12 81 47 47 58
REMARK Flexibility Score: inf
ROOT
ATOM      1  C   UNL     1      -0.790   7.398  -1.651  1.00  0.00     0.202 C 
ENDROOT
BRANCH   1   2
ATOM      2  C   UNL     1       0.707   7.103  -1.754  1.00  0.00     0.261 C 
BRANCH   2   3
ATOM      3  O   UNL     1       1.000   6.544  -3.041  1.00  0.00    -0.463 OA
BRANCH   3   4
ATOM      4  C   UNL     1       1.697   5.385  -3.037  1.00  0.00     0.317 C 
ATOM      5  O   UNL     1       2.287   4.947  -2.055  1.00  0.00    -0.251 OA
BRANCH   4   6
ATOM      6  C   UNL     1       1.648   4.649  -4.377  1.00  0.00     0.111 C 
ATOM      7  C   UNL     1       3.102   4.278  -4.706  1.00  0.00     0.029 C 
ATOM      8  C   UNL     1       1.140   5.535  -5.542  1.00  0.00     0.029 C 
BRANCH   6   9
ATOM      9  C   UNL     1       0.705   3.406  -4.286  1.00  0.00     0.279 C 
BRANCH   9  10
ATOM     10  N   UNL     1       1.015   2.299  -3.366  1.00  0.00    -0.330 N 
ATOM     11  H   UNL     1       0.690   1.431  -3.792  1.00  0.00     0.347 HD
ATOM     12  H   UNL     1       2.024   2.316  -3.220  1.00  0.00     0.347 HD
BRANCH  10  13
ATOM     13  C   UNL     1       0.386   2.423  -2.017  1.00  0.00     0.324 C 
BRANCH  13  14
ATOM     14  C   UNL     1       1.093   1.457  -1.042  1.00  0.00     0.369 C 
ATOM     15  O   UNL     1       2.208   1.684  -0.575  1.00  0.00    -0.245 OA
BRANCH  14  16
ATOM     16  O   UNL     1       0.400   0.308  -0.807  1.00  0.00    -0.464 OA
ATOM     17  C   UNL     1       1.017  -0.564   0.141  1.00  0.00     0.282 C 
ENDBRANCH  14  16
ENDBRANCH  13  14
BRANCH  13  18
ATOM     18  C   UNL     1      -1.137   2.335  -1.999  1.00  0.00     0.021 A 
ATOM     19  C   UNL     1      -1.859   3.336  -1.325  1.00  0.00     0.010 A 
ATOM     20  C   UNL     1      -1.857   1.305  -2.618  1.00  0.00     0.010 A 
ATOM     21  C   UNL     1      -3.253   3.340  -1.307  1.00  0.00     0.001 A 
ATOM     22  C   UNL     1      -3.257   1.292  -2.575  1.00  0.00     0.001 A 
ATOM     23  C   UNL     1      -3.954   2.316  -1.932  1.00  0.00     0.000 A 
ENDBRANCH  13  18
ENDBRANCH  10  13
ENDBRANCH   9  10
ENDBRANCH   6   9
ENDBRANCH   4   6
ENDBRANCH   3   4
ENDBRANCH   2   3
ENDBRANCH   1   2
BRANCH   1  24
ATOM     24  O   UNL     1      -1.662   6.350  -2.077  1.00  0.00    -0.374 OA
BRANCH  24  25
ATOM     25  C   UNL     1      -1.890   6.256  -3.488  1.00  0.00     0.202 C 
BRANCH  25  26
ATOM     26  C   UNL     1      -3.024   7.124  -4.034  1.00  0.00     0.261 C 
BRANCH  26  27
ATOM     27  O   UNL     1      -2.580   8.489  -4.115  1.00  0.00    -0.460 OA
BRANCH  27  28
ATOM     28  C   UNL     1      -3.066   9.306  -3.153  1.00  0.00     0.338 C 
ATOM     29  O   UNL     1      -3.989   9.072  -2.390  1.00  0.00    -0.246 OA
BRANCH  28  30
ATOM     30  C   UNL     1      -2.128  10.438  -2.978  1.00  0.00     0.060 A 
ATOM     31  C   UNL     1      -1.867  10.847  -1.663  1.00  0.00     0.016 A 
ATOM     32  C   UNL     1      -1.470  11.044  -4.054  1.00  0.00     0.016 A 
ATOM     33  C   UNL     1      -1.002  11.908  -1.421  1.00  0.00     0.010 A 
ATOM     34  C   UNL     1      -0.613  12.119  -3.812  1.00  0.00     0.010 A 
ATOM     35  C   UNL     1      -0.418  12.582  -2.499  1.00  0.00    -0.014 A 
BRANCH  35  36
ATOM     36  C   UNL     1       0.163  13.921  -2.268  1.00  0.00     0.031 A 
ATOM     37  C   UNL     1      -0.730  15.110  -2.495  1.00  0.00     0.074 A 
ATOM     38  C   UNL     1       1.423  14.073  -1.826  1.00  0.00     0.049 A 
ATOM     39  N   UNL     1      -0.463  16.384  -2.392  1.00  0.00    -0.248 NA
ATOM     40  C   UNL     1      -2.119  14.818  -2.898  1.00  0.00     0.031 C 
ATOM     41  C   UNL     1       2.353  12.985  -1.528  1.00  0.00     0.029 A 
ATOM     42  N   UNL     1       2.137  15.211  -1.554  1.00  0.00    -0.354 N 
ATOM     43  C   UNL     1      -1.642  17.042  -2.721  1.00  0.00     0.074 A 
ATOM     44  C   UNL     1      -2.618  16.032  -3.060  1.00  0.00     0.031 C 
ATOM     45  C   UNL     1       3.524  13.511  -1.125  1.00  0.00     0.029 A 
ATOM     46  C   UNL     1       3.432  14.969  -1.164  1.00  0.00     0.049 A 
ATOM     47  H   UNL     1       1.757  16.116  -1.631  1.00  0.00     0.167 HD
ATOM     48  C   UNL     1      -1.891  18.371  -2.729  1.00  0.00     0.037 A 
ATOM     49  C   UNL     1       4.428  15.835  -0.892  1.00  0.00     0.037 A 
ATOM     50  C   UNL     1      -0.908  19.363  -2.390  1.00  0.00     0.049 A 
ATOM     51  C   UNL     1       4.148  17.314  -0.971  1.00  0.00     0.074 A 
ATOM     52  C   UNL     1      -1.046  20.739  -2.362  1.00  0.00     0.029 A 
ATOM     53  N   UNL     1       0.401  19.082  -2.026  1.00  0.00    -0.354 N 
ATOM     54  N   UNL     1       3.026  17.927  -1.273  1.00  0.00    -0.248 NA
ATOM     55  C   UNL     1       5.264  18.221  -0.671  1.00  0.00     0.031 C 
ATOM     56  C   UNL     1       0.193  21.291  -2.024  1.00  0.00     0.029 A 
ATOM     57  C   UNL     1       1.089  20.259  -1.791  1.00  0.00     0.049 A 
ATOM     58  H   UNL     1       0.784  18.178  -1.947  1.00  0.00     0.167 HD
ATOM     59  C   UNL     1       3.294  19.288  -1.170  1.00  0.00     0.074 A 
ATOM     60  C   UNL     1       4.681  19.408  -0.770  1.00  0.00     0.031 C 
ATOM     61  C   UNL     1       2.470  20.345  -1.384  1.00  0.00     0.037 A 
BRANCH  48  62
ATOM     62  C   UNL     1      -3.265  18.817  -3.143  1.00  0.00     0.058 A 
ATOM     63  C   UNL     1      -4.388  18.613  -2.325  1.00  0.00     0.135 A 
ATOM     64  C   UNL     1      -3.460  19.465  -4.373  1.00  0.00     0.135 A 
ATOM     65  F   UNL     1      -4.263  17.973  -1.151  1.00  0.00    -0.206 F 
ATOM     66  C   UNL     1      -5.660  19.013  -2.723  1.00  0.00     0.059 A 
ATOM     67  C   UNL     1      -4.718  19.898  -4.779  1.00  0.00     0.059 A 
ATOM     68  F   UNL     1      -2.423  19.675  -5.199  1.00  0.00    -0.206 F 
ATOM     69  C   UNL     1      -5.814  19.656  -3.953  1.00  0.00     0.060 A 
BRANCH  69  70
ATOM     70  S   UNL     1      -7.470  20.175  -4.453  1.00  0.00     0.124 S 
ATOM     71  O   UNL     1      -8.090  18.894  -4.778  1.00  0.00    -0.237 OA
ATOM     72  O   UNL     1      -7.967  20.832  -3.248  1.00  0.00    -0.237 OA
ATOM     73  O   UNL     1      -7.221  21.057  -5.588  1.00  0.00    -0.744 OA
ENDBRANCH  69  70
ENDBRANCH  48  62
BRANCH  49  74
ATOM     74  C   UNL     1       5.781  15.329  -0.532  1.00  0.00     0.058 A 
ATOM     75  C   UNL     1       6.298  15.491   0.761  1.00  0.00     0.135 A 
ATOM     76  C   UNL     1       6.584  14.672  -1.478  1.00  0.00     0.135 A 
ATOM     77  F   UNL     1       5.574  16.121   1.699  1.00  0.00    -0.206 F 
ATOM     78  C   UNL     1       7.568  15.034   1.102  1.00  0.00     0.059 A 
ATOM     79  C   UNL     1       7.847  14.184  -1.155  1.00  0.00     0.059 A 
ATOM     80  F   UNL     1       6.133  14.482  -2.728  1.00  0.00    -0.206 F 
ATOM     81  C   UNL     1       8.334  14.379   0.136  1.00  0.00     0.060 A 
BRANCH  81  82
ATOM     82  S   UNL     1       9.963  13.749   0.601  1.00  0.00     0.124 S 
ATOM     83  O   UNL     1      10.737  14.981   0.698  1.00  0.00    -0.237 OA
ATOM     84  O   UNL     1       9.680  13.071   1.861  1.00  0.00    -0.237 OA
ATOM     85  O   UNL     1      10.311  12.870  -0.511  1.00  0.00    -0.744 OA
ENDBRANCH  81  82
ENDBRANCH  49  74
BRANCH  61  86
ATOM     86  C   UNL     1       3.033  21.720  -1.154  1.00  0.00     0.058 A 
ATOM     87  C   UNL     1       3.943  22.303  -2.047  1.00  0.00     0.135 A 
ATOM     88  C   UNL     1       2.604  22.485  -0.057  1.00  0.00     0.135 A 
ATOM     89  F   UNL     1       4.387  21.612  -3.109  1.00  0.00    -0.206 F 
ATOM     90  C   UNL     1       4.428  23.592  -1.849  1.00  0.00     0.059 A 
ATOM     91  C   UNL     1       3.053  23.786   0.144  1.00  0.00     0.059 A 
ATOM     92  F   UNL     1       1.723  21.977   0.819  1.00  0.00    -0.206 F 
ATOM     93  C   UNL     1       3.974  24.326  -0.751  1.00  0.00     0.060 A 
BRANCH  93  94
ATOM     94  S   UNL     1       4.582  26.010  -0.526  1.00  0.00     0.124 S 
ATOM     95  O   UNL     1       5.942  25.770  -0.054  1.00  0.00    -0.237 OA
ATOM     96  O   UNL     1       4.466  26.568  -1.870  1.00  0.00    -0.237 OA
ATOM     97  O   UNL     1       3.665  26.574   0.461  1.00  0.00    -0.744 OA
ENDBRANCH  93  94
ENDBRANCH  61  86
ENDBRANCH  35  36
ENDBRANCH  28  30
ENDBRANCH  27  28
ENDBRANCH  26  27
ENDBRANCH  25  26
ENDBRANCH  24  25
ENDBRANCH   1  24
TORSDOF 23
