REMARK SMILES C[C@@H](C(=O)OCCOCCOC(=O)c1ccc(-c2c3nc(c(-c4c(F)cc(S(=O)(=O)[O-])cc4F)c4ccc([nH]4)c(-c4c(F)cc(S(=O)(=O)[O-])cc4F)c4nc(c(-c5c(F)cc(S(=O)(=O)[O-])cc5F)c5ccc2[nH]5)C=C4)C=C3)cc1)c1cc(C(=O)c2ccccc2)ccc1O
REMARK SMILES IDX 8 1 7 2 6 3 5 4 3 5 4 6 2 7 1 8 80 9 81 10 93 11 82 12 92 13
REMARK SMILES IDX 91 14 94 15 83 17 84 18 85 19 86 20 90 21 87 22 89 23 88 24
REMARK SMILES IDX 9 25 10 26 11 27 12 28 13 29 14 30 15 31 79 32 16 33 78 34
REMARK SMILES IDX 17 35 18 36 19 37 72 38 20 39 77 40 71 41 73 42 21 43 76 44
REMARK SMILES IDX 70 45 69 46 22 48 56 49 35 50 55 51 36 52 39 53 54 54 74 55
REMARK SMILES IDX 37 56 38 57 53 59 75 60 40 61 23 62 24 63 33 64 25 65 26 66
REMARK SMILES IDX 32 67 34 68 27 69 28 70 29 71 30 72 31 73 57 74 58 75 67 76
REMARK SMILES IDX 59 77 60 78 66 79 68 80 61 81 62 82 63 83 64 84 65 85 41 86
REMARK SMILES IDX 42 87 51 88 43 89 44 90 50 91 52 92 45 93 46 94 47 95 48 96
REMARK SMILES IDX 49 97
REMARK H PARENT 94 16 73 47 39 58
REMARK Flexibility Score: inf
ROOT
ATOM      1  O   UNL     1       1.333  -3.229  -3.874  1.00  0.00    -0.374 OA
ENDROOT
BRANCH   1   2
ATOM      2  C   UNL     1       2.483  -2.389  -4.026  1.00  0.00     0.202 C 
BRANCH   2   3
ATOM      3  C   UNL     1       2.220  -0.885  -4.165  1.00  0.00     0.261 C 
BRANCH   3   4
ATOM      4  O   UNL     1       1.871  -0.298  -2.893  1.00  0.00    -0.463 OA
BRANCH   4   5
ATOM      5  C   UNL     1       0.683   0.368  -2.838  1.00  0.00     0.313 C 
ATOM      6  O   UNL     1      -0.030   0.584  -3.812  1.00  0.00    -0.252 OA
BRANCH   5   7
ATOM      7  C   UNL     1       0.345   0.857  -1.420  1.00  0.00     0.130 C 
ATOM      8  C   UNL     1       1.215   0.280  -0.301  1.00  0.00     0.025 C 
BRANCH   7   9
ATOM      9  C   UNL     1      -1.154   0.723  -1.150  1.00  0.00     0.009 A 
ATOM     10  C   UNL     1      -1.941   1.888  -1.138  1.00  0.00     0.020 A 
ATOM     11  C   UNL     1      -1.824  -0.503  -1.045  1.00  0.00     0.119 A 
ATOM     12  C   UNL     1      -3.340   1.813  -1.086  1.00  0.00     0.023 A 
ATOM     13  C   UNL     1      -3.211  -0.593  -1.103  1.00  0.00     0.047 A 
ATOM     14  C   UNL     1      -3.971   0.567  -1.150  1.00  0.00     0.016 A 
BRANCH  11  15
ATOM     15  O   UNL     1      -1.171  -1.678  -0.848  1.00  0.00    -0.508 OA
ATOM     16  H   UNL     1      -0.235  -1.691  -0.798  1.00  0.00     0.293 HD
ENDBRANCH  11  15
BRANCH  12  17
ATOM     17  C   UNL     1      -4.124   3.074  -0.973  1.00  0.00     0.193 C 
ATOM     18  O   UNL     1      -3.635   4.146  -1.315  1.00  0.00    -0.289 OA
BRANCH  17  19
ATOM     19  C   UNL     1      -5.506   3.049  -0.438  1.00  0.00     0.022 A 
ATOM     20  C   UNL     1      -6.489   3.787  -1.102  1.00  0.00     0.012 A 
ATOM     21  C   UNL     1      -5.838   2.288   0.692  1.00  0.00     0.012 A 
ATOM     22  C   UNL     1      -7.813   3.716  -0.672  1.00  0.00     0.001 A 
ATOM     23  C   UNL     1      -7.166   2.213   1.111  1.00  0.00     0.001 A 
ATOM     24  C   UNL     1      -8.152   2.920   0.424  1.00  0.00     0.000 A 
ENDBRANCH  17  19
ENDBRANCH  12  17
ENDBRANCH   7   9
ENDBRANCH   5   7
ENDBRANCH   4   5
ENDBRANCH   3   4
ENDBRANCH   2   3
ENDBRANCH   1   2
BRANCH   1  25
ATOM     25  C   UNL     1       0.635  -3.127  -2.637  1.00  0.00     0.202 C 
BRANCH  25  26
ATOM     26  C   UNL     1       1.163  -3.978  -1.476  1.00  0.00     0.261 C 
BRANCH  26  27
ATOM     27  O   UNL     1       2.553  -3.736  -1.216  1.00  0.00    -0.460 OA
BRANCH  27  28
ATOM     28  C   UNL     1       3.369  -4.707  -1.687  1.00  0.00     0.338 C 
ATOM     29  O   UNL     1       3.038  -5.789  -2.156  1.00  0.00    -0.246 OA
BRANCH  28  30
ATOM     30  C   UNL     1       4.756  -4.221  -1.734  1.00  0.00     0.060 A 
ATOM     31  C   UNL     1       5.432  -4.350  -2.953  1.00  0.00     0.016 A 
ATOM     32  C   UNL     1       5.403  -3.706  -0.608  1.00  0.00     0.016 A 
ATOM     33  C   UNL     1       6.781  -4.027  -3.036  1.00  0.00     0.010 A 
ATOM     34  C   UNL     1       6.762  -3.387  -0.692  1.00  0.00     0.010 A 
ATOM     35  C   UNL     1       7.463  -3.588  -1.894  1.00  0.00    -0.014 A 
BRANCH  35  36
ATOM     36  C   UNL     1       8.942  -3.511  -1.932  1.00  0.00     0.031 A 
ATOM     37  C   UNL     1       9.738  -4.649  -1.355  1.00  0.00     0.074 A 
ATOM     38  C   UNL     1       9.558  -2.473  -2.525  1.00  0.00     0.049 A 
ATOM     39  N   UNL     1      11.034  -4.803  -1.285  1.00  0.00    -0.248 NA
ATOM     40  C   UNL     1       8.969  -5.765  -0.778  1.00  0.00     0.031 C 
ATOM     41  C   UNL     1       8.881  -1.340  -3.155  1.00  0.00     0.029 A 
ATOM     42  N   UNL     1      10.892  -2.208  -2.696  1.00  0.00    -0.354 N 
ATOM     43  C   UNL     1      11.237  -6.024  -0.653  1.00  0.00     0.074 A 
ATOM     44  C   UNL     1       9.932  -6.558  -0.331  1.00  0.00     0.031 C 
ATOM     45  C   UNL     1       9.807  -0.497  -3.644  1.00  0.00     0.029 A 
ATOM     46  C   UNL     1      11.138  -1.016  -3.335  1.00  0.00     0.049 A 
ATOM     47  H   UNL     1      11.605  -2.813  -2.391  1.00  0.00     0.167 HD
ATOM     48  C   UNL     1      12.407  -6.647  -0.376  1.00  0.00     0.037 A 
ATOM     49  C   UNL     1      12.307  -0.409  -3.621  1.00  0.00     0.037 A 
ATOM     50  C   UNL     1      13.699  -6.108  -0.709  1.00  0.00     0.049 A 
ATOM     51  C   UNL     1      13.596  -1.094  -3.247  1.00  0.00     0.074 A 
ATOM     52  C   UNL     1      14.946  -6.667  -0.494  1.00  0.00     0.029 A 
ATOM     53  N   UNL     1      13.910  -4.881  -1.322  1.00  0.00    -0.354 N 
ATOM     54  N   UNL     1      13.774  -2.260  -2.671  1.00  0.00    -0.248 NA
ATOM     55  C   UNL     1      14.843  -0.384  -3.565  1.00  0.00     0.031 C 
ATOM     56  C   UNL     1      15.913  -5.754  -0.927  1.00  0.00     0.029 A 
ATOM     57  C   UNL     1      15.268  -4.651  -1.466  1.00  0.00     0.049 A 
ATOM     58  H   UNL     1      13.199  -4.264  -1.611  1.00  0.00     0.167 HD
ATOM     59  C   UNL     1      15.152  -2.436  -2.583  1.00  0.00     0.074 A 
ATOM     60  C   UNL     1      15.758  -1.261  -3.175  1.00  0.00     0.031 C 
ATOM     61  C   UNL     1      15.852  -3.475  -2.064  1.00  0.00     0.037 A 
BRANCH  48  62
ATOM     62  C   UNL     1      12.343  -7.964   0.349  1.00  0.00     0.058 A 
ATOM     63  C   UNL     1      11.879  -9.134  -0.272  1.00  0.00     0.135 A 
ATOM     64  C   UNL     1      12.782  -8.061   1.680  1.00  0.00     0.135 A 
ATOM     65  F   UNL     1      11.428  -9.095  -1.537  1.00  0.00    -0.206 F 
ATOM     66  C   UNL     1      11.828 -10.348   0.407  1.00  0.00     0.059 A 
ATOM     67  C   UNL     1      12.766  -9.269   2.370  1.00  0.00     0.059 A 
ATOM     68  F   UNL     1      13.231  -6.973   2.325  1.00  0.00    -0.206 F 
ATOM     69  C   UNL     1      12.274 -10.405   1.729  1.00  0.00     0.060 A 
BRANCH  69  70
ATOM     70  S   UNL     1      12.206 -11.987   2.596  1.00  0.00     0.124 S 
ATOM     71  O   UNL     1      10.771 -12.137   2.817  1.00  0.00    -0.237 OA
ATOM     72  O   UNL     1      12.796 -12.901   1.623  1.00  0.00    -0.237 OA
ATOM     73  O   UNL     1      13.004 -11.753   3.795  1.00  0.00    -0.744 OA
ENDBRANCH  69  70
ENDBRANCH  48  62
BRANCH  49  74
ATOM     74  C   UNL     1      12.311   0.919  -4.289  1.00  0.00     0.058 A 
ATOM     75  C   UNL     1      12.771   1.070  -5.605  1.00  0.00     0.135 A 
ATOM     76  C   UNL     1      11.848   2.066  -3.625  1.00  0.00     0.135 A 
ATOM     77  F   UNL     1      13.233   0.006  -6.280  1.00  0.00    -0.206 F 
ATOM     78  C   UNL     1      12.786   2.311  -6.235  1.00  0.00     0.059 A 
ATOM     79  C   UNL     1      11.828   3.313  -4.242  1.00  0.00     0.059 A 
ATOM     80  F   UNL     1      11.386   1.975  -2.368  1.00  0.00    -0.206 F 
ATOM     81  C   UNL     1      12.308   3.426  -5.545  1.00  0.00     0.060 A 
BRANCH  81  82
ATOM     82  S   UNL     1      12.286   5.023  -6.389  1.00  0.00     0.124 S 
ATOM     83  O   UNL     1      13.704   5.361  -6.415  1.00  0.00    -0.237 OA
ATOM     84  O   UNL     1      11.686   4.681  -7.675  1.00  0.00    -0.237 OA
ATOM     85  O   UNL     1      11.455   5.850  -5.518  1.00  0.00    -0.744 OA
ENDBRANCH  81  82
ENDBRANCH  49  74
BRANCH  61  86
ATOM     86  C   UNL     1      17.352  -3.409  -2.144  1.00  0.00     0.058 A 
ATOM     87  C   UNL     1      18.098  -2.539  -1.333  1.00  0.00     0.135 A 
ATOM     88  C   UNL     1      18.055  -4.269  -3.003  1.00  0.00     0.135 A 
ATOM     89  F   UNL     1      17.475  -1.692  -0.498  1.00  0.00    -0.206 F 
ATOM     90  C   UNL     1      19.487  -2.507  -1.390  1.00  0.00     0.059 A 
ATOM     91  C   UNL     1      19.445  -4.275  -3.055  1.00  0.00     0.059 A 
ATOM     92  F   UNL     1      17.391  -5.130  -3.791  1.00  0.00    -0.206 F 
ATOM     93  C   UNL     1      20.152  -3.381  -2.252  1.00  0.00     0.060 A 
BRANCH  93  94
ATOM     94  S   UNL     1      21.957  -3.352  -2.291  1.00  0.00     0.124 S 
ATOM     95  O   UNL     1      22.216  -2.111  -3.012  1.00  0.00    -0.237 OA
ATOM     96  O   UNL     1      22.300  -3.345  -0.872  1.00  0.00    -0.237 OA
ATOM     97  O   UNL     1      22.301  -4.577  -3.006  1.00  0.00    -0.744 OA
ENDBRANCH  93  94
ENDBRANCH  61  86
ENDBRANCH  35  36
ENDBRANCH  28  30
ENDBRANCH  27  28
ENDBRANCH  26  27
ENDBRANCH  25  26
ENDBRANCH   1  25
TORSDOF 21
