REMARK SMILES CCc1cccc(-c2ccc([C@@H](C)C(=O)OCCOCCOC(=O)c3ccc(-c4c5nc(c(-c6c(F)cc(S(=O)(=O)[O-])cc6F)c6ccc([nH]6)c(-c6c(F)cc(S(=O)(=O)[O-])cc6F)c6nc(c(-c7c(F)cc(S(=O)(=O)[O-])cc7F)c7ccc4[nH]7)C=C6)C=C5)cc3)cc2)c1
REMARK SMILES IDX 19 1 18 2 17 3 16 4 14 5 15 6 12 7 13 8 11 9 8 10 9 11 92 12
REMARK SMILES IDX 10 13 91 14 7 15 3 16 4 17 93 18 5 19 6 20 2 21 1 22 20 23
REMARK SMILES IDX 21 24 22 25 23 26 24 27 25 28 26 29 90 30 27 31 89 32 28 33
REMARK SMILES IDX 29 34 30 35 83 36 31 37 88 38 82 39 84 40 32 41 87 42 81 43
REMARK SMILES IDX 80 44 33 46 67 47 46 48 66 49 47 50 50 51 65 52 85 53 48 54
REMARK SMILES IDX 49 55 64 57 86 58 51 59 34 60 35 61 44 62 36 63 37 64 43 65
REMARK SMILES IDX 45 66 38 67 39 68 40 69 41 70 42 71 68 72 69 73 78 74 70 75
REMARK SMILES IDX 71 76 77 77 79 78 72 79 73 80 74 81 75 82 76 83 52 84 53 85
REMARK SMILES IDX 62 86 54 87 55 88 61 89 63 90 56 91 57 92 58 93 59 94 60 95
REMARK H PARENT 84 45 50 56
REMARK Flexibility Score: inf
ROOT
ATOM      1  O   UNL     1       5.748   1.795  -9.439  1.00  0.00    -0.374 OA
ENDROOT
BRANCH   1   2
ATOM      2  C   UNL     1       5.144   0.952 -10.421  1.00  0.00     0.202 C 
BRANCH   2   3
ATOM      3  C   UNL     1       5.896  -0.341 -10.747  1.00  0.00     0.261 C 
BRANCH   3   4
ATOM      4  O   UNL     1       5.876  -1.249  -9.630  1.00  0.00    -0.463 OA
BRANCH   4   5
ATOM      5  C   UNL     1       7.076  -1.522  -9.058  1.00  0.00     0.313 C 
ATOM      6  O   UNL     1       8.159  -1.150  -9.501  1.00  0.00    -0.252 OA
BRANCH   5   7
ATOM      7  C   UNL     1       6.978  -2.383  -7.808  1.00  0.00     0.126 C 
ATOM      8  C   UNL     1       7.194  -3.846  -8.187  1.00  0.00     0.025 C 
BRANCH   7   9
ATOM      9  C   UNL     1       5.760  -2.198  -6.908  1.00  0.00    -0.034 A 
ATOM     10  C   UNL     1       3.578  -2.080  -5.075  1.00  0.00    -0.018 A 
ATOM     11  C   UNL     1       3.401  -2.529  -6.393  1.00  0.00     0.009 A 
ATOM     12  C   UNL     1       4.855  -1.635  -4.708  1.00  0.00     0.009 A 
ATOM     13  C   UNL     1       4.472  -2.589  -7.296  1.00  0.00     0.005 A 
ATOM     14  C   UNL     1       5.928  -1.693  -5.608  1.00  0.00     0.005 A 
BRANCH  10  15
ATOM     15  C   UNL     1       2.482  -2.151  -4.090  1.00  0.00    -0.018 A 
ATOM     16  C   UNL     1       1.048  -1.123  -2.385  1.00  0.00    -0.048 A 
ATOM     17  C   UNL     1       0.412  -2.355  -2.184  1.00  0.00     0.004 A 
ATOM     18  C   UNL     1       2.081  -1.033  -3.336  1.00  0.00     0.012 A 
ATOM     19  C   UNL     1       0.798  -3.473  -2.916  1.00  0.00     0.001 A 
ATOM     20  C   UNL     1       1.821  -3.370  -3.859  1.00  0.00     0.009 A 
BRANCH  16  21
ATOM     21  C   UNL     1       0.618   0.083  -1.587  1.00  0.00     0.032 C 
ATOM     22  C   UNL     1       1.083   0.015  -0.139  1.00  0.00     0.009 C 
ENDBRANCH  16  21
ENDBRANCH  10  15
ENDBRANCH   7   9
ENDBRANCH   5   7
ENDBRANCH   4   5
ENDBRANCH   3   4
ENDBRANCH   2   3
ENDBRANCH   1   2
BRANCH   1  23
ATOM     23  C   UNL     1       5.596   1.415  -8.071  1.00  0.00     0.202 C 
BRANCH  23  24
ATOM     24  C   UNL     1       4.239   1.716  -7.423  1.00  0.00     0.261 C 
BRANCH  24  25
ATOM     25  O   UNL     1       3.179   0.919  -7.978  1.00  0.00    -0.460 OA
BRANCH  25  26
ATOM     26  C   UNL     1       2.275   1.605  -8.714  1.00  0.00     0.338 C 
ATOM     27  O   UNL     1       2.238   2.817  -8.895  1.00  0.00    -0.246 OA
BRANCH  26  28
ATOM     28  C   UNL     1       1.403   0.670  -9.449  1.00  0.00     0.060 A 
ATOM     29  C   UNL     1       1.236   0.888 -10.823  1.00  0.00     0.016 A 
ATOM     30  C   UNL     1       0.703  -0.351  -8.803  1.00  0.00     0.016 A 
ATOM     31  C   UNL     1       0.324   0.125 -11.546  1.00  0.00     0.010 A 
ATOM     32  C   UNL     1      -0.221  -1.112  -9.530  1.00  0.00     0.010 A 
ATOM     33  C   UNL     1      -0.442  -0.851 -10.895  1.00  0.00    -0.014 A 
BRANCH  33  34
ATOM     34  C   UNL     1      -1.587  -1.472 -11.605  1.00  0.00     0.031 A 
ATOM     35  C   UNL     1      -2.971  -0.930 -11.363  1.00  0.00     0.074 A 
ATOM     36  C   UNL     1      -1.398  -2.473 -12.483  1.00  0.00     0.049 A 
ATOM     37  N   UNL     1      -4.116  -1.330 -11.851  1.00  0.00    -0.248 NA
ATOM     38  C   UNL     1      -3.073   0.220 -10.450  1.00  0.00     0.031 C 
ATOM     39  C   UNL     1      -0.102  -3.043 -12.846  1.00  0.00     0.029 A 
ATOM     40  N   UNL     1      -2.301  -3.184 -13.232  1.00  0.00    -0.354 N 
ATOM     41  C   UNL     1      -5.075  -0.484 -11.306  1.00  0.00     0.074 A 
ATOM     42  C   UNL     1      -4.380   0.429 -10.424  1.00  0.00     0.031 C 
ATOM     43  C   UNL     1      -0.295  -4.021 -13.749  1.00  0.00     0.029 A 
ATOM     44  C   UNL     1      -1.728  -4.166 -14.002  1.00  0.00     0.049 A 
ATOM     45  H   UNL     1      -3.270  -3.007 -13.218  1.00  0.00     0.167 HD
ATOM     46  C   UNL     1      -6.412  -0.462 -11.526  1.00  0.00     0.037 A 
ATOM     47  C   UNL     1      -2.296  -5.087 -14.806  1.00  0.00     0.037 A 
ATOM     48  C   UNL     1      -7.101  -1.378 -12.397  1.00  0.00     0.049 A 
ATOM     49  C   UNL     1      -3.795  -5.105 -14.965  1.00  0.00     0.074 A 
ATOM     50  C   UNL     1      -8.453  -1.444 -12.682  1.00  0.00     0.029 A 
ATOM     51  N   UNL     1      -6.490  -2.393 -13.119  1.00  0.00    -0.354 N 
ATOM     52  N   UNL     1      -4.690  -4.302 -14.442  1.00  0.00    -0.248 NA
ATOM     53  C   UNL     1      -4.360  -6.157 -15.822  1.00  0.00     0.031 C 
ATOM     54  C   UNL     1      -8.665  -2.526 -13.544  1.00  0.00     0.029 A 
ATOM     55  C   UNL     1      -7.439  -3.105 -13.833  1.00  0.00     0.049 A 
ATOM     56  H   UNL     1      -5.523  -2.580 -13.123  1.00  0.00     0.167 HD
ATOM     57  C   UNL     1      -5.920  -4.731 -14.932  1.00  0.00     0.074 A 
ATOM     58  C   UNL     1      -5.653  -5.865 -15.793  1.00  0.00     0.031 C 
ATOM     59  C   UNL     1      -7.157  -4.227 -14.695  1.00  0.00     0.037 A 
BRANCH  46  60
ATOM     60  C   UNL     1      -7.213   0.571 -10.784  1.00  0.00     0.058 A 
ATOM     61  C   UNL     1      -7.142   1.935 -11.110  1.00  0.00     0.135 A 
ATOM     62  C   UNL     1      -8.059   0.193  -9.729  1.00  0.00     0.135 A 
ATOM     63  F   UNL     1      -6.335   2.352 -12.099  1.00  0.00    -0.206 F 
ATOM     64  C   UNL     1      -7.850   2.892 -10.391  1.00  0.00     0.059 A 
ATOM     65  C   UNL     1      -8.797   1.131  -9.013  1.00  0.00     0.059 A 
ATOM     66  F   UNL     1      -8.165  -1.097  -9.376  1.00  0.00    -0.206 F 
ATOM     67  C   UNL     1      -8.669   2.481  -9.338  1.00  0.00     0.060 A 
BRANCH  67  68
ATOM     68  S   UNL     1      -9.559   3.736  -8.393  1.00  0.00     0.124 S 
ATOM     69  O   UNL     1      -8.485   4.306  -7.585  1.00  0.00    -0.237 OA
ATOM     70  O   UNL     1     -10.091   4.601  -9.441  1.00  0.00    -0.237 OA
ATOM     71  O   UNL     1     -10.555   2.963  -7.657  1.00  0.00    -0.744 OA
ENDBRANCH  67  68
ENDBRANCH  46  60
BRANCH  47  72
ATOM     72  C   UNL     1      -1.444  -6.070 -15.525  1.00  0.00     0.058 A 
ATOM     73  C   UNL     1      -1.274  -5.997 -16.915  1.00  0.00     0.135 A 
ATOM     74  C   UNL     1      -0.772  -7.092 -14.836  1.00  0.00     0.135 A 
ATOM     75  F   UNL     1      -1.907  -5.045 -17.618  1.00  0.00    -0.206 F 
ATOM     76  C   UNL     1      -0.473  -6.905 -17.599  1.00  0.00     0.059 A 
ATOM     77  C   UNL     1       0.053  -7.998 -15.495  1.00  0.00     0.059 A 
ATOM     78  F   UNL     1      -0.896  -7.200 -13.504  1.00  0.00    -0.206 F 
ATOM     79  C   UNL     1       0.192  -7.899 -16.879  1.00  0.00     0.060 A 
BRANCH  79  80
ATOM     80  S   UNL     1       1.281  -9.033 -17.769  1.00  0.00     0.124 S 
ATOM     81  O   UNL     1       0.319  -9.886 -18.456  1.00  0.00    -0.237 OA
ATOM     82  O   UNL     1       2.046  -8.122 -18.614  1.00  0.00    -0.237 OA
ATOM     83  O   UNL     1       2.043  -9.671 -16.700  1.00  0.00    -0.744 OA
ENDBRANCH  79  80
ENDBRANCH  47  72
BRANCH  59  84
ATOM     84  C   UNL     1      -8.318  -4.868 -15.404  1.00  0.00     0.058 A 
ATOM     85  C   UNL     1      -8.824  -6.117 -15.015  1.00  0.00     0.135 A 
ATOM     86  C   UNL     1      -8.972  -4.191 -16.447  1.00  0.00     0.135 A 
ATOM     87  F   UNL     1      -8.231  -6.809 -14.029  1.00  0.00    -0.206 F 
ATOM     88  C   UNL     1      -9.929  -6.681 -15.645  1.00  0.00     0.059 A 
ATOM     89  C   UNL     1     -10.093  -4.724 -17.074  1.00  0.00     0.059 A 
ATOM     90  F   UNL     1      -8.534  -2.988 -16.851  1.00  0.00    -0.206 F 
ATOM     91  C   UNL     1     -10.559  -5.975 -16.672  1.00  0.00     0.060 A 
BRANCH  91  92
ATOM     92  S   UNL     1     -12.021  -6.696 -17.451  1.00  0.00     0.124 S 
ATOM     93  O   UNL     1     -11.426  -7.733 -18.288  1.00  0.00    -0.237 OA
ATOM     94  O   UNL     1     -12.787  -7.170 -16.302  1.00  0.00    -0.237 OA
ATOM     95  O   UNL     1     -12.613  -5.571 -18.169  1.00  0.00    -0.744 OA
ENDBRANCH  91  92
ENDBRANCH  59  84
ENDBRANCH  33  34
ENDBRANCH  26  28
ENDBRANCH  25  26
ENDBRANCH  24  25
ENDBRANCH  23  24
ENDBRANCH   1  23
TORSDOF 20
