REMARK SMILES CCOC(=O)c1c(NC(=O)c2ncccc2C(=O)OCCOCCOC(=O)c2ccc(-c3c4nc(c(-c5c(F)cc(S(=O)(=O)[O-])cc5F)c5ccc([nH]5)c(-c5c(F)cc(S(=O)(=O)[O-])cc5F)c5nc(c(-c6c(F)cc(S(=O)(=O)[O-])cc6F)c6ccc3[nH]6)C=C5)C=C4)cc2)sc2c1CC[C@H](C)C2
REMARK SMILES IDX 21 1 20 2 19 3 17 4 18 5 16 6 11 7 12 8 13 9 15 10 14 11
REMARK SMILES IDX 9 12 8 13 10 15 7 16 6 17 96 18 94 19 95 20 97 21 101 22
REMARK SMILES IDX 98 23 99 24 100 25 4 26 5 27 3 28 2 29 1 30 22 31 23 32
REMARK SMILES IDX 24 33 25 34 26 35 27 36 28 37 29 38 93 39 30 40 92 41 31 42
REMARK SMILES IDX 32 43 33 44 86 45 34 46 91 47 85 48 87 49 35 50 90 51 84 52
REMARK SMILES IDX 83 53 36 55 70 56 49 57 69 58 50 59 53 60 68 61 88 62 51 63
REMARK SMILES IDX 52 64 67 66 89 67 54 68 37 69 38 70 47 71 39 72 40 73 46 74
REMARK SMILES IDX 48 75 41 76 42 77 43 78 44 79 45 80 71 81 72 82 81 83 73 84
REMARK SMILES IDX 74 85 80 86 82 87 75 88 76 89 77 90 78 91 79 92 55 93 56 94
REMARK SMILES IDX 65 95 57 96 58 97 64 98 66 99 59 100 60 101 61 102 62 103
REMARK SMILES IDX 63 104
REMARK H PARENT 8 14 87 54 53 65
REMARK Flexibility Score: inf
ROOT
ATOM      1  C   UNL     1       6.370  -1.017  -6.496  1.00  0.00     0.202 C 
ENDROOT
BRANCH   1   2
ATOM      2  C   UNL     1       5.893   0.202  -5.690  1.00  0.00     0.261 C 
BRANCH   2   3
ATOM      3  O   UNL     1       4.753   0.033  -4.827  1.00  0.00    -0.460 OA
BRANCH   3   4
ATOM      4  C   UNL     1       3.578   0.464  -5.359  1.00  0.00     0.340 C 
ATOM      5  O   UNL     1       3.396   0.827  -6.501  1.00  0.00    -0.246 OA
BRANCH   4   6
ATOM      6  C   UNL     1       2.543   0.594  -4.326  1.00  0.00     0.091 A 
ATOM      7  C   UNL     1       1.258   0.084  -4.475  1.00  0.00     0.142 A 
ATOM      8  N   UNL     1       0.188   0.545  -3.763  1.00  0.00    -0.250 NA
ATOM      9  C   UNL     1       0.425   1.536  -2.881  1.00  0.00     0.112 A 
ATOM     10  C   UNL     1       2.770   1.518  -3.299  1.00  0.00     0.020 A 
ATOM     11  C   UNL     1       1.690   2.002  -2.567  1.00  0.00     0.021 A 
BRANCH   7  12
ATOM     12  C   UNL     1       0.869  -0.871  -5.527  1.00  0.00     0.275 C 
ATOM     13  N   UNL     1       0.709  -2.218  -5.313  1.00  0.00    -0.311 N 
ATOM     14  H   UNL     1       0.202  -2.664  -6.030  1.00  0.00     0.171 HD
ATOM     15  O   UNL     1       0.617  -0.432  -6.652  1.00  0.00    -0.267 OA
BRANCH  13  16
ATOM     16  C   UNL     1       1.099  -3.078  -4.319  1.00  0.00     0.110 A 
ATOM     17  C   UNL     1       1.528  -3.076  -3.005  1.00  0.00     0.098 A 
ATOM     18  C   UNL     1       2.263  -4.303  -2.752  1.00  0.00    -0.017 A 
ATOM     19  S   UNL     1       1.146  -4.660  -5.003  1.00  0.00    -0.122 S 
ATOM     20  C   UNL     1       2.230  -5.184  -3.818  1.00  0.00     0.011 A 
ATOM     21  C   UNL     1       3.142  -4.570  -1.585  1.00  0.00     0.038 C 
ATOM     22  C   UNL     1       3.118  -6.380  -4.042  1.00  0.00     0.050 C 
ATOM     23  C   UNL     1       4.328  -5.398  -2.056  1.00  0.00     0.008 C 
ATOM     24  C   UNL     1       4.007  -6.681  -2.829  1.00  0.00    -0.009 C 
ATOM     25  C   UNL     1       5.323  -7.358  -3.272  1.00  0.00     0.008 C 
BRANCH  17  26
ATOM     26  C   UNL     1       1.442  -1.989  -2.046  1.00  0.00     0.341 C 
ATOM     27  O   UNL     1       2.391  -1.235  -1.818  1.00  0.00    -0.246 OA
BRANCH  26  28
ATOM     28  O   UNL     1       0.249  -1.969  -1.404  1.00  0.00    -0.462 OA
BRANCH  28  29
ATOM     29  C   UNL     1      -0.044  -0.904  -0.482  1.00  0.00     0.230 C 
ATOM     30  C   UNL     1       0.877  -0.795   0.718  1.00  0.00     0.049 C 
ENDBRANCH  28  29
ENDBRANCH  26  28
ENDBRANCH  17  26
ENDBRANCH  13  16
ENDBRANCH   7  12
ENDBRANCH   4   6
ENDBRANCH   3   4
ENDBRANCH   2   3
ENDBRANCH   1   2
BRANCH   1  31
ATOM     31  O   UNL     1       5.428  -1.876  -7.110  1.00  0.00    -0.374 OA
BRANCH  31  32
ATOM     32  C   UNL     1       4.434  -2.477  -6.305  1.00  0.00     0.202 C 
BRANCH  32  33
ATOM     33  C   UNL     1       4.788  -3.098  -4.956  1.00  0.00     0.261 C 
BRANCH  33  34
ATOM     34  O   UNL     1       5.848  -2.541  -4.182  1.00  0.00    -0.460 OA
BRANCH  34  35
ATOM     35  C   UNL     1       6.963  -3.314  -4.199  1.00  0.00     0.338 C 
ATOM     36  O   UNL     1       7.397  -3.902  -5.176  1.00  0.00    -0.246 OA
BRANCH  35  37
ATOM     37  C   UNL     1       7.386  -3.615  -2.813  1.00  0.00     0.060 A 
ATOM     38  C   UNL     1       8.238  -4.717  -2.678  1.00  0.00     0.016 A 
ATOM     39  C   UNL     1       6.663  -3.127  -1.718  1.00  0.00     0.016 A 
ATOM     40  C   UNL     1       8.162  -5.494  -1.534  1.00  0.00     0.010 A 
ATOM     41  C   UNL     1       6.585  -3.917  -0.579  1.00  0.00     0.010 A 
ATOM     42  C   UNL     1       7.248  -5.155  -0.534  1.00  0.00    -0.014 A 
BRANCH  42  43
ATOM     43  C   UNL     1       7.194  -5.970   0.683  1.00  0.00     0.031 A 
ATOM     44  C   UNL     1       8.291  -5.541   1.576  1.00  0.00     0.074 A 
ATOM     45  C   UNL     1       6.312  -6.930   1.051  1.00  0.00     0.049 A 
ATOM     46  N   UNL     1       9.390  -6.186   1.784  1.00  0.00    -0.248 NA
ATOM     47  C   UNL     1       8.309  -4.144   2.042  1.00  0.00     0.031 C 
ATOM     48  C   UNL     1       5.126  -7.445   0.383  1.00  0.00     0.029 A 
ATOM     49  N   UNL     1       6.281  -7.653   2.212  1.00  0.00    -0.354 N 
ATOM     50  C   UNL     1      10.134  -5.359   2.607  1.00  0.00     0.074 A 
ATOM     51  C   UNL     1       9.553  -4.050   2.509  1.00  0.00     0.031 C 
ATOM     52  C   UNL     1       4.339  -8.147   1.220  1.00  0.00     0.029 A 
ATOM     53  C   UNL     1       5.077  -8.324   2.445  1.00  0.00     0.049 A 
ATOM     54  H   UNL     1       7.044  -7.698   2.832  1.00  0.00     0.167 HD
ATOM     55  C   UNL     1      10.967  -5.881   3.542  1.00  0.00     0.037 A 
ATOM     56  C   UNL     1       4.709  -9.077   3.510  1.00  0.00     0.037 A 
ATOM     57  C   UNL     1      11.325  -7.241   3.220  1.00  0.00     0.049 A 
ATOM     58  C   UNL     1       5.969  -9.510   4.158  1.00  0.00     0.074 A 
ATOM     59  C   UNL     1      11.971  -7.835   2.152  1.00  0.00     0.029 A 
ATOM     60  N   UNL     1      10.653  -8.254   3.861  1.00  0.00    -0.354 N 
ATOM     61  N   UNL     1       6.809 -10.337   3.591  1.00  0.00    -0.248 NA
ATOM     62  C   UNL     1       6.543  -8.620   5.154  1.00  0.00     0.031 C 
ATOM     63  C   UNL     1      11.289  -9.068   1.939  1.00  0.00     0.029 A 
ATOM     64  C   UNL     1      10.307  -9.197   2.924  1.00  0.00     0.049 A 
ATOM     65  H   UNL     1      10.454  -8.296   4.824  1.00  0.00     0.167 HD
ATOM     66  C   UNL     1       8.064  -9.796   3.836  1.00  0.00     0.074 A 
ATOM     67  C   UNL     1       7.836  -8.767   4.852  1.00  0.00     0.031 C 
ATOM     68  C   UNL     1       9.119 -10.025   2.998  1.00  0.00     0.037 A 
BRANCH  55  69
ATOM     69  C   UNL     1      11.111  -5.275   4.913  1.00  0.00     0.058 A 
ATOM     70  C   UNL     1      12.109  -5.761   5.774  1.00  0.00     0.135 A 
ATOM     71  C   UNL     1      10.154  -4.417   5.511  1.00  0.00     0.135 A 
ATOM     72  F   UNL     1      13.059  -6.592   5.317  1.00  0.00    -0.206 F 
ATOM     73  C   UNL     1      12.117  -5.471   7.138  1.00  0.00     0.059 A 
ATOM     74  C   UNL     1      10.180  -4.066   6.851  1.00  0.00     0.059 A 
ATOM     75  F   UNL     1       9.083  -3.951   4.859  1.00  0.00    -0.206 F 
ATOM     76  C   UNL     1      11.138  -4.633   7.667  1.00  0.00     0.060 A 
BRANCH  76  77
ATOM     77  S   UNL     1      11.072  -4.346   9.440  1.00  0.00     0.124 S 
ATOM     78  O   UNL     1      10.679  -5.662   9.930  1.00  0.00    -0.237 OA
ATOM     79  O   UNL     1      12.441  -3.934   9.728  1.00  0.00    -0.237 OA
ATOM     80  O   UNL     1      10.066  -3.296   9.573  1.00  0.00    -0.744 OA
ENDBRANCH  76  77
ENDBRANCH  55  69
BRANCH  56  81
ATOM     81  C   UNL     1       3.368  -9.083   4.159  1.00  0.00     0.058 A 
ATOM     82  C   UNL     1       3.022 -10.026   5.142  1.00  0.00     0.135 A 
ATOM     83  C   UNL     1       2.478  -7.997   4.006  1.00  0.00     0.135 A 
ATOM     84  F   UNL     1       3.814 -11.086   5.365  1.00  0.00    -0.206 F 
ATOM     85  C   UNL     1       1.892  -9.875   5.959  1.00  0.00     0.059 A 
ATOM     86  C   UNL     1       1.345  -7.829   4.801  1.00  0.00     0.059 A 
ATOM     87  F   UNL     1       2.729  -7.012   3.130  1.00  0.00    -0.206 F 
ATOM     88  C   UNL     1       1.072  -8.758   5.796  1.00  0.00     0.060 A 
BRANCH  88  89
ATOM     89  S   UNL     1      -0.279  -8.457   6.963  1.00  0.00     0.124 S 
ATOM     90  O   UNL     1      -1.210  -9.529   6.632  1.00  0.00    -0.237 OA
ATOM     91  O   UNL     1       0.396  -8.572   8.251  1.00  0.00    -0.237 OA
ATOM     92  O   UNL     1      -0.731  -7.111   6.618  1.00  0.00    -0.744 OA
ENDBRANCH  88  89
ENDBRANCH  56  81
BRANCH  68  93
ATOM     93  C   UNL     1       8.973 -11.087   1.930  1.00  0.00     0.058 A 
ATOM     94  C   UNL     1       8.115 -10.988   0.817  1.00  0.00     0.135 A 
ATOM     95  C   UNL     1       9.875 -12.162   1.941  1.00  0.00     0.135 A 
ATOM     96  F   UNL     1       7.285  -9.944   0.680  1.00  0.00    -0.206 F 
ATOM     97  C   UNL     1       8.142 -11.925  -0.222  1.00  0.00     0.059 A 
ATOM     98  C   UNL     1       9.937 -13.091   0.905  1.00  0.00     0.059 A 
ATOM     99  F   UNL     1      10.761 -12.282   2.944  1.00  0.00    -0.206 F 
ATOM    100  C   UNL     1       9.062 -12.972  -0.172  1.00  0.00     0.060 A 
BRANCH 100 101
ATOM    101  S   UNL     1       9.164 -14.132  -1.556  1.00  0.00     0.124 S 
ATOM    102  O   UNL     1       7.929 -14.895  -1.408  1.00  0.00    -0.237 OA
ATOM    103  O   UNL     1       9.225 -13.243  -2.712  1.00  0.00    -0.237 OA
ATOM    104  O   UNL     1      10.393 -14.876  -1.288  1.00  0.00    -0.744 OA
ENDBRANCH 100 101
ENDBRANCH  68  93
ENDBRANCH  42  43
ENDBRANCH  35  37
ENDBRANCH  34  35
ENDBRANCH  33  34
ENDBRANCH  32  33
ENDBRANCH  31  32
ENDBRANCH   1  31
TORSDOF 22
