REMARK SMILES O=C(C[C@H]1S/C(=[NH+]\N=C\c2cc(Br)ccc2OCc2ccccc2)NC1=O)OCCOCCOC(=O)c1ccc(-c2c3nc(c(-c4c(F)cc(S(=O)(=O)[O-])cc4F)c4ccc([nH]4)c(-c4c(F)cc(S(=O)(=O)[O-])cc4F)c4nc(c(-c5c(F)cc(S(=O)(=O)[O-])cc5F)c5ccc2[nH]5)C=C4)C=C3)cc1
REMARK SMILES IDX 29 1 28 2 2 3 1 4 3 5 4 6 5 7 26 8 6 9 25 10 27 11 7 12 8 15
REMARK SMILES IDX 9 16 10 17 11 18 16 19 12 20 15 21 13 22 14 23 17 24 18 25
REMARK SMILES IDX 19 26 20 27 24 28 21 29 23 30 22 31 30 32 31 33 32 34 33 35
REMARK SMILES IDX 34 36 35 37 36 38 37 39 38 40 102 41 39 42 101 43 40 44
REMARK SMILES IDX 41 45 42 46 95 47 43 48 100 49 94 50 96 51 44 52 99 53 93 54
REMARK SMILES IDX 92 55 45 57 79 58 58 59 78 60 59 61 62 62 77 63 97 64 60 65
REMARK SMILES IDX 61 66 76 68 98 69 63 70 46 71 47 72 56 73 48 74 49 75 55 76
REMARK SMILES IDX 57 77 50 78 51 79 52 80 53 81 54 82 80 83 81 84 90 85 82 86
REMARK SMILES IDX 83 87 89 88 91 89 84 90 85 91 86 92 87 93 88 94 64 95 65 96
REMARK SMILES IDX 74 97 66 98 67 99 73 100 75 101 68 102 69 103 70 104 71 105
REMARK SMILES IDX 72 106
REMARK H PARENT 25 13 7 14 96 56 62 67
REMARK Flexibility Score: inf
ROOT
ATOM      1  C   UNL     1       4.161   0.874  -0.810  1.00  0.00     0.261 C 
ENDROOT
BRANCH   1   2
ATOM      2  O   UNL     1       2.743   0.696  -0.822  1.00  0.00    -0.463 OA
BRANCH   2   3
ATOM      3  C   UNL     1       2.106  -0.489  -0.782  1.00  0.00     0.307 C 
ATOM      4  O   UNL     1       0.915  -0.550  -1.089  1.00  0.00    -0.252 OA
BRANCH   3   5
ATOM      5  C   UNL     1       2.778  -1.708  -0.201  1.00  0.00     0.150 C 
BRANCH   5   6
ATOM      6  C   UNL     1       4.026  -2.212  -0.903  1.00  0.00     0.184 C 
ATOM      7  S   UNL     1       4.327  -3.921  -0.333  1.00  0.00    -0.020 SA
ATOM      8  C   UNL     1       3.714  -2.378  -2.372  1.00  0.00     0.322 C 
ATOM      9  C   UNL     1       3.258  -4.487  -1.570  1.00  0.00     0.337 C 
ATOM     10  N   UNL     1       3.168  -3.602  -2.587  1.00  0.00    -0.202 N 
ATOM     11  O   UNL     1       3.829  -1.510  -3.222  1.00  0.00    -0.246 OA
ATOM     12  N   UNL     1       2.593  -5.576  -1.634  1.00  0.00    -0.142 N 
ATOM     13  H   UNL     1       2.729  -3.832  -3.438  1.00  0.00     0.316 HD
ATOM     14  H   UNL     1       1.989  -5.754  -2.390  1.00  0.00     0.343 HD
BRANCH  12  15
ATOM     15  N   UNL     1       2.742  -6.501  -0.612  1.00  0.00    -0.093 NA
ATOM     16  C   UNL     1       3.508  -7.455  -1.041  1.00  0.00     0.170 C 
BRANCH  16  17
ATOM     17  C   UNL     1       3.600  -8.762  -0.412  1.00  0.00     0.040 A 
ATOM     18  C   UNL     1       3.410  -8.809   0.982  1.00  0.00     0.029 A 
ATOM     19  C   UNL     1       3.889  -9.919  -1.148  1.00  0.00     0.128 A 
ATOM     20  C   UNL     1       3.574 -10.009   1.661  1.00  0.00     0.018 A 
ATOM     21  C   UNL     1       4.092 -11.104  -0.422  1.00  0.00     0.048 A 
ATOM     22  Br  UNL     1       3.313 -10.081   3.531  1.00  0.00    -0.051 Br
ATOM     23  C   UNL     1       3.939 -11.155   0.968  1.00  0.00     0.019 A 
BRANCH  19  24
ATOM     24  O   UNL     1       4.014 -10.131  -2.491  1.00  0.00    -0.488 OA
BRANCH  24  25
ATOM     25  C   UNL     1       3.541  -9.272  -3.536  1.00  0.00     0.265 C 
BRANCH  25  26
ATOM     26  C   UNL     1       2.049  -9.043  -3.603  1.00  0.00    -0.011 A 
ATOM     27  C   UNL     1       1.149 -10.092  -3.804  1.00  0.00     0.007 A 
ATOM     28  C   UNL     1       1.528  -7.748  -3.506  1.00  0.00     0.007 A 
ATOM     29  C   UNL     1      -0.230  -9.850  -3.817  1.00  0.00     0.000 A 
ATOM     30  C   UNL     1       0.157  -7.509  -3.436  1.00  0.00     0.000 A 
ATOM     31  C   UNL     1      -0.727  -8.567  -3.592  1.00  0.00     0.000 A 
ENDBRANCH  25  26
ENDBRANCH  24  25
ENDBRANCH  19  24
ENDBRANCH  16  17
ENDBRANCH  12  15
ENDBRANCH   5   6
ENDBRANCH   3   5
ENDBRANCH   2   3
ENDBRANCH   1   2
BRANCH   1  32
ATOM     32  C   UNL     1       4.843   0.826   0.560  1.00  0.00     0.202 C 
BRANCH  32  33
ATOM     33  O   UNL     1       4.244   0.098   1.622  1.00  0.00    -0.374 OA
BRANCH  33  34
ATOM     34  C   UNL     1       3.035   0.599   2.206  1.00  0.00     0.202 C 
BRANCH  34  35
ATOM     35  C   UNL     1       3.123   1.827   3.108  1.00  0.00     0.261 C 
BRANCH  35  36
ATOM     36  O   UNL     1       3.408   3.006   2.350  1.00  0.00    -0.460 OA
BRANCH  36  37
ATOM     37  C   UNL     1       4.672   3.473   2.465  1.00  0.00     0.338 C 
ATOM     38  O   UNL     1       5.563   3.033   3.178  1.00  0.00    -0.246 OA
BRANCH  37  39
ATOM     39  C   UNL     1       4.895   4.448   1.386  1.00  0.00     0.060 A 
ATOM     40  C   UNL     1       6.039   4.307   0.583  1.00  0.00     0.016 A 
ATOM     41  C   UNL     1       3.990   5.487   1.175  1.00  0.00     0.016 A 
ATOM     42  C   UNL     1       6.314   5.245  -0.404  1.00  0.00     0.010 A 
ATOM     43  C   UNL     1       4.275   6.436   0.201  1.00  0.00     0.010 A 
ATOM     44  C   UNL     1       5.459   6.341  -0.553  1.00  0.00    -0.014 A 
BRANCH  44  45
ATOM     45  C   UNL     1       5.897   7.530  -1.308  1.00  0.00     0.031 A 
ATOM     46  C   UNL     1       6.427   8.691  -0.520  1.00  0.00     0.074 A 
ATOM     47  C   UNL     1       5.757   7.592  -2.641  1.00  0.00     0.049 A 
ATOM     48  N   UNL     1       6.676   9.912  -0.905  1.00  0.00    -0.248 NA
ATOM     49  C   UNL     1       6.684   8.442   0.910  1.00  0.00     0.031 C 
ATOM     50  C   UNL     1       5.292   6.500  -3.493  1.00  0.00     0.029 A 
ATOM     51  N   UNL     1       5.957   8.638  -3.501  1.00  0.00    -0.354 N 
ATOM     52  C   UNL     1       7.084  10.587   0.240  1.00  0.00     0.074 A 
ATOM     53  C   UNL     1       7.027   9.646   1.336  1.00  0.00     0.031 C 
ATOM     54  C   UNL     1       5.202   6.948  -4.757  1.00  0.00     0.029 A 
ATOM     55  C   UNL     1       5.558   8.366  -4.786  1.00  0.00     0.049 A 
ATOM     56  H   UNL     1       6.348   9.499  -3.226  1.00  0.00     0.167 HD
ATOM     57  C   UNL     1       7.466  11.879   0.358  1.00  0.00     0.037 A 
ATOM     58  C   UNL     1       5.449   9.187  -5.848  1.00  0.00     0.037 A 
ATOM     59  C   UNL     1       7.503  12.794  -0.751  1.00  0.00     0.049 A 
ATOM     60  C   UNL     1       5.830  10.636  -5.691  1.00  0.00     0.074 A 
ATOM     61  C   UNL     1       7.897  14.118  -0.763  1.00  0.00     0.029 A 
ATOM     62  N   UNL     1       7.115  12.477  -2.047  1.00  0.00    -0.354 N 
ATOM     63  N   UNL     1       6.234  11.269  -4.614  1.00  0.00    -0.248 NA
ATOM     64  C   UNL     1       5.746  11.481  -6.888  1.00  0.00     0.031 C 
ATOM     65  C   UNL     1       7.690  14.619  -2.052  1.00  0.00     0.029 A 
ATOM     66  C   UNL     1       7.237  13.588  -2.862  1.00  0.00     0.049 A 
ATOM     67  H   UNL     1       6.799  11.592  -2.342  1.00  0.00     0.167 HD
ATOM     68  C   UNL     1       6.489  12.578  -5.011  1.00  0.00     0.074 A 
ATOM     69  C   UNL     1       6.186  12.645  -6.427  1.00  0.00     0.031 C 
ATOM     70  C   UNL     1       6.943  13.624  -4.276  1.00  0.00     0.037 A 
BRANCH  57  71
ATOM     71  C   UNL     1       7.816  12.375   1.735  1.00  0.00     0.058 A 
ATOM     72  C   UNL     1       8.945  11.912   2.432  1.00  0.00     0.135 A 
ATOM     73  C   UNL     1       6.996  13.318   2.377  1.00  0.00     0.135 A 
ATOM     74  F   UNL     1       9.755  10.996   1.877  1.00  0.00    -0.206 F 
ATOM     75  C   UNL     1       9.220  12.328   3.731  1.00  0.00     0.059 A 
ATOM     76  C   UNL     1       7.272  13.775   3.662  1.00  0.00     0.059 A 
ATOM     77  F   UNL     1       5.902  13.793   1.762  1.00  0.00    -0.206 F 
ATOM     78  C   UNL     1       8.374  13.256   4.340  1.00  0.00     0.060 A 
BRANCH  78  79
ATOM     79  S   UNL     1       8.727  13.763   6.035  1.00  0.00     0.124 S 
ATOM     80  O   UNL     1       8.363  12.562   6.780  1.00  0.00    -0.237 OA
ATOM     81  O   UNL     1      10.154  14.065   5.979  1.00  0.00    -0.237 OA
ATOM     82  O   UNL     1       7.853  14.915   6.236  1.00  0.00    -0.744 OA
ENDBRANCH  78  79
ENDBRANCH  57  71
BRANCH  58  83
ATOM     83  C   UNL     1       4.953   8.644  -7.139  1.00  0.00     0.058 A 
ATOM     84  C   UNL     1       5.821   8.461  -8.224  1.00  0.00     0.135 A 
ATOM     85  C   UNL     1       3.619   8.232  -7.291  1.00  0.00     0.135 A 
ATOM     86  F   UNL     1       7.103   8.847  -8.130  1.00  0.00    -0.206 F 
ATOM     87  C   UNL     1       5.389   7.881  -9.412  1.00  0.00     0.059 A 
ATOM     88  C   UNL     1       3.169   7.626  -8.460  1.00  0.00     0.059 A 
ATOM     89  F   UNL     1       2.752   8.374  -6.277  1.00  0.00    -0.206 F 
ATOM     90  C   UNL     1       4.063   7.455  -9.516  1.00  0.00     0.060 A 
BRANCH  90  91
ATOM     91  S   UNL     1       3.544   6.618 -11.030  1.00  0.00     0.124 S 
ATOM     92  O   UNL     1       3.560   7.713 -11.993  1.00  0.00    -0.237 OA
ATOM     93  O   UNL     1       4.586   5.610 -11.192  1.00  0.00    -0.237 OA
ATOM     94  O   UNL     1       2.224   6.096 -10.690  1.00  0.00    -0.744 OA
ENDBRANCH  90  91
ENDBRANCH  58  83
BRANCH  70  95
ATOM     95  C   UNL     1       7.207  14.921  -4.990  1.00  0.00     0.058 A 
ATOM     96  C   UNL     1       6.169  15.757  -5.429  1.00  0.00     0.135 A 
ATOM     97  C   UNL     1       8.527  15.377  -5.146  1.00  0.00     0.135 A 
ATOM     98  F   UNL     1       4.890  15.366  -5.311  1.00  0.00    -0.206 F 
ATOM     99  C   UNL     1       6.431  16.996  -6.004  1.00  0.00     0.059 A 
ATOM    100  C   UNL     1       8.811  16.624  -5.689  1.00  0.00     0.059 A 
ATOM    101  F   UNL     1       9.556  14.619  -4.733  1.00  0.00    -0.206 F 
ATOM    102  C   UNL     1       7.756  17.426  -6.120  1.00  0.00     0.060 A 
BRANCH 102 103
ATOM    103  S   UNL     1       8.078  19.064  -6.805  1.00  0.00     0.124 S 
ATOM    104  O   UNL     1       7.758  18.863  -8.214  1.00  0.00    -0.237 OA
ATOM    105  O   UNL     1       7.147  19.903  -6.056  1.00  0.00    -0.237 OA
ATOM    106  O   UNL     1       9.490  19.286  -6.508  1.00  0.00    -0.744 OA
ENDBRANCH 102 103
ENDBRANCH  70  95
ENDBRANCH  44  45
ENDBRANCH  37  39
ENDBRANCH  36  37
ENDBRANCH  35  36
ENDBRANCH  34  35
ENDBRANCH  33  34
ENDBRANCH  32  33
ENDBRANCH   1  32
TORSDOF 23
