REMARK SMILES Cc1cc(C)c2c(c1)C=C(C(=O)OCCOCCOC(=O)c1ccc(-c3c4nc(c(-c5c(F)cc(S(=O)(=O)[O-])cc5F)c5ccc([nH]5)c(-c5c(F)cc(S(=O)(=O)[O-])cc5F)c5nc(c(-c6c(F)cc(S(=O)(=O)[O-])cc6F)c6ccc3[nH]6)C=C5)C=C4)cc1)[C@@H](C(F)(F)F)O2
REMARK SMILES IDX 17 1 16 2 15 3 14 4 13 5 11 6 12 7 10 8 1 9 2 10 3 11 8 12
REMARK SMILES IDX 4 13 7 14 5 15 6 16 9 17 93 18 88 19 89 20 90 21 91 22 92 23
REMARK SMILES IDX 18 24 19 25 20 26 21 27 22 28 23 29 87 30 24 31 86 32 25 33
REMARK SMILES IDX 26 34 27 35 80 36 28 37 85 38 79 39 81 40 29 41 84 42 78 43
REMARK SMILES IDX 77 44 30 46 64 47 43 48 63 49 44 50 47 51 62 52 82 53 45 54
REMARK SMILES IDX 46 55 61 57 83 58 48 59 31 60 32 61 41 62 33 63 34 64 40 65
REMARK SMILES IDX 42 66 35 67 36 68 37 69 38 70 39 71 65 72 66 73 75 74 67 75
REMARK SMILES IDX 68 76 74 77 76 78 69 79 70 80 71 81 72 82 73 83 49 84 50 85
REMARK SMILES IDX 59 86 51 87 52 88 58 89 60 90 53 91 54 92 55 93 56 94 57 95
REMARK H PARENT 81 45 47 56
REMARK Flexibility Score: inf
ROOT
ATOM      1  C   UNL     1       0.167   8.096   0.220  1.00  0.00     0.202 C 
ENDROOT
BRANCH   1   2
ATOM      2  O   UNL     1       1.145   9.136   0.214  1.00  0.00    -0.374 OA
BRANCH   2   3
ATOM      3  C   UNL     1       1.337   9.849  -1.009  1.00  0.00     0.202 C 
BRANCH   3   4
ATOM      4  C   UNL     1       2.208   9.155  -2.060  1.00  0.00     0.261 C 
BRANCH   4   5
ATOM      5  O   UNL     1       1.612   7.918  -2.485  1.00  0.00    -0.460 OA
BRANCH   5   6
ATOM      6  C   UNL     1       2.324   6.811  -2.181  1.00  0.00     0.338 C 
ATOM      7  O   UNL     1       3.455   6.771  -1.716  1.00  0.00    -0.246 OA
BRANCH   6   8
ATOM      8  C   UNL     1       1.489   5.609  -2.363  1.00  0.00     0.087 C 
ATOM      9  C   UNL     1       0.906  -0.031  -0.013  1.00  0.00     0.044 C 
ATOM     10  C   UNL     1       0.611   1.095  -0.958  1.00  0.00    -0.050 A 
ATOM     11  C   UNL     1      -0.192   0.906  -2.089  1.00  0.00     0.010 A 
ATOM     12  C   UNL     1       1.167   2.355  -0.724  1.00  0.00     0.015 A 
ATOM     13  C   UNL     1      -0.447   1.964  -2.979  1.00  0.00    -0.008 A 
ATOM     14  C   UNL     1       0.940   3.409  -1.615  1.00  0.00     0.018 A 
ATOM     15  C   UNL     1      -1.286   1.726  -4.204  1.00  0.00     0.048 C 
ATOM     16  C   UNL     1       0.118   3.223  -2.728  1.00  0.00     0.130 A 
ATOM     17  C   UNL     1       1.624   4.672  -1.417  1.00  0.00     0.027 C 
ATOM     18  O   UNL     1      -0.181   4.231  -3.604  1.00  0.00    -0.475 OA
ATOM     19  C   UNL     1       0.589   5.467  -3.559  1.00  0.00     0.316 C 
BRANCH  19  20
ATOM     20  C   UNL     1       1.345   5.614  -4.887  1.00  0.00     0.430 C 
ATOM     21  F   UNL     1       0.516   5.436  -5.944  1.00  0.00    -0.167 F 
ATOM     22  F   UNL     1       1.889   6.845  -5.020  1.00  0.00    -0.167 F 
ATOM     23  F   UNL     1       2.346   4.713  -5.000  1.00  0.00    -0.167 F 
ENDBRANCH  19  20
ENDBRANCH   6   8
ENDBRANCH   5   6
ENDBRANCH   4   5
ENDBRANCH   3   4
ENDBRANCH   2   3
ENDBRANCH   1   2
BRANCH   1  24
ATOM     24  C   UNL     1      -1.303   8.526   0.307  1.00  0.00     0.261 C 
BRANCH  24  25
ATOM     25  O   UNL     1      -1.734   9.251  -0.857  1.00  0.00    -0.460 OA
BRANCH  25  26
ATOM     26  C   UNL     1      -1.941  10.574  -0.652  1.00  0.00     0.338 C 
ATOM     27  O   UNL     1      -1.855  11.176   0.412  1.00  0.00    -0.246 OA
BRANCH  26  28
ATOM     28  C   UNL     1      -2.128  11.268  -1.938  1.00  0.00     0.060 A 
ATOM     29  C   UNL     1      -1.341  12.402  -2.182  1.00  0.00     0.016 A 
ATOM     30  C   UNL     1      -3.107  10.872  -2.852  1.00  0.00     0.016 A 
ATOM     31  C   UNL     1      -1.567  13.178  -3.317  1.00  0.00     0.010 A 
ATOM     32  C   UNL     1      -3.341  11.660  -3.984  1.00  0.00     0.010 A 
ATOM     33  C   UNL     1      -2.597  12.834  -4.202  1.00  0.00    -0.014 A 
BRANCH  33  34
ATOM     34  C   UNL     1      -2.997  13.777  -5.272  1.00  0.00     0.031 A 
ATOM     35  C   UNL     1      -4.162  14.697  -5.030  1.00  0.00     0.074 A 
ATOM     36  C   UNL     1      -2.321  13.824  -6.433  1.00  0.00     0.049 A 
ATOM     37  N   UNL     1      -4.743  15.532  -5.852  1.00  0.00    -0.248 NA
ATOM     38  C   UNL     1      -4.748  14.675  -3.679  1.00  0.00     0.031 C 
ATOM     39  C   UNL     1      -1.139  13.026  -6.756  1.00  0.00     0.029 A 
ATOM     40  N   UNL     1      -2.540  14.573  -7.561  1.00  0.00    -0.354 N 
ATOM     41  C   UNL     1      -5.764  16.131  -5.123  1.00  0.00     0.074 A 
ATOM     42  C   UNL     1      -5.737  15.550  -3.798  1.00  0.00     0.031 C 
ATOM     43  C   UNL     1      -0.747  13.316  -8.008  1.00  0.00     0.029 A 
ATOM     44  C   UNL     1      -1.669  14.291  -8.586  1.00  0.00     0.049 A 
ATOM     45  H   UNL     1      -3.253  15.248  -7.630  1.00  0.00     0.167 HD
ATOM     46  C   UNL     1      -6.640  17.081  -5.524  1.00  0.00     0.037 A 
ATOM     47  C   UNL     1      -1.639  14.749  -9.853  1.00  0.00     0.037 A 
ATOM     48  C   UNL     1      -6.664  17.649  -6.847  1.00  0.00     0.049 A 
ATOM     49  C   UNL     1      -2.671  15.751 -10.299  1.00  0.00     0.074 A 
ATOM     50  C   UNL     1      -7.527  18.602  -7.360  1.00  0.00     0.029 A 
ATOM     51  N   UNL     1      -5.783  17.319  -7.866  1.00  0.00    -0.354 N 
ATOM     52  N   UNL     1      -3.653  16.285  -9.611  1.00  0.00    -0.248 NA
ATOM     53  C   UNL     1      -2.592  16.214 -11.691  1.00  0.00     0.031 C 
ATOM     54  C   UNL     1      -7.190  18.822  -8.700  1.00  0.00     0.029 A 
ATOM     55  C   UNL     1      -6.087  18.042  -9.007  1.00  0.00     0.049 A 
ATOM     56  H   UNL     1      -5.050  16.666  -7.789  1.00  0.00     0.167 HD
ATOM     57  C   UNL     1      -4.289  17.169 -10.478  1.00  0.00     0.074 A 
ATOM     58  C   UNL     1      -3.577  17.100 -11.738  1.00  0.00     0.031 C 
ATOM     59  C   UNL     1      -5.362  17.967 -10.251  1.00  0.00     0.037 A 
BRANCH  46  60
ATOM     60  C   UNL     1      -7.661  17.557  -4.529  1.00  0.00     0.058 A 
ATOM     61  C   UNL     1      -7.314  18.410  -3.470  1.00  0.00     0.135 A 
ATOM     62  C   UNL     1      -9.013  17.206  -4.672  1.00  0.00     0.135 A 
ATOM     63  F   UNL     1      -6.032  18.758  -3.275  1.00  0.00    -0.206 F 
ATOM     64  C   UNL     1      -8.271  18.893  -2.583  1.00  0.00     0.059 A 
ATOM     65  C   UNL     1      -9.990  17.695  -3.811  1.00  0.00     0.059 A 
ATOM     66  F   UNL     1      -9.397  16.386  -5.664  1.00  0.00    -0.206 F 
ATOM     67  C   UNL     1      -9.608  18.534  -2.765  1.00  0.00     0.060 A 
BRANCH  67  68
ATOM     68  S   UNL     1     -10.842  19.198  -1.626  1.00  0.00     0.124 S 
ATOM     69  O   UNL     1     -10.532  18.467  -0.401  1.00  0.00    -0.237 OA
ATOM     70  O   UNL     1     -10.519  20.621  -1.613  1.00  0.00    -0.237 OA
ATOM     71  O   UNL     1     -12.111  18.851  -2.258  1.00  0.00    -0.744 OA
ENDBRANCH  67  68
ENDBRANCH  46  60
BRANCH  47  72
ATOM     72  C   UNL     1      -0.601  14.254 -10.796  1.00  0.00     0.058 A 
ATOM     73  C   UNL     1       0.438  15.089 -11.231  1.00  0.00     0.135 A 
ATOM     74  C   UNL     1      -0.624  12.934 -11.273  1.00  0.00     0.135 A 
ATOM     75  F   UNL     1       0.494  16.363 -10.813  1.00  0.00    -0.206 F 
ATOM     76  C   UNL     1       1.415  14.637 -12.112  1.00  0.00     0.059 A 
ATOM     77  C   UNL     1       0.355  12.451 -12.135  1.00  0.00     0.059 A 
ATOM     78  F   UNL     1      -1.593  12.093 -10.879  1.00  0.00    -0.206 F 
ATOM     79  C   UNL     1       1.367  13.313 -12.555  1.00  0.00     0.060 A 
BRANCH  79  80
ATOM     80  S   UNL     1       2.673  12.721 -13.653  1.00  0.00     0.124 S 
ATOM     81  O   UNL     1       2.335  13.394 -14.902  1.00  0.00    -0.237 OA
ATOM     82  O   UNL     1       3.877  13.194 -12.977  1.00  0.00    -0.237 OA
ATOM     83  O   UNL     1       2.486  11.273 -13.646  1.00  0.00    -0.744 OA
ENDBRANCH  79  80
ENDBRANCH  47  72
BRANCH  59  84
ATOM     84  C   UNL     1      -5.804  18.866 -11.372  1.00  0.00     0.058 A 
ATOM     85  C   UNL     1      -6.473  18.368 -12.500  1.00  0.00     0.135 A 
ATOM     86  C   UNL     1      -5.588  20.252 -11.295  1.00  0.00     0.135 A 
ATOM     87  F   UNL     1      -6.702  17.051 -12.623  1.00  0.00    -0.206 F 
ATOM     88  C   UNL     1      -6.885  19.209 -13.529  1.00  0.00     0.059 A 
ATOM     89  C   UNL     1      -6.014  21.114 -12.299  1.00  0.00     0.059 A 
ATOM     90  F   UNL     1      -4.965  20.780 -10.230  1.00  0.00    -0.206 F 
ATOM     91  C   UNL     1      -6.648  20.581 -13.421  1.00  0.00     0.060 A 
BRANCH  91  92
ATOM     92  S   UNL     1      -7.196  21.663 -14.758  1.00  0.00     0.124 S 
ATOM     93  O   UNL     1      -6.210  21.370 -15.794  1.00  0.00    -0.237 OA
ATOM     94  O   UNL     1      -8.549  21.181 -15.017  1.00  0.00    -0.237 OA
ATOM     95  O   UNL     1      -7.113  22.997 -14.171  1.00  0.00    -0.744 OA
ENDBRANCH  91  92
ENDBRANCH  59  84
ENDBRANCH  33  34
ENDBRANCH  26  28
ENDBRANCH  25  26
ENDBRANCH  24  25
ENDBRANCH   1  24
TORSDOF 18
