REMARK SMILES Cc1cc(C(=O)N[C@H]2C=C[C@@H](C(=O)OCCOCCOC(=O)c3ccc(-c4c5nc(c(-c6c(F)cc(S(=O)(=O)[O-])cc6F)c6ccc([nH]6)c(-c6c(F)cc(S(=O)(=O)[O-])cc6F)c6nc(c(-c7c(F)cc(S(=O)(=O)[O-])cc7F)c7ccc4[nH]7)C=C6)C=C5)cc3)C2)no1
REMARK SMILES IDX 18 1 17 2 16 3 15 4 14 5 12 6 13 7 11 8 8 9 9 10 89 11 10 12
REMARK SMILES IDX 7 13 5 14 6 15 4 17 1 18 2 19 3 20 91 21 90 22 19 23 20 24
REMARK SMILES IDX 21 25 22 26 23 27 24 28 88 29 25 30 87 31 26 32 27 33 28 34
REMARK SMILES IDX 81 35 29 36 86 37 80 38 82 39 30 40 85 41 79 42 78 43 31 45
REMARK SMILES IDX 65 46 44 47 64 48 45 49 48 50 63 51 83 52 46 53 47 54 62 56
REMARK SMILES IDX 84 57 49 58 32 59 33 60 42 61 34 62 35 63 41 64 43 65 36 66
REMARK SMILES IDX 37 67 38 68 39 69 40 70 66 71 67 72 76 73 68 74 69 75 75 76
REMARK SMILES IDX 77 77 70 78 71 79 72 80 73 81 74 82 50 83 51 84 60 85 52 86
REMARK SMILES IDX 53 87 59 88 61 89 54 90 55 91 56 92 57 93 58 94
REMARK H PARENT 7 16 82 44 48 55
REMARK Flexibility Score: inf
ROOT
ATOM      1  C   UNL     1      -0.813  -8.538   2.018  1.00  0.00     0.202 C 
ENDROOT
BRANCH   1   2
ATOM      2  O   UNL     1      -0.606  -8.936   3.373  1.00  0.00    -0.374 OA
BRANCH   2   3
ATOM      3  C   UNL     1      -1.312  -8.233   4.395  1.00  0.00     0.202 C 
BRANCH   3   4
ATOM      4  C   UNL     1      -0.762  -6.862   4.790  1.00  0.00     0.261 C 
BRANCH   4   5
ATOM      5  O   UNL     1      -0.770  -5.962   3.675  1.00  0.00    -0.463 OA
BRANCH   5   6
ATOM      6  C   UNL     1       0.450  -5.661   3.164  1.00  0.00     0.312 C 
ATOM      7  O   UNL     1       1.525  -6.022   3.632  1.00  0.00    -0.252 OA
BRANCH   6   8
ATOM      8  C   UNL     1       0.368  -4.782   1.934  1.00  0.00     0.124 C 
ATOM      9  C   UNL     1      -0.928  -3.299   0.555  1.00  0.00     0.106 C 
ATOM     10  C   UNL     1      -0.230  -2.547   1.643  1.00  0.00    -0.006 C 
ATOM     11  C   UNL     1      -0.957  -4.712   1.150  1.00  0.00     0.048 C 
ATOM     12  C   UNL     1       0.549  -3.360   2.362  1.00  0.00    -0.014 C 
BRANCH   9  13
ATOM     13  N   UNL     1      -2.207  -2.731   0.217  1.00  0.00    -0.344 N 
ATOM     14  C   UNL     1      -2.460  -1.498  -0.367  1.00  0.00     0.273 C 
ATOM     15  O   UNL     1      -3.611  -1.234  -0.710  1.00  0.00    -0.267 OA
ATOM     16  H   UNL     1      -2.995  -3.283   0.426  1.00  0.00     0.164 HD
BRANCH  14  17
ATOM     17  C   UNL     1      -1.351  -0.545  -0.488  1.00  0.00     0.171 A 
ATOM     18  C   UNL     1       2.134   0.562  -0.387  1.00  0.00     0.091 C 
ATOM     19  C   UNL     1       0.690   0.292  -0.500  1.00  0.00     0.134 A 
ATOM     20  C   UNL     1      -0.045  -0.744  -1.019  1.00  0.00     0.082 A 
ATOM     21  O   UNL     1      -0.149   1.176   0.097  1.00  0.00    -0.361 OA
ATOM     22  N   UNL     1      -1.435   0.670   0.081  1.00  0.00    -0.074 NA
ENDBRANCH  14  17
ENDBRANCH   9  13
ENDBRANCH   6   8
ENDBRANCH   5   6
ENDBRANCH   4   5
ENDBRANCH   3   4
ENDBRANCH   2   3
ENDBRANCH   1   2
BRANCH   1  23
ATOM     23  C   UNL     1      -2.155  -8.898   1.371  1.00  0.00     0.261 C 
BRANCH  23  24
ATOM     24  O   UNL     1      -3.259  -8.180   1.954  1.00  0.00    -0.460 OA
BRANCH  24  25
ATOM     25  C   UNL     1      -4.137  -8.958   2.631  1.00  0.00     0.338 C 
ATOM     26  O   UNL     1      -4.107 -10.179   2.735  1.00  0.00    -0.246 OA
BRANCH  25  27
ATOM     27  C   UNL     1      -5.070  -8.129   3.413  1.00  0.00     0.060 A 
ATOM     28  C   UNL     1      -5.153  -8.379   4.789  1.00  0.00     0.016 A 
ATOM     29  C   UNL     1      -5.918  -7.200   2.807  1.00  0.00     0.016 A 
ATOM     30  C   UNL     1      -6.123  -7.740   5.557  1.00  0.00     0.010 A 
ATOM     31  C   UNL     1      -6.898  -6.566   3.580  1.00  0.00     0.010 A 
ATOM     32  C   UNL     1      -7.030  -6.863   4.949  1.00  0.00    -0.014 A 
BRANCH  32  33
ATOM     33  C   UNL     1      -8.197  -6.376   5.726  1.00  0.00     0.031 A 
ATOM     34  C   UNL     1      -9.533  -7.045   5.537  1.00  0.00     0.074 A 
ATOM     35  C   UNL     1      -8.058  -5.377   6.617  1.00  0.00     0.049 A 
ATOM     36  N   UNL     1     -10.680  -6.778   6.105  1.00  0.00    -0.248 NA
ATOM     37  C   UNL     1      -9.583  -8.162   4.579  1.00  0.00     0.031 C 
ATOM     38  C   UNL     1      -6.811  -4.669   6.902  1.00  0.00     0.029 A 
ATOM     39  N   UNL     1      -8.980  -4.780   7.438  1.00  0.00    -0.354 N 
ATOM     40  C   UNL     1     -11.590  -7.680   5.565  1.00  0.00     0.074 A 
ATOM     41  C   UNL     1     -10.867  -8.491   4.611  1.00  0.00     0.031 C 
ATOM     42  C   UNL     1      -7.051  -3.717   7.821  1.00  0.00     0.029 A 
ATOM     43  C   UNL     1      -8.470  -3.734   8.170  1.00  0.00     0.049 A 
ATOM     44  H   UNL     1      -9.918  -5.072   7.498  1.00  0.00     0.167 HD
ATOM     45  C   UNL     1     -12.907  -7.821   5.846  1.00  0.00     0.037 A 
ATOM     46  C   UNL     1      -9.084  -2.873   9.006  1.00  0.00     0.037 A 
ATOM     47  C   UNL     1     -13.617  -7.024   6.812  1.00  0.00     0.049 A 
ATOM     48  C   UNL     1     -10.557  -3.034   9.280  1.00  0.00     0.074 A 
ATOM     49  C   UNL     1     -14.941  -7.127   7.204  1.00  0.00     0.029 A 
ATOM     50  N   UNL     1     -13.068  -5.971   7.529  1.00  0.00    -0.354 N 
ATOM     51  N   UNL     1     -11.393  -3.926   8.801  1.00  0.00    -0.248 NA
ATOM     52  C   UNL     1     -11.170  -2.078  10.213  1.00  0.00     0.031 C 
ATOM     53  C   UNL     1     -15.205  -6.105   8.122  1.00  0.00     0.029 A 
ATOM     54  C   UNL     1     -14.034  -5.398   8.340  1.00  0.00     0.049 A 
ATOM     55  H   UNL     1     -12.131  -5.676   7.471  1.00  0.00     0.167 HD
ATOM     56  C   UNL     1     -12.623  -3.651   9.392  1.00  0.00     0.074 A 
ATOM     57  C   UNL     1     -12.418  -2.522  10.275  1.00  0.00     0.031 C 
ATOM     58  C   UNL     1     -13.813  -4.278   9.220  1.00  0.00     0.037 A 
BRANCH  45  59
ATOM     59  C   UNL     1     -13.681  -8.862   5.087  1.00  0.00     0.058 A 
ATOM     60  C   UNL     1     -13.534 -10.233   5.349  1.00  0.00     0.135 A 
ATOM     61  C   UNL     1     -14.632  -8.476   4.129  1.00  0.00     0.135 A 
ATOM     62  F   UNL     1     -12.627 -10.658   6.242  1.00  0.00    -0.206 F 
ATOM     63  C   UNL     1     -14.296 -11.186   4.679  1.00  0.00     0.059 A 
ATOM     64  C   UNL     1     -15.421  -9.410   3.464  1.00  0.00     0.059 A 
ATOM     65  F   UNL     1     -14.808  -7.178   3.837  1.00  0.00    -0.206 F 
ATOM     66  C   UNL     1     -15.240 -10.764   3.740  1.00  0.00     0.060 A 
BRANCH  66  67
ATOM     67  S   UNL     1     -16.243 -12.010   2.903  1.00  0.00     0.124 S 
ATOM     68  O   UNL     1     -15.267 -12.606   1.995  1.00  0.00    -0.237 OA
ATOM     69  O   UNL     1     -16.677 -12.856   4.009  1.00  0.00    -0.237 OA
ATOM     70  O   UNL     1     -17.296 -11.227   2.265  1.00  0.00    -0.744 OA
ENDBRANCH  66  67
ENDBRANCH  45  59
BRANCH  46  71
ATOM     71  C   UNL     1      -8.314  -1.763   9.628  1.00  0.00     0.058 A 
ATOM     72  C   UNL     1      -8.050  -1.737  11.005  1.00  0.00     0.135 A 
ATOM     73  C   UNL     1      -7.839  -0.694   8.851  1.00  0.00     0.135 A 
ATOM     74  F   UNL     1      -8.491  -2.731  11.791  1.00  0.00    -0.206 F 
ATOM     75  C   UNL     1      -7.362  -0.682  11.595  1.00  0.00     0.059 A 
ATOM     76  C   UNL     1      -7.126   0.360   9.414  1.00  0.00     0.059 A 
ATOM     77  F   UNL     1      -8.055  -0.676   7.527  1.00  0.00    -0.206 F 
ATOM     78  C   UNL     1      -6.904   0.363  10.790  1.00  0.00     0.060 A 
BRANCH  78  79
ATOM     79  S   UNL     1      -5.982   1.712  11.559  1.00  0.00     0.124 S 
ATOM     80  O   UNL     1      -7.046   2.451  12.228  1.00  0.00    -0.237 OA
ATOM     81  O   UNL     1      -5.057   0.994  12.431  1.00  0.00    -0.237 OA
ATOM     82  O   UNL     1      -5.362   2.385  10.421  1.00  0.00    -0.744 OA
ENDBRANCH  78  79
ENDBRANCH  46  71
BRANCH  58  83
ATOM     83  C   UNL     1     -14.983  -3.780  10.025  1.00  0.00     0.058 A 
ATOM     84  C   UNL     1     -15.616  -2.562   9.732  1.00  0.00     0.135 A 
ATOM     85  C   UNL     1     -15.505  -4.555  11.073  1.00  0.00     0.135 A 
ATOM     86  F   UNL     1     -15.154  -1.781   8.743  1.00  0.00    -0.206 F 
ATOM     87  C   UNL     1     -16.711  -2.117  10.467  1.00  0.00     0.059 A 
ATOM     88  C   UNL     1     -16.616  -4.143  11.803  1.00  0.00     0.059 A 
ATOM     89  F   UNL     1     -14.945  -5.734  11.387  1.00  0.00    -0.206 F 
ATOM     90  C   UNL     1     -17.203  -2.915  11.502  1.00  0.00     0.060 A 
BRANCH  90  91
ATOM     91  S   UNL     1     -18.639  -2.340  12.433  1.00  0.00     0.124 S 
ATOM     92  O   UNL     1     -18.047  -1.303  13.273  1.00  0.00    -0.237 OA
ATOM     93  O   UNL     1     -19.530  -1.869  11.378  1.00  0.00    -0.237 OA
ATOM     94  O   UNL     1     -19.089  -3.537  13.137  1.00  0.00    -0.744 OA
ENDBRANCH  90  91
ENDBRANCH  58  83
ENDBRANCH  32  33
ENDBRANCH  25  27
ENDBRANCH  24  25
ENDBRANCH  23  24
ENDBRANCH   1  23
TORSDOF 19
