REMARK SMILES Cc1ccc(C(=O)OCCOCCOC(=O)c2ccc(-c3c4nc(c(-c5c(F)cc(S(=O)(=O)[O-])cc5F)c5ccc([nH]5)c(-c5c(F)cc(S(=O)(=O)[O-])cc5F)c5nc(c(-c6c(F)cc(S(=O)(=O)[O-])cc6F)c6ccc3[nH]6)C=C5)C=C4)cc2)cc1N1C(=O)/C(=C/c2ccc([N+](=O)[O-])cc2)SC1=S
REMARK SMILES IDX 11 1 10 2 9 3 8 4 6 5 7 6 5 7 1 8 2 9 3 10 84 11 4 12 83 13
REMARK SMILES IDX 85 14 86 15 100 16 87 17 88 18 99 19 101 20 89 21 90 22
REMARK SMILES IDX 91 23 98 24 92 25 97 26 93 27 94 28 95 29 96 30 12 31 13 32
REMARK SMILES IDX 14 33 15 34 16 35 17 36 18 37 82 38 19 39 81 40 20 41 21 42
REMARK SMILES IDX 22 43 75 44 23 45 80 46 74 47 76 48 24 49 79 50 73 51 72 52
REMARK SMILES IDX 25 54 59 55 38 56 58 57 39 58 42 59 57 60 77 61 40 62 41 63
REMARK SMILES IDX 56 65 78 66 43 67 26 68 27 69 36 70 28 71 29 72 35 73 37 74
REMARK SMILES IDX 30 75 31 76 32 77 33 78 34 79 60 80 61 81 70 82 62 83 63 84
REMARK SMILES IDX 69 85 71 86 64 87 65 88 66 89 67 90 68 91 44 92 45 93 54 94
REMARK SMILES IDX 46 95 47 96 53 97 55 98 48 99 49 100 50 101 51 102 52 103
REMARK H PARENT 76 53 42 64
REMARK Flexibility Score: inf
ROOT
ATOM      1  O   UNL     1      -3.799  -0.308  -2.299  1.00  0.00    -0.374 OA
ENDROOT
BRANCH   1   2
ATOM      2  C   UNL     1      -3.764   1.096  -2.513  1.00  0.00     0.202 C 
BRANCH   2   3
ATOM      3  C   UNL     1      -3.858   1.703  -1.154  1.00  0.00     0.261 C 
BRANCH   3   4
ATOM      4  O   UNL     1      -2.726   1.352  -0.327  1.00  0.00    -0.460 OA
BRANCH   4   5
ATOM      5  C   UNL     1      -2.545   0.107   0.204  1.00  0.00     0.338 C 
ATOM      6  O   UNL     1      -3.329  -0.791   0.371  1.00  0.00    -0.246 OA
BRANCH   5   7
ATOM      7  C   UNL     1      -1.088  -0.044   0.395  1.00  0.00     0.062 A 
ATOM      8  C   UNL     1       3.125  -0.499  -0.285  1.00  0.00     0.046 C 
ATOM      9  C   UNL     1       1.663  -0.304  -0.012  1.00  0.00    -0.027 A 
ATOM     10  C   UNL     1       0.862  -1.442   0.192  1.00  0.00     0.006 A 
ATOM     11  C   UNL     1       1.060   0.962   0.050  1.00  0.00     0.054 A 
ATOM     12  C   UNL     1      -0.518  -1.317   0.358  1.00  0.00     0.016 A 
ATOM     13  C   UNL     1      -0.285   1.088   0.359  1.00  0.00     0.042 A 
BRANCH  11  14
ATOM     14  N   UNL     1       1.719   2.144  -0.340  1.00  0.00    -0.261 N 
ATOM     15  C   UNL     1       2.516   2.800   0.573  1.00  0.00     0.270 C 
ATOM     16  C   UNL     1       1.444   2.822  -1.524  1.00  0.00     0.152 C 
ATOM     17  O   UNL     1       2.935   2.396   1.649  1.00  0.00    -0.268 OA
ATOM     18  C   UNL     1       2.805   4.154   0.047  1.00  0.00     0.081 C 
ATOM     19  S   UNL     1       2.527   4.212  -1.641  1.00  0.00    -0.054 SA
ATOM     20  S   UNL     1       0.325   2.496  -2.719  1.00  0.00    -0.051 S 
ATOM     21  C   UNL     1       3.099   5.168   0.862  1.00  0.00     0.029 C 
BRANCH  21  22
ATOM     22  C   UNL     1       3.606   6.458   0.413  1.00  0.00    -0.024 A 
ATOM     23  C   UNL     1       2.813   7.601   0.276  1.00  0.00     0.015 A 
ATOM     24  C   UNL     1       4.986   6.521   0.187  1.00  0.00     0.015 A 
ATOM     25  C   UNL     1       3.422   8.829  -0.007  1.00  0.00     0.086 A 
ATOM     26  C   UNL     1       5.598   7.735  -0.091  1.00  0.00     0.086 A 
ATOM     27  C   UNL     1       4.817   8.893  -0.155  1.00  0.00     0.269 A 
BRANCH  27  28
ATOM     28  N   UNL     1       5.484  10.187  -0.329  1.00  0.00     0.062 N 
ATOM     29  O   UNL     1       4.778  11.204  -0.358  1.00  0.00    -0.258 OA
ATOM     30  O   UNL     1       6.722  10.190  -0.415  1.00  0.00    -0.258 OA
ENDBRANCH  27  28
ENDBRANCH  21  22
ENDBRANCH  11  14
ENDBRANCH   5   7
ENDBRANCH   4   5
ENDBRANCH   3   4
ENDBRANCH   2   3
ENDBRANCH   1   2
BRANCH   1  31
ATOM     31  C   UNL     1      -3.576  -1.102  -3.437  1.00  0.00     0.202 C 
BRANCH  31  32
ATOM     32  C   UNL     1      -4.565  -0.808  -4.568  1.00  0.00     0.261 C 
BRANCH  32  33
ATOM     33  O   UNL     1      -5.891  -1.288  -4.243  1.00  0.00    -0.460 OA
BRANCH  33  34
ATOM     34  C   UNL     1      -6.815  -0.347  -3.880  1.00  0.00     0.338 C 
ATOM     35  O   UNL     1      -7.444   0.325  -4.679  1.00  0.00    -0.246 OA
BRANCH  34  36
ATOM     36  C   UNL     1      -6.996  -0.324  -2.399  1.00  0.00     0.060 A 
ATOM     37  C   UNL     1      -7.576   0.772  -1.731  1.00  0.00     0.016 A 
ATOM     38  C   UNL     1      -6.418  -1.346  -1.659  1.00  0.00     0.016 A 
ATOM     39  C   UNL     1      -7.431   0.918  -0.337  1.00  0.00     0.010 A 
ATOM     40  C   UNL     1      -6.191  -1.148  -0.317  1.00  0.00     0.010 A 
ATOM     41  C   UNL     1      -6.664  -0.009   0.359  1.00  0.00    -0.014 A 
BRANCH  41  42
ATOM     42  C   UNL     1      -6.226   0.057   1.760  1.00  0.00     0.031 A 
ATOM     43  C   UNL     1      -6.633  -1.073   2.634  1.00  0.00     0.074 A 
ATOM     44  C   UNL     1      -5.182   0.850   2.120  1.00  0.00     0.049 A 
ATOM     45  N   UNL     1      -6.324  -1.182   3.876  1.00  0.00    -0.248 NA
ATOM     46  C   UNL     1      -7.461  -2.192   2.177  1.00  0.00     0.031 C 
ATOM     47  C   UNL     1      -4.162   0.601   3.143  1.00  0.00     0.029 A 
ATOM     48  N   UNL     1      -4.758   2.071   1.586  1.00  0.00    -0.354 N 
ATOM     49  C   UNL     1      -6.519  -2.498   4.238  1.00  0.00     0.074 A 
ATOM     50  C   UNL     1      -7.377  -3.029   3.215  1.00  0.00     0.031 C 
ATOM     51  C   UNL     1      -3.446   1.721   3.361  1.00  0.00     0.029 A 
ATOM     52  C   UNL     1      -4.063   2.778   2.575  1.00  0.00     0.049 A 
ATOM     53  H   UNL     1      -4.922   2.382   0.666  1.00  0.00     0.167 HD
ATOM     54  C   UNL     1      -5.776  -2.986   5.274  1.00  0.00     0.037 A 
ATOM     55  C   UNL     1      -4.530   3.983   2.997  1.00  0.00     0.037 A 
ATOM     56  C   UNL     1      -5.044  -1.878   5.919  1.00  0.00     0.049 A 
ATOM     57  C   UNL     1      -4.958   3.805   4.424  1.00  0.00     0.074 A 
ATOM     58  C   UNL     1      -3.709  -1.512   5.958  1.00  0.00     0.029 A 
ATOM     59  N   UNL     1      -5.761  -0.769   6.378  1.00  0.00    -0.354 N 
ATOM     60  N   UNL     1      -5.311   2.640   4.900  1.00  0.00    -0.248 NA
ATOM     61  C   UNL     1      -4.855   4.827   5.458  1.00  0.00     0.031 C 
ATOM     62  C   UNL     1      -3.645  -0.139   6.342  1.00  0.00     0.029 A 
ATOM     63  C   UNL     1      -4.936   0.327   6.552  1.00  0.00     0.049 A 
ATOM     64  H   UNL     1      -6.730  -0.769   6.554  1.00  0.00     0.167 HD
ATOM     65  C   UNL     1      -5.335   2.697   6.255  1.00  0.00     0.074 A 
ATOM     66  C   UNL     1      -5.117   4.102   6.562  1.00  0.00     0.031 C 
ATOM     67  C   UNL     1      -5.476   1.593   7.041  1.00  0.00     0.037 A 
BRANCH  54  68
ATOM     68  C   UNL     1      -5.509  -4.459   5.588  1.00  0.00     0.058 A 
ATOM     69  C   UNL     1      -4.587  -4.807   6.604  1.00  0.00     0.135 A 
ATOM     70  C   UNL     1      -6.048  -5.576   4.909  1.00  0.00     0.135 A 
ATOM     71  F   UNL     1      -3.994  -3.872   7.360  1.00  0.00    -0.206 F 
ATOM     72  C   UNL     1      -4.215  -6.126   6.895  1.00  0.00     0.059 A 
ATOM     73  C   UNL     1      -5.708  -6.904   5.196  1.00  0.00     0.059 A 
ATOM     74  F   UNL     1      -6.930  -5.462   3.916  1.00  0.00    -0.206 F 
ATOM     75  C   UNL     1      -4.782  -7.173   6.186  1.00  0.00     0.060 A 
BRANCH  75  76
ATOM     76  S   UNL     1      -4.314  -8.867   6.582  1.00  0.00     0.124 S 
ATOM     77  O   UNL     1      -2.892  -8.875   6.256  1.00  0.00    -0.237 OA
ATOM     78  O   UNL     1      -4.643  -8.952   8.001  1.00  0.00    -0.237 OA
ATOM     79  O   UNL     1      -5.157  -9.671   5.700  1.00  0.00    -0.744 OA
ENDBRANCH  75  76
ENDBRANCH  54  68
BRANCH  55  80
ATOM     80  C   UNL     1      -5.157   4.749   1.868  1.00  0.00     0.058 A 
ATOM     81  C   UNL     1      -4.271   5.265   0.891  1.00  0.00     0.135 A 
ATOM     82  C   UNL     1      -6.476   4.504   1.450  1.00  0.00     0.135 A 
ATOM     83  F   UNL     1      -2.987   5.506   1.214  1.00  0.00    -0.206 F 
ATOM     84  C   UNL     1      -4.624   5.380  -0.456  1.00  0.00     0.059 A 
ATOM     85  C   UNL     1      -6.846   4.598   0.098  1.00  0.00     0.059 A 
ATOM     86  F   UNL     1      -7.373   4.005   2.312  1.00  0.00    -0.206 F 
ATOM     87  C   UNL     1      -5.898   4.981  -0.853  1.00  0.00     0.060 A 
BRANCH  87  88
ATOM     88  S   UNL     1      -6.208   4.745  -2.629  1.00  0.00     0.124 S 
ATOM     89  O   UNL     1      -6.335   6.119  -3.099  1.00  0.00    -0.237 OA
ATOM     90  O   UNL     1      -5.003   4.039  -3.062  1.00  0.00    -0.237 OA
ATOM     91  O   UNL     1      -7.429   3.949  -2.651  1.00  0.00    -0.744 OA
ENDBRANCH  87  88
ENDBRANCH  55  80
BRANCH  67  92
ATOM     92  C   UNL     1      -6.090   1.658   8.404  1.00  0.00     0.058 A 
ATOM     93  C   UNL     1      -6.982   2.677   8.782  1.00  0.00     0.135 A 
ATOM     94  C   UNL     1      -5.952   0.583   9.310  1.00  0.00     0.135 A 
ATOM     95  F   UNL     1      -7.302   3.682   7.953  1.00  0.00    -0.206 F 
ATOM     96  C   UNL     1      -7.611   2.685  10.018  1.00  0.00     0.059 A 
ATOM     97  C   UNL     1      -6.633   0.534  10.517  1.00  0.00     0.059 A 
ATOM     98  F   UNL     1      -5.166  -0.471   9.044  1.00  0.00    -0.206 F 
ATOM     99  C   UNL     1      -7.424   1.612  10.880  1.00  0.00     0.060 A 
BRANCH  99 100
ATOM    100  S   UNL     1      -8.227   1.641  12.483  1.00  0.00     0.124 S 
ATOM    101  O   UNL     1      -7.323   2.506  13.235  1.00  0.00    -0.237 OA
ATOM    102  O   UNL     1      -9.535   2.210  12.172  1.00  0.00    -0.237 OA
ATOM    103  O   UNL     1      -8.239   0.237  12.882  1.00  0.00    -0.744 OA
ENDBRANCH  99 100
ENDBRANCH  67  92
ENDBRANCH  41  42
ENDBRANCH  34  36
ENDBRANCH  33  34
ENDBRANCH  32  33
ENDBRANCH  31  32
ENDBRANCH   1  31
TORSDOF 20
