REMARK SMILES N#CCOc1ccc2[nH]cc([C@H](C(=O)OCCOCCOC(=O)c3ccc(-c4c5nc(c(-c6c(F)cc(S(=O)(=O)[O-])cc6F)c6ccc([nH]6)c(-c6c(F)cc(S(=O)(=O)[O-])cc6F)c6nc(c(-c7c(F)cc(S(=O)(=O)[O-])cc7F)c7ccc4[nH]7)C=C6)C=C5)cc3)[NH+]3CC[NH+]([C@@H]4CCS(=O)(=O)C4)CC3)c2c1
REMARK SMILES IDX 17 1 16 2 15 3 13 4 14 5 12 6 11 7 5 8 6 9 104 10 7 11
REMARK SMILES IDX 103 12 8 13 9 14 10 15 4 17 3 18 2 19 1 20 90 21 91 22
REMARK SMILES IDX 102 23 92 25 101 26 93 27 94 29 95 30 100 31 96 32 97 33
REMARK SMILES IDX 98 34 99 35 18 36 19 37 20 38 21 39 22 40 23 41 24 42 25 43
REMARK SMILES IDX 89 44 26 45 88 46 27 47 28 48 29 49 82 50 30 51 87 52 81 53
REMARK SMILES IDX 83 54 31 55 86 56 80 57 79 58 32 60 66 61 45 62 65 63 46 64
REMARK SMILES IDX 49 65 64 66 84 67 47 68 48 69 63 71 85 72 50 73 33 74 34 75
REMARK SMILES IDX 43 76 35 77 36 78 42 79 44 80 37 81 38 82 39 83 40 84 41 85
REMARK SMILES IDX 67 86 68 87 77 88 69 89 70 90 76 91 78 92 71 93 72 94 73 95
REMARK SMILES IDX 74 96 75 97 51 98 52 99 61 100 53 101 54 102 60 103 62 104
REMARK SMILES IDX 55 105 56 106 57 107 58 108 59 109
REMARK H PARENT 9 16 90 24 93 28 83 59 49 70
REMARK Flexibility Score: inf
ROOT
ATOM      1  C   UNL     1       2.625  -4.321  -0.298  1.00  0.00     0.202 C 
ENDROOT
BRANCH   1   2
ATOM      2  C   UNL     1       3.474  -5.373   0.433  1.00  0.00     0.261 C 
BRANCH   2   3
ATOM      3  O   UNL     1       4.852  -5.396   0.043  1.00  0.00    -0.459 OA
BRANCH   3   4
ATOM      4  C   UNL     1       5.129  -6.300  -0.945  1.00  0.00     0.370 C 
ATOM      5  O   UNL     1       4.271  -7.044  -1.402  1.00  0.00    -0.245 OA
BRANCH   4   6
ATOM      6  C   UNL     1       6.633  -6.286  -1.329  1.00  0.00     0.328 C 
BRANCH   6   7
ATOM      7  C   UNL     1       7.520  -7.031  -0.359  1.00  0.00     0.046 A 
ATOM      8  C   UNL     1       5.484  -7.934   2.522  1.00  0.00     0.121 A 
ATOM      9  C   UNL     1       6.554  -7.922   3.428  1.00  0.00     0.048 A 
ATOM     10  C   UNL     1       5.770  -8.114   1.187  1.00  0.00     0.057 A 
ATOM     11  C   UNL     1       7.894  -8.043   3.017  1.00  0.00     0.030 A 
ATOM     12  C   UNL     1       7.052  -7.755   0.769  1.00  0.00     0.013 A 
ATOM     13  C   UNL     1       8.108  -7.823   1.665  1.00  0.00     0.046 A 
ATOM     14  N   UNL     1       9.250  -7.572   0.947  1.00  0.00    -0.361 N 
ATOM     15  C   UNL     1       8.902  -6.986  -0.246  1.00  0.00     0.094 A 
ATOM     16  H   UNL     1      10.168  -7.779   1.238  1.00  0.00     0.166 HD
BRANCH   8  17
ATOM     17  O   UNL     1       4.130  -7.736   2.694  1.00  0.00    -0.479 OA
BRANCH  17  18
ATOM     18  C   UNL     1       3.584  -7.452   3.991  1.00  0.00     0.349 C 
BRANCH  18  19
ATOM     19  C   UNL     1       4.250  -8.446   4.929  1.00  0.00     0.104 C 
ATOM     20  N   UNL     1       4.803  -9.270   5.707  1.00  0.00    -0.195 NA
ENDBRANCH  18  19
ENDBRANCH  17  18
ENDBRANCH   8  17
ENDBRANCH   6   7
BRANCH   6  21
ATOM     21  N   UNL     1       6.931  -6.727  -2.705  1.00  0.00    -0.310 N 
ATOM     22  C   UNL     1       6.615  -8.130  -3.007  1.00  0.00     0.325 C 
ATOM     23  C   UNL     1       6.396  -5.808  -3.707  1.00  0.00     0.325 C 
ATOM     24  H   UNL     1       7.949  -6.692  -2.759  1.00  0.00     0.349 HD
ATOM     25  C   UNL     1       5.249  -8.464  -3.656  1.00  0.00     0.324 C 
ATOM     26  C   UNL     1       4.952  -6.075  -4.161  1.00  0.00     0.324 C 
ATOM     27  N   UNL     1       4.677  -7.452  -4.558  1.00  0.00    -0.322 N 
ATOM     28  H   UNL     1       3.668  -7.453  -4.410  1.00  0.00     0.348 HD
BRANCH  27  29
ATOM     29  C   UNL     1       4.650  -7.823  -5.965  1.00  0.00     0.200 C 
ATOM     30  C   UNL     1       6.014  -8.011  -6.646  1.00  0.00     0.082 C 
ATOM     31  C   UNL     1       3.802  -6.900  -6.852  1.00  0.00     0.201 C 
ATOM     32  C   UNL     1       6.439  -6.698  -7.274  1.00  0.00     0.143 C 
ATOM     33  S   UNL     1       4.941  -5.884  -7.772  1.00  0.00     0.156 S 
ATOM     34  O   UNL     1       4.950  -4.543  -7.241  1.00  0.00    -0.229 OA
ATOM     35  O   UNL     1       4.739  -6.140  -9.191  1.00  0.00    -0.229 OA
ENDBRANCH  27  29
ENDBRANCH   6  21
ENDBRANCH   4   6
ENDBRANCH   3   4
ENDBRANCH   2   3
ENDBRANCH   1   2
BRANCH   1  36
ATOM     36  O   UNL     1       3.136  -3.699  -1.469  1.00  0.00    -0.374 OA
BRANCH  36  37
ATOM     37  C   UNL     1       4.399  -3.044  -1.433  1.00  0.00     0.202 C 
BRANCH  37  38
ATOM     38  C   UNL     1       4.738  -2.064  -0.303  1.00  0.00     0.261 C 
BRANCH  38  39
ATOM     39  O   UNL     1       4.675  -2.633   1.018  1.00  0.00    -0.460 OA
BRANCH  39  40
ATOM     40  C   UNL     1       3.740  -2.075   1.827  1.00  0.00     0.338 C 
ATOM     41  O   UNL     1       2.982  -1.162   1.538  1.00  0.00    -0.246 OA
BRANCH  40  42
ATOM     42  C   UNL     1       3.598  -2.823   3.092  1.00  0.00     0.060 A 
ATOM     43  C   UNL     1       2.303  -3.216   3.461  1.00  0.00     0.016 A 
ATOM     44  C   UNL     1       4.668  -3.021   3.965  1.00  0.00     0.016 A 
ATOM     45  C   UNL     1       2.055  -3.731   4.732  1.00  0.00     0.010 A 
ATOM     46  C   UNL     1       4.416  -3.536   5.246  1.00  0.00     0.010 A 
ATOM     47  C   UNL     1       3.101  -3.846   5.654  1.00  0.00    -0.014 A 
BRANCH  47  48
ATOM     48  C   UNL     1       2.799  -4.113   7.087  1.00  0.00     0.031 A 
ATOM     49  C   UNL     1       2.781  -2.962   8.045  1.00  0.00     0.074 A 
ATOM     50  C   UNL     1       2.496  -5.343   7.541  1.00  0.00     0.049 A 
ATOM     51  N   UNL     1       2.507  -2.973   9.321  1.00  0.00    -0.248 NA
ATOM     52  C   UNL     1       3.036  -1.625   7.488  1.00  0.00     0.031 C 
ATOM     53  C   UNL     1       2.268  -6.499   6.696  1.00  0.00     0.029 A 
ATOM     54  N   UNL     1       2.353  -5.844   8.807  1.00  0.00    -0.354 N 
ATOM     55  C   UNL     1       2.490  -1.643   9.709  1.00  0.00     0.074 A 
ATOM     56  C   UNL     1       2.866  -0.856   8.554  1.00  0.00     0.031 C 
ATOM     57  C   UNL     1       2.213  -7.611   7.445  1.00  0.00     0.029 A 
ATOM     58  C   UNL     1       2.291  -7.221   8.843  1.00  0.00     0.049 A 
ATOM     59  H   UNL     1       2.300  -5.279   9.611  1.00  0.00     0.167 HD
ATOM     60  C   UNL     1       2.138  -1.131  10.910  1.00  0.00     0.037 A 
ATOM     61  C   UNL     1       2.265  -8.075   9.882  1.00  0.00     0.037 A 
ATOM     62  C   UNL     1       1.789  -1.934  12.052  1.00  0.00     0.049 A 
ATOM     63  C   UNL     1       2.054  -7.496  11.246  1.00  0.00     0.074 A 
ATOM     64  C   UNL     1       1.408  -1.516  13.314  1.00  0.00     0.029 A 
ATOM     65  N   UNL     1       1.797  -3.323  12.078  1.00  0.00    -0.354 N 
ATOM     66  N   UNL     1       1.982  -6.232  11.590  1.00  0.00    -0.248 NA
ATOM     67  C   UNL     1       1.824  -8.441  12.344  1.00  0.00     0.031 C 
ATOM     68  C   UNL     1       1.241  -2.650  14.117  1.00  0.00     0.029 A 
ATOM     69  C   UNL     1       1.466  -3.778  13.344  1.00  0.00     0.049 A 
ATOM     70  H   UNL     1       2.008  -3.900  11.308  1.00  0.00     0.167 HD
ATOM     71  C   UNL     1       1.628  -6.226  12.930  1.00  0.00     0.074 A 
ATOM     72  C   UNL     1       1.523  -7.615  13.338  1.00  0.00     0.031 C 
ATOM     73  C   UNL     1       1.379  -5.164  13.736  1.00  0.00     0.037 A 
BRANCH  60  74
ATOM     74  C   UNL     1       2.129   0.364  11.034  1.00  0.00     0.058 A 
ATOM     75  C   UNL     1       1.147   1.148  10.405  1.00  0.00     0.135 A 
ATOM     76  C   UNL     1       3.113   1.021  11.786  1.00  0.00     0.135 A 
ATOM     77  F   UNL     1       0.199   0.569   9.651  1.00  0.00    -0.206 F 
ATOM     78  C   UNL     1       1.158   2.536  10.497  1.00  0.00     0.059 A 
ATOM     79  C   UNL     1       3.129   2.406  11.912  1.00  0.00     0.059 A 
ATOM     80  F   UNL     1       4.079   0.318  12.396  1.00  0.00    -0.206 F 
ATOM     81  C   UNL     1       2.155   3.156  11.251  1.00  0.00     0.060 A 
BRANCH  81  82
ATOM     82  S   UNL     1       2.163   4.957  11.356  1.00  0.00     0.124 S 
ATOM     83  O   UNL     1       2.623   5.324  10.020  1.00  0.00    -0.237 OA
ATOM     84  O   UNL     1       0.766   5.259  11.650  1.00  0.00    -0.237 OA
ATOM     85  O   UNL     1       3.102   5.230  12.440  1.00  0.00    -0.744 OA
ENDBRANCH  81  82
ENDBRANCH  60  74
BRANCH  61  86
ATOM     86  C   UNL     1       2.350  -9.542   9.652  1.00  0.00     0.058 A 
ATOM     87  C   UNL     1       1.221 -10.367   9.736  1.00  0.00     0.135 A 
ATOM     88  C   UNL     1       3.575 -10.143   9.321  1.00  0.00     0.135 A 
ATOM     89  F   UNL     1       0.027  -9.839  10.045  1.00  0.00    -0.206 F 
ATOM     90  C   UNL     1       1.305 -11.741   9.523  1.00  0.00     0.059 A 
ATOM     91  C   UNL     1       3.681 -11.512   9.082  1.00  0.00     0.059 A 
ATOM     92  F   UNL     1       4.686  -9.394   9.232  1.00  0.00    -0.206 F 
ATOM     93  C   UNL     1       2.540 -12.305   9.197  1.00  0.00     0.060 A 
BRANCH  93  94
ATOM     94  S   UNL     1       2.620 -14.088   8.909  1.00  0.00     0.124 S 
ATOM     95  O   UNL     1       2.390 -14.613  10.251  1.00  0.00    -0.237 OA
ATOM     96  O   UNL     1       1.535 -14.291   7.954  1.00  0.00    -0.237 OA
ATOM     97  O   UNL     1       3.963 -14.291   8.377  1.00  0.00    -0.744 OA
ENDBRANCH  93  94
ENDBRANCH  61  86
BRANCH  73  98
ATOM     98  C   UNL     1       0.938  -5.471  15.137  1.00  0.00     0.058 A 
ATOM     99  C   UNL     1       1.825  -5.989  16.092  1.00  0.00     0.135 A 
ATOM    100  C   UNL     1      -0.387  -5.225  15.531  1.00  0.00     0.135 A 
ATOM    101  F   UNL     1       3.099  -6.251  15.759  1.00  0.00    -0.206 F 
ATOM    102  C   UNL     1       1.406  -6.283  17.384  1.00  0.00     0.059 A 
ATOM    103  C   UNL     1      -0.820  -5.483  16.826  1.00  0.00     0.059 A 
ATOM    104  F   UNL     1      -1.272  -4.723  14.656  1.00  0.00    -0.206 F 
ATOM    105  C   UNL     1       0.081  -6.027  17.741  1.00  0.00     0.060 A 
BRANCH 105 106
ATOM    106  S   UNL     1      -0.446  -6.394  19.427  1.00  0.00     0.124 S 
ATOM    107  O   UNL     1      -0.565  -7.848  19.386  1.00  0.00    -0.237 OA
ATOM    108  O   UNL     1       0.660  -5.870  20.222  1.00  0.00    -0.237 OA
ATOM    109  O   UNL     1      -1.703  -5.663  19.555  1.00  0.00    -0.744 OA
ENDBRANCH 105 106
ENDBRANCH  73  98
ENDBRANCH  47  48
ENDBRANCH  40  42
ENDBRANCH  39  40
ENDBRANCH  38  39
ENDBRANCH  37  38
ENDBRANCH  36  37
ENDBRANCH   1  36
TORSDOF 23
