REMARK SMILES C[C@H](NC(=O)c1c(C(=O)OCCOCCOC(=O)c2ccc(-c3c4nc(c(-c5c(F)cc(S(=O)(=O)[O-])cc5F)c5ccc([nH]5)c(-c5c(F)cc(S(=O)(=O)[O-])cc5F)c5nc(c(-c6c(F)cc(S(=O)(=O)[O-])cc6F)c6ccc3[nH]6)C=C5)C=C4)cc2)cnn1C)[C@]12C[C@H]3C[C@H](C[C@H](C3)C1)C2
REMARK SMILES IDX 13 1 12 2 11 3 10 4 8 5 9 6 7 7 6 8 87 9 85 10 86 11 88 12
REMARK SMILES IDX 4 13 3 14 5 16 2 17 1 18 89 19 90 20 97 21 98 22 91 23 95 24
REMARK SMILES IDX 93 25 92 26 96 27 94 28 14 29 15 30 16 31 17 32 18 33 19 34
REMARK SMILES IDX 20 35 84 36 21 37 83 38 22 39 23 40 24 41 77 42 25 43 82 44
REMARK SMILES IDX 76 45 78 46 26 47 81 48 75 49 74 50 27 52 61 53 40 54 60 55
REMARK SMILES IDX 41 56 44 57 59 58 79 59 42 60 43 61 58 63 80 64 45 65 28 66
REMARK SMILES IDX 29 67 38 68 30 69 31 70 37 71 39 72 32 73 33 74 34 75 35 76
REMARK SMILES IDX 36 77 62 78 63 79 72 80 64 81 65 82 71 83 73 84 66 85 67 86
REMARK SMILES IDX 68 87 69 88 70 89 46 90 47 91 56 92 48 93 49 94 55 95 57 96
REMARK SMILES IDX 50 97 51 98 52 99 53 100 54 101
REMARK H PARENT 3 15 78 51 44 62
REMARK Flexibility Score: inf
ROOT
ATOM      1  O   UNL     1       5.542  -4.037  -1.402  1.00  0.00    -0.374 OA
ENDROOT
BRANCH   1   2
ATOM      2  C   UNL     1       6.091  -2.811  -0.919  1.00  0.00     0.202 C 
BRANCH   2   3
ATOM      3  C   UNL     1       5.875  -1.594  -1.822  1.00  0.00     0.261 C 
BRANCH   3   4
ATOM      4  O   UNL     1       4.476  -1.337  -2.026  1.00  0.00    -0.460 OA
BRANCH   4   5
ATOM      5  C   UNL     1       3.993  -1.780  -3.221  1.00  0.00     0.342 C 
ATOM      6  O   UNL     1       4.677  -2.269  -4.108  1.00  0.00    -0.246 OA
BRANCH   5   7
ATOM      7  C   UNL     1       2.550  -1.703  -3.344  1.00  0.00     0.111 A 
ATOM      8  C   UNL     1       1.592  -0.992  -2.625  1.00  0.00     0.140 A 
ATOM      9  N   UNL     1       0.474  -1.066  -3.425  1.00  0.00    -0.262 N 
ATOM     10  C   UNL     1       1.809  -2.400  -4.326  1.00  0.00     0.151 A 
ATOM     11  N   UNL     1       0.521  -2.063  -4.330  1.00  0.00    -0.180 NA
ATOM     12  C   UNL     1      -0.580  -0.082  -3.548  1.00  0.00     0.174 C 
BRANCH   8  13
ATOM     13  C   UNL     1       1.719  -0.079  -1.526  1.00  0.00     0.270 C 
ATOM     14  N   UNL     1       1.036  -0.321  -0.358  1.00  0.00    -0.348 N 
ATOM     15  H   UNL     1       0.916   0.477   0.204  1.00  0.00     0.164 HD
ATOM     16  O   UNL     1       2.353   0.968  -1.621  1.00  0.00    -0.267 OA
BRANCH  14  17
ATOM     17  C   UNL     1       0.448  -1.550   0.217  1.00  0.00     0.085 C 
ATOM     18  C   UNL     1       1.164  -1.787   1.553  1.00  0.00     0.031 C 
BRANCH  17  19
ATOM     19  C   UNL     1      -1.130  -1.500   0.360  1.00  0.00    -0.009 C 
ATOM     20  C   UNL     1      -1.685  -2.295   1.587  1.00  0.00     0.012 C 
ATOM     21  C   UNL     1      -1.767  -2.163  -0.890  1.00  0.00     0.012 C 
ATOM     22  C   UNL     1      -1.664  -0.044   0.489  1.00  0.00     0.012 C 
ATOM     23  C   UNL     1      -3.228  -2.260   1.638  1.00  0.00    -0.010 C 
ATOM     24  C   UNL     1      -3.300  -2.105  -0.862  1.00  0.00    -0.010 C 
ATOM     25  C   UNL     1      -3.202  -0.008   0.526  1.00  0.00    -0.010 C 
ATOM     26  C   UNL     1      -3.703  -0.803   1.739  1.00  0.00     0.007 C 
ATOM     27  C   UNL     1      -3.803  -2.884   0.359  1.00  0.00     0.007 C 
ATOM     28  C   UNL     1      -3.751  -0.640  -0.763  1.00  0.00     0.007 C 
ENDBRANCH  17  19
ENDBRANCH  14  17
ENDBRANCH   8  13
ENDBRANCH   5   7
ENDBRANCH   4   5
ENDBRANCH   3   4
ENDBRANCH   2   3
ENDBRANCH   1   2
BRANCH   1  29
ATOM     29  C   UNL     1       4.171  -4.292  -1.085  1.00  0.00     0.202 C 
BRANCH  29  30
ATOM     30  C   UNL     1       3.910  -4.829   0.326  1.00  0.00     0.261 C 
BRANCH  30  31
ATOM     31  O   UNL     1       4.079  -3.793   1.312  1.00  0.00    -0.460 OA
BRANCH  31  32
ATOM     32  C   UNL     1       5.137  -3.956   2.143  1.00  0.00     0.338 C 
ATOM     33  O   UNL     1       5.872  -4.926   2.213  1.00  0.00    -0.246 OA
BRANCH  32  34
ATOM     34  C   UNL     1       5.411  -2.690   2.854  1.00  0.00     0.060 A 
ATOM     35  C   UNL     1       6.732  -2.224   2.856  1.00  0.00     0.016 A 
ATOM     36  C   UNL     1       4.416  -1.994   3.546  1.00  0.00     0.016 A 
ATOM     37  C   UNL     1       7.071  -1.088   3.590  1.00  0.00     0.010 A 
ATOM     38  C   UNL     1       4.758  -0.854   4.280  1.00  0.00     0.010 A 
ATOM     39  C   UNL     1       6.093  -0.418   4.337  1.00  0.00    -0.014 A 
BRANCH  39  40
ATOM     40  C   UNL     1       6.500   0.637   5.298  1.00  0.00     0.031 A 
ATOM     41  C   UNL     1       6.619   0.282   6.756  1.00  0.00     0.074 A 
ATOM     42  C   UNL     1       6.785   1.883   4.878  1.00  0.00     0.049 A 
ATOM     43  N   UNL     1       6.930   1.044   7.772  1.00  0.00    -0.248 NA
ATOM     44  C   UNL     1       6.345  -1.119   7.116  1.00  0.00     0.031 C 
ATOM     45  C   UNL     1       6.733   2.341   3.491  1.00  0.00     0.029 A 
ATOM     46  N   UNL     1       7.170   2.994   5.586  1.00  0.00    -0.354 N 
ATOM     47  C   UNL     1       6.883   0.221   8.891  1.00  0.00     0.074 A 
ATOM     48  C   UNL     1       6.484  -1.093   8.434  1.00  0.00     0.031 C 
ATOM     49  C   UNL     1       7.066   3.643   3.449  1.00  0.00     0.029 A 
ATOM     50  C   UNL     1       7.330   4.115   4.807  1.00  0.00     0.049 A 
ATOM     51  H   UNL     1       7.318   2.989   6.559  1.00  0.00     0.167 HD
ATOM     52  C   UNL     1       7.158   0.528  10.181  1.00  0.00     0.037 A 
ATOM     53  C   UNL     1       7.637   5.381   5.154  1.00  0.00     0.037 A 
ATOM     54  C   UNL     1       7.565   1.832  10.632  1.00  0.00     0.049 A 
ATOM     55  C   UNL     1       7.893   5.710   6.603  1.00  0.00     0.074 A 
ATOM     56  C   UNL     1       7.890   2.236  11.915  1.00  0.00     0.029 A 
ATOM     57  N   UNL     1       7.699   2.945   9.816  1.00  0.00    -0.354 N 
ATOM     58  N   UNL     1       7.869   4.915   7.646  1.00  0.00    -0.248 NA
ATOM     59  C   UNL     1       8.219   7.108   6.921  1.00  0.00     0.031 C 
ATOM     60  C   UNL     1       8.183   3.604  11.881  1.00  0.00     0.029 A 
ATOM     61  C   UNL     1       8.081   4.041  10.570  1.00  0.00     0.049 A 
ATOM     62  H   UNL     1       7.545   2.954   8.844  1.00  0.00     0.167 HD
ATOM     63  C   UNL     1       8.201   5.710   8.739  1.00  0.00     0.074 A 
ATOM     64  C   UNL     1       8.429   7.046   8.229  1.00  0.00     0.031 C 
ATOM     65  C   UNL     1       8.311   5.364  10.045  1.00  0.00     0.037 A 
BRANCH  52  66
ATOM     66  C   UNL     1       7.007  -0.566  11.200  1.00  0.00     0.058 A 
ATOM     67  C   UNL     1       7.930  -1.619  11.294  1.00  0.00     0.135 A 
ATOM     68  C   UNL     1       5.938  -0.547  12.110  1.00  0.00     0.135 A 
ATOM     69  F   UNL     1       8.960  -1.694  10.436  1.00  0.00    -0.206 F 
ATOM     70  C   UNL     1       7.785  -2.630  12.238  1.00  0.00     0.059 A 
ATOM     71  C   UNL     1       5.785  -1.535  13.077  1.00  0.00     0.059 A 
ATOM     72  F   UNL     1       5.025   0.436  12.059  1.00  0.00    -0.206 F 
ATOM     73  C   UNL     1       6.707  -2.581  13.124  1.00  0.00     0.060 A 
BRANCH  73  74
ATOM     74  S   UNL     1       6.527  -3.900  14.343  1.00  0.00     0.124 S 
ATOM     75  O   UNL     1       6.036  -4.996  13.514  1.00  0.00    -0.237 OA
ATOM     76  O   UNL     1       7.888  -4.049  14.848  1.00  0.00    -0.237 OA
ATOM     77  O   UNL     1       5.565  -3.354  15.295  1.00  0.00    -0.744 OA
ENDBRANCH  73  74
ENDBRANCH  52  66
BRANCH  53  78
ATOM     78  C   UNL     1       7.712   6.439   4.113  1.00  0.00     0.058 A 
ATOM     79  C   UNL     1       8.940   7.002   3.738  1.00  0.00     0.135 A 
ATOM     80  C   UNL     1       6.553   6.912   3.477  1.00  0.00     0.135 A 
ATOM     81  F   UNL     1      10.073   6.591   4.327  1.00  0.00    -0.206 F 
ATOM     82  C   UNL     1       9.018   8.006   2.778  1.00  0.00     0.059 A 
ATOM     83  C   UNL     1       6.608   7.898   2.497  1.00  0.00     0.059 A 
ATOM     84  F   UNL     1       5.354   6.399   3.795  1.00  0.00    -0.206 F 
ATOM     85  C   UNL     1       7.845   8.447   2.162  1.00  0.00     0.060 A 
BRANCH  85  86
ATOM     86  S   UNL     1       7.960   9.719   0.885  1.00  0.00     0.124 S 
ATOM     87  O   UNL     1       8.187  10.917   1.685  1.00  0.00    -0.237 OA
ATOM     88  O   UNL     1       9.094   9.258   0.091  1.00  0.00    -0.237 OA
ATOM     89  O   UNL     1       6.664   9.640   0.218  1.00  0.00    -0.744 OA
ENDBRANCH  85  86
ENDBRANCH  53  78
BRANCH  65  90
ATOM     90  C   UNL     1       8.723   6.436  11.015  1.00  0.00     0.058 A 
ATOM     91  C   UNL     1       7.833   7.441  11.424  1.00  0.00     0.135 A 
ATOM     92  C   UNL     1      10.007   6.424  11.584  1.00  0.00     0.135 A 
ATOM     93  F   UNL     1       6.596   7.499  10.906  1.00  0.00    -0.206 F 
ATOM     94  C   UNL     1       8.208   8.409  12.350  1.00  0.00     0.059 A 
ATOM     95  C   UNL     1      10.396   7.368  12.529  1.00  0.00     0.059 A 
ATOM     96  F   UNL     1      10.893   5.477  11.234  1.00  0.00    -0.206 F 
ATOM     97  C   UNL     1       9.492   8.364  12.898  1.00  0.00     0.060 A 
BRANCH  97  98
ATOM     98  S   UNL     1       9.956   9.603  14.127  1.00  0.00     0.124 S 
ATOM     99  O   UNL     1      10.194  10.773  13.288  1.00  0.00    -0.237 OA
ATOM    100  O   UNL     1       8.771   9.663  14.976  1.00  0.00    -0.237 OA
ATOM    101  O   UNL     1      11.141   9.028  14.756  1.00  0.00    -0.744 OA
ENDBRANCH  97  98
ENDBRANCH  65  90
ENDBRANCH  39  40
ENDBRANCH  32  34
ENDBRANCH  31  32
ENDBRANCH  30  31
ENDBRANCH  29  30
ENDBRANCH   1  29
TORSDOF 20
