REMARK SMILES COc1ccc(C)cc1[C@@H](C)[C@@](O)(C(=O)OCCOCCOC(=O)c1ccc(-c2c3nc(c(-c4c(F)cc(S(=O)(=O)[O-])cc4F)c4ccc([nH]4)c(-c4c(F)cc(S(=O)(=O)[O-])cc4F)c4nc(c(-c5c(F)cc(S(=O)(=O)[O-])cc5F)c5ccc2[nH]5)C=C4)C=C3)cc1)C(C)C
REMARK SMILES IDX 19 1 18 2 17 3 16 4 14 5 15 6 12 7 10 8 11 9 9 10 3 11 4 12
REMARK SMILES IDX 5 13 8 14 6 15 7 16 2 17 1 18 13 19 91 21 92 22 93 23 20 24
REMARK SMILES IDX 21 25 22 26 23 27 24 28 25 29 26 30 90 31 27 32 89 33 28 34
REMARK SMILES IDX 29 35 30 36 83 37 31 38 88 39 82 40 84 41 32 42 87 43 81 44
REMARK SMILES IDX 80 45 33 47 67 48 46 49 66 50 47 51 50 52 65 53 85 54 48 55
REMARK SMILES IDX 49 56 64 58 86 59 51 60 34 61 35 62 44 63 36 64 37 65 43 66
REMARK SMILES IDX 45 67 38 68 39 69 40 70 41 71 42 72 68 73 69 74 78 75 70 76
REMARK SMILES IDX 71 77 77 78 79 79 72 80 73 81 74 82 75 83 76 84 52 85 53 86
REMARK SMILES IDX 62 87 54 88 55 89 61 90 63 91 56 92 57 93 58 94 59 95 60 96
REMARK H PARENT 13 20 84 46 50 57
REMARK Flexibility Score: inf
ROOT
ATOM      1  O   UNL     1      -4.984   3.505   1.225  1.00  0.00    -0.374 OA
ENDROOT
BRANCH   1   2
ATOM      2  C   UNL     1      -4.719   2.217   0.672  1.00  0.00     0.202 C 
BRANCH   2   3
ATOM      3  C   UNL     1      -4.054   2.442  -0.675  1.00  0.00     0.261 C 
BRANCH   3   4
ATOM      4  O   UNL     1      -2.722   2.992  -0.565  1.00  0.00    -0.461 OA
BRANCH   4   5
ATOM      5  C   UNL     1      -2.573   4.313  -0.246  1.00  0.00     0.339 C 
ATOM      6  O   UNL     1      -3.457   5.153  -0.334  1.00  0.00    -0.249 OA
BRANCH   5   7
ATOM      7  C   UNL     1      -1.127   4.591   0.273  1.00  0.00     0.170 C 
BRANCH   7   8
ATOM      8  C   UNL     1      -0.696   3.349   1.156  1.00  0.00     0.063 C 
ATOM      9  C   UNL     1      -1.596   3.002   2.348  1.00  0.00     0.016 C 
BRANCH   8  10
ATOM     10  C   UNL     1       0.760   3.289   1.580  1.00  0.00     0.001 A 
ATOM     11  C   UNL     1       1.687   2.469   0.920  1.00  0.00     0.122 A 
ATOM     12  C   UNL     1       3.031   2.473   1.294  1.00  0.00     0.047 A 
ATOM     13  C   UNL     1       3.467   3.309   2.326  1.00  0.00     0.007 A 
ATOM     14  C   UNL     1       1.208   4.067   2.654  1.00  0.00     0.011 A 
ATOM     15  C   UNL     1       2.557   4.120   3.006  1.00  0.00    -0.051 A 
ATOM     16  C   UNL     1       2.989   5.148   4.006  1.00  0.00     0.044 C 
BRANCH  11  17
ATOM     17  O   UNL     1       1.298   1.741  -0.175  1.00  0.00    -0.496 OA
ATOM     18  C   UNL     1       1.191   0.350   0.134  1.00  0.00     0.278 C 
ENDBRANCH  11  17
ENDBRANCH   8  10
ENDBRANCH   7   8
BRANCH   7  19
ATOM     19  O   UNL     1      -0.266   4.636  -0.890  1.00  0.00    -0.377 OA
ATOM     20  H   UNL     1      -0.236   3.758  -1.303  1.00  0.00     0.212 HD
ENDBRANCH   7  19
BRANCH   7  21
ATOM     21  C   UNL     1      -1.114   6.047   0.872  1.00  0.00     0.027 C 
ATOM     22  C   UNL     1      -1.897   6.236   2.175  1.00  0.00     0.011 C 
ATOM     23  C   UNL     1       0.262   6.728   0.940  1.00  0.00     0.011 C 
ENDBRANCH   7  21
ENDBRANCH   5   7
ENDBRANCH   4   5
ENDBRANCH   3   4
ENDBRANCH   2   3
ENDBRANCH   1   2
BRANCH   1  24
ATOM     24  C   UNL     1      -5.415   3.575   2.570  1.00  0.00     0.202 C 
BRANCH  24  25
ATOM     25  C   UNL     1      -6.694   2.793   2.872  1.00  0.00     0.261 C 
BRANCH  25  26
ATOM     26  O   UNL     1      -7.845   3.436   2.293  1.00  0.00    -0.460 OA
BRANCH  26  27
ATOM     27  C   UNL     1      -8.297   2.866   1.134  1.00  0.00     0.338 C 
ATOM     28  O   UNL     1      -8.956   1.856   1.092  1.00  0.00    -0.246 OA
BRANCH  27  29
ATOM     29  C   UNL     1      -7.844   3.673  -0.038  1.00  0.00     0.060 A 
ATOM     30  C   UNL     1      -7.748   3.097  -1.317  1.00  0.00     0.016 A 
ATOM     31  C   UNL     1      -7.336   4.949   0.185  1.00  0.00     0.016 A 
ATOM     32  C   UNL     1      -7.054   3.765  -2.346  1.00  0.00     0.010 A 
ATOM     33  C   UNL     1      -6.575   5.551  -0.796  1.00  0.00     0.010 A 
ATOM     34  C   UNL     1      -6.420   4.977  -2.072  1.00  0.00    -0.014 A 
BRANCH  34  35
ATOM     35  C   UNL     1      -5.525   5.744  -2.955  1.00  0.00     0.031 A 
ATOM     36  C   UNL     1      -5.863   7.167  -3.247  1.00  0.00     0.074 A 
ATOM     37  C   UNL     1      -4.273   5.321  -3.251  1.00  0.00     0.049 A 
ATOM     38  N   UNL     1      -5.152   7.955  -3.980  1.00  0.00    -0.248 NA
ATOM     39  C   UNL     1      -7.080   7.814  -2.764  1.00  0.00     0.031 C 
ATOM     40  C   UNL     1      -3.106   6.164  -3.522  1.00  0.00     0.029 A 
ATOM     41  N   UNL     1      -3.767   4.025  -3.402  1.00  0.00    -0.354 N 
ATOM     42  C   UNL     1      -5.604   9.241  -3.803  1.00  0.00     0.074 A 
ATOM     43  C   UNL     1      -6.874   9.079  -3.142  1.00  0.00     0.031 C 
ATOM     44  C   UNL     1      -2.132   5.418  -4.059  1.00  0.00     0.029 A 
ATOM     45  C   UNL     1      -2.679   4.101  -4.299  1.00  0.00     0.049 A 
ATOM     46  H   UNL     1      -4.107   3.211  -2.965  1.00  0.00     0.167 HD
ATOM     47  C   UNL     1      -4.781  10.274  -4.158  1.00  0.00     0.037 A 
ATOM     48  C   UNL     1      -2.714   3.431  -5.484  1.00  0.00     0.037 A 
ATOM     49  C   UNL     1      -3.651   9.776  -4.966  1.00  0.00     0.049 A 
ATOM     50  C   UNL     1      -2.773   4.376  -6.663  1.00  0.00     0.074 A 
ATOM     51  C   UNL     1      -2.291   9.588  -4.782  1.00  0.00     0.029 A 
ATOM     52  N   UNL     1      -3.952   9.124  -6.152  1.00  0.00    -0.354 N 
ATOM     53  N   UNL     1      -2.544   5.660  -6.582  1.00  0.00    -0.248 NA
ATOM     54  C   UNL     1      -3.177   3.977  -8.011  1.00  0.00     0.031 C 
ATOM     55  C   UNL     1      -1.810   8.751  -5.843  1.00  0.00     0.029 A 
ATOM     56  C   UNL     1      -2.869   8.453  -6.685  1.00  0.00     0.049 A 
ATOM     57  H   UNL     1      -4.844   9.137  -6.569  1.00  0.00     0.167 HD
ATOM     58  C   UNL     1      -2.945   6.267  -7.736  1.00  0.00     0.074 A 
ATOM     59  C   UNL     1      -3.260   5.166  -8.633  1.00  0.00     0.031 C 
ATOM     60  C   UNL     1      -3.083   7.619  -7.864  1.00  0.00     0.037 A 
BRANCH  47  61
ATOM     61  C   UNL     1      -4.920  11.731  -3.722  1.00  0.00     0.058 A 
ATOM     62  C   UNL     1      -3.920  12.675  -4.057  1.00  0.00     0.135 A 
ATOM     63  C   UNL     1      -5.955  12.266  -2.922  1.00  0.00     0.135 A 
ATOM     64  F   UNL     1      -2.857  12.333  -4.799  1.00  0.00    -0.206 F 
ATOM     65  C   UNL     1      -3.944  14.011  -3.631  1.00  0.00     0.059 A 
ATOM     66  C   UNL     1      -6.014  13.599  -2.505  1.00  0.00     0.059 A 
ATOM     67  F   UNL     1      -6.966  11.532  -2.458  1.00  0.00    -0.206 F 
ATOM     68  C   UNL     1      -4.998  14.467  -2.853  1.00  0.00     0.060 A 
BRANCH  68  69
ATOM     69  S   UNL     1      -5.025  16.176  -2.285  1.00  0.00     0.124 S 
ATOM     70  O   UNL     1      -3.820  16.242  -1.464  1.00  0.00    -0.237 OA
ATOM     71  O   UNL     1      -4.985  16.919  -3.539  1.00  0.00    -0.237 OA
ATOM     72  O   UNL     1      -6.282  16.272  -1.546  1.00  0.00    -0.744 OA
ENDBRANCH  68  69
ENDBRANCH  47  61
BRANCH  48  73
ATOM     73  C   UNL     1      -3.351   2.088  -5.323  1.00  0.00     0.058 A 
ATOM     74  C   UNL     1      -2.619   1.127  -4.590  1.00  0.00     0.135 A 
ATOM     75  C   UNL     1      -4.743   1.924  -5.378  1.00  0.00     0.135 A 
ATOM     76  F   UNL     1      -1.283   1.234  -4.495  1.00  0.00    -0.206 F 
ATOM     77  C   UNL     1      -3.244   0.152  -3.814  1.00  0.00     0.059 A 
ATOM     78  C   UNL     1      -5.390   0.955  -4.603  1.00  0.00     0.059 A 
ATOM     79  F   UNL     1      -5.499   2.803  -6.053  1.00  0.00    -0.206 F 
ATOM     80  C   UNL     1      -4.636   0.112  -3.781  1.00  0.00     0.060 A 
BRANCH  80  81
ATOM     81  S   UNL     1      -5.457  -0.852  -2.477  1.00  0.00     0.124 S 
ATOM     82  O   UNL     1      -5.636  -2.145  -3.124  1.00  0.00    -0.237 OA
ATOM     83  O   UNL     1      -4.487  -0.823  -1.383  1.00  0.00    -0.237 OA
ATOM     84  O   UNL     1      -6.670  -0.081  -2.224  1.00  0.00    -0.744 OA
ENDBRANCH  80  81
ENDBRANCH  48  73
BRANCH  60  85
ATOM     85  C   UNL     1      -3.502   8.234  -9.166  1.00  0.00     0.058 A 
ATOM     86  C   UNL     1      -2.807   7.953 -10.354  1.00  0.00     0.135 A 
ATOM     87  C   UNL     1      -4.529   9.195  -9.250  1.00  0.00     0.135 A 
ATOM     88  F   UNL     1      -1.795   7.071 -10.360  1.00  0.00    -0.206 F 
ATOM     89  C   UNL     1      -3.134   8.564 -11.563  1.00  0.00     0.059 A 
ATOM     90  C   UNL     1      -4.837   9.857 -10.434  1.00  0.00     0.059 A 
ATOM     91  F   UNL     1      -5.294   9.494  -8.189  1.00  0.00    -0.206 F 
ATOM     92  C   UNL     1      -4.151   9.516 -11.592  1.00  0.00     0.060 A 
BRANCH  92  93
ATOM     93  S   UNL     1      -4.573  10.317 -13.149  1.00  0.00     0.124 S 
ATOM     94  O   UNL     1      -3.283  10.404 -13.828  1.00  0.00    -0.237 OA
ATOM     95  O   UNL     1      -5.520   9.362 -13.716  1.00  0.00    -0.237 OA
ATOM     96  O   UNL     1      -5.140  11.594 -12.728  1.00  0.00    -0.744 OA
ENDBRANCH  92  93
ENDBRANCH  60  85
ENDBRANCH  34  35
ENDBRANCH  27  29
ENDBRANCH  26  27
ENDBRANCH  25  26
ENDBRANCH  24  25
ENDBRANCH   1  24
TORSDOF 22
