REMARK SMILES CS(=O)(=O)c1ccc(/C=C(/C(=O)OCCOCCOC(=O)c2ccc(-c3c4nc(c(-c5c(F)cc(S(=O)(=O)[O-])cc5F)c5ccc([nH]5)c(-c5c(F)cc(S(=O)(=O)[O-])cc5F)c5nc(c(-c6c(F)cc(S(=O)(=O)[O-])cc6F)c6ccc3[nH]6)C=C5)C=C4)cc2)c2ccc(-c3ccc(F)cc3F)cc2)cc1
REMARK SMILES IDX 17 1 16 2 15 3 14 4 13 5 11 6 12 7 10 8 9 9 8 10 5 11 6 12
REMARK SMILES IDX 103 13 7 14 102 15 2 16 1 17 3 18 4 19 88 20 89 21 101 22
REMARK SMILES IDX 90 23 100 24 91 25 92 26 93 27 98 28 94 29 97 30 99 31 95 32
REMARK SMILES IDX 96 33 18 34 19 35 20 36 21 37 22 38 23 39 87 40 24 41 86 42
REMARK SMILES IDX 25 43 26 44 27 45 80 46 28 47 85 48 79 49 81 50 29 51 84 52
REMARK SMILES IDX 78 53 77 54 30 56 64 57 43 58 63 59 44 60 47 61 62 62 82 63
REMARK SMILES IDX 45 64 46 65 61 67 83 68 48 69 31 70 32 71 41 72 33 73 34 74
REMARK SMILES IDX 40 75 42 76 35 77 36 78 37 79 38 80 39 81 65 82 66 83 75 84
REMARK SMILES IDX 67 85 68 86 74 87 76 88 69 89 70 90 71 91 72 92 73 93 49 94
REMARK SMILES IDX 50 95 59 96 51 97 52 98 58 99 60 100 53 101 54 102 55 103
REMARK SMILES IDX 56 104 57 105
REMARK H PARENT 81 55 47 66
REMARK Flexibility Score: inf
ROOT
ATOM      1  C   UNL     1       4.177  -6.987  -7.609  1.00  0.00     0.202 C 
ENDROOT
BRANCH   1   2
ATOM      2  O   UNL     1       3.868  -7.141  -8.990  1.00  0.00    -0.374 OA
BRANCH   2   3
ATOM      3  C   UNL     1       3.739  -5.963  -9.782  1.00  0.00     0.202 C 
BRANCH   3   4
ATOM      4  C   UNL     1       2.516  -5.067  -9.555  1.00  0.00     0.261 C 
BRANCH   4   5
ATOM      5  O   UNL     1       2.444  -4.576  -8.205  1.00  0.00    -0.460 OA
BRANCH   5   6
ATOM      6  C   UNL     1       1.353  -5.001  -7.517  1.00  0.00     0.338 C 
ATOM      7  O   UNL     1       0.413  -5.623  -7.995  1.00  0.00    -0.246 OA
BRANCH   6   8
ATOM      8  C   UNL     1       1.469  -4.752  -6.043  1.00  0.00     0.067 C 
ATOM      9  C   UNL     1       2.058  -3.630  -5.564  1.00  0.00     0.024 C 
BRANCH   9  10
ATOM     10  C   UNL     1       1.977  -3.110  -4.175  1.00  0.00    -0.025 A 
ATOM     11  C   UNL     1       1.196  -2.048  -1.695  1.00  0.00     0.067 A 
ATOM     12  C   UNL     1       1.504  -3.403  -1.805  1.00  0.00     0.021 A 
ATOM     13  C   UNL     1       1.406  -1.192  -2.775  1.00  0.00     0.021 A 
ATOM     14  C   UNL     1       1.932  -3.918  -3.031  1.00  0.00     0.009 A 
ATOM     15  C   UNL     1       1.799  -1.727  -4.009  1.00  0.00     0.009 A 
BRANCH  11  16
ATOM     16  S   UNL     1       0.446  -1.472  -0.191  1.00  0.00     0.175 S 
ATOM     17  C   UNL     1       1.052   0.166   0.083  1.00  0.00     0.163 C 
ATOM     18  O   UNL     1       0.959  -2.299   0.886  1.00  0.00    -0.224 OA
ATOM     19  O   UNL     1      -0.979  -1.388  -0.447  1.00  0.00    -0.224 OA
ENDBRANCH  11  16
ENDBRANCH   9  10
BRANCH   8  20
ATOM     20  C   UNL     1       0.820  -5.765  -5.188  1.00  0.00    -0.011 A 
ATOM     21  C   UNL     1       1.471  -6.981  -4.948  1.00  0.00     0.009 A 
ATOM     22  C   UNL     1      -0.429  -5.539  -4.612  1.00  0.00     0.009 A 
ATOM     23  C   UNL     1       0.876  -7.964  -4.158  1.00  0.00     0.009 A 
ATOM     24  C   UNL     1      -1.011  -6.517  -3.801  1.00  0.00     0.009 A 
ATOM     25  C   UNL     1      -0.382  -7.755  -3.573  1.00  0.00    -0.015 A 
BRANCH  25  26
ATOM     26  C   UNL     1      -1.029  -8.815  -2.778  1.00  0.00     0.018 A 
ATOM     27  C   UNL     1      -0.292  -9.599  -1.868  1.00  0.00     0.015 A 
ATOM     28  C   UNL     1      -2.398  -9.107  -2.919  1.00  0.00     0.133 A 
ATOM     29  C   UNL     1      -0.901 -10.632  -1.149  1.00  0.00     0.040 A 
ATOM     30  C   UNL     1      -3.014 -10.128  -2.202  1.00  0.00     0.079 A 
ATOM     31  F   UNL     1      -3.157  -8.412  -3.781  1.00  0.00    -0.206 F 
ATOM     32  C   UNL     1      -2.256 -10.885  -1.325  1.00  0.00     0.126 A 
ATOM     33  F   UNL     1      -2.836 -11.877  -0.639  1.00  0.00    -0.207 F 
ENDBRANCH  25  26
ENDBRANCH   8  20
ENDBRANCH   6   8
ENDBRANCH   5   6
ENDBRANCH   4   5
ENDBRANCH   3   4
ENDBRANCH   2   3
ENDBRANCH   1   2
BRANCH   1  34
ATOM     34  C   UNL     1       5.600  -6.585  -7.205  1.00  0.00     0.261 C 
BRANCH  34  35
ATOM     35  O   UNL     1       6.006  -5.321  -7.746  1.00  0.00    -0.460 OA
BRANCH  35  36
ATOM     36  C   UNL     1       6.868  -5.410  -8.787  1.00  0.00     0.338 C 
ATOM     37  O   UNL     1       7.345  -6.430  -9.269  1.00  0.00    -0.246 OA
BRANCH  36  38
ATOM     38  C   UNL     1       7.018  -4.086  -9.409  1.00  0.00     0.060 A 
ATOM     39  C   UNL     1       6.745  -3.964 -10.779  1.00  0.00     0.016 A 
ATOM     40  C   UNL     1       7.474  -2.994  -8.669  1.00  0.00     0.016 A 
ATOM     41  C   UNL     1       6.968  -2.754 -11.428  1.00  0.00     0.010 A 
ATOM     42  C   UNL     1       7.712  -1.787  -9.325  1.00  0.00     0.010 A 
ATOM     43  C   UNL     1       7.495  -1.673 -10.711  1.00  0.00    -0.014 A 
BRANCH  43  44
ATOM     44  C   UNL     1       8.001  -0.479 -11.423  1.00  0.00     0.031 A 
ATOM     45  C   UNL     1       9.484  -0.356 -11.635  1.00  0.00     0.074 A 
ATOM     46  C   UNL     1       7.163   0.485 -11.842  1.00  0.00     0.049 A 
ATOM     47  N   UNL     1      10.177   0.659 -12.075  1.00  0.00    -0.248 NA
ATOM     48  C   UNL     1      10.293  -1.537 -11.289  1.00  0.00     0.031 C 
ATOM     49  C   UNL     1       5.706   0.444 -11.737  1.00  0.00     0.029 A 
ATOM     50  N   UNL     1       7.428   1.701 -12.418  1.00  0.00    -0.354 N 
ATOM     51  C   UNL     1      11.505   0.251 -12.036  1.00  0.00     0.074 A 
ATOM     52  C   UNL     1      11.523  -1.096 -11.509  1.00  0.00     0.031 C 
ATOM     53  C   UNL     1       5.204   1.599 -12.209  1.00  0.00     0.029 A 
ATOM     54  C   UNL     1       6.306   2.474 -12.604  1.00  0.00     0.049 A 
ATOM     55  H   UNL     1       8.332   1.992 -12.674  1.00  0.00     0.167 HD
ATOM     56  C   UNL     1      12.609   0.940 -12.408  1.00  0.00     0.037 A 
ATOM     57  C   UNL     1       6.192   3.754 -13.010  1.00  0.00     0.037 A 
ATOM     58  C   UNL     1      12.573   2.279 -12.935  1.00  0.00     0.049 A 
ATOM     59  C   UNL     1       7.439   4.528 -13.358  1.00  0.00     0.074 A 
ATOM     60  C   UNL     1      13.629   3.067 -13.353  1.00  0.00     0.029 A 
ATOM     61  N   UNL     1      11.418   3.028 -13.111  1.00  0.00    -0.354 N 
ATOM     62  N   UNL     1       8.691   4.136 -13.318  1.00  0.00    -0.248 NA
ATOM     63  C   UNL     1       7.260   5.916 -13.805  1.00  0.00     0.031 C 
ATOM     64  C   UNL     1      13.119   4.312 -13.734  1.00  0.00     0.029 A 
ATOM     65  C   UNL     1      11.738   4.277 -13.615  1.00  0.00     0.049 A 
ATOM     66  H   UNL     1      10.506   2.718 -12.908  1.00  0.00     0.167 HD
ATOM     67  C   UNL     1       9.443   5.213 -13.777  1.00  0.00     0.074 A 
ATOM     68  C   UNL     1       8.507   6.274 -14.082  1.00  0.00     0.031 C 
ATOM     69  C   UNL     1      10.786   5.311 -13.939  1.00  0.00     0.037 A 
BRANCH  56  70
ATOM     70  C   UNL     1      13.944   0.274 -12.227  1.00  0.00     0.058 A 
ATOM     71  C   UNL     1      14.348  -0.811 -13.020  1.00  0.00     0.135 A 
ATOM     72  C   UNL     1      14.847   0.749 -11.261  1.00  0.00     0.135 A 
ATOM     73  F   UNL     1      13.517  -1.319 -13.944  1.00  0.00    -0.206 F 
ATOM     74  C   UNL     1      15.587  -1.419 -12.845  1.00  0.00     0.059 A 
ATOM     75  C   UNL     1      16.104   0.177 -11.089  1.00  0.00     0.059 A 
ATOM     76  F   UNL     1      14.511   1.781 -10.470  1.00  0.00    -0.206 F 
ATOM     77  C   UNL     1      16.459  -0.916 -11.878  1.00  0.00     0.060 A 
BRANCH  77  78
ATOM     78  S   UNL     1      18.065  -1.712 -11.668  1.00  0.00     0.124 S 
ATOM     79  O   UNL     1      17.686  -2.973 -11.039  1.00  0.00    -0.237 OA
ATOM     80  O   UNL     1      18.546  -1.809 -13.042  1.00  0.00    -0.237 OA
ATOM     81  O   UNL     1      18.797  -0.781 -10.814  1.00  0.00    -0.744 OA
ENDBRANCH  77  78
ENDBRANCH  56  70
BRANCH  57  82
ATOM     82  C   UNL     1       4.850   4.390 -13.094  1.00  0.00     0.058 A 
ATOM     83  C   UNL     1       4.287   4.731 -14.332  1.00  0.00     0.135 A 
ATOM     84  C   UNL     1       4.101   4.666 -11.938  1.00  0.00     0.135 A 
ATOM     85  F   UNL     1       4.967   4.496 -15.465  1.00  0.00    -0.206 F 
ATOM     86  C   UNL     1       3.038   5.336 -14.424  1.00  0.00     0.059 A 
ATOM     87  C   UNL     1       2.838   5.245 -12.005  1.00  0.00     0.059 A 
ATOM     88  F   UNL     1       4.588   4.349 -10.728  1.00  0.00    -0.206 F 
ATOM     89  C   UNL     1       2.319   5.586 -13.253  1.00  0.00     0.060 A 
BRANCH  89  90
ATOM     90  S   UNL     1       0.679   6.330 -13.387  1.00  0.00     0.124 S 
ATOM     91  O   UNL     1       1.007   7.697 -13.773  1.00  0.00    -0.237 OA
ATOM     92  O   UNL     1       0.054   5.506 -14.417  1.00  0.00    -0.237 OA
ATOM     93  O   UNL     1       0.128   6.168 -12.045  1.00  0.00    -0.744 OA
ENDBRANCH  89  90
ENDBRANCH  57  82
BRANCH  69  94
ATOM     94  C   UNL     1      11.331   6.579 -14.539  1.00  0.00     0.058 A 
ATOM     95  C   UNL     1      11.392   7.779 -13.816  1.00  0.00     0.135 A 
ATOM     96  C   UNL     1      11.884   6.561 -15.831  1.00  0.00     0.135 A 
ATOM     97  F   UNL     1      10.873   7.852 -12.580  1.00  0.00    -0.206 F 
ATOM     98  C   UNL     1      11.974   8.922 -14.357  1.00  0.00     0.059 A 
ATOM     99  C   UNL     1      12.496   7.683 -16.380  1.00  0.00     0.059 A 
ATOM    100  F   UNL     1      11.860   5.434 -16.561  1.00  0.00    -0.206 F 
ATOM    101  C   UNL     1      12.530   8.861 -15.637  1.00  0.00     0.060 A 
BRANCH 101 102
ATOM    102  S   UNL     1      13.337  10.333 -16.301  1.00  0.00     0.124 S 
ATOM    103  O   UNL     1      12.193  11.192 -16.588  1.00  0.00    -0.237 OA
ATOM    104  O   UNL     1      14.182  10.754 -15.188  1.00  0.00    -0.237 OA
ATOM    105  O   UNL     1      14.053   9.831 -17.470  1.00  0.00    -0.744 OA
ENDBRANCH 101 102
ENDBRANCH  69  94
ENDBRANCH  43  44
ENDBRANCH  36  38
ENDBRANCH  35  36
ENDBRANCH  34  35
ENDBRANCH   1  34
TORSDOF 21
