REMARK SMILES C[C@H](C(=O)OCCOCCOC(=O)c1ccc(-c2c3nc(c(-c4c(F)cc(S(=O)(=O)[O-])cc4F)c4ccc([nH]4)c(-c4c(F)cc(S(=O)(=O)[O-])cc4F)c4nc(c(-c5c(F)cc(S(=O)(=O)[O-])cc5F)c5ccc2[nH]5)C=C4)C=C3)cc1)c1ccc2c(c1)OCCO2
REMARK SMILES IDX 9 1 8 2 7 3 6 4 5 5 3 6 4 7 2 8 1 9 80 10 81 11 85 12 82 13
REMARK SMILES IDX 84 14 83 15 86 16 89 17 87 18 88 19 10 20 11 21 12 22 13 23
REMARK SMILES IDX 14 24 15 25 79 26 16 27 78 28 17 29 18 30 19 31 72 32 20 33
REMARK SMILES IDX 77 34 71 35 73 36 21 37 76 38 70 39 69 40 22 42 56 43 35 44
REMARK SMILES IDX 55 45 36 46 39 47 54 48 74 49 37 50 38 51 53 53 75 54 40 55
REMARK SMILES IDX 23 56 24 57 33 58 25 59 26 60 32 61 34 62 27 63 28 64 29 65
REMARK SMILES IDX 30 66 31 67 57 68 58 69 67 70 59 71 60 72 66 73 68 74 61 75
REMARK SMILES IDX 62 76 63 77 64 78 65 79 41 80 42 81 51 82 43 83 44 84 50 85
REMARK SMILES IDX 52 86 45 87 46 88 47 89 48 90 49 91
REMARK H PARENT 73 41 39 52
REMARK Flexibility Score: inf
ROOT
ATOM      1  C   UNL     1       3.457   0.994  -1.297  1.00  0.00     0.202 C 
ENDROOT
BRANCH   1   2
ATOM      2  O   UNL     1       3.996  -0.194  -0.719  1.00  0.00    -0.374 OA
BRANCH   2   3
ATOM      3  C   UNL     1       3.086  -1.299  -0.669  1.00  0.00     0.202 C 
BRANCH   3   4
ATOM      4  C   UNL     1       2.104  -1.251   0.509  1.00  0.00     0.261 C 
BRANCH   4   5
ATOM      5  O   UNL     1       1.191  -0.142   0.389  1.00  0.00    -0.463 OA
BRANCH   5   6
ATOM      6  C   UNL     1       1.235   0.823   1.354  1.00  0.00     0.313 C 
ATOM      7  O   UNL     1       2.015   0.836   2.299  1.00  0.00    -0.252 OA
BRANCH   6   8
ATOM      8  C   UNL     1       0.198   1.928   1.109  1.00  0.00     0.126 C 
ATOM      9  C   UNL     1       0.684   2.762  -0.087  1.00  0.00     0.025 C 
BRANCH   8  10
ATOM     10  C   UNL     1      -1.228   1.418   0.912  1.00  0.00    -0.030 A 
ATOM     11  C   UNL     1      -2.193   2.189   0.235  1.00  0.00     0.009 A 
ATOM     12  C   UNL     1      -1.583   0.125   1.324  1.00  0.00     0.055 A 
ATOM     13  C   UNL     1      -3.385   1.612  -0.206  1.00  0.00     0.051 A 
ATOM     14  C   UNL     1      -2.721  -0.477   0.808  1.00  0.00     0.161 A 
ATOM     15  C   UNL     1      -3.592   0.256   0.004  1.00  0.00     0.161 A 
ATOM     16  O   UNL     1      -2.838  -1.823   1.024  1.00  0.00    -0.486 OA
ATOM     17  O   UNL     1      -4.601  -0.354  -0.696  1.00  0.00    -0.486 OA
ATOM     18  C   UNL     1      -3.765  -2.467   0.140  1.00  0.00     0.271 C 
ATOM     19  C   UNL     1      -4.103  -1.641  -1.095  1.00  0.00     0.271 C 
ENDBRANCH   8  10
ENDBRANCH   6   8
ENDBRANCH   5   6
ENDBRANCH   4   5
ENDBRANCH   3   4
ENDBRANCH   2   3
ENDBRANCH   1   2
BRANCH   1  20
ATOM     20  C   UNL     1       3.726   1.172  -2.791  1.00  0.00     0.261 C 
BRANCH  20  21
ATOM     21  O   UNL     1       3.171   0.080  -3.538  1.00  0.00    -0.460 OA
BRANCH  21  22
ATOM     22  C   UNL     1       4.081  -0.853  -3.894  1.00  0.00     0.338 C 
ATOM     23  O   UNL     1       5.299  -0.772  -3.772  1.00  0.00    -0.246 OA
BRANCH  22  24
ATOM     24  C   UNL     1       3.414  -2.084  -4.350  1.00  0.00     0.060 A 
ATOM     25  C   UNL     1       4.011  -3.296  -3.982  1.00  0.00     0.016 A 
ATOM     26  C   UNL     1       2.285  -2.071  -5.177  1.00  0.00     0.016 A 
ATOM     27  C   UNL     1       3.540  -4.491  -4.510  1.00  0.00     0.010 A 
ATOM     28  C   UNL     1       1.809  -3.276  -5.704  1.00  0.00     0.010 A 
ATOM     29  C   UNL     1       2.469  -4.482  -5.413  1.00  0.00    -0.014 A 
BRANCH  29  30
ATOM     30  C   UNL     1       2.179  -5.716  -6.180  1.00  0.00     0.031 A 
ATOM     31  C   UNL     1       2.726  -5.843  -7.576  1.00  0.00     0.074 A 
ATOM     32  C   UNL     1       1.506  -6.731  -5.611  1.00  0.00     0.049 A 
ATOM     33  N   UNL     1       2.629  -6.840  -8.416  1.00  0.00    -0.248 NA
ATOM     34  C   UNL     1       3.487  -4.693  -8.093  1.00  0.00     0.031 C 
ATOM     35  C   UNL     1       0.965  -6.728  -4.252  1.00  0.00     0.029 A 
ATOM     36  N   UNL     1       1.171  -7.965  -6.105  1.00  0.00    -0.354 N 
ATOM     37  C   UNL     1       3.317  -6.441  -9.557  1.00  0.00     0.074 A 
ATOM     38  C   UNL     1       3.794  -5.097  -9.317  1.00  0.00     0.031 C 
ATOM     39  C   UNL     1       0.357  -7.904  -4.023  1.00  0.00     0.029 A 
ATOM     40  C   UNL     1       0.449  -8.733  -5.223  1.00  0.00     0.049 A 
ATOM     41  H   UNL     1       1.423  -8.272  -7.006  1.00  0.00     0.167 HD
ATOM     42  C   UNL     1       3.543  -7.138 -10.695  1.00  0.00     0.037 A 
ATOM     43  C   UNL     1      -0.086  -9.960  -5.376  1.00  0.00     0.037 A 
ATOM     44  C   UNL     1       3.064  -8.476 -10.924  1.00  0.00     0.049 A 
ATOM     45  C   UNL     1       0.135 -10.698  -6.670  1.00  0.00     0.074 A 
ATOM     46  C   UNL     1       3.238  -9.275 -12.039  1.00  0.00     0.029 A 
ATOM     47  N   UNL     1       2.314  -9.211 -10.017  1.00  0.00    -0.354 N 
ATOM     48  N   UNL     1       0.800 -10.314  -7.734  1.00  0.00    -0.248 NA
ATOM     49  C   UNL     1      -0.460 -12.037  -6.782  1.00  0.00     0.031 C 
ATOM     50  C   UNL     1       2.559 -10.479 -11.823  1.00  0.00     0.029 A 
ATOM     51  C   UNL     1       2.000 -10.447 -10.554  1.00  0.00     0.049 A 
ATOM     52  H   UNL     1       2.044  -8.899  -9.123  1.00  0.00     0.167 HD
ATOM     53  C   UNL     1       0.721 -11.371  -8.635  1.00  0.00     0.074 A 
ATOM     54  C   UNL     1      -0.045 -12.415  -7.984  1.00  0.00     0.031 C 
ATOM     55  C   UNL     1       1.237 -11.472  -9.886  1.00  0.00     0.037 A 
BRANCH  42  56
ATOM     56  C   UNL     1       4.323  -6.456 -11.784  1.00  0.00     0.058 A 
ATOM     57  C   UNL     1       5.705  -6.233 -11.672  1.00  0.00     0.135 A 
ATOM     58  C   UNL     1       3.686  -6.036 -12.963  1.00  0.00     0.135 A 
ATOM     59  F   UNL     1       6.361  -6.596 -10.559  1.00  0.00    -0.206 F 
ATOM     60  C   UNL     1       6.423  -5.594 -12.679  1.00  0.00     0.059 A 
ATOM     61  C   UNL     1       4.388  -5.418 -13.993  1.00  0.00     0.059 A 
ATOM     62  F   UNL     1       2.366  -6.221 -13.119  1.00  0.00    -0.206 F 
ATOM     63  C   UNL     1       5.754  -5.188 -13.835  1.00  0.00     0.060 A 
BRANCH  63  64
ATOM     64  S   UNL     1       6.696  -4.358 -15.133  1.00  0.00     0.124 S 
ATOM     65  O   UNL     1       6.908  -3.040 -14.542  1.00  0.00    -0.237 OA
ATOM     66  O   UNL     1       7.883  -5.200 -15.245  1.00  0.00    -0.237 OA
ATOM     67  O   UNL     1       5.796  -4.393 -16.282  1.00  0.00    -0.744 OA
ENDBRANCH  63  64
ENDBRANCH  42  56
BRANCH  43  68
ATOM     68  C   UNL     1      -0.888 -10.558  -4.277  1.00  0.00     0.058 A 
ATOM     69  C   UNL     1      -0.413 -11.646  -3.532  1.00  0.00     0.135 A 
ATOM     70  C   UNL     1      -2.147 -10.034  -3.939  1.00  0.00     0.135 A 
ATOM     71  F   UNL     1       0.780 -12.187  -3.823  1.00  0.00    -0.206 F 
ATOM     72  C   UNL     1      -1.159 -12.202  -2.497  1.00  0.00     0.059 A 
ATOM     73  C   UNL     1      -2.901 -10.558  -2.894  1.00  0.00     0.059 A 
ATOM     74  F   UNL     1      -2.642  -8.984  -4.613  1.00  0.00    -0.206 F 
ATOM     75  C   UNL     1      -2.401 -11.648  -2.184  1.00  0.00     0.060 A 
BRANCH  75  76
ATOM     76  S   UNL     1      -3.337 -12.334  -0.800  1.00  0.00     0.124 S 
ATOM     77  O   UNL     1      -3.842 -13.575  -1.374  1.00  0.00    -0.237 OA
ATOM     78  O   UNL     1      -2.309 -12.475   0.227  1.00  0.00    -0.237 OA
ATOM     79  O   UNL     1      -4.340 -11.306  -0.533  1.00  0.00    -0.744 OA
ENDBRANCH  75  76
ENDBRANCH  43  68
BRANCH  55  80
ATOM     80  C   UNL     1       1.010 -12.761 -10.624  1.00  0.00     0.058 A 
ATOM     81  C   UNL     1      -0.241 -13.084 -11.171  1.00  0.00     0.135 A 
ATOM     82  C   UNL     1       2.071 -13.656 -10.833  1.00  0.00     0.135 A 
ATOM     83  F   UNL     1      -1.288 -12.263 -10.995  1.00  0.00    -0.206 F 
ATOM     84  C   UNL     1      -0.438 -14.262 -11.883  1.00  0.00     0.059 A 
ATOM     85  C   UNL     1       1.903 -14.828 -11.563  1.00  0.00     0.059 A 
ATOM     86  F   UNL     1       3.290 -13.387 -10.340  1.00  0.00    -0.206 F 
ATOM     87  C   UNL     1       0.641 -15.128 -12.075  1.00  0.00     0.060 A 
BRANCH  87  88
ATOM     88  S   UNL     1       0.381 -16.638 -13.029  1.00  0.00     0.124 S 
ATOM     89  O   UNL     1      -0.335 -17.472 -12.068  1.00  0.00    -0.237 OA
ATOM     90  O   UNL     1      -0.404 -16.162 -14.163  1.00  0.00    -0.237 OA
ATOM     91  O   UNL     1       1.736 -17.073 -13.351  1.00  0.00    -0.744 OA
ENDBRANCH  87  88
ENDBRANCH  55  80
ENDBRANCH  29  30
ENDBRANCH  22  24
ENDBRANCH  21  22
ENDBRANCH  20  21
ENDBRANCH   1  20
TORSDOF 18
