REMARK SMILES CC(C)(Oc1ccc(Cl)cc1)C(=O)N1CCC[C@H](C(=O)OCCOCCOC(=O)c2ccc(-c3c4nc(c(-c5c(F)cc(S(=O)(=O)[O-])cc5F)c5ccc([nH]5)c(-c5c(F)cc(S(=O)(=O)[O-])cc5F)c5nc(c(-c6c(F)cc(S(=O)(=O)[O-])cc6F)c6ccc3[nH]6)C=C5)C=C4)cc2)C1
REMARK SMILES IDX 23 1 22 2 21 3 19 4 20 5 18 6 14 7 15 8 96 9 16 10 17 11
REMARK SMILES IDX 12 12 13 13 2 14 1 15 3 16 4 17 5 18 6 19 11 20 7 21 10 22
REMARK SMILES IDX 8 23 9 24 24 25 25 26 26 27 27 28 28 29 29 30 30 31 31 32
REMARK SMILES IDX 95 33 32 34 94 35 33 36 34 37 35 38 88 39 36 40 93 41 87 42
REMARK SMILES IDX 89 43 37 44 92 45 86 46 85 47 38 49 72 50 51 51 71 52 52 53
REMARK SMILES IDX 55 54 70 55 90 56 53 57 54 58 69 60 91 61 56 62 39 63 40 64
REMARK SMILES IDX 49 65 41 66 42 67 48 68 50 69 43 70 44 71 45 72 46 73 47 74
REMARK SMILES IDX 73 75 74 76 83 77 75 78 76 79 82 80 84 81 77 82 78 83 79 84
REMARK SMILES IDX 80 85 81 86 57 87 58 88 67 89 59 90 60 91 66 92 68 93 61 94
REMARK SMILES IDX 62 95 63 96 64 97 65 98
REMARK H PARENT 89 48 55 59
REMARK Flexibility Score: inf
ROOT
ATOM      1  C   UNL     1      -1.244  -1.122  -6.153  1.00  0.00     0.202 C 
ENDROOT
BRANCH   1   2
ATOM      2  C   UNL     1      -1.352  -1.142  -4.625  1.00  0.00     0.261 C 
BRANCH   2   3
ATOM      3  O   UNL     1      -0.774  -2.345  -4.086  1.00  0.00    -0.463 OA
BRANCH   3   4
ATOM      4  C   UNL     1      -1.568  -3.123  -3.313  1.00  0.00     0.310 C 
ATOM      5  O   UNL     1      -2.734  -2.880  -3.022  1.00  0.00    -0.252 OA
BRANCH   4   6
ATOM      6  C   UNL     1      -0.854  -4.361  -2.796  1.00  0.00     0.119 C 
ATOM      7  N   UNL     1       1.086  -3.381  -1.642  1.00  0.00    -0.338 N 
ATOM      8  C   UNL     1       2.047  -4.117  -2.455  1.00  0.00     0.119 C 
ATOM      9  C   UNL     1      -0.199  -4.042  -1.451  1.00  0.00     0.135 C 
ATOM     10  C   UNL     1       1.497  -4.378  -3.849  1.00  0.00     0.022 C 
ATOM     11  C   UNL     1       0.121  -5.043  -3.774  1.00  0.00     0.019 C 
BRANCH   7  12
ATOM     12  C   UNL     1       1.306  -2.022  -1.426  1.00  0.00     0.266 C 
ATOM     13  O   UNL     1       2.024  -1.392  -2.211  1.00  0.00    -0.270 OA
BRANCH  12  14
ATOM     14  C   UNL     1       0.726  -1.352  -0.129  1.00  0.00     0.181 C 
ATOM     15  C   UNL     1       1.454   0.002   0.013  1.00  0.00     0.067 C 
ATOM     16  C   UNL     1       1.091  -2.250   1.071  1.00  0.00     0.067 C 
BRANCH  14  17
ATOM     17  O   UNL     1      -0.698  -1.158  -0.298  1.00  0.00    -0.478 OA
BRANCH  17  18
ATOM     18  C   UNL     1      -1.418  -0.855   0.828  1.00  0.00     0.121 A 
ATOM     19  C   UNL     1      -1.330   0.386   1.460  1.00  0.00     0.048 A 
ATOM     20  C   UNL     1      -2.330  -1.802   1.297  1.00  0.00     0.048 A 
ATOM     21  C   UNL     1      -2.067   0.639   2.620  1.00  0.00     0.024 A 
ATOM     22  C   UNL     1      -3.081  -1.546   2.448  1.00  0.00     0.024 A 
ATOM     23  C   UNL     1      -2.933  -0.332   3.116  1.00  0.00     0.041 A 
ATOM     24  Cl  UNL     1      -3.836  -0.026   4.548  1.00  0.00    -0.084 Cl
ENDBRANCH  17  18
ENDBRANCH  14  17
ENDBRANCH  12  14
ENDBRANCH   7  12
ENDBRANCH   4   6
ENDBRANCH   3   4
ENDBRANCH   2   3
ENDBRANCH   1   2
BRANCH   1  25
ATOM     25  O   UNL     1      -2.098  -2.035  -6.849  1.00  0.00    -0.374 OA
BRANCH  25  26
ATOM     26  C   UNL     1      -1.719  -3.409  -6.831  1.00  0.00     0.202 C 
BRANCH  26  27
ATOM     27  C   UNL     1      -0.623  -3.827  -7.820  1.00  0.00     0.261 C 
BRANCH  27  28
ATOM     28  O   UNL     1       0.637  -3.181  -7.564  1.00  0.00    -0.460 OA
BRANCH  28  29
ATOM     29  C   UNL     1       0.988  -2.253  -8.486  1.00  0.00     0.338 C 
ATOM     30  O   UNL     1       0.387  -1.981  -9.520  1.00  0.00    -0.246 OA
BRANCH  29  31
ATOM     31  C   UNL     1       2.143  -1.463  -8.024  1.00  0.00     0.060 A 
ATOM     32  C   UNL     1       2.017  -0.068  -8.046  1.00  0.00     0.016 A 
ATOM     33  C   UNL     1       3.358  -2.057  -7.675  1.00  0.00     0.016 A 
ATOM     34  C   UNL     1       3.118   0.739  -7.770  1.00  0.00     0.010 A 
ATOM     35  C   UNL     1       4.467  -1.243  -7.405  1.00  0.00     0.010 A 
ATOM     36  C   UNL     1       4.362   0.157  -7.489  1.00  0.00    -0.014 A 
BRANCH  36  37
ATOM     37  C   UNL     1       5.570   1.019  -7.428  1.00  0.00     0.031 A 
ATOM     38  C   UNL     1       6.470   1.104  -8.633  1.00  0.00     0.074 A 
ATOM     39  C   UNL     1       5.834   1.759  -6.335  1.00  0.00     0.049 A 
ATOM     40  N   UNL     1       7.580   1.777  -8.794  1.00  0.00    -0.248 NA
ATOM     41  C   UNL     1       6.063   0.327  -9.816  1.00  0.00     0.031 C 
ATOM     42  C   UNL     1       5.020   1.793  -5.121  1.00  0.00     0.029 A 
ATOM     43  N   UNL     1       6.868   2.623  -6.071  1.00  0.00    -0.354 N 
ATOM     44  C   UNL     1       8.004   1.508 -10.090  1.00  0.00     0.074 A 
ATOM     45  C   UNL     1       7.049   0.585 -10.664  1.00  0.00     0.031 C 
ATOM     46  C   UNL     1       5.590   2.630  -4.236  1.00  0.00     0.029 A 
ATOM     47  C   UNL     1       6.824   3.167  -4.809  1.00  0.00     0.049 A 
ATOM     48  H   UNL     1       7.574   2.834  -6.724  1.00  0.00     0.167 HD
ATOM     49  C   UNL     1       9.084   1.994 -10.747  1.00  0.00     0.037 A 
ATOM     50  C   UNL     1       7.691   3.986  -4.181  1.00  0.00     0.037 A 
ATOM     51  C   UNL     1      10.031   2.917 -10.176  1.00  0.00     0.049 A 
ATOM     52  C   UNL     1       8.921   4.463  -4.912  1.00  0.00     0.074 A 
ATOM     53  C   UNL     1      11.156   3.469 -10.765  1.00  0.00     0.029 A 
ATOM     54  N   UNL     1       9.965   3.425  -8.888  1.00  0.00    -0.354 N 
ATOM     55  N   UNL     1       9.303   4.207  -6.141  1.00  0.00    -0.248 NA
ATOM     56  C   UNL     1       9.838   5.342  -4.171  1.00  0.00     0.031 C 
ATOM     57  C   UNL     1      11.792   4.280  -9.819  1.00  0.00     0.029 A 
ATOM     58  C   UNL     1      11.038   4.270  -8.657  1.00  0.00     0.049 A 
ATOM     59  H   UNL     1       9.259   3.216  -8.233  1.00  0.00     0.167 HD
ATOM     60  C   UNL     1      10.486   4.914  -6.328  1.00  0.00     0.074 A 
ATOM     61  C   UNL     1      10.752   5.618  -5.091  1.00  0.00     0.031 C 
ATOM     62  C   UNL     1      11.282   4.976  -7.424  1.00  0.00     0.037 A 
BRANCH  49  63
ATOM     63  C   UNL     1       9.313   1.531 -12.158  1.00  0.00     0.058 A 
ATOM     64  C   UNL     1       8.523   1.995 -13.221  1.00  0.00     0.135 A 
ATOM     65  C   UNL     1      10.373   0.661 -12.461  1.00  0.00     0.135 A 
ATOM     66  F   UNL     1       7.485   2.814 -12.985  1.00  0.00    -0.206 F 
ATOM     67  C   UNL     1       8.768   1.604 -14.534  1.00  0.00     0.059 A 
ATOM     68  C   UNL     1      10.651   0.275 -13.768  1.00  0.00     0.059 A 
ATOM     69  F   UNL     1      11.158   0.186 -11.480  1.00  0.00    -0.206 F 
ATOM     70  C   UNL     1       9.837   0.745 -14.798  1.00  0.00     0.060 A 
BRANCH  70  71
ATOM     71  S   UNL     1      10.159   0.269 -16.509  1.00  0.00     0.124 S 
ATOM     72  O   UNL     1       9.057  -0.652 -16.768  1.00  0.00    -0.237 OA
ATOM     73  O   UNL     1      10.093   1.548 -17.208  1.00  0.00    -0.237 OA
ATOM     74  O   UNL     1      11.484  -0.340 -16.450  1.00  0.00    -0.744 OA
ENDBRANCH  70  71
ENDBRANCH  49  63
BRANCH  50  75
ATOM     75  C   UNL     1       7.450   4.392  -2.770  1.00  0.00     0.058 A 
ATOM     76  C   UNL     1       7.142   5.719  -2.435  1.00  0.00     0.135 A 
ATOM     77  C   UNL     1       7.555   3.463  -1.723  1.00  0.00     0.135 A 
ATOM     78  F   UNL     1       7.043   6.648  -3.399  1.00  0.00    -0.206 F 
ATOM     79  C   UNL     1       6.973   6.117  -1.112  1.00  0.00     0.059 A 
ATOM     80  C   UNL     1       7.364   3.830  -0.395  1.00  0.00     0.059 A 
ATOM     81  F   UNL     1       7.841   2.179  -1.989  1.00  0.00    -0.206 F 
ATOM     82  C   UNL     1       7.088   5.164  -0.099  1.00  0.00     0.060 A 
BRANCH  82  83
ATOM     83  S   UNL     1       6.847   5.681   1.615  1.00  0.00     0.124 S 
ATOM     84  O   UNL     1       8.102   6.368   1.894  1.00  0.00    -0.237 OA
ATOM     85  O   UNL     1       5.662   6.529   1.519  1.00  0.00    -0.237 OA
ATOM     86  O   UNL     1       6.647   4.419   2.320  1.00  0.00    -0.744 OA
ENDBRANCH  82  83
ENDBRANCH  50  75
BRANCH  62  87
ATOM     87  C   UNL     1      12.495   5.863  -7.356  1.00  0.00     0.058 A 
ATOM     88  C   UNL     1      13.629   5.505  -6.612  1.00  0.00     0.135 A 
ATOM     89  C   UNL     1      12.541   7.061  -8.088  1.00  0.00     0.135 A 
ATOM     90  F   UNL     1      13.635   4.373  -5.891  1.00  0.00    -0.206 F 
ATOM     91  C   UNL     1      14.760   6.315  -6.577  1.00  0.00     0.059 A 
ATOM     92  C   UNL     1      13.671   7.873  -8.089  1.00  0.00     0.059 A 
ATOM     93  F   UNL     1      11.487   7.444  -8.826  1.00  0.00    -0.206 F 
ATOM     94  C   UNL     1      14.772   7.498  -7.320  1.00  0.00     0.060 A 
BRANCH  94  95
ATOM     95  S   UNL     1      16.257   8.524  -7.294  1.00  0.00     0.124 S 
ATOM     96  O   UNL     1      16.163   9.145  -5.977  1.00  0.00    -0.237 OA
ATOM     97  O   UNL     1      17.322   7.539  -7.456  1.00  0.00    -0.237 OA
ATOM     98  O   UNL     1      16.068   9.425  -8.428  1.00  0.00    -0.744 OA
ENDBRANCH  94  95
ENDBRANCH  62  87
ENDBRANCH  36  37
ENDBRANCH  29  31
ENDBRANCH  28  29
ENDBRANCH  27  28
ENDBRANCH  26  27
ENDBRANCH  25  26
ENDBRANCH   1  25
TORSDOF 21
