REMARK SMILES COc1ccc(-c2cnc(N)c(C(=O)OCCOCCOC(=O)c3ccc(-c4c5nc(c(-c6c(F)cc(S(=O)(=O)[O-])cc6F)c6ccc([nH]6)c(-c6c(F)cc(S(=O)(=O)[O-])cc6F)c6nc(c(-c7c(F)cc(S(=O)(=O)[O-])cc7F)c7ccc4[nH]7)C=C6)C=C5)cc3)c2)c(C)c1
REMARK SMILES IDX 19 1 18 2 17 3 16 4 15 5 13 6 14 7 12 8 7 9 8 10 90 11 9 12
REMARK SMILES IDX 10 13 6 14 3 15 4 16 93 17 5 18 91 19 92 20 2 21 1 22 11 23
REMARK SMILES IDX 20 26 21 27 22 28 23 29 24 30 25 31 89 32 26 33 88 34 27 35
REMARK SMILES IDX 28 36 29 37 82 38 30 39 87 40 81 41 83 42 31 43 86 44 80 45
REMARK SMILES IDX 79 46 32 48 66 49 45 50 65 51 46 52 49 53 64 54 84 55 47 56
REMARK SMILES IDX 48 57 63 59 85 60 50 61 33 62 34 63 43 64 35 65 36 66 42 67
REMARK SMILES IDX 44 68 37 69 38 70 39 71 40 72 41 73 67 74 68 75 77 76 69 77
REMARK SMILES IDX 70 78 76 79 78 80 71 81 72 82 73 83 74 84 75 85 51 86 52 87
REMARK SMILES IDX 61 88 53 89 54 90 60 91 62 92 55 93 56 94 57 95 58 96 59 97
REMARK H PARENT 11 24 11 25 83 47 49 58
REMARK Flexibility Score: inf
ROOT
ATOM      1  C   UNL     1      -1.546   9.553  -2.096  1.00  0.00     0.202 C 
ENDROOT
BRANCH   1   2
ATOM      2  O   UNL     1      -0.393  10.106  -1.500  1.00  0.00    -0.374 OA
BRANCH   2   3
ATOM      3  C   UNL     1       0.254  11.144  -2.230  1.00  0.00     0.202 C 
BRANCH   3   4
ATOM      4  C   UNL     1       1.460  11.533  -1.426  1.00  0.00     0.261 C 
BRANCH   4   5
ATOM      5  O   UNL     1       2.449  10.486  -1.431  1.00  0.00    -0.460 OA
BRANCH   5   6
ATOM      6  C   UNL     1       2.244   9.374  -0.685  1.00  0.00     0.342 C 
ATOM      7  O   UNL     1       1.573   9.262   0.333  1.00  0.00    -0.246 OA
BRANCH   6   8
ATOM      8  C   UNL     1       2.742   8.208  -1.430  1.00  0.00     0.102 A 
ATOM      9  C   UNL     1       2.381   5.884  -1.967  1.00  0.00     0.001 A 
ATOM     10  C   UNL     1       3.237   6.098  -3.047  1.00  0.00     0.122 A 
ATOM     11  C   UNL     1       2.144   6.974  -1.139  1.00  0.00     0.030 A 
ATOM     12  N   UNL     1       3.877   7.260  -3.318  1.00  0.00    -0.238 NA
ATOM     13  C   UNL     1       3.632   8.305  -2.504  1.00  0.00     0.138 A 
BRANCH   9  14
ATOM     14  C   UNL     1       1.814   4.561  -1.704  1.00  0.00    -0.014 A 
ATOM     15  C   UNL     1       0.936   1.923  -1.241  1.00  0.00     0.119 A 
ATOM     16  C   UNL     1       2.278   2.243  -1.077  1.00  0.00     0.047 A 
ATOM     17  C   UNL     1       0.034   2.911  -1.638  1.00  0.00     0.050 A 
ATOM     18  C   UNL     1       2.707   3.549  -1.301  1.00  0.00     0.013 A 
ATOM     19  C   UNL     1       0.450   4.239  -1.857  1.00  0.00    -0.040 A 
ATOM     20  C   UNL     1      -0.611   5.240  -2.237  1.00  0.00     0.045 C 
BRANCH  15  21
ATOM     21  O   UNL     1       0.428   0.661  -1.092  1.00  0.00    -0.497 OA
ATOM     22  C   UNL     1       0.971  -0.053   0.017  1.00  0.00     0.278 C 
ENDBRANCH  15  21
ENDBRANCH   9  14
BRANCH  13  23
ATOM     23  N   UNL     1       4.385   9.430  -2.775  1.00  0.00    -0.383 N 
ATOM     24  H   UNL     1       4.995   9.440  -3.547  1.00  0.00     0.158 HD
ATOM     25  H   UNL     1       4.311  10.223  -2.196  1.00  0.00     0.158 HD
ENDBRANCH  13  23
ENDBRANCH   6   8
ENDBRANCH   5   6
ENDBRANCH   4   5
ENDBRANCH   3   4
ENDBRANCH   2   3
ENDBRANCH   1   2
BRANCH   1  26
ATOM     26  C   UNL     1      -2.615  10.589  -2.470  1.00  0.00     0.261 C 
BRANCH  26  27
ATOM     27  O   UNL     1      -3.277  11.107  -1.295  1.00  0.00    -0.460 OA
BRANCH  27  28
ATOM     28  C   UNL     1      -2.939  12.377  -0.914  1.00  0.00     0.338 C 
ATOM     29  O   UNL     1      -3.375  13.380  -1.448  1.00  0.00    -0.246 OA
BRANCH  28  30
ATOM     30  C   UNL     1      -2.012  12.339   0.255  1.00  0.00     0.060 A 
ATOM     31  C   UNL     1      -1.235  13.450   0.631  1.00  0.00     0.016 A 
ATOM     32  C   UNL     1      -1.787  11.113   0.866  1.00  0.00     0.016 A 
ATOM     33  C   UNL     1      -0.139  13.293   1.504  1.00  0.00     0.010 A 
ATOM     34  C   UNL     1      -0.652  10.943   1.625  1.00  0.00     0.010 A 
ATOM     35  C   UNL     1       0.200  12.017   1.943  1.00  0.00    -0.014 A 
BRANCH  35  36
ATOM     36  C   UNL     1       1.412  11.597   2.667  1.00  0.00     0.031 A 
ATOM     37  C   UNL     1       1.218  10.855   3.943  1.00  0.00     0.074 A 
ATOM     38  C   UNL     1       2.604  11.495   2.022  1.00  0.00     0.049 A 
ATOM     39  N   UNL     1       2.172  10.378   4.661  1.00  0.00    -0.248 NA
ATOM     40  C   UNL     1      -0.092  10.590   4.539  1.00  0.00     0.031 C 
ATOM     41  C   UNL     1       3.662  10.505   2.257  1.00  0.00     0.029 A 
ATOM     42  N   UNL     1       3.130  12.238   0.959  1.00  0.00    -0.354 N 
ATOM     43  C   UNL     1       1.634   9.450   5.525  1.00  0.00     0.074 A 
ATOM     44  C   UNL     1       0.222   9.724   5.507  1.00  0.00     0.031 C 
ATOM     45  C   UNL     1       4.780  10.863   1.601  1.00  0.00     0.029 A 
ATOM     46  C   UNL     1       4.531  12.173   1.033  1.00  0.00     0.049 A 
ATOM     47  H   UNL     1       2.608  12.723   0.278  1.00  0.00     0.167 HD
ATOM     48  C   UNL     1       2.468   8.489   6.024  1.00  0.00     0.037 A 
ATOM     49  C   UNL     1       5.267  13.305   1.198  1.00  0.00     0.037 A 
ATOM     50  C   UNL     1       3.862   8.806   5.663  1.00  0.00     0.049 A 
ATOM     51  C   UNL     1       5.952  13.225   2.531  1.00  0.00     0.074 A 
ATOM     52  C   UNL     1       4.775   8.253   4.782  1.00  0.00     0.029 A 
ATOM     53  N   UNL     1       4.386  10.046   6.035  1.00  0.00    -0.354 N 
ATOM     54  N   UNL     1       5.506  12.466   3.496  1.00  0.00    -0.248 NA
ATOM     55  C   UNL     1       7.228  13.850   2.859  1.00  0.00     0.031 C 
ATOM     56  C   UNL     1       5.809   9.211   4.567  1.00  0.00     0.029 A 
ATOM     57  C   UNL     1       5.538  10.337   5.332  1.00  0.00     0.049 A 
ATOM     58  H   UNL     1       3.985  10.637   6.712  1.00  0.00     0.167 HD
ATOM     59  C   UNL     1       6.424  12.407   4.495  1.00  0.00     0.074 A 
ATOM     60  C   UNL     1       7.465  13.330   4.078  1.00  0.00     0.031 C 
ATOM     61  C   UNL     1       6.268  11.581   5.569  1.00  0.00     0.037 A 
BRANCH  48  62
ATOM     62  C   UNL     1       2.061   7.168   6.676  1.00  0.00     0.058 A 
ATOM     63  C   UNL     1       3.046   6.203   7.000  1.00  0.00     0.135 A 
ATOM     64  C   UNL     1       0.742   6.743   6.956  1.00  0.00     0.135 A 
ATOM     65  F   UNL     1       4.351   6.443   6.808  1.00  0.00    -0.206 F 
ATOM     66  C   UNL     1       2.751   4.940   7.527  1.00  0.00     0.059 A 
ATOM     67  C   UNL     1       0.423   5.492   7.499  1.00  0.00     0.059 A 
ATOM     68  F   UNL     1      -0.327   7.502   6.713  1.00  0.00    -0.206 F 
ATOM     69  C   UNL     1       1.433   4.590   7.776  1.00  0.00     0.060 A 
BRANCH  69  70
ATOM     70  S   UNL     1       1.062   2.968   8.466  1.00  0.00     0.124 S 
ATOM     71  O   UNL     1       1.539   2.073   7.417  1.00  0.00    -0.237 OA
ATOM     72  O   UNL     1       1.840   2.974   9.700  1.00  0.00    -0.237 OA
ATOM     73  O   UNL     1      -0.388   2.995   8.646  1.00  0.00    -0.744 OA
ENDBRANCH  69  70
ENDBRANCH  48  62
BRANCH  49  74
ATOM     74  C   UNL     1       4.639  14.465   0.488  1.00  0.00     0.058 A 
ATOM     75  C   UNL     1       4.690  14.422  -0.926  1.00  0.00     0.135 A 
ATOM     76  C   UNL     1       3.575  15.181   1.060  1.00  0.00     0.135 A 
ATOM     77  F   UNL     1       5.681  13.752  -1.539  1.00  0.00    -0.206 F 
ATOM     78  C   UNL     1       3.646  14.895  -1.723  1.00  0.00     0.059 A 
ATOM     79  C   UNL     1       2.515  15.662   0.276  1.00  0.00     0.059 A 
ATOM     80  F   UNL     1       3.459  15.262   2.393  1.00  0.00    -0.206 F 
ATOM     81  C   UNL     1       2.529  15.451  -1.105  1.00  0.00     0.060 A 
BRANCH  81  82
ATOM     82  S   UNL     1       1.034  15.697  -2.106  1.00  0.00     0.124 S 
ATOM     83  O   UNL     1       1.444  16.769  -3.005  1.00  0.00    -0.237 OA
ATOM     84  O   UNL     1       0.863  14.385  -2.730  1.00  0.00    -0.237 OA
ATOM     85  O   UNL     1       0.021  16.048  -1.118  1.00  0.00    -0.744 OA
ENDBRANCH  81  82
ENDBRANCH  49  74
BRANCH  61  86
ATOM     86  C   UNL     1       6.879  11.848   6.917  1.00  0.00     0.058 A 
ATOM     87  C   UNL     1       7.324  13.120   7.320  1.00  0.00     0.135 A 
ATOM     88  C   UNL     1       6.875  10.854   7.924  1.00  0.00     0.135 A 
ATOM     89  F   UNL     1       7.242  14.188   6.514  1.00  0.00    -0.206 F 
ATOM     90  C   UNL     1       7.834  13.361   8.590  1.00  0.00     0.059 A 
ATOM     91  C   UNL     1       7.310  11.095   9.221  1.00  0.00     0.059 A 
ATOM     92  F   UNL     1       6.428   9.611   7.694  1.00  0.00    -0.206 F 
ATOM     93  C   UNL     1       7.831  12.339   9.531  1.00  0.00     0.060 A 
BRANCH  93  94
ATOM     94  S   UNL     1       8.503  12.659  11.164  1.00  0.00     0.124 S 
ATOM     95  O   UNL     1       9.935  12.521  10.912  1.00  0.00    -0.237 OA
ATOM     96  O   UNL     1       8.038  14.015  11.439  1.00  0.00    -0.237 OA
ATOM     97  O   UNL     1       7.902  11.617  11.989  1.00  0.00    -0.744 OA
ENDBRANCH  93  94
ENDBRANCH  61  86
ENDBRANCH  35  36
ENDBRANCH  28  30
ENDBRANCH  27  28
ENDBRANCH  26  27
ENDBRANCH   1  26
TORSDOF 20
