REMARK SMILES Cc1ccc(NC(=O)c2cnn3c2NC2=C(C(=O)CCC2)[C@H]3c2ccc(C(=O)OCCOCCOC(=O)c3ccc(-c4c5nc(c(-c6c(F)cc(S(=O)(=O)[O-])cc6F)c6ccc([nH]6)c(-c6c(F)cc(S(=O)(=O)[O-])cc6F)c6nc(c(-c7c(F)cc(S(=O)(=O)[O-])cc7F)c7ccc4[nH]7)C=C6)C=C5)cc3)cc2)cc1
REMARK SMILES IDX 32 1 31 2 30 3 29 4 27 5 28 6 26 7 23 8 24 9 105 10 25 11
REMARK SMILES IDX 104 12 22 13 9 14 10 15 13 16 11 17 12 18 14 19 15 20 16 22
REMARK SMILES IDX 21 23 17 24 20 25 18 26 19 27 7 28 6 29 8 31 5 32 1 33 2 34
REMARK SMILES IDX 3 35 107 36 4 37 106 38 33 39 34 40 35 41 36 42 37 43 38 44
REMARK SMILES IDX 39 45 103 46 40 47 102 48 41 49 42 50 43 51 96 52 44 53
REMARK SMILES IDX 101 54 95 55 97 56 45 57 100 58 94 59 93 60 46 62 80 63
REMARK SMILES IDX 59 64 79 65 60 66 63 67 78 68 98 69 61 70 62 71 77 73 99 74
REMARK SMILES IDX 64 75 47 76 48 77 57 78 49 79 50 80 56 81 58 82 51 83 52 84
REMARK SMILES IDX 53 85 54 86 55 87 81 88 82 89 91 90 83 91 84 92 90 93 92 94
REMARK SMILES IDX 85 95 86 96 87 97 88 98 89 99 65 100 66 101 75 102 67 103
REMARK SMILES IDX 68 104 74 105 76 106 69 107 70 108 71 109 72 110 73 111
REMARK H PARENT 14 21 6 30 97 61 63 72
REMARK Flexibility Score: inf
ROOT
ATOM      1  O   UNL     1       0.645  -6.452  -7.489  1.00  0.00    -0.374 OA
ENDROOT
BRANCH   1   2
ATOM      2  C   UNL     1       0.551  -5.181  -8.924  1.00  0.00     0.202 C 
BRANCH   2   3
ATOM      3  C   UNL     1      -0.046  -3.369  -8.213  1.00  0.00     0.261 C 
BRANCH   3   4
ATOM      4  O   UNL     1      -0.903  -3.835  -6.408  1.00  0.00    -0.460 OA
BRANCH   4   5
ATOM      5  C   UNL     1      -1.474  -5.000  -5.634  1.00  0.00     0.338 C 
ATOM      6  O   UNL     1      -2.046  -5.983  -6.141  1.00  0.00    -0.246 OA
BRANCH   5   7
ATOM      7  C   UNL     1      -1.340  -5.297  -4.207  1.00  0.00     0.060 A 
ATOM      8  C   UNL     1      -1.603  -6.104  -1.539  1.00  0.00    -0.019 A 
ATOM      9  C   UNL     1      -1.766  -7.064  -2.526  1.00  0.00     0.007 A 
ATOM     10  C   UNL     1      -1.011  -4.865  -1.911  1.00  0.00     0.007 A 
ATOM     11  C   UNL     1      -1.648  -6.650  -3.839  1.00  0.00     0.016 A 
ATOM     12  C   UNL     1      -0.951  -4.417  -3.238  1.00  0.00     0.016 A 
BRANCH   8  13
ATOM     13  C   UNL     1      -2.377  -6.252  -0.180  1.00  0.00     0.175 C 
ATOM     14  C   UNL     1      -3.593  -2.917  -0.104  1.00  0.00     0.102 A 
ATOM     15  C   UNL     1      -2.799  -3.031   1.080  1.00  0.00     0.151 A 
ATOM     16  C   UNL     1      -3.775  -4.231  -0.503  1.00  0.00     0.142 A 
ATOM     17  N   UNL     1      -2.277  -4.243   1.256  1.00  0.00    -0.178 NA
ATOM     18  N   UNL     1      -2.802  -4.914   0.225  1.00  0.00    -0.237 N 
ATOM     19  N   UNL     1      -4.523  -4.981  -1.396  1.00  0.00    -0.343 N 
ATOM     20  C   UNL     1      -4.558  -6.395  -1.275  1.00  0.00     0.026 C 
ATOM     21  H   UNL     1      -5.028  -4.534  -2.113  1.00  0.00     0.168 HD
ATOM     22  C   UNL     1      -3.716  -6.953  -0.370  1.00  0.00     0.044 C 
ATOM     23  C   UNL     1      -5.735  -7.237  -1.693  1.00  0.00     0.055 C 
ATOM     24  C   UNL     1      -4.528  -7.210   0.882  1.00  0.00     0.163 C 
ATOM     25  C   UNL     1      -6.598  -7.582  -0.475  1.00  0.00     0.014 C 
ATOM     26  O   UNL     1      -3.970  -7.456   1.948  1.00  0.00    -0.294 OA
ATOM     27  C   UNL     1      -6.041  -6.950   0.798  1.00  0.00     0.081 C 
BRANCH  14  28
ATOM     28  C   UNL     1      -4.104  -1.684  -0.660  1.00  0.00     0.261 C 
ATOM     29  N   UNL     1      -3.319  -0.534  -0.591  1.00  0.00    -0.322 N 
ATOM     30  H   UNL     1      -3.831   0.304  -0.652  1.00  0.00     0.170 HD
ATOM     31  O   UNL     1      -5.248  -1.603  -1.107  1.00  0.00    -0.269 OA
BRANCH  29  32
ATOM     32  C   UNL     1      -1.920  -0.346  -0.450  1.00  0.00     0.041 A 
ATOM     33  C   UNL     1       2.348   0.300   0.046  1.00  0.00     0.044 C 
ATOM     34  C   UNL     1       0.871   0.101  -0.133  1.00  0.00    -0.051 A 
ATOM     35  C   UNL     1       0.387  -1.157  -0.481  1.00  0.00     0.005 A 
ATOM     36  C   UNL     1      -0.049   1.141   0.037  1.00  0.00     0.005 A 
ATOM     37  C   UNL     1      -0.985  -1.351  -0.671  1.00  0.00     0.026 A 
ATOM     38  C   UNL     1      -1.430   0.920  -0.124  1.00  0.00     0.026 A 
ENDBRANCH  29  32
ENDBRANCH  14  28
ENDBRANCH   8  13
ENDBRANCH   5   7
ENDBRANCH   4   5
ENDBRANCH   3   4
ENDBRANCH   2   3
ENDBRANCH   1   2
BRANCH   1  39
ATOM     39  C   UNL     1       1.611  -6.007  -5.982  1.00  0.00     0.202 C 
BRANCH  39  40
ATOM     40  C   UNL     1       2.762  -4.424  -6.199  1.00  0.00     0.261 C 
BRANCH  40  41
ATOM     41  O   UNL     1       2.678  -3.312  -7.713  1.00  0.00    -0.460 OA
BRANCH  41  42
ATOM     42  C   UNL     1       2.364  -2.875  -9.302  1.00  0.00     0.338 C 
ATOM     43  O   UNL     1       2.901  -1.781  -9.567  1.00  0.00    -0.246 OA
BRANCH  42  44
ATOM     44  C   UNL     1       1.137  -3.282 -10.630  1.00  0.00     0.060 A 
ATOM     45  C   UNL     1       0.006  -2.472 -10.864  1.00  0.00     0.016 A 
ATOM     46  C   UNL     1       0.834  -4.490 -11.347  1.00  0.00     0.016 A 
ATOM     47  C   UNL     1      -1.400  -3.048 -11.001  1.00  0.00     0.010 A 
ATOM     48  C   UNL     1      -0.595  -5.080 -11.440  1.00  0.00     0.010 A 
ATOM     49  C   UNL     1      -1.725  -4.438 -10.890  1.00  0.00    -0.014 A 
BRANCH  49  50
ATOM     50  C   UNL     1      -3.140  -5.184 -10.067  1.00  0.00     0.031 A 
ATOM     51  C   UNL     1      -3.694  -6.284 -10.834  1.00  0.00     0.074 A 
ATOM     52  C   UNL     1      -3.821  -5.244  -8.750  1.00  0.00     0.049 A 
ATOM     53  N   UNL     1      -4.816  -6.296 -11.463  1.00  0.00    -0.248 NA
ATOM     54  C   UNL     1      -2.949  -7.538 -10.849  1.00  0.00     0.031 C 
ATOM     55  C   UNL     1      -5.150  -5.547  -8.161  1.00  0.00     0.029 A 
ATOM     56  N   UNL     1      -3.501  -4.776  -7.463  1.00  0.00    -0.354 N 
ATOM     57  C   UNL     1      -5.112  -7.641 -11.547  1.00  0.00     0.074 A 
ATOM     58  C   UNL     1      -3.823  -8.315 -11.489  1.00  0.00     0.031 C 
ATOM     59  C   UNL     1      -5.487  -4.625  -7.158  1.00  0.00     0.029 A 
ATOM     60  C   UNL     1      -4.311  -3.781  -6.910  1.00  0.00     0.049 A 
ATOM     61  H   UNL     1      -2.731  -5.137  -6.968  1.00  0.00     0.167 HD
ATOM     62  C   UNL     1      -6.313  -8.130 -11.091  1.00  0.00     0.037 A 
ATOM     63  C   UNL     1      -3.938  -2.416  -7.096  1.00  0.00     0.037 A 
ATOM     64  C   UNL     1      -7.083  -7.129 -10.296  1.00  0.00     0.049 A 
ATOM     65  C   UNL     1      -5.017  -2.061  -8.295  1.00  0.00     0.074 A 
ATOM     66  C   UNL     1      -7.704  -7.128  -9.049  1.00  0.00     0.029 A 
ATOM     67  N   UNL     1      -7.063  -5.778 -10.660  1.00  0.00    -0.354 N 
ATOM     68  N   UNL     1      -5.561  -2.997  -9.051  1.00  0.00    -0.248 NA
ATOM     69  C   UNL     1      -5.675  -0.781  -8.607  1.00  0.00     0.031 C 
ATOM     70  C   UNL     1      -8.079  -5.784  -8.710  1.00  0.00     0.029 A 
ATOM     71  C   UNL     1      -7.604  -4.938  -9.704  1.00  0.00     0.049 A 
ATOM     72  H   UNL     1      -6.699  -5.456 -11.516  1.00  0.00     0.167 HD
ATOM     73  C   UNL     1      -6.757  -2.610  -9.585  1.00  0.00     0.074 A 
ATOM     74  C   UNL     1      -6.668  -1.161  -9.455  1.00  0.00     0.031 C 
ATOM     75  C   UNL     1      -7.737  -3.502  -9.987  1.00  0.00     0.037 A 
BRANCH  62  76
ATOM     76  C   UNL     1      -6.652  -9.622 -11.167  1.00  0.00     0.058 A 
ATOM     77  C   UNL     1      -7.749 -10.185 -10.482  1.00  0.00     0.135 A 
ATOM     78  C   UNL     1      -5.985 -10.541 -12.017  1.00  0.00     0.135 A 
ATOM     79  F   UNL     1      -8.583  -9.442  -9.747  1.00  0.00    -0.206 F 
ATOM     80  C   UNL     1      -8.102 -11.535 -10.566  1.00  0.00     0.059 A 
ATOM     81  C   UNL     1      -6.280 -11.907 -12.076  1.00  0.00     0.059 A 
ATOM     82  F   UNL     1      -5.069 -10.135 -12.909  1.00  0.00    -0.206 F 
ATOM     83  C   UNL     1      -7.357 -12.395 -11.358  1.00  0.00     0.060 A 
BRANCH  83  84
ATOM     84  S   UNL     1      -7.893 -14.106 -11.531  1.00  0.00     0.124 S 
ATOM     85  O   UNL     1      -7.856 -14.581 -10.152  1.00  0.00    -0.237 OA
ATOM     86  O   UNL     1      -9.223 -13.948 -12.112  1.00  0.00    -0.237 OA
ATOM     87  O   UNL     1      -6.892 -14.691 -12.418  1.00  0.00    -0.744 OA
ENDBRANCH  83  84
ENDBRANCH  62  76
BRANCH  63  88
ATOM     88  C   UNL     1      -2.179  -2.224  -7.226  1.00  0.00     0.058 A 
ATOM     89  C   UNL     1      -0.735  -1.881  -6.334  1.00  0.00     0.135 A 
ATOM     90  C   UNL     1      -2.074  -3.457  -8.046  1.00  0.00     0.135 A 
ATOM     91  F   UNL     1      -0.759  -0.835  -5.487  1.00  0.00    -0.206 F 
ATOM     92  C   UNL     1       0.755  -2.921  -6.244  1.00  0.00     0.059 A 
ATOM     93  C   UNL     1      -0.991  -4.915  -7.849  1.00  0.00     0.059 A 
ATOM     94  F   UNL     1      -2.779  -3.191  -9.158  1.00  0.00    -0.206 F 
ATOM     95  C   UNL     1       0.755  -4.566  -7.085  1.00  0.00     0.060 A 
BRANCH  95  96
ATOM     96  S   UNL     1       2.676  -5.821  -8.106  1.00  0.00     0.124 S 
ATOM     97  O   UNL     1       3.478  -4.916  -8.925  1.00  0.00    -0.237 OA
ATOM     98  O   UNL     1       3.511  -6.443  -7.064  1.00  0.00    -0.237 OA
ATOM     99  O   UNL     1       2.181  -6.896  -9.002  1.00  0.00    -0.744 OA
ENDBRANCH  95  96
ENDBRANCH  63  88
BRANCH  75 100
ATOM    100  C   UNL     1      -9.013  -3.152 -10.717  1.00  0.00     0.058 A 
ATOM    101  C   UNL     1      -9.717  -1.960 -10.562  1.00  0.00     0.135 A 
ATOM    102  C   UNL     1      -9.590  -4.088 -11.624  1.00  0.00     0.135 A 
ATOM    103  F   UNL     1      -9.420  -1.100  -9.578  1.00  0.00    -0.206 F 
ATOM    104  C   UNL     1     -10.784  -1.630 -11.398  1.00  0.00     0.059 A 
ATOM    105  C   UNL     1     -10.677  -3.805 -12.425  1.00  0.00     0.059 A 
ATOM    106  F   UNL     1      -9.121  -5.330 -11.794  1.00  0.00    -0.206 F 
ATOM    107  C   UNL     1     -11.226  -2.545 -12.354  1.00  0.00     0.060 A 
BRANCH 107 108
ATOM    108  S   UNL     1     -12.523  -2.087 -13.503  1.00  0.00     0.124 S 
ATOM    109  O   UNL     1     -13.499  -1.450 -12.625  1.00  0.00    -0.237 OA
ATOM    110  O   UNL     1     -11.803  -1.197 -14.408  1.00  0.00    -0.237 OA
ATOM    111  O   UNL     1     -12.941  -3.362 -14.077  1.00  0.00    -0.744 OA
ENDBRANCH 107 108
ENDBRANCH  75 100
ENDBRANCH  49  50
ENDBRANCH  42  44
ENDBRANCH  41  42
ENDBRANCH  40  41
ENDBRANCH  39  40
ENDBRANCH   1  39
TORSDOF 20
