REMARK SMILES CO[C@@H]1C[NH2+][C@@H](O[C@@H]2C[C@@H](C(=O)OCCOCCOC(=O)c3ccc(-c4c5nc(c(-c6c(F)cc(S(=O)(=O)[O-])cc6F)c6ccc([nH]6)c(-c6c(F)cc(S(=O)(=O)[O-])cc6F)c6nc(c(-c7c(F)cc(S(=O)(=O)[O-])cc7F)c7ccc4[nH]7)C=C6)C=C5)cc3)N(C(=O)OC(C)(C)C)C2)c2cc(Cl)ccc21
REMARK SMILES IDX 16 1 15 2 14 3 13 4 11 5 12 6 10 7 8 8 9 9 96 10 88 11 7 12
REMARK SMILES IDX 6 13 3 14 4 15 103 16 5 17 97 18 102 19 98 22 101 23 99 24
REMARK SMILES IDX 100 25 2 26 1 27 89 28 90 29 91 30 92 31 93 32 94 33 95 34
REMARK SMILES IDX 17 35 18 36 19 37 20 38 21 39 22 40 23 41 87 42 24 43 86 44
REMARK SMILES IDX 25 45 26 46 27 47 80 48 28 49 85 50 79 51 81 52 29 53 84 54
REMARK SMILES IDX 78 55 77 56 30 58 64 59 43 60 63 61 44 62 47 63 62 64 82 65
REMARK SMILES IDX 45 66 46 67 61 69 83 70 48 71 31 72 32 73 41 74 33 75 34 76
REMARK SMILES IDX 40 77 42 78 35 79 36 80 37 81 38 82 39 83 65 84 66 85 75 86
REMARK SMILES IDX 67 87 68 88 74 89 76 90 69 91 70 92 71 93 72 94 73 95 49 96
REMARK SMILES IDX 50 97 59 98 51 99 52 100 58 101 60 102 53 103 54 104 55 105
REMARK SMILES IDX 56 106 57 107
REMARK H PARENT 5 20 5 21 81 57 47 68
REMARK Flexibility Score: inf
ROOT
ATOM      1  O   UNL     1      -3.367   2.383  -4.411  1.00  0.00    -0.374 OA
ENDROOT
BRANCH   1   2
ATOM      2  C   UNL     1      -3.329   1.216  -3.607  1.00  0.00     0.202 C 
BRANCH   2   3
ATOM      3  C   UNL     1      -2.122   0.326  -3.811  1.00  0.00     0.261 C 
BRANCH   3   4
ATOM      4  O   UNL     1      -0.878   1.004  -3.749  1.00  0.00    -0.462 OA
BRANCH   4   5
ATOM      5  C   UNL     1      -0.067   0.775  -4.823  1.00  0.00     0.329 C 
ATOM      6  O   UNL     1      -0.419   0.666  -5.988  1.00  0.00    -0.250 OA
BRANCH   5   7
ATOM      7  C   UNL     1       1.312   0.508  -4.270  1.00  0.00     0.201 C 
ATOM      8  C   UNL     1       3.661   0.801  -4.391  1.00  0.00     0.147 C 
ATOM      9  C   UNL     1       2.354   1.531  -4.687  1.00  0.00     0.071 C 
ATOM     10  C   UNL     1       3.336  -0.672  -4.694  1.00  0.00     0.156 C 
ATOM     11  N   UNL     1       1.890  -0.785  -4.580  1.00  0.00    -0.292 N 
BRANCH   8  12
ATOM     12  O   UNL     1       4.321   1.093  -3.165  1.00  0.00    -0.320 OA
BRANCH  12  13
ATOM     13  C   UNL     1       3.826   1.056  -1.829  1.00  0.00     0.354 C 
ATOM     14  C   UNL     1       1.279  -0.132  -0.836  1.00  0.00     0.203 C 
ATOM     15  C   UNL     1       2.567  -0.958  -1.136  1.00  0.00     0.300 C 
ATOM     16  C   UNL     1       1.444   1.379  -0.974  1.00  0.00    -0.002 A 
ATOM     17  N   UNL     1       3.838  -0.248  -1.208  1.00  0.00    -0.315 N 
ATOM     18  C   UNL     1       2.650   1.934  -1.453  1.00  0.00     0.046 A 
ATOM     19  C   UNL     1       0.359   2.228  -0.703  1.00  0.00     0.009 A 
ATOM     20  H   UNL     1       4.488  -0.833  -1.734  1.00  0.00     0.349 HD
ATOM     21  H   UNL     1       4.103  -0.078  -0.238  1.00  0.00     0.349 HD
ATOM     22  C   UNL     1       2.774   3.334  -1.543  1.00  0.00     0.033 A 
ATOM     23  C   UNL     1       0.488   3.612  -0.819  1.00  0.00     0.021 A 
ATOM     24  C   UNL     1       1.700   4.161  -1.219  1.00  0.00     0.041 A 
ATOM     25  Cl  UNL     1       1.871   5.870  -1.326  1.00  0.00    -0.084 Cl
BRANCH  14  26
ATOM     26  O   UNL     1       0.602  -0.547   0.353  1.00  0.00    -0.371 OA
ATOM     27  C   UNL     1       1.228  -0.176   1.569  1.00  0.00     0.196 C 
ENDBRANCH  14  26
ENDBRANCH  12  13
ENDBRANCH   8  12
BRANCH  11  28
ATOM     28  C   UNL     1       1.284  -2.017  -4.445  1.00  0.00     0.411 C 
ATOM     29  O   UNL     1       1.892  -3.056  -4.695  1.00  0.00    -0.224 OA
BRANCH  28  30
ATOM     30  O   UNL     1      -0.014  -1.969  -4.008  1.00  0.00    -0.444 OA
BRANCH  30  31
ATOM     31  C   UNL     1      -0.786  -3.212  -3.906  1.00  0.00     0.106 C 
ATOM     32  C   UNL     1      -0.974  -3.820  -5.301  1.00  0.00     0.056 C 
ATOM     33  C   UNL     1      -0.165  -4.181  -2.893  1.00  0.00     0.056 C 
ATOM     34  C   UNL     1      -2.199  -2.897  -3.368  1.00  0.00     0.056 C 
ENDBRANCH  30  31
ENDBRANCH  28  30
ENDBRANCH  11  28
ENDBRANCH   5   7
ENDBRANCH   4   5
ENDBRANCH   3   4
ENDBRANCH   2   3
ENDBRANCH   1   2
BRANCH   1  35
ATOM     35  C   UNL     1      -2.514   3.454  -4.006  1.00  0.00     0.202 C 
BRANCH  35  36
ATOM     36  C   UNL     1      -2.987   4.254  -2.786  1.00  0.00     0.261 C 
BRANCH  36  37
ATOM     37  O   UNL     1      -2.849   3.535  -1.541  1.00  0.00    -0.460 OA
BRANCH  37  38
ATOM     38  C   UNL     1      -4.008   3.102  -0.980  1.00  0.00     0.338 C 
ATOM     39  O   UNL     1      -5.134   3.246  -1.429  1.00  0.00    -0.246 OA
BRANCH  38  40
ATOM     40  C   UNL     1      -3.720   2.254   0.198  1.00  0.00     0.060 A 
ATOM     41  C   UNL     1      -2.932   2.723   1.250  1.00  0.00     0.016 A 
ATOM     42  C   UNL     1      -4.330   0.995   0.283  1.00  0.00     0.016 A 
ATOM     43  C   UNL     1      -2.791   1.944   2.405  1.00  0.00     0.010 A 
ATOM     44  C   UNL     1      -4.196   0.224   1.442  1.00  0.00     0.010 A 
ATOM     45  C   UNL     1      -3.450   0.705   2.528  1.00  0.00    -0.014 A 
BRANCH  45  46
ATOM     46  C   UNL     1      -3.486   0.005   3.842  1.00  0.00     0.031 A 
ATOM     47  C   UNL     1      -2.735  -1.272   4.087  1.00  0.00     0.074 A 
ATOM     48  C   UNL     1      -4.234   0.536   4.832  1.00  0.00     0.049 A 
ATOM     49  N   UNL     1      -2.610  -1.947   5.202  1.00  0.00    -0.248 NA
ATOM     50  C   UNL     1      -2.041  -1.872   2.939  1.00  0.00     0.031 C 
ATOM     51  C   UNL     1      -5.051   1.745   4.709  1.00  0.00     0.029 A 
ATOM     52  N   UNL     1      -4.423   0.140   6.134  1.00  0.00    -0.354 N 
ATOM     53  C   UNL     1      -1.802  -3.036   4.903  1.00  0.00     0.074 A 
ATOM     54  C   UNL     1      -1.512  -2.961   3.485  1.00  0.00     0.031 C 
ATOM     55  C   UNL     1      -5.621   2.013   5.894  1.00  0.00     0.029 A 
ATOM     56  C   UNL     1      -5.241   0.980   6.853  1.00  0.00     0.049 A 
ATOM     57  H   UNL     1      -4.013  -0.670   6.515  1.00  0.00     0.167 HD
ATOM     58  C   UNL     1      -1.327  -3.994   5.738  1.00  0.00     0.037 A 
ATOM     59  C   UNL     1      -5.640   0.933   8.140  1.00  0.00     0.037 A 
ATOM     60  C   UNL     1      -1.637  -4.081   7.145  1.00  0.00     0.049 A 
ATOM     61  C   UNL     1      -5.144  -0.173   9.031  1.00  0.00     0.074 A 
ATOM     62  C   UNL     1      -1.170  -4.999   8.072  1.00  0.00     0.029 A 
ATOM     63  N   UNL     1      -2.502  -3.238   7.828  1.00  0.00    -0.354 N 
ATOM     64  N   UNL     1      -4.311  -1.146   8.750  1.00  0.00    -0.248 NA
ATOM     65  C   UNL     1      -5.640  -0.187  10.415  1.00  0.00     0.031 C 
ATOM     66  C   UNL     1      -1.795  -4.748   9.297  1.00  0.00     0.029 A 
ATOM     67  C   UNL     1      -2.608  -3.636   9.153  1.00  0.00     0.049 A 
ATOM     68  H   UNL     1      -2.972  -2.470   7.431  1.00  0.00     0.167 HD
ATOM     69  C   UNL     1      -4.167  -1.875   9.926  1.00  0.00     0.074 A 
ATOM     70  C   UNL     1      -4.984  -1.220  10.926  1.00  0.00     0.031 C 
ATOM     71  C   UNL     1      -3.426  -2.988  10.150  1.00  0.00     0.037 A 
BRANCH  58  72
ATOM     72  C   UNL     1      -0.400  -5.031   5.162  1.00  0.00     0.058 A 
ATOM     73  C   UNL     1       0.911  -4.704   4.780  1.00  0.00     0.135 A 
ATOM     74  C   UNL     1      -0.790  -6.378   5.071  1.00  0.00     0.135 A 
ATOM     75  F   UNL     1       1.336  -3.432   4.838  1.00  0.00    -0.206 F 
ATOM     76  C   UNL     1       1.795  -5.671   4.311  1.00  0.00     0.059 A 
ATOM     77  C   UNL     1       0.087  -7.366   4.630  1.00  0.00     0.059 A 
ATOM     78  F   UNL     1      -2.030  -6.748   5.429  1.00  0.00    -0.206 F 
ATOM     79  C   UNL     1       1.375  -7.000   4.244  1.00  0.00     0.060 A 
BRANCH  79  80
ATOM     80  S   UNL     1       2.544  -8.238   3.644  1.00  0.00     0.124 S 
ATOM     81  O   UNL     1       2.679  -7.855   2.241  1.00  0.00    -0.237 OA
ATOM     82  O   UNL     1       3.712  -7.992   4.482  1.00  0.00    -0.237 OA
ATOM     83  O   UNL     1       1.856  -9.503   3.883  1.00  0.00    -0.744 OA
ENDBRANCH  79  80
ENDBRANCH  58  72
BRANCH  59  84
ATOM     84  C   UNL     1      -6.540   1.992   8.672  1.00  0.00     0.058 A 
ATOM     85  C   UNL     1      -6.075   2.931   9.605  1.00  0.00     0.135 A 
ATOM     86  C   UNL     1      -7.872   2.101   8.244  1.00  0.00     0.135 A 
ATOM     87  F   UNL     1      -4.811   2.862  10.053  1.00  0.00    -0.206 F 
ATOM     88  C   UNL     1      -6.899   3.935  10.101  1.00  0.00     0.059 A 
ATOM     89  C   UNL     1      -8.708   3.114   8.704  1.00  0.00     0.059 A 
ATOM     90  F   UNL     1      -8.362   1.235   7.343  1.00  0.00    -0.206 F 
ATOM     91  C   UNL     1      -8.213   4.022   9.638  1.00  0.00     0.060 A 
BRANCH  91  92
ATOM     92  S   UNL     1      -9.254   5.365  10.249  1.00  0.00     0.124 S 
ATOM     93  O   UNL     1      -9.443   4.982  11.643  1.00  0.00    -0.237 OA
ATOM     94  O   UNL     1      -8.409   6.533  10.015  1.00  0.00    -0.237 OA
ATOM     95  O   UNL     1     -10.442   5.281   9.405  1.00  0.00    -0.744 OA
ENDBRANCH  91  92
ENDBRANCH  59  84
BRANCH  71  96
ATOM     96  C   UNL     1      -3.449  -3.578  11.537  1.00  0.00     0.058 A 
ATOM     97  C   UNL     1      -4.583  -4.238  12.038  1.00  0.00     0.135 A 
ATOM     98  C   UNL     1      -2.304  -3.541  12.351  1.00  0.00     0.135 A 
ATOM     99  F   UNL     1      -5.708  -4.297  11.308  1.00  0.00    -0.206 F 
ATOM    100  C   UNL     1      -4.587  -4.824  13.300  1.00  0.00     0.059 A 
ATOM    101  C   UNL     1      -2.276  -4.147  13.605  1.00  0.00     0.059 A 
ATOM    102  F   UNL     1      -1.188  -2.930  11.921  1.00  0.00    -0.206 F 
ATOM    103  C   UNL     1      -3.426  -4.779  14.074  1.00  0.00     0.060 A 
BRANCH 103 104
ATOM    104  S   UNL     1      -3.436  -5.583  15.691  1.00  0.00     0.124 S 
ATOM    105  O   UNL     1      -4.334  -4.715  16.447  1.00  0.00    -0.237 OA
ATOM    106  O   UNL     1      -3.955  -6.910  15.374  1.00  0.00    -0.237 OA
ATOM    107  O   UNL     1      -2.036  -5.545  16.102  1.00  0.00    -0.744 OA
ENDBRANCH 103 104
ENDBRANCH  71  96
ENDBRANCH  45  46
ENDBRANCH  38  40
ENDBRANCH  37  38
ENDBRANCH  36  37
ENDBRANCH  35  36
ENDBRANCH   1  35
TORSDOF 23
