REMARK SMILES C[C@@H](C(=O)OCCOCCOC(=O)c1ccc(-c2c3nc(c(-c4c(F)cc(S(=O)(=O)[O-])cc4F)c4ccc([nH]4)c(-c4c(F)cc(S(=O)(=O)[O-])cc4F)c4nc(c(-c5c(F)cc(S(=O)(=O)[O-])cc5F)c5ccc2[nH]5)C=C4)C=C3)cc1)c1cc(/C=C/S(C)(=O)=O)cc(C(=O)c2ccccc2)c1
REMARK SMILES IDX 8 1 7 2 6 3 5 4 3 5 4 6 2 7 1 8 80 9 81 10 99 11 82 12 90 13
REMARK SMILES IDX 89 14 83 15 84 16 85 17 86 18 87 19 88 20 91 21 92 22 93 23
REMARK SMILES IDX 94 24 98 25 95 26 97 27 96 28 9 29 10 30 11 31 12 32 13 33
REMARK SMILES IDX 14 34 15 35 79 36 16 37 78 38 17 39 18 40 19 41 72 42 20 43
REMARK SMILES IDX 77 44 71 45 73 46 21 47 76 48 70 49 69 50 22 52 56 53 35 54
REMARK SMILES IDX 55 55 36 56 39 57 54 58 74 59 37 60 38 61 53 63 75 64 40 65
REMARK SMILES IDX 23 66 24 67 33 68 25 69 26 70 32 71 34 72 27 73 28 74 29 75
REMARK SMILES IDX 30 76 31 77 57 78 58 79 67 80 59 81 60 82 66 83 68 84 61 85
REMARK SMILES IDX 62 86 63 87 64 88 65 89 41 90 42 91 51 92 43 93 44 94 50 95
REMARK SMILES IDX 52 96 45 97 46 98 47 99 48 100 49 101
REMARK H PARENT 73 51 39 62
REMARK Flexibility Score: inf
ROOT
ATOM      1  O   UNL     1       1.574  -3.895  -2.845  1.00  0.00    -0.374 OA
ENDROOT
BRANCH   1   2
ATOM      2  C   UNL     1       2.730  -3.147  -3.235  1.00  0.00     0.202 C 
BRANCH   2   3
ATOM      3  C   UNL     1       2.481  -1.758  -3.834  1.00  0.00     0.261 C 
BRANCH   3   4
ATOM      4  O   UNL     1       2.094  -0.828  -2.803  1.00  0.00    -0.463 OA
BRANCH   4   5
ATOM      5  C   UNL     1       0.879  -0.234  -2.947  1.00  0.00     0.313 C 
ATOM      6  O   UNL     1       0.188  -0.304  -3.956  1.00  0.00    -0.252 OA
BRANCH   5   7
ATOM      7  C   UNL     1       0.462   0.533  -1.690  1.00  0.00     0.126 C 
ATOM      8  C   UNL     1       1.227   0.197  -0.405  1.00  0.00     0.025 C 
BRANCH   7   9
ATOM      9  C   UNL     1      -1.041   0.429  -1.425  1.00  0.00    -0.033 A 
ATOM     10  C   UNL     1      -1.773   1.610  -1.263  1.00  0.00     0.012 A 
ATOM     11  C   UNL     1      -1.721  -0.797  -1.323  1.00  0.00     0.016 A 
ATOM     12  C   UNL     1      -3.147   1.595  -0.986  1.00  0.00    -0.024 A 
ATOM     13  C   UNL     1      -3.097  -0.845  -1.071  1.00  0.00     0.023 A 
ATOM     14  C   UNL     1      -3.802   0.357  -0.910  1.00  0.00     0.020 A 
BRANCH  12  15
ATOM     15  C   UNL     1      -3.912   2.832  -0.749  1.00  0.00     0.020 C 
ATOM     16  C   UNL     1      -3.348   4.041  -0.604  1.00  0.00     0.106 C 
BRANCH  16  17
ATOM     17  S   UNL     1      -4.301   5.425  -0.186  1.00  0.00     0.168 S 
ATOM     18  C   UNL     1      -3.418   5.998   1.247  1.00  0.00     0.163 C 
ATOM     19  O   UNL     1      -4.136   6.426  -1.222  1.00  0.00    -0.225 OA
ATOM     20  O   UNL     1      -5.623   5.023   0.255  1.00  0.00    -0.225 OA
ENDBRANCH  16  17
ENDBRANCH  12  15
BRANCH  13  21
ATOM     21  C   UNL     1      -3.858  -2.131  -1.016  1.00  0.00     0.193 C 
ATOM     22  O   UNL     1      -5.085  -2.125  -1.070  1.00  0.00    -0.289 OA
BRANCH  21  23
ATOM     23  C   UNL     1      -3.181  -3.442  -0.916  1.00  0.00     0.022 A 
ATOM     24  C   UNL     1      -3.360  -4.372  -1.947  1.00  0.00     0.012 A 
ATOM     25  C   UNL     1      -2.429  -3.779   0.214  1.00  0.00     0.012 A 
ATOM     26  C   UNL     1      -2.745  -5.624  -1.869  1.00  0.00     0.001 A 
ATOM     27  C   UNL     1      -1.834  -5.042   0.295  1.00  0.00     0.001 A 
ATOM     28  C   UNL     1      -1.979  -5.956  -0.752  1.00  0.00     0.000 A 
ENDBRANCH  21  23
ENDBRANCH  13  21
ENDBRANCH   7   9
ENDBRANCH   5   7
ENDBRANCH   4   5
ENDBRANCH   3   4
ENDBRANCH   2   3
ENDBRANCH   1   2
BRANCH   1  29
ATOM     29  C   UNL     1       0.863  -3.430  -1.706  1.00  0.00     0.202 C 
BRANCH  29  30
ATOM     30  C   UNL     1       1.337  -3.886  -0.325  1.00  0.00     0.261 C 
BRANCH  30  31
ATOM     31  O   UNL     1       2.728  -3.638  -0.129  1.00  0.00    -0.460 OA
BRANCH  31  32
ATOM     32  C   UNL     1       3.492  -4.739  -0.316  1.00  0.00     0.338 C 
ATOM     33  O   UNL     1       3.110  -5.890  -0.479  1.00  0.00    -0.246 OA
BRANCH  32  34
ATOM     34  C   UNL     1       4.888  -4.329  -0.493  1.00  0.00     0.060 A 
ATOM     35  C   UNL     1       5.535  -4.775  -1.651  1.00  0.00     0.016 A 
ATOM     36  C   UNL     1       5.555  -3.558   0.461  1.00  0.00     0.016 A 
ATOM     37  C   UNL     1       6.881  -4.501  -1.833  1.00  0.00     0.010 A 
ATOM     38  C   UNL     1       6.912  -3.291   0.280  1.00  0.00     0.010 A 
ATOM     39  C   UNL     1       7.584  -3.799  -0.846  1.00  0.00    -0.014 A 
BRANCH  39  40
ATOM     40  C   UNL     1       9.058  -3.752  -0.919  1.00  0.00     0.031 A 
ATOM     41  C   UNL     1       9.847  -4.719  -0.083  1.00  0.00     0.074 A 
ATOM     42  C   UNL     1       9.668  -2.896  -1.756  1.00  0.00     0.049 A 
ATOM     43  N   UNL     1      11.142  -4.855   0.024  1.00  0.00    -0.248 NA
ATOM     44  C   UNL     1       9.072  -5.659   0.746  1.00  0.00     0.031 C 
ATOM     45  C   UNL     1       8.986  -1.952  -2.641  1.00  0.00     0.029 A 
ATOM     46  N   UNL     1      10.999  -2.684  -1.996  1.00  0.00    -0.354 N 
ATOM     47  C   UNL     1      11.338  -5.884   0.937  1.00  0.00     0.074 A 
ATOM     48  C   UNL     1      10.031  -6.319   1.377  1.00  0.00     0.031 C 
ATOM     49  C   UNL     1       9.909  -1.256  -3.327  1.00  0.00     0.029 A 
ATOM     50  C   UNL     1      11.240  -1.682  -2.904  1.00  0.00     0.049 A 
ATOM     51  H   UNL     1      11.715  -3.200  -1.560  1.00  0.00     0.167 HD
ATOM     52  C   UNL     1      12.505  -6.420   1.361  1.00  0.00     0.037 A 
ATOM     53  C   UNL     1      12.408  -1.159  -3.326  1.00  0.00     0.037 A 
ATOM     54  C   UNL     1      13.796  -5.977   0.906  1.00  0.00     0.049 A 
ATOM     55  C   UNL     1      13.694  -1.731  -2.791  1.00  0.00     0.074 A 
ATOM     56  C   UNL     1      15.044  -6.463   1.251  1.00  0.00     0.029 A 
ATOM     57  N   UNL     1      14.005  -4.936   0.011  1.00  0.00    -0.354 N 
ATOM     58  N   UNL     1      13.869  -2.719  -1.945  1.00  0.00    -0.248 NA
ATOM     59  C   UNL     1      14.942  -1.121  -3.269  1.00  0.00     0.031 C 
ATOM     60  C   UNL     1      16.009  -5.679   0.610  1.00  0.00     0.029 A 
ATOM     61  C   UNL     1      15.362  -4.744  -0.184  1.00  0.00     0.049 A 
ATOM     62  H   UNL     1      13.292  -4.411  -0.420  1.00  0.00     0.167 HD
ATOM     63  C   UNL     1      15.246  -2.869  -1.813  1.00  0.00     0.074 A 
ATOM     64  C   UNL     1      15.855  -1.876  -2.674  1.00  0.00     0.031 C 
ATOM     65  C   UNL     1      15.944  -3.750  -1.052  1.00  0.00     0.037 A 
BRANCH  52  66
ATOM     66  C   UNL     1      12.440  -7.516   2.389  1.00  0.00     0.058 A 
ATOM     67  C   UNL     1      11.963  -8.800   2.081  1.00  0.00     0.135 A 
ATOM     68  C   UNL     1      12.889  -7.283   3.700  1.00  0.00     0.135 A 
ATOM     69  F   UNL     1      11.501  -9.073   0.850  1.00  0.00    -0.206 F 
ATOM     70  C   UNL     1      11.911  -9.807   3.040  1.00  0.00     0.059 A 
ATOM     71  C   UNL     1      12.873  -8.283   4.667  1.00  0.00     0.059 A 
ATOM     72  F   UNL     1      13.348  -6.072   4.051  1.00  0.00    -0.206 F 
ATOM     73  C   UNL     1      12.370  -9.538   4.331  1.00  0.00     0.060 A 
BRANCH  73  74
ATOM     74  S   UNL     1      12.303 -10.857   5.563  1.00  0.00     0.124 S 
ATOM     75  O   UNL     1      10.868 -10.947   5.814  1.00  0.00    -0.237 OA
ATOM     76  O   UNL     1      12.894 -11.982   4.846  1.00  0.00    -0.237 OA
ATOM     77  O   UNL     1      13.101 -10.332   6.667  1.00  0.00    -0.744 OA
ENDBRANCH  73  74
ENDBRANCH  52  66
BRANCH  53  78
ATOM     78  C   UNL     1      12.410  -0.033  -4.297  1.00  0.00     0.058 A 
ATOM     79  C   UNL     1      12.879  -0.206  -5.607  1.00  0.00     0.135 A 
ATOM     80  C   UNL     1      11.933   1.237  -3.936  1.00  0.00     0.135 A 
ATOM     81  F   UNL     1      13.352  -1.399  -5.998  1.00  0.00    -0.206 F 
ATOM     82  C   UNL     1      12.890   0.843  -6.521  1.00  0.00     0.059 A 
ATOM     83  C   UNL     1      11.909   2.294  -4.839  1.00  0.00     0.059 A 
ATOM     84  F   UNL     1      11.460   1.452  -2.698  1.00  0.00    -0.206 F 
ATOM     85  C   UNL     1      12.399   2.089  -6.128  1.00  0.00     0.060 A 
BRANCH  85  86
ATOM     86  S   UNL     1      12.373   3.430  -7.337  1.00  0.00     0.124 S 
ATOM     87  O   UNL     1      13.790   3.753  -7.448  1.00  0.00    -0.237 OA
ATOM     88  O   UNL     1      11.770   2.782  -8.497  1.00  0.00    -0.237 OA
ATOM     89  O   UNL     1      11.542   4.444  -6.693  1.00  0.00    -0.744 OA
ENDBRANCH  85  86
ENDBRANCH  53  78
BRANCH  65  90
ATOM     90  C   UNL     1      17.445  -3.705  -1.145  1.00  0.00     0.058 A 
ATOM     91  C   UNL     1      18.190  -2.658  -0.583  1.00  0.00     0.135 A 
ATOM     92  C   UNL     1      18.147  -4.757  -1.757  1.00  0.00     0.135 A 
ATOM     93  F   UNL     1      17.568  -1.626   0.008  1.00  0.00    -0.206 F 
ATOM     94  C   UNL     1      19.580  -2.641  -0.647  1.00  0.00     0.059 A 
ATOM     95  C   UNL     1      19.537  -4.777  -1.804  1.00  0.00     0.059 A 
ATOM     96  F   UNL     1      17.482  -5.790  -2.299  1.00  0.00    -0.206 F 
ATOM     97  C   UNL     1      20.244  -3.708  -1.257  1.00  0.00     0.060 A 
BRANCH  97  98
ATOM     98  S   UNL     1      22.048  -3.689  -1.303  1.00  0.00     0.124 S 
ATOM     99  O   UNL     1      22.306  -2.662  -2.306  1.00  0.00    -0.237 OA
ATOM    100  O   UNL     1      22.391  -3.335   0.071  1.00  0.00    -0.237 OA
ATOM    101  O   UNL     1      22.392  -5.052  -1.697  1.00  0.00    -0.744 OA
ENDBRANCH  97  98
ENDBRANCH  65  90
ENDBRANCH  39  40
ENDBRANCH  32  34
ENDBRANCH  31  32
ENDBRANCH  30  31
ENDBRANCH  29  30
ENDBRANCH   1  29
TORSDOF 22
