REMARK SMILES Cc1oc2cc3c(cc2c1C)[C@H](C)[C@@H](CC(=O)N[C@H](CC1=c2ccccc2=NC1)C(=O)OCCOCCOC(=O)c1ccc(-c2c4nc(c(-c5c(F)cc(S(=O)(=O)[O-])cc5F)c5ccc([nH]5)c(-c5c(F)cc(S(=O)(=O)[O-])cc5F)c5nc(c(-c6c(F)cc(S(=O)(=O)[O-])cc6F)c6ccc2[nH]6)C=C5)C=C4)cc1)C(=O)O3
REMARK SMILES IDX 35 1 34 2 33 3 32 4 30 5 31 6 19 7 18 8 16 9 17 10 15 12
REMARK SMILES IDX 14 13 1 14 2 15 3 16 10 17 4 18 9 19 11 20 5 21 8 22 6 23
REMARK SMILES IDX 7 24 109 25 12 26 107 27 13 28 108 29 20 30 21 31 22 32
REMARK SMILES IDX 29 33 23 34 27 35 28 36 24 37 26 38 25 39 36 40 37 41 38 42
REMARK SMILES IDX 39 43 40 44 41 45 42 46 106 47 43 48 105 49 44 50 45 51
REMARK SMILES IDX 46 52 99 53 47 54 104 55 98 56 100 57 48 58 103 59 97 60
REMARK SMILES IDX 96 61 49 63 83 64 62 65 82 66 63 67 66 68 81 69 101 70 64 71
REMARK SMILES IDX 65 72 80 74 102 75 67 76 50 77 51 78 60 79 52 80 53 81 59 82
REMARK SMILES IDX 61 83 54 84 55 85 56 86 57 87 58 88 84 89 85 90 94 91 86 92
REMARK SMILES IDX 87 93 93 94 95 95 88 96 89 97 90 98 91 99 92 100 68 101
REMARK SMILES IDX 69 102 78 103 70 104 71 105 77 106 79 107 72 108 73 109
REMARK SMILES IDX 74 110 75 111 76 112
REMARK H PARENT 18 11 100 62 66 73
REMARK Flexibility Score: inf
ROOT
ATOM      1  O   UNL     1       1.552   0.289  13.882  1.00  0.00    -0.374 OA
ENDROOT
BRANCH   1   2
ATOM      2  C   UNL     1       0.800   1.493  13.833  1.00  0.00     0.202 C 
BRANCH   2   3
ATOM      3  C   UNL     1       0.030   1.966  12.568  1.00  0.00     0.261 C 
BRANCH   3   4
ATOM      4  O   UNL     1      -0.637   0.959  11.777  1.00  0.00    -0.462 OA
BRANCH   4   5
ATOM      5  C   UNL     1      -1.509   1.411  10.825  1.00  0.00     0.329 C 
ATOM      6  O   UNL     1      -1.929   2.564  10.782  1.00  0.00    -0.250 OA
BRANCH   5   7
ATOM      7  C   UNL     1      -1.812   0.360   9.701  1.00  0.00     0.196 C 
BRANCH   7   8
ATOM      8  N   UNL     1      -1.786   1.188   8.467  1.00  0.00    -0.342 N 
ATOM      9  C   UNL     1      -0.743   1.538   7.657  1.00  0.00     0.221 C 
ATOM     10  O   UNL     1      -0.879   2.539   6.951  1.00  0.00    -0.275 OA
ATOM     11  H   UNL     1      -2.661   1.540   8.188  1.00  0.00     0.164 HD
BRANCH   9  12
ATOM     12  C   UNL     1       0.521   0.689   7.524  1.00  0.00     0.116 C 
BRANCH  12  13
ATOM     13  C   UNL     1       1.639   0.989   8.538  1.00  0.00     0.116 C 
ATOM     14  C   UNL     1       8.192  -1.877  13.198  1.00  0.00     0.088 C 
ATOM     15  C   UNL     1       7.211  -1.384  12.210  1.00  0.00     0.105 A 
ATOM     16  O   UNL     1       6.052  -0.922  12.739  1.00  0.00    -0.461 OA
ATOM     17  C   UNL     1       7.193  -1.268  10.828  1.00  0.00    -0.002 A 
ATOM     18  C   UNL     1       5.285  -0.500  11.707  1.00  0.00     0.138 A 
ATOM     19  C   UNL     1       5.923  -0.696  10.491  1.00  0.00     0.024 A 
ATOM     20  C   UNL     1       8.266  -1.643   9.883  1.00  0.00     0.049 C 
ATOM     21  C   UNL     1       4.025   0.036  11.850  1.00  0.00     0.095 A 
ATOM     22  C   UNL     1       5.244  -0.326   9.300  1.00  0.00     0.020 A 
ATOM     23  C   UNL     1       3.366   0.340  10.663  1.00  0.00     0.138 A 
ATOM     24  C   UNL     1       3.944   0.209   9.382  1.00  0.00    -0.001 A 
ATOM     25  O   UNL     1       2.042   0.713  10.817  1.00  0.00    -0.426 OA
ATOM     26  C   UNL     1       3.078   0.517   8.137  1.00  0.00     0.035 C 
ATOM     27  C   UNL     1       1.440   0.135   9.744  1.00  0.00     0.315 C 
ATOM     28  C   UNL     1       3.759   1.523   7.215  1.00  0.00     0.014 C 
ATOM     29  O   UNL     1       1.032  -1.018   9.710  1.00  0.00    -0.251 OA
ENDBRANCH  12  13
ENDBRANCH   9  12
ENDBRANCH   7   8
BRANCH   7  30
ATOM     30  C   UNL     1      -3.138  -0.481   9.823  1.00  0.00     0.070 C 
BRANCH  30  31
ATOM     31  C   UNL     1      -3.133  -1.754  10.731  1.00  0.00    -0.037 C 
ATOM     32  C   UNL     1      -2.630  -2.962  10.356  1.00  0.00     0.001 A 
ATOM     33  C   UNL     1      -2.527  -1.437  12.057  1.00  0.00     0.174 C 
ATOM     34  C   UNL     1      -2.898  -4.272  11.017  1.00  0.00     0.010 A 
ATOM     35  C   UNL     1      -1.237  -2.656  10.809  1.00  0.00     0.065 A 
ATOM     36  N   UNL     1      -1.138  -1.837  11.807  1.00  0.00    -0.280 NA
ATOM     37  C   UNL     1      -1.877  -5.152  11.171  1.00  0.00     0.001 A 
ATOM     38  C   UNL     1      -0.207  -3.599  10.349  1.00  0.00     0.028 A 
ATOM     39  C   UNL     1      -0.562  -4.868  10.602  1.00  0.00     0.002 A 
ENDBRANCH  30  31
ENDBRANCH   7  30
ENDBRANCH   5   7
ENDBRANCH   4   5
ENDBRANCH   3   4
ENDBRANCH   2   3
ENDBRANCH   1   2
BRANCH   1  40
ATOM     40  C   UNL     1       0.833  -0.918  13.652  1.00  0.00     0.202 C 
BRANCH  40  41
ATOM     41  C   UNL     1      -0.315  -1.250  14.631  1.00  0.00     0.261 C 
BRANCH  41  42
ATOM     42  O   UNL     1      -1.370  -0.268  14.578  1.00  0.00    -0.460 OA
BRANCH  42  43
ATOM     43  C   UNL     1      -1.880   0.126  15.776  1.00  0.00     0.338 C 
ATOM     44  O   UNL     1      -1.744  -0.398  16.851  1.00  0.00    -0.246 OA
BRANCH  43  45
ATOM     45  C   UNL     1      -2.449   1.475  15.565  1.00  0.00     0.060 A 
ATOM     46  C   UNL     1      -3.725   1.675  15.043  1.00  0.00     0.016 A 
ATOM     47  C   UNL     1      -1.633   2.562  15.883  1.00  0.00     0.016 A 
ATOM     48  C   UNL     1      -4.197   2.986  14.886  1.00  0.00     0.010 A 
ATOM     49  C   UNL     1      -2.061   3.853  15.622  1.00  0.00     0.010 A 
ATOM     50  C   UNL     1      -3.374   4.083  15.200  1.00  0.00    -0.014 A 
BRANCH  50  51
ATOM     51  C   UNL     1      -3.976   5.428  15.375  1.00  0.00     0.031 A 
ATOM     52  C   UNL     1      -3.418   6.186  16.557  1.00  0.00     0.074 A 
ATOM     53  C   UNL     1      -4.478   6.148  14.351  1.00  0.00     0.049 A 
ATOM     54  N   UNL     1      -2.308   6.870  16.528  1.00  0.00    -0.248 NA
ATOM     55  C   UNL     1      -3.902   5.917  17.913  1.00  0.00     0.031 C 
ATOM     56  C   UNL     1      -3.792   6.314  13.065  1.00  0.00     0.029 A 
ATOM     57  N   UNL     1      -5.470   7.105  14.341  1.00  0.00    -0.354 N 
ATOM     58  C   UNL     1      -1.923   7.094  17.843  1.00  0.00     0.074 A 
ATOM     59  C   UNL     1      -2.945   6.482  18.665  1.00  0.00     0.031 C 
ATOM     60  C   UNL     1      -4.272   7.424  12.466  1.00  0.00     0.029 A 
ATOM     61  C   UNL     1      -5.376   7.973  13.255  1.00  0.00     0.049 A 
ATOM     62  H   UNL     1      -6.171   7.169  15.030  1.00  0.00     0.167 HD
ATOM     63  C   UNL     1      -0.792   7.763  18.201  1.00  0.00     0.037 A 
ATOM     64  C   UNL     1      -5.755   9.283  13.283  1.00  0.00     0.037 A 
ATOM     65  C   UNL     1      -0.020   8.304  17.123  1.00  0.00     0.049 A 
ATOM     66  C   UNL     1      -4.559   9.899  13.966  1.00  0.00     0.074 A 
ATOM     67  C   UNL     1       1.128   8.010  16.420  1.00  0.00     0.029 A 
ATOM     68  N   UNL     1      -0.474   9.472  16.556  1.00  0.00    -0.354 N 
ATOM     69  N   UNL     1      -3.409  10.182  13.412  1.00  0.00    -0.248 NA
ATOM     70  C   UNL     1      -4.531   9.839  15.430  1.00  0.00     0.031 C 
ATOM     71  C   UNL     1       1.016   8.736  15.188  1.00  0.00     0.029 A 
ATOM     72  C   UNL     1      -0.210   9.399  15.213  1.00  0.00     0.049 A 
ATOM     73  H   UNL     1      -0.907  10.220  17.026  1.00  0.00     0.167 HD
ATOM     74  C   UNL     1      -2.464  10.053  14.434  1.00  0.00     0.074 A 
ATOM     75  C   UNL     1      -3.225   9.869  15.652  1.00  0.00     0.031 C 
ATOM     76  C   UNL     1      -1.123   9.914  14.216  1.00  0.00     0.037 A 
BRANCH  63  77
ATOM     77  C   UNL     1      -0.477   8.181  19.585  1.00  0.00     0.058 A 
ATOM     78  C   UNL     1      -0.840   9.484  19.964  1.00  0.00     0.135 A 
ATOM     79  C   UNL     1       0.336   7.445  20.454  1.00  0.00     0.135 A 
ATOM     80  F   UNL     1      -1.608  10.227  19.149  1.00  0.00    -0.206 F 
ATOM     81  C   UNL     1      -0.380  10.060  21.137  1.00  0.00     0.059 A 
ATOM     82  C   UNL     1       0.803   8.000  21.649  1.00  0.00     0.059 A 
ATOM     83  F   UNL     1       0.721   6.200  20.133  1.00  0.00    -0.206 F 
ATOM     84  C   UNL     1       0.457   9.316  21.968  1.00  0.00     0.060 A 
BRANCH  84  85
ATOM     85  S   UNL     1       1.102  10.125  23.448  1.00  0.00     0.124 S 
ATOM     86  O   UNL     1       1.891  11.212  22.877  1.00  0.00    -0.237 OA
ATOM     87  O   UNL     1      -0.125  10.523  24.131  1.00  0.00    -0.237 OA
ATOM     88  O   UNL     1       1.869   9.072  24.105  1.00  0.00    -0.744 OA
ENDBRANCH  84  85
ENDBRANCH  63  77
BRANCH  64  89
ATOM     89  C   UNL     1      -7.177   9.546  13.687  1.00  0.00     0.058 A 
ATOM     90  C   UNL     1      -8.194   8.837  13.012  1.00  0.00     0.135 A 
ATOM     91  C   UNL     1      -7.608  10.420  14.698  1.00  0.00     0.135 A 
ATOM     92  F   UNL     1      -7.897   8.088  11.937  1.00  0.00    -0.206 F 
ATOM     93  C   UNL     1      -9.521   8.850  13.432  1.00  0.00     0.059 A 
ATOM     94  C   UNL     1      -8.928  10.432  15.157  1.00  0.00     0.059 A 
ATOM     95  F   UNL     1      -6.756  11.265  15.294  1.00  0.00    -0.206 F 
ATOM     96  C   UNL     1      -9.867   9.607  14.546  1.00  0.00     0.060 A 
BRANCH  96  97
ATOM     97  S   UNL     1     -11.531   9.425  15.219  1.00  0.00     0.124 S 
ATOM     98  O   UNL     1     -12.361   9.899  14.118  1.00  0.00    -0.237 OA
ATOM     99  O   UNL     1     -11.584   7.989  15.484  1.00  0.00    -0.237 OA
ATOM    100  O   UNL     1     -11.512  10.274  16.406  1.00  0.00    -0.744 OA
ENDBRANCH  96  97
ENDBRANCH  64  89
BRANCH  76 101
ATOM    101  C   UNL     1      -0.662  10.110  12.811  1.00  0.00     0.058 A 
ATOM    102  C   UNL     1      -0.702  11.386  12.232  1.00  0.00     0.135 A 
ATOM    103  C   UNL     1      -0.118   9.062  12.049  1.00  0.00     0.135 A 
ATOM    104  F   UNL     1      -1.197  12.428  12.921  1.00  0.00    -0.206 F 
ATOM    105  C   UNL     1      -0.194  11.623  10.960  1.00  0.00     0.059 A 
ATOM    106  C   UNL     1       0.421   9.282  10.783  1.00  0.00     0.059 A 
ATOM    107  F   UNL     1      -0.070   7.811  12.536  1.00  0.00    -0.206 F 
ATOM    108  C   UNL     1       0.384  10.569  10.250  1.00  0.00     0.060 A 
BRANCH 108 109
ATOM    109  S   UNL     1       1.159  10.929   8.661  1.00  0.00     0.124 S 
ATOM    110  O   UNL     1       0.006  11.223   7.816  1.00  0.00    -0.237 OA
ATOM    111  O   UNL     1       2.013  12.069   8.983  1.00  0.00    -0.237 OA
ATOM    112  O   UNL     1       1.875   9.697   8.339  1.00  0.00    -0.744 OA
ENDBRANCH 108 109
ENDBRANCH  76 101
ENDBRANCH  50  51
ENDBRANCH  43  45
ENDBRANCH  42  43
ENDBRANCH  41  42
ENDBRANCH  40  41
ENDBRANCH   1  40
TORSDOF 22
