REMARK SMILES CCN(Cc1ccccn1)C(=O)[C@H]([NH3+])CCC(=O)OCCOCCOC(=O)c1ccc(-c2c3nc(c(-c4c(F)cc(S(=O)(=O)[O-])cc4F)c4ccc([nH]4)c(-c4c(F)cc(S(=O)(=O)[O-])cc4F)c4nc(c(-c5c(F)cc(S(=O)(=O)[O-])cc5F)c5ccc2[nH]5)C=C4)C=C3)cc1
REMARK SMILES IDX 20 1 19 2 17 3 18 4 16 5 15 6 13 7 11 8 12 9 3 10 2 11 1 12
REMARK SMILES IDX 4 13 5 14 6 15 10 16 7 17 9 18 8 19 14 20 21 24 22 25 23 26
REMARK SMILES IDX 24 27 25 28 26 29 27 30 28 31 29 32 93 33 30 34 92 35 31 36
REMARK SMILES IDX 32 37 33 38 86 39 34 40 91 41 85 42 87 43 35 44 90 45 84 46
REMARK SMILES IDX 83 47 36 49 70 50 49 51 69 52 50 53 53 54 68 55 88 56 51 57
REMARK SMILES IDX 52 58 67 60 89 61 54 62 37 63 38 64 47 65 39 66 40 67 46 68
REMARK SMILES IDX 48 69 41 70 42 71 43 72 44 73 45 74 71 75 72 76 81 77 73 78
REMARK SMILES IDX 74 79 80 80 82 81 75 82 76 83 77 84 78 85 79 86 55 87 56 88
REMARK SMILES IDX 65 89 57 90 58 91 64 92 66 93 59 94 60 95 61 96 62 97 63 98
REMARK H PARENT 14 21 14 22 14 23 87 48 53 59
REMARK Flexibility Score: inf
ROOT
ATOM      1  C   UNL     1       6.017   0.503  -4.172  1.00  0.00     0.261 C 
ENDROOT
BRANCH   1   2
ATOM      2  O   UNL     1       4.737  -0.161  -4.190  1.00  0.00    -0.463 OA
BRANCH   2   3
ATOM      3  C   UNL     1       3.753   0.513  -4.844  1.00  0.00     0.306 C 
ATOM      4  O   UNL     1       3.922   1.539  -5.494  1.00  0.00    -0.252 OA
BRANCH   3   5
ATOM      5  C   UNL     1       2.372  -0.062  -4.632  1.00  0.00     0.129 C 
BRANCH   5   6
ATOM      6  C   UNL     1       2.183  -1.579  -4.623  1.00  0.00     0.087 C 
BRANCH   6   7
ATOM      7  C   UNL     1       2.690  -2.364  -3.397  1.00  0.00     0.271 C 
BRANCH   7   8
ATOM      8  C   UNL     1       1.793  -3.633  -3.189  1.00  0.00     0.281 C 
ATOM      9  O   UNL     1       0.568  -3.490  -3.070  1.00  0.00    -0.268 OA
BRANCH   8  10
ATOM     10  N   UNL     1       2.369  -4.891  -3.067  1.00  0.00    -0.332 N 
BRANCH  10  11
ATOM     11  C   UNL     1       1.566  -5.981  -2.517  1.00  0.00     0.116 C 
ATOM     12  C   UNL     1       1.571  -5.940  -0.993  1.00  0.00     0.027 C 
ENDBRANCH  10  11
BRANCH  10  13
ATOM     13  C   UNL     1       3.763  -5.208  -3.342  1.00  0.00     0.175 C 
BRANCH  13  14
ATOM     14  C   UNL     1       4.084  -5.633  -4.763  1.00  0.00     0.060 A 
ATOM     15  C   UNL     1       3.156  -5.603  -5.802  1.00  0.00     0.026 A 
ATOM     16  N   UNL     1       5.378  -5.988  -4.982  1.00  0.00    -0.259 NA
ATOM     17  C   UNL     1       3.575  -5.918  -7.096  1.00  0.00     0.004 A 
ATOM     18  C   UNL     1       5.759  -6.292  -6.243  1.00  0.00     0.111 A 
ATOM     19  C   UNL     1       4.902  -6.259  -7.326  1.00  0.00     0.020 A 
ENDBRANCH  13  14
ENDBRANCH  10  13
ENDBRANCH   8  10
ENDBRANCH   7   8
BRANCH   7  20
ATOM     20  N   UNL     1       2.623  -1.611  -2.135  1.00  0.00    -0.347 N 
ATOM     21  H   UNL     1       1.651  -1.387  -1.923  1.00  0.00     0.345 HD
ATOM     22  H   UNL     1       3.159  -0.748  -2.225  1.00  0.00     0.345 HD
ATOM     23  H   UNL     1       3.014  -2.176  -1.381  1.00  0.00     0.345 HD
ENDBRANCH   7  20
ENDBRANCH   6   7
ENDBRANCH   5   6
ENDBRANCH   3   5
ENDBRANCH   2   3
ENDBRANCH   1   2
BRANCH   1  24
ATOM     24  C   UNL     1       7.138  -0.153  -4.992  1.00  0.00     0.202 C 
BRANCH  24  25
ATOM     25  O   UNL     1       6.894  -0.504  -6.347  1.00  0.00    -0.374 OA
BRANCH  25  26
ATOM     26  C   UNL     1       5.857  -1.430  -6.623  1.00  0.00     0.202 C 
BRANCH  26  27
ATOM     27  C   UNL     1       5.911  -2.838  -6.017  1.00  0.00     0.261 C 
BRANCH  27  28
ATOM     28  O   UNL     1       6.319  -2.947  -4.646  1.00  0.00    -0.460 OA
BRANCH  28  29
ATOM     29  C   UNL     1       7.536  -3.524  -4.460  1.00  0.00     0.338 C 
ATOM     30  O   UNL     1       8.350  -3.824  -5.327  1.00  0.00    -0.246 OA
BRANCH  29  31
ATOM     31  C   UNL     1       7.818  -3.665  -3.019  1.00  0.00     0.060 A 
ATOM     32  C   UNL     1       8.892  -2.977  -2.455  1.00  0.00     0.016 A 
ATOM     33  C   UNL     1       7.077  -4.551  -2.238  1.00  0.00     0.016 A 
ATOM     34  C   UNL     1       9.214  -3.181  -1.108  1.00  0.00     0.010 A 
ATOM     35  C   UNL     1       7.353  -4.704  -0.878  1.00  0.00     0.010 A 
ATOM     36  C   UNL     1       8.448  -4.046  -0.304  1.00  0.00    -0.014 A 
BRANCH  36  37
ATOM     37  C   UNL     1       8.825  -4.293   1.115  1.00  0.00     0.031 A 
ATOM     38  C   UNL     1       9.296  -5.657   1.560  1.00  0.00     0.074 A 
ATOM     39  C   UNL     1       8.745  -3.288   2.008  1.00  0.00     0.049 A 
ATOM     40  N   UNL     1       9.719  -6.041   2.739  1.00  0.00    -0.248 NA
ATOM     41  C   UNL     1       9.267  -6.736   0.560  1.00  0.00     0.031 C 
ATOM     42  C   UNL     1       8.236  -1.945   1.721  1.00  0.00     0.029 A 
ATOM     43  N   UNL     1       9.097  -3.232   3.333  1.00  0.00    -0.354 N 
ATOM     44  C   UNL     1      10.000  -7.399   2.623  1.00  0.00     0.074 A 
ATOM     45  C   UNL     1       9.646  -7.785   1.275  1.00  0.00     0.031 C 
ATOM     46  C   UNL     1       8.347  -1.187   2.824  1.00  0.00     0.029 A 
ATOM     47  C   UNL     1       8.915  -1.993   3.902  1.00  0.00     0.049 A 
ATOM     48  H   UNL     1       9.446  -4.007   3.831  1.00  0.00     0.167 HD
ATOM     49  C   UNL     1      10.530  -8.241   3.544  1.00  0.00     0.037 A 
ATOM     50  C   UNL     1       9.188  -1.551   5.145  1.00  0.00     0.037 A 
ATOM     51  C   UNL     1      10.907  -7.846   4.877  1.00  0.00     0.049 A 
ATOM     52  C   UNL     1       9.825  -2.489   6.133  1.00  0.00     0.074 A 
ATOM     53  C   UNL     1      11.493  -8.610   5.871  1.00  0.00     0.029 A 
ATOM     54  N   UNL     1      10.740  -6.572   5.400  1.00  0.00    -0.354 N 
ATOM     55  N   UNL     1      10.144  -3.752   5.982  1.00  0.00    -0.248 NA
ATOM     56  C   UNL     1      10.152  -1.939   7.456  1.00  0.00     0.031 C 
ATOM     57  C   UNL     1      11.658  -7.805   7.004  1.00  0.00     0.029 A 
ATOM     58  C   UNL     1      11.207  -6.530   6.704  1.00  0.00     0.049 A 
ATOM     59  H   UNL     1      10.347  -5.810   4.917  1.00  0.00     0.167 HD
ATOM     60  C   UNL     1      10.726  -4.143   7.183  1.00  0.00     0.074 A 
ATOM     61  C   UNL     1      10.732  -2.977   8.043  1.00  0.00     0.031 C 
ATOM     62  C   UNL     1      11.208  -5.358   7.543  1.00  0.00     0.037 A 
BRANCH  49  63
ATOM     63  C   UNL     1      10.755  -9.673   3.133  1.00  0.00     0.058 A 
ATOM     64  C   UNL     1      11.761 -10.023   2.217  1.00  0.00     0.135 A 
ATOM     65  C   UNL     1       9.983 -10.710   3.682  1.00  0.00     0.135 A 
ATOM     66  F   UNL     1      12.522  -9.072   1.653  1.00  0.00    -0.206 F 
ATOM     67  C   UNL     1      11.971 -11.345   1.834  1.00  0.00     0.059 A 
ATOM     68  C   UNL     1      10.193 -12.042   3.333  1.00  0.00     0.059 A 
ATOM     69  F   UNL     1       9.011 -10.435   4.565  1.00  0.00    -0.206 F 
ATOM     70  C   UNL     1      11.179 -12.348   2.395  1.00  0.00     0.060 A 
BRANCH  70  71
ATOM     71  S   UNL     1      11.460 -14.057   1.885  1.00  0.00     0.124 S 
ATOM     72  O   UNL     1      10.852 -14.068   0.558  1.00  0.00    -0.237 OA
ATOM     73  O   UNL     1      12.916 -14.159   1.915  1.00  0.00    -0.237 OA
ATOM     74  O   UNL     1      10.760 -14.835   2.903  1.00  0.00    -0.744 OA
ENDBRANCH  70  71
ENDBRANCH  49  63
BRANCH  50  75
ATOM     75  C   UNL     1       8.903  -0.137   5.506  1.00  0.00     0.058 A 
ATOM     76  C   UNL     1       9.942   0.789   5.676  1.00  0.00     0.135 A 
ATOM     77  C   UNL     1       7.586   0.321   5.665  1.00  0.00     0.135 A 
ATOM     78  F   UNL     1      11.218   0.397   5.538  1.00  0.00    -0.206 F 
ATOM     79  C   UNL     1       9.689   2.116   6.005  1.00  0.00     0.059 A 
ATOM     80  C   UNL     1       7.306   1.649   5.972  1.00  0.00     0.059 A 
ATOM     81  F   UNL     1       6.556  -0.522   5.495  1.00  0.00    -0.206 F 
ATOM     82  C   UNL     1       8.366   2.538   6.149  1.00  0.00     0.060 A 
BRANCH  82  83
ATOM     83  S   UNL     1       8.042   4.276   6.518  1.00  0.00     0.124 S 
ATOM     84  O   UNL     1       8.361   4.338   7.939  1.00  0.00    -0.237 OA
ATOM     85  O   UNL     1       8.972   4.960   5.624  1.00  0.00    -0.237 OA
ATOM     86  O   UNL     1       6.631   4.431   6.177  1.00  0.00    -0.744 OA
ENDBRANCH  82  83
ENDBRANCH  50  75
BRANCH  62  87
ATOM     87  C   UNL     1      11.801  -5.481   8.918  1.00  0.00     0.058 A 
ATOM     88  C   UNL     1      10.993  -5.520  10.064  1.00  0.00     0.135 A 
ATOM     89  C   UNL     1      13.190  -5.593   9.087  1.00  0.00     0.135 A 
ATOM     90  F   UNL     1       9.659  -5.411   9.955  1.00  0.00    -0.206 F 
ATOM     91  C   UNL     1      11.543  -5.641  11.335  1.00  0.00     0.059 A 
ATOM     92  C   UNL     1      13.761  -5.737  10.347  1.00  0.00     0.059 A 
ATOM     93  F   UNL     1      14.005  -5.571   8.021  1.00  0.00    -0.206 F 
ATOM     94  C   UNL     1      12.929  -5.746  11.467  1.00  0.00     0.060 A 
BRANCH  94  95
ATOM     95  S   UNL     1      13.633  -5.922  13.120  1.00  0.00     0.124 S 
ATOM     96  O   UNL     1      13.552  -4.554  13.620  1.00  0.00    -0.237 OA
ATOM     97  O   UNL     1      12.729  -6.881  13.748  1.00  0.00    -0.237 OA
ATOM     98  O   UNL     1      14.982  -6.419  12.863  1.00  0.00    -0.744 OA
ENDBRANCH  94  95
ENDBRANCH  62  87
ENDBRANCH  36  37
ENDBRANCH  29  31
ENDBRANCH  28  29
ENDBRANCH  27  28
ENDBRANCH  26  27
ENDBRANCH  25  26
ENDBRANCH  24  25
ENDBRANCH   1  24
TORSDOF 25
