REMARK SMILES COc1ccc(CCN2C(=O)CC[C@@H](C(=O)OCCOCCOC(=O)c3ccc(-c4c5nc(c(-c6c(F)cc(S(=O)(=O)[O-])cc6F)c6ccc([nH]6)c(-c6c(F)cc(S(=O)(=O)[O-])cc6F)c6nc(c(-c7c(F)cc(S(=O)(=O)[O-])cc7F)c7ccc4[nH]7)C=C6)C=C5)cc3)[C@@H]2c2ccc(Cl)cc2)cc1OC
REMARK SMILES IDX 19 1 18 2 17 3 15 4 16 5 14 6 9 7 10 8 92 9 11 10 12 11
REMARK SMILES IDX 13 12 8 13 7 14 6 15 3 16 4 17 101 18 5 19 100 20 2 21 1 22
REMARK SMILES IDX 102 23 103 24 93 25 94 26 99 27 95 28 98 29 96 30 97 31
REMARK SMILES IDX 20 32 21 33 22 34 23 35 24 36 25 37 26 38 27 39 91 40 28 41
REMARK SMILES IDX 90 42 29 43 30 44 31 45 84 46 32 47 89 48 83 49 85 50 33 51
REMARK SMILES IDX 88 52 82 53 81 54 34 56 68 57 47 58 67 59 48 60 51 61 66 62
REMARK SMILES IDX 86 63 49 64 50 65 65 67 87 68 52 69 35 70 36 71 45 72 37 73
REMARK SMILES IDX 38 74 44 75 46 76 39 77 40 78 41 79 42 80 43 81 69 82 70 83
REMARK SMILES IDX 79 84 71 85 72 86 78 87 80 88 73 89 74 90 75 91 76 92 77 93
REMARK SMILES IDX 53 94 54 95 63 96 55 97 56 98 62 99 64 100 57 101 58 102
REMARK SMILES IDX 59 103 60 104 61 105
REMARK H PARENT 85 55 51 66
REMARK Flexibility Score: inf
ROOT
ATOM      1  C   UNL     1      -2.806   3.478   1.851  1.00  0.00     0.202 C 
ENDROOT
BRANCH   1   2
ATOM      2  C   UNL     1      -2.184   4.566   2.779  1.00  0.00     0.261 C 
BRANCH   2   3
ATOM      3  O   UNL     1      -1.762   4.150   4.091  1.00  0.00    -0.463 OA
BRANCH   3   4
ATOM      4  C   UNL     1      -2.722   4.204   5.034  1.00  0.00     0.311 C 
ATOM      5  O   UNL     1      -3.895   4.470   4.788  1.00  0.00    -0.252 OA
BRANCH   4   6
ATOM      6  C   UNL     1      -2.243   4.008   6.469  1.00  0.00     0.127 C 
ATOM      7  N   UNL     1       0.304   4.185   6.591  1.00  0.00    -0.334 N 
ATOM      8  C   UNL     1       0.220   5.559   6.843  1.00  0.00     0.223 C 
ATOM      9  C   UNL     1      -0.885   3.323   6.779  1.00  0.00     0.129 C 
ATOM     10  O   UNL     1       1.212   6.262   7.041  1.00  0.00    -0.275 OA
ATOM     11  C   UNL     1      -1.142   6.221   6.776  1.00  0.00     0.101 C 
ATOM     12  C   UNL     1      -2.310   5.349   7.181  1.00  0.00     0.028 C 
BRANCH   7  13
ATOM     13  C   UNL     1       1.701   3.644   6.536  1.00  0.00     0.125 C 
BRANCH  13  14
ATOM     14  C   UNL     1       2.070   2.302   5.842  1.00  0.00     0.057 C 
BRANCH  14  15
ATOM     15  C   UNL     1       1.889   2.266   4.344  1.00  0.00    -0.042 A 
ATOM     16  C   UNL     1       1.332   2.405   1.537  1.00  0.00     0.160 A 
ATOM     17  C   UNL     1       0.383   2.594   2.493  1.00  0.00     0.051 A 
ATOM     18  C   UNL     1       2.484   1.788   2.005  1.00  0.00     0.160 A 
ATOM     19  C   UNL     1       0.625   2.391   3.840  1.00  0.00     0.008 A 
ATOM     20  C   UNL     1       2.852   1.950   3.389  1.00  0.00     0.054 A 
BRANCH  16  21
ATOM     21  O   UNL     1       1.142   2.795   0.245  1.00  0.00    -0.493 OA
ATOM     22  C   UNL     1      -0.079   2.442  -0.413  1.00  0.00     0.278 C 
ENDBRANCH  16  21
BRANCH  18  23
ATOM     23  O   UNL     1       2.996   0.554   1.479  1.00  0.00    -0.493 OA
ATOM     24  C   UNL     1       3.297  -1.119   0.441  1.00  0.00     0.278 C 
ENDBRANCH  18  23
ENDBRANCH  14  15
ENDBRANCH  13  14
ENDBRANCH   7  13
BRANCH   9  25
ATOM     25  C   UNL     1      -0.956   2.631   8.149  1.00  0.00    -0.024 A 
ATOM     26  C   UNL     1      -0.285   3.085   9.292  1.00  0.00     0.007 A 
ATOM     27  C   UNL     1      -1.755   1.471   8.259  1.00  0.00     0.007 A 
ATOM     28  C   UNL     1      -0.390   2.385  10.500  1.00  0.00     0.021 A 
ATOM     29  C   UNL     1      -1.875   0.786   9.467  1.00  0.00     0.021 A 
ATOM     30  C   UNL     1      -1.183   1.242  10.582  1.00  0.00     0.041 A 
ATOM     31  Cl  UNL     1      -1.310   0.387  12.069  1.00  0.00    -0.084 Cl
ENDBRANCH   9  25
ENDBRANCH   4   6
ENDBRANCH   3   4
ENDBRANCH   2   3
ENDBRANCH   1   2
BRANCH   1  32
ATOM     32  O   UNL     1      -3.489   2.341   2.369  1.00  0.00    -0.374 OA
BRANCH  32  33
ATOM     33  C   UNL     1      -2.784   1.312   3.079  1.00  0.00     0.202 C 
BRANCH  33  34
ATOM     34  C   UNL     1      -2.183   0.086   2.306  1.00  0.00     0.261 C 
BRANCH  34  35
ATOM     35  O   UNL     1      -0.736   0.134   2.136  1.00  0.00    -0.460 OA
BRANCH  35  36
ATOM     36  C   UNL     1      -0.142  -0.721   1.243  1.00  0.00     0.338 C 
ATOM     37  O   UNL     1      -0.711  -1.539   0.555  1.00  0.00    -0.246 OA
BRANCH  36  38
ATOM     38  C   UNL     1       1.332  -0.468   1.160  1.00  0.00     0.060 A 
ATOM     39  C   UNL     1       2.045   0.435  -0.255  1.00  0.00     0.016 A 
ATOM     40  C   UNL     1       2.416  -1.012   2.488  1.00  0.00     0.016 A 
ATOM     41  C   UNL     1       3.792   0.898  -0.270  1.00  0.00     0.010 A 
ATOM     42  C   UNL     1       4.187  -0.617   2.443  1.00  0.00     0.010 A 
ATOM     43  C   UNL     1       4.869   0.354   1.079  1.00  0.00    -0.014 A 
BRANCH  43  44
ATOM     44  C   UNL     1       6.316   0.543   0.892  1.00  0.00     0.031 A 
ATOM     45  C   UNL     1       7.066  -0.624   0.338  1.00  0.00     0.074 A 
ATOM     46  C   UNL     1       6.878   1.760   0.998  1.00  0.00     0.049 A 
ATOM     47  N   UNL     1       8.130  -0.634  -0.411  1.00  0.00    -0.248 NA
ATOM     48  C   UNL     1       6.466  -1.951   0.536  1.00  0.00     0.031 C 
ATOM     49  C   UNL     1       6.210   2.979   1.456  1.00  0.00     0.029 A 
ATOM     50  N   UNL     1       8.153   2.172   0.710  1.00  0.00    -0.354 N 
ATOM     51  C   UNL     1       8.228  -1.936  -0.880  1.00  0.00     0.074 A 
ATOM     52  C   UNL     1       7.114  -2.683  -0.352  1.00  0.00     0.031 C 
ATOM     53  C   UNL     1       7.089   3.999   1.437  1.00  0.00     0.029 A 
ATOM     54  C   UNL     1       8.379   3.506   0.963  1.00  0.00     0.049 A 
ATOM     55  H   UNL     1       8.845   1.569   0.354  1.00  0.00     0.167 HD
ATOM     56  C   UNL     1       9.210  -2.488  -1.621  1.00  0.00     0.037 A 
ATOM     57  C   UNL     1       9.515   4.222   0.826  1.00  0.00     0.037 A 
ATOM     58  C   UNL     1      10.465  -1.824  -1.813  1.00  0.00     0.049 A 
ATOM     59  C   UNL     1      10.709   3.507   0.236  1.00  0.00     0.074 A 
ATOM     60  C   UNL     1      11.649  -2.337  -2.299  1.00  0.00     0.029 A 
ATOM     61  N   UNL     1      10.717  -0.518  -1.406  1.00  0.00    -0.354 N 
ATOM     62  N   UNL     1      10.778   2.287  -0.253  1.00  0.00    -0.248 NA
ATOM     63  C   UNL     1      11.974   4.248   0.179  1.00  0.00     0.031 C 
ATOM     64  C   UNL     1      12.641  -1.371  -2.094  1.00  0.00     0.029 A 
ATOM     65  C   UNL     1      12.054  -0.225  -1.570  1.00  0.00     0.049 A 
ATOM     66  H   UNL     1      10.041   0.105  -1.054  1.00  0.00     0.167 HD
ATOM     67  C   UNL     1      12.086   2.120  -0.692  1.00  0.00     0.074 A 
ATOM     68  C   UNL     1      12.769   3.372  -0.423  1.00  0.00     0.031 C 
ATOM     69  C   UNL     1      12.678   1.040  -1.265  1.00  0.00     0.037 A 
BRANCH  56  70
ATOM     70  C   UNL     1       9.005  -3.909  -2.051  1.00  0.00     0.058 A 
ATOM     71  C   UNL     1       8.117  -4.239  -3.090  1.00  0.00     0.135 A 
ATOM     72  C   UNL     1       9.613  -4.961  -1.349  1.00  0.00     0.135 A 
ATOM     73  F   UNL     1       7.464  -3.272  -3.754  1.00  0.00    -0.206 F 
ATOM     74  C   UNL     1       7.839  -5.564  -3.415  1.00  0.00     0.059 A 
ATOM     75  C   UNL     1       9.358  -6.292  -1.665  1.00  0.00     0.059 A 
ATOM     76  F   UNL     1      10.424  -4.700  -0.313  1.00  0.00    -0.206 F 
ATOM     77  C   UNL     1       8.463  -6.583  -2.693  1.00  0.00     0.060 A 
BRANCH  77  78
ATOM     78  S   UNL     1       8.074  -8.298  -3.107  1.00  0.00     0.124 S 
ATOM     79  O   UNL     1       6.695  -8.406  -2.641  1.00  0.00    -0.237 OA
ATOM     80  O   UNL     1       8.259  -8.316  -4.554  1.00  0.00    -0.237 OA
ATOM     81  O   UNL     1       9.055  -9.062  -2.342  1.00  0.00    -0.744 OA
ENDBRANCH  77  78
ENDBRANCH  56  70
BRANCH  57  82
ATOM     82  C   UNL     1       9.596   5.640   1.290  1.00  0.00     0.058 A 
ATOM     83  C   UNL     1       9.866   6.703   0.414  1.00  0.00     0.135 A 
ATOM     84  C   UNL     1       9.434   5.958   2.650  1.00  0.00     0.135 A 
ATOM     85  F   UNL     1      10.047   6.465  -0.894  1.00  0.00    -0.206 F 
ATOM     86  C   UNL     1       9.985   8.018   0.867  1.00  0.00     0.059 A 
ATOM     87  C   UNL     1       9.521   7.266   3.123  1.00  0.00     0.059 A 
ATOM     88  F   UNL     1       9.181   4.987   3.542  1.00  0.00    -0.206 F 
ATOM     89  C   UNL     1       9.810   8.290   2.225  1.00  0.00     0.060 A 
BRANCH  89  90
ATOM     90  S   UNL     1       9.943   9.999   2.801  1.00  0.00     0.124 S 
ATOM     91  O   UNL     1      11.373  10.250   2.656  1.00  0.00    -0.237 OA
ATOM     92  O   UNL     1       9.074  10.707   1.866  1.00  0.00    -0.237 OA
ATOM     93  O   UNL     1       9.453   9.932   4.175  1.00  0.00    -0.744 OA
ENDBRANCH  89  90
ENDBRANCH  57  82
BRANCH  69  94
ATOM     94  C   UNL     1      14.120   1.178  -1.652  1.00  0.00     0.058 A 
ATOM     95  C   UNL     1      15.144   1.197  -0.694  1.00  0.00     0.135 A 
ATOM     96  C   UNL     1      14.477   1.200  -3.009  1.00  0.00     0.135 A 
ATOM     97  F   UNL     1      14.848   1.173   0.615  1.00  0.00    -0.206 F 
ATOM     98  C   UNL     1      16.479   1.262  -1.071  1.00  0.00     0.059 A 
ATOM     99  C   UNL     1      15.806   1.230  -3.408  1.00  0.00     0.059 A 
ATOM    100  F   UNL     1      13.530   1.161  -3.960  1.00  0.00    -0.206 F 
ATOM    101  C   UNL     1      16.799   1.276  -2.431  1.00  0.00     0.060 A 
BRANCH 101 102
ATOM    102  S   UNL     1      18.536   1.324  -2.909  1.00  0.00     0.124 S 
ATOM    103  O   UNL     1      18.880   2.712  -2.617  1.00  0.00    -0.237 OA
ATOM    104  O   UNL     1      19.131   0.323  -2.029  1.00  0.00    -0.237 OA
ATOM    105  O   UNL     1      18.508   0.968  -4.325  1.00  0.00    -0.744 OA
ENDBRANCH 101 102
ENDBRANCH  69  94
ENDBRANCH  43  44
ENDBRANCH  36  38
ENDBRANCH  35  36
ENDBRANCH  34  35
ENDBRANCH  33  34
ENDBRANCH  32  33
ENDBRANCH   1  32
TORSDOF 23
