REMARK SMILES CCC[C@@]1(C(=O)N[C@@](C)(C(=O)OCCOCCOC(=O)c2ccc(-c3c4nc(c(-c5c(F)cc(S(=O)(=O)[O-])cc5F)c5ccc([nH]5)c(-c5c(F)cc(S(=O)(=O)[O-])cc5F)c5nc(c(-c6c(F)cc(S(=O)(=O)[O-])cc6F)c6ccc3[nH]6)C=C5)C=C4)cc2)C(F)(F)F)CC[NH2+]C1
REMARK SMILES IDX 14 1 13 2 12 3 10 4 11 5 8 6 9 7 7 8 5 9 6 10 4 12 91 13
REMARK SMILES IDX 94 14 92 15 93 16 3 19 2 20 1 21 87 22 88 23 89 24 90 25
REMARK SMILES IDX 15 26 16 27 17 28 18 29 19 30 20 31 21 32 22 33 86 34 23 35
REMARK SMILES IDX 85 36 24 37 25 38 26 39 79 40 27 41 84 42 78 43 80 44 28 45
REMARK SMILES IDX 83 46 77 47 76 48 29 50 63 51 42 52 62 53 43 54 46 55 61 56
REMARK SMILES IDX 81 57 44 58 45 59 60 61 82 62 47 63 30 64 31 65 40 66 32 67
REMARK SMILES IDX 33 68 39 69 41 70 34 71 35 72 36 73 37 74 38 75 64 76 65 77
REMARK SMILES IDX 74 78 66 79 67 80 73 81 75 82 68 83 69 84 70 85 71 86 72 87
REMARK SMILES IDX 48 88 49 89 58 90 50 91 51 92 57 93 59 94 52 95 53 96 54 97
REMARK SMILES IDX 55 98 56 99
REMARK H PARENT 7 11 93 17 93 18 80 49 46 60
REMARK Flexibility Score: inf
ROOT
ATOM      1  C   UNL     1       2.572  -3.093  -1.378  1.00  0.00     0.202 C 
ENDROOT
BRANCH   1   2
ATOM      2  C   UNL     1       3.805  -2.420  -0.764  1.00  0.00     0.261 C 
BRANCH   2   3
ATOM      3  O   UNL     1       3.497  -1.178  -0.106  1.00  0.00    -0.461 OA
BRANCH   3   4
ATOM      4  C   UNL     1       4.347  -0.154  -0.400  1.00  0.00     0.341 C 
ATOM      5  O   UNL     1       5.434  -0.326  -0.939  1.00  0.00    -0.249 OA
BRANCH   4   6
ATOM      6  C   UNL     1       3.821   1.230   0.046  1.00  0.00     0.231 C 
ATOM      7  C   UNL     1       4.832   1.722   1.094  1.00  0.00     0.058 C 
BRANCH   6   8
ATOM      8  N   UNL     1       2.455   1.120   0.716  1.00  0.00    -0.332 N 
ATOM      9  C   UNL     1       1.477   1.935   1.187  1.00  0.00     0.233 C 
ATOM     10  O   UNL     1       1.077   1.563   2.305  1.00  0.00    -0.274 OA
ATOM     11  H   UNL     1       2.208   0.175   0.844  1.00  0.00     0.164 HD
BRANCH   9  12
ATOM     12  C   UNL     1       0.588   2.965   0.403  1.00  0.00     0.103 C 
ATOM     13  C   UNL     1       1.200   3.912  -0.612  1.00  0.00     0.084 C 
ATOM     14  C   UNL     1       0.082   4.014   1.451  1.00  0.00     0.277 C 
ATOM     15  C   UNL     1       1.838   4.989   0.235  1.00  0.00     0.261 C 
ATOM     16  N   UNL     1       0.780   5.297   1.195  1.00  0.00    -0.345 N 
ATOM     17  H   UNL     1       0.133   5.981   0.804  1.00  0.00     0.346 HD
ATOM     18  H   UNL     1       1.157   5.697   2.054  1.00  0.00     0.346 HD
BRANCH  12  19
ATOM     19  C   UNL     1      -0.620   2.125  -0.140  1.00  0.00     0.023 C 
BRANCH  19  20
ATOM     20  C   UNL     1      -1.311   2.535  -1.450  1.00  0.00    -0.002 C 
ATOM     21  C   UNL     1      -0.605   2.009  -2.693  1.00  0.00     0.004 C 
ENDBRANCH  19  20
ENDBRANCH  12  19
ENDBRANCH   9  12
ENDBRANCH   6   8
BRANCH   6  22
ATOM     22  C   UNL     1       3.930   2.060  -1.230  1.00  0.00     0.422 C 
ATOM     23  F   UNL     1       2.933   1.759  -2.095  1.00  0.00    -0.168 F 
ATOM     24  F   UNL     1       3.854   3.382  -0.939  1.00  0.00    -0.168 F 
ATOM     25  F   UNL     1       5.091   1.926  -1.903  1.00  0.00    -0.168 F 
ENDBRANCH   6  22
ENDBRANCH   4   6
ENDBRANCH   3   4
ENDBRANCH   2   3
ENDBRANCH   1   2
BRANCH   1  26
ATOM     26  O   UNL     1       1.611  -2.264  -2.019  1.00  0.00    -0.374 OA
BRANCH  26  27
ATOM     27  C   UNL     1       0.863  -1.356  -1.215  1.00  0.00     0.202 C 
BRANCH  27  28
ATOM     28  C   UNL     1      -0.036  -1.898  -0.094  1.00  0.00     0.261 C 
BRANCH  28  29
ATOM     29  O   UNL     1       0.667  -2.666   0.892  1.00  0.00    -0.460 OA
BRANCH  29  30
ATOM     30  C   UNL     1       0.280  -3.966   0.961  1.00  0.00     0.338 C 
ATOM     31  O   UNL     1      -0.588  -4.516   0.307  1.00  0.00    -0.246 OA
BRANCH  30  32
ATOM     32  C   UNL     1       1.220  -4.707   1.814  1.00  0.00     0.060 A 
ATOM     33  C   UNL     1       1.939  -5.757   1.228  1.00  0.00     0.016 A 
ATOM     34  C   UNL     1       1.330  -4.430   3.176  1.00  0.00     0.016 A 
ATOM     35  C   UNL     1       2.752  -6.563   2.016  1.00  0.00     0.010 A 
ATOM     36  C   UNL     1       2.133  -5.251   3.969  1.00  0.00     0.010 A 
ATOM     37  C   UNL     1       2.817  -6.339   3.396  1.00  0.00    -0.014 A 
BRANCH  37  38
ATOM     38  C   UNL     1       3.460  -7.352   4.261  1.00  0.00     0.031 A 
ATOM     39  C   UNL     1       2.589  -8.364   4.949  1.00  0.00     0.074 A 
ATOM     40  C   UNL     1       4.795  -7.378   4.405  1.00  0.00     0.049 A 
ATOM     41  N   UNL     1       2.922  -9.313   5.782  1.00  0.00    -0.248 NA
ATOM     42  C   UNL     1       1.147  -8.292   4.660  1.00  0.00     0.031 C 
ATOM     43  C   UNL     1       5.731  -6.467   3.747  1.00  0.00     0.029 A 
ATOM     44  N   UNL     1       5.593  -8.197   5.160  1.00  0.00    -0.354 N 
ATOM     45  C   UNL     1       1.733  -9.945   6.127  1.00  0.00     0.074 A 
ATOM     46  C   UNL     1       0.668  -9.254   5.434  1.00  0.00     0.031 C 
ATOM     47  C   UNL     1       6.980  -6.768   4.143  1.00  0.00     0.029 A 
ATOM     48  C   UNL     1       6.925  -7.867   5.105  1.00  0.00     0.049 A 
ATOM     49  H   UNL     1       5.244  -8.949   5.692  1.00  0.00     0.167 HD
ATOM     50  C   UNL     1       1.550 -11.008   6.945  1.00  0.00     0.037 A 
ATOM     51  C   UNL     1       7.974  -8.381   5.776  1.00  0.00     0.037 A 
ATOM     52  C   UNL     1       2.622 -11.680   7.631  1.00  0.00     0.049 A 
ATOM     53  C   UNL     1       7.743  -9.526   6.726  1.00  0.00     0.074 A 
ATOM     54  C   UNL     1       2.554 -12.778   8.469  1.00  0.00     0.029 A 
ATOM     55  N   UNL     1       3.958 -11.306   7.567  1.00  0.00    -0.354 N 
ATOM     56  N   UNL     1       6.618 -10.132   7.028  1.00  0.00    -0.248 NA
ATOM     57  C   UNL     1       8.920 -10.060   7.424  1.00  0.00     0.031 C 
ATOM     58  C   UNL     1       3.841 -13.036   8.953  1.00  0.00     0.029 A 
ATOM     59  C   UNL     1       4.721 -12.135   8.371  1.00  0.00     0.049 A 
ATOM     60  H   UNL     1       4.310 -10.561   7.028  1.00  0.00     0.167 HD
ATOM     61  C   UNL     1       6.954 -11.135   7.931  1.00  0.00     0.074 A 
ATOM     62  C   UNL     1       8.389 -11.057   8.120  1.00  0.00     0.031 C 
ATOM     63  C   UNL     1       6.151 -12.041   8.543  1.00  0.00     0.037 A 
BRANCH  50  64
ATOM     64  C   UNL     1       0.138 -11.474   7.169  1.00  0.00     0.058 A 
ATOM     65  C   UNL     1      -0.606 -12.106   6.160  1.00  0.00     0.135 A 
ATOM     66  C   UNL     1      -0.482 -11.282   8.415  1.00  0.00     0.135 A 
ATOM     67  F   UNL     1      -0.070 -12.297   4.943  1.00  0.00    -0.206 F 
ATOM     68  C   UNL     1      -1.926 -12.497   6.364  1.00  0.00     0.059 A 
ATOM     69  C   UNL     1      -1.792 -11.691   8.651  1.00  0.00     0.059 A 
ATOM     70  F   UNL     1       0.181 -10.680   9.414  1.00  0.00    -0.206 F 
ATOM     71  C   UNL     1      -2.512 -12.280   7.613  1.00  0.00     0.060 A 
BRANCH  71  72
ATOM     72  S   UNL     1      -4.230 -12.774   7.859  1.00  0.00     0.124 S 
ATOM     73  O   UNL     1      -4.939 -11.751   7.096  1.00  0.00    -0.237 OA
ATOM     74  O   UNL     1      -4.254 -14.118   7.290  1.00  0.00    -0.237 OA
ATOM     75  O   UNL     1      -4.400 -12.707   9.307  1.00  0.00    -0.744 OA
ENDBRANCH  71  72
ENDBRANCH  50  64
BRANCH  51  76
ATOM     76  C   UNL     1       9.328  -7.805   5.571  1.00  0.00     0.058 A 
ATOM     77  C   UNL     1      10.322  -8.512   4.880  1.00  0.00     0.135 A 
ATOM     78  C   UNL     1       9.640  -6.513   6.025  1.00  0.00     0.135 A 
ATOM     79  F   UNL     1      10.075  -9.753   4.435  1.00  0.00    -0.206 F 
ATOM     80  C   UNL     1      11.577  -7.960   4.643  1.00  0.00     0.059 A 
ATOM     81  C   UNL     1      10.880  -5.931   5.780  1.00  0.00     0.059 A 
ATOM     82  F   UNL     1       8.720  -5.790   6.682  1.00  0.00    -0.206 F 
ATOM     83  C   UNL     1      11.843  -6.664   5.090  1.00  0.00     0.060 A 
BRANCH  83  84
ATOM     84  S   UNL     1      13.446  -5.927   4.704  1.00  0.00     0.124 S 
ATOM     85  O   UNL     1      14.332  -6.664   5.597  1.00  0.00    -0.237 OA
ATOM     86  O   UNL     1      13.583  -6.221   3.281  1.00  0.00    -0.237 OA
ATOM     87  O   UNL     1      13.254  -4.516   5.028  1.00  0.00    -0.744 OA
ENDBRANCH  83  84
ENDBRANCH  51  76
BRANCH  63  88
ATOM     88  C   UNL     1       6.804 -13.046   9.451  1.00  0.00     0.058 A 
ATOM     89  C   UNL     1       7.292 -12.692  10.718  1.00  0.00     0.135 A 
ATOM     90  C   UNL     1       6.876 -14.398   9.074  1.00  0.00     0.135 A 
ATOM     91  F   UNL     1       7.252 -11.413  11.123  1.00  0.00    -0.206 F 
ATOM     92  C   UNL     1       7.844 -13.640  11.573  1.00  0.00     0.059 A 
ATOM     93  C   UNL     1       7.398 -15.366   9.925  1.00  0.00     0.059 A 
ATOM     94  F   UNL     1       6.413 -14.792   7.877  1.00  0.00    -0.206 F 
ATOM     95  C   UNL     1       7.888 -14.976  11.169  1.00  0.00     0.060 A 
BRANCH  95  96
ATOM     96  S   UNL     1       8.566 -16.202  12.308  1.00  0.00     0.124 S 
ATOM     97  O   UNL     1       9.994 -15.913  12.235  1.00  0.00    -0.237 OA
ATOM     98  O   UNL     1       7.912 -15.856  13.566  1.00  0.00    -0.237 OA
ATOM     99  O   UNL     1       8.152 -17.474  11.723  1.00  0.00    -0.744 OA
ENDBRANCH  95  96
ENDBRANCH  63  88
ENDBRANCH  37  38
ENDBRANCH  30  32
ENDBRANCH  29  30
ENDBRANCH  28  29
ENDBRANCH  27  28
ENDBRANCH  26  27
ENDBRANCH   1  26
TORSDOF 22
