REMARK SMILES Cc1ccc(N2C(=O)N=C(OCCOCCOC(=O)c3ccc(-c4c5nc(c(-c6c(F)cc(S(=O)(=O)[O-])cc6F)c6ccc([nH]6)c(-c6c(F)cc(S(=O)(=O)[O-])cc6F)c6nc(c(-c7c(F)cc(S(=O)(=O)[O-])cc7F)c7ccc4[nH]7)C=C6)C=C5)cc3)/C(=C\c3ccccc3OCc3cccc(C(=O)[O-])c3)C2=O)cc1
REMARK SMILES IDX 13 1 12 2 11 3 10 4 6 5 7 6 105 7 8 8 9 9 86 10 106 11 87 12
REMARK SMILES IDX 5 13 1 14 2 15 3 16 108 17 4 18 107 19 88 20 89 21 93 22
REMARK SMILES IDX 90 23 92 24 91 25 94 26 95 27 96 28 97 29 104 30 98 31
REMARK SMILES IDX 100 32 99 33 101 34 102 35 103 36 14 37 15 38 16 39 17 40
REMARK SMILES IDX 18 41 19 42 20 43 21 44 85 45 22 46 84 47 23 48 24 49 25 50
REMARK SMILES IDX 78 51 26 52 83 53 77 54 79 55 27 56 82 57 76 58 75 59 28 61
REMARK SMILES IDX 62 62 41 63 61 64 42 65 45 66 60 67 80 68 43 69 44 70 59 72
REMARK SMILES IDX 81 73 46 74 29 75 30 76 39 77 31 78 32 79 38 80 40 81 33 82
REMARK SMILES IDX 34 83 35 84 36 85 37 86 63 87 64 88 73 89 65 90 66 91 72 92
REMARK SMILES IDX 74 93 67 94 68 95 69 96 70 97 71 98 47 99 48 100 57 101
REMARK SMILES IDX 49 102 50 103 56 104 58 105 51 106 52 107 53 108 54 109
REMARK SMILES IDX 55 110
REMARK H PARENT 79 60 45 71
REMARK Flexibility Score: inf
ROOT
ATOM      1  C   UNL     1      -5.221   4.012   0.527  1.00  0.00     0.202 C 
ENDROOT
BRANCH   1   2
ATOM      2  C   UNL     1      -6.088   3.407   1.655  1.00  0.00     0.260 C 
BRANCH   2   3
ATOM      3  O   UNL     1      -5.627   2.160   2.231  1.00  0.00    -0.475 OA
BRANCH   3   4
ATOM      4  C   UNL     1      -4.706   1.345   1.708  1.00  0.00     0.231 C 
ATOM      5  N   UNL     1      -2.338   0.532   0.826  1.00  0.00    -0.226 N 
ATOM      6  C   UNL     1      -2.883   0.011   2.025  1.00  0.00     0.358 C 
ATOM      7  C   UNL     1      -3.127   1.064  -0.175  1.00  0.00     0.272 C 
ATOM      8  O   UNL     1      -2.435  -0.929   2.619  1.00  0.00    -0.245 OA
ATOM      9  N   UNL     1      -3.965   0.706   2.527  1.00  0.00    -0.156 NA
ATOM     10  C   UNL     1      -4.501   1.289   0.263  1.00  0.00     0.103 C 
ATOM     11  O   UNL     1      -2.804   1.272  -1.345  1.00  0.00    -0.268 OA
ATOM     12  C   UNL     1      -5.419   1.289  -0.705  1.00  0.00     0.031 C 
BRANCH   5  13
ATOM     13  C   UNL     1      -0.966   0.372   0.536  1.00  0.00     0.054 A 
ATOM     14  C   UNL     1       3.240   0.095  -0.192  1.00  0.00     0.044 C 
ATOM     15  C   UNL     1       1.769   0.202   0.044  1.00  0.00    -0.051 A 
ATOM     16  C   UNL     1       1.064  -0.915   0.502  1.00  0.00     0.005 A 
ATOM     17  C   UNL     1       1.092   1.394  -0.217  1.00  0.00     0.005 A 
ATOM     18  C   UNL     1      -0.292  -0.821   0.776  1.00  0.00     0.027 A 
ATOM     19  C   UNL     1      -0.273   1.474   0.013  1.00  0.00     0.027 A 
ENDBRANCH   5  13
BRANCH  12  20
ATOM     20  C   UNL     1      -6.825   1.253  -0.429  1.00  0.00     0.018 A 
ATOM     21  C   UNL     1      -7.641   2.373  -0.783  1.00  0.00     0.012 A 
ATOM     22  C   UNL     1      -7.398   0.140   0.088  1.00  0.00     0.127 A 
ATOM     23  C   UNL     1      -9.021   2.432  -0.805  1.00  0.00     0.001 A 
ATOM     24  C   UNL     1      -8.793   0.283   0.032  1.00  0.00     0.047 A 
ATOM     25  C   UNL     1      -9.618   1.278  -0.518  1.00  0.00     0.004 A 
BRANCH  22  26
ATOM     26  O   UNL     1      -6.873  -1.144   0.319  1.00  0.00    -0.488 OA
BRANCH  26  27
ATOM     27  C   UNL     1      -5.564  -1.554  -0.198  1.00  0.00     0.265 C 
BRANCH  27  28
ATOM     28  C   UNL     1      -4.820  -2.911  -0.002  1.00  0.00    -0.010 A 
ATOM     29  C   UNL     1      -3.401  -2.863   0.035  1.00  0.00     0.007 A 
ATOM     30  C   UNL     1      -5.370  -4.194   0.042  1.00  0.00     0.017 A 
ATOM     31  C   UNL     1      -2.592  -3.987   0.259  1.00  0.00     0.001 A 
ATOM     32  C   UNL     1      -4.555  -5.351   0.177  1.00  0.00    -0.002 A 
ATOM     33  C   UNL     1      -3.172  -5.239   0.345  1.00  0.00     0.010 A 
BRANCH  32  34
ATOM     34  C   UNL     1      -5.111  -6.728   0.127  1.00  0.00     0.071 C 
ATOM     35  O   UNL     1      -4.511  -7.757   0.382  1.00  0.00    -0.545 OA
ATOM     36  O   UNL     1      -6.383  -6.750  -0.303  1.00  0.00    -0.545 OA
ENDBRANCH  32  34
ENDBRANCH  27  28
ENDBRANCH  26  27
ENDBRANCH  22  26
ENDBRANCH  12  20
ENDBRANCH   3   4
ENDBRANCH   2   3
ENDBRANCH   1   2
BRANCH   1  37
ATOM     37  O   UNL     1      -4.718   5.307   0.727  1.00  0.00    -0.374 OA
BRANCH  37  38
ATOM     38  C   UNL     1      -5.724   6.292   0.840  1.00  0.00     0.202 C 
BRANCH  38  39
ATOM     39  C   UNL     1      -6.939   6.278  -0.159  1.00  0.00     0.261 C 
BRANCH  39  40
ATOM     40  O   UNL     1      -6.710   5.681  -1.490  1.00  0.00    -0.460 OA
BRANCH  40  41
ATOM     41  C   UNL     1      -7.812   5.460  -2.305  1.00  0.00     0.338 C 
ATOM     42  O   UNL     1      -8.876   6.047  -2.171  1.00  0.00    -0.246 OA
BRANCH  41  43
ATOM     43  C   UNL     1      -7.657   4.235  -3.247  1.00  0.00     0.060 A 
ATOM     44  C   UNL     1      -8.799   3.506  -3.675  1.00  0.00     0.016 A 
ATOM     45  C   UNL     1      -6.429   3.591  -3.404  1.00  0.00     0.016 A 
ATOM     46  C   UNL     1      -8.739   2.107  -4.005  1.00  0.00     0.010 A 
ATOM     47  C   UNL     1      -6.380   2.212  -3.756  1.00  0.00     0.010 A 
ATOM     48  C   UNL     1      -7.532   1.408  -3.966  1.00  0.00    -0.014 A 
BRANCH  48  49
ATOM     49  C   UNL     1      -7.373  -0.090  -4.106  1.00  0.00     0.031 A 
ATOM     50  C   UNL     1      -6.582  -0.632  -5.240  1.00  0.00     0.074 A 
ATOM     51  C   UNL     1      -7.787  -1.085  -3.261  1.00  0.00     0.049 A 
ATOM     52  N   UNL     1      -6.590  -1.879  -5.605  1.00  0.00    -0.248 NA
ATOM     53  C   UNL     1      -5.782   0.204  -6.128  1.00  0.00     0.031 C 
ATOM     54  C   UNL     1      -7.075  -2.336  -3.020  1.00  0.00     0.029 A 
ATOM     55  N   UNL     1      -8.713  -1.096  -2.223  1.00  0.00    -0.354 N 
ATOM     56  C   UNL     1      -5.468  -2.038  -6.367  1.00  0.00     0.074 A 
ATOM     57  C   UNL     1      -5.281  -0.732  -6.941  1.00  0.00     0.031 C 
ATOM     58  C   UNL     1      -7.671  -3.046  -2.060  1.00  0.00     0.029 A 
ATOM     59  C   UNL     1      -8.832  -2.324  -1.540  1.00  0.00     0.049 A 
ATOM     60  H   UNL     1      -9.245  -0.304  -1.982  1.00  0.00     0.167 HD
ATOM     61  C   UNL     1      -4.651  -3.121  -6.180  1.00  0.00     0.037 A 
ATOM     62  C   UNL     1      -9.710  -2.916  -0.645  1.00  0.00     0.037 A 
ATOM     63  C   UNL     1      -5.268  -4.184  -5.290  1.00  0.00     0.049 A 
ATOM     64  C   UNL     1      -9.985  -4.206  -1.432  1.00  0.00     0.074 A 
ATOM     65  C   UNL     1      -4.779  -5.011  -4.290  1.00  0.00     0.029 A 
ATOM     66  N   UNL     1      -6.683  -4.417  -5.254  1.00  0.00    -0.354 N 
ATOM     67  N   UNL     1      -9.743  -4.233  -2.736  1.00  0.00    -0.248 NA
ATOM     68  C   UNL     1     -10.238  -5.544  -0.912  1.00  0.00     0.031 C 
ATOM     69  C   UNL     1      -5.880  -5.659  -3.630  1.00  0.00     0.029 A 
ATOM     70  C   UNL     1      -7.087  -5.264  -4.205  1.00  0.00     0.049 A 
ATOM     71  H   UNL     1      -7.311  -4.022  -5.901  1.00  0.00     0.167 HD
ATOM     72  C   UNL     1      -9.359  -5.495  -3.082  1.00  0.00     0.074 A 
ATOM     73  C   UNL     1      -9.850  -6.304  -1.961  1.00  0.00     0.031 C 
ATOM     74  C   UNL     1      -8.465  -5.833  -4.074  1.00  0.00     0.037 A 
BRANCH  61  75
ATOM     75  C   UNL     1      -3.166  -3.079  -6.691  1.00  0.00     0.058 A 
ATOM     76  C   UNL     1      -2.351  -4.229  -6.752  1.00  0.00     0.135 A 
ATOM     77  C   UNL     1      -2.472  -1.910  -7.133  1.00  0.00     0.135 A 
ATOM     78  F   UNL     1      -2.790  -5.404  -6.280  1.00  0.00    -0.206 F 
ATOM     79  C   UNL     1      -1.036  -4.231  -7.283  1.00  0.00     0.059 A 
ATOM     80  C   UNL     1      -1.216  -1.901  -7.752  1.00  0.00     0.059 A 
ATOM     81  F   UNL     1      -2.920  -0.671  -6.901  1.00  0.00    -0.206 F 
ATOM     82  C   UNL     1      -0.493  -3.070  -7.824  1.00  0.00     0.060 A 
BRANCH  82  83
ATOM     83  S   UNL     1       1.143  -3.070  -8.595  1.00  0.00     0.124 S 
ATOM     84  O   UNL     1       2.022  -3.288  -7.451  1.00  0.00    -0.237 OA
ATOM     85  O   UNL     1       1.042  -4.174  -9.543  1.00  0.00    -0.237 OA
ATOM     86  O   UNL     1       1.236  -1.743  -9.203  1.00  0.00    -0.744 OA
ENDBRANCH  82  83
ENDBRANCH  61  75
BRANCH  62  87
ATOM     87  C   UNL     1     -10.342  -2.292   0.701  1.00  0.00     0.058 A 
ATOM     88  C   UNL     1      -9.460  -2.001   1.820  1.00  0.00     0.135 A 
ATOM     89  C   UNL     1     -11.457  -1.406   0.676  1.00  0.00     0.135 A 
ATOM     90  F   UNL     1      -8.344  -2.736   1.972  1.00  0.00    -0.206 F 
ATOM     91  C   UNL     1      -9.530  -0.793   2.627  1.00  0.00     0.059 A 
ATOM     92  C   UNL     1     -11.563  -0.214   1.498  1.00  0.00     0.059 A 
ATOM     93  F   UNL     1     -12.372  -1.541  -0.293  1.00  0.00    -0.206 F 
ATOM     94  C   UNL     1     -10.551   0.140   2.406  1.00  0.00     0.060 A 
BRANCH  94  95
ATOM     95  S   UNL     1     -10.358   1.941   2.933  1.00  0.00     0.124 S 
ATOM     96  O   UNL     1     -11.383   2.075   3.961  1.00  0.00    -0.237 OA
ATOM     97  O   UNL     1      -8.979   2.027   3.407  1.00  0.00    -0.237 OA
ATOM     98  O   UNL     1     -10.627   2.712   1.722  1.00  0.00    -0.744 OA
ENDBRANCH  94  95
ENDBRANCH  62  87
BRANCH  74  99
ATOM     99  C   UNL     1      -8.860  -6.943  -5.004  1.00  0.00     0.058 A 
ATOM    100  C   UNL     1     -10.167  -7.462  -5.067  1.00  0.00     0.135 A 
ATOM    101  C   UNL     1      -7.957  -7.402  -5.989  1.00  0.00     0.135 A 
ATOM    102  F   UNL     1     -11.139  -7.052  -4.237  1.00  0.00    -0.206 F 
ATOM    103  C   UNL     1     -10.533  -8.410  -6.009  1.00  0.00     0.059 A 
ATOM    104  C   UNL     1      -8.317  -8.310  -6.964  1.00  0.00     0.059 A 
ATOM    105  F   UNL     1      -6.692  -6.972  -6.068  1.00  0.00    -0.206 F 
ATOM    106  C   UNL     1      -9.601  -8.823  -6.953  1.00  0.00     0.060 A 
BRANCH 106 107
ATOM    107  S   UNL     1     -10.092 -10.015  -8.193  1.00  0.00     0.124 S 
ATOM    108  O   UNL     1     -10.079 -11.251  -7.418  1.00  0.00    -0.237 OA
ATOM    109  O   UNL     1     -11.408  -9.524  -8.590  1.00  0.00    -0.237 OA
ATOM    110  O   UNL     1      -9.051  -9.895  -9.209  1.00  0.00    -0.744 OA
ENDBRANCH 106 107
ENDBRANCH  74  99
ENDBRANCH  48  49
ENDBRANCH  41  43
ENDBRANCH  40  41
ENDBRANCH  39  40
ENDBRANCH  38  39
ENDBRANCH  37  38
ENDBRANCH   1  37
TORSDOF 22
