REMARK SMILES COC(=O)CCN(C)C(=O)NCc1ccc(C(=O)OCCOCCOC(=O)c2ccc(-c3c4nc(c(-c5c(F)cc(S(=O)(=O)[O-])cc5F)c5ccc([nH]5)c(-c5c(F)cc(S(=O)(=O)[O-])cc5F)c5nc(c(-c6c(F)cc(S(=O)(=O)[O-])cc6F)c6ccc3[nH]6)C=C5)C=C4)cc2)o1
REMARK SMILES IDX 20 1 19 2 17 3 18 4 16 5 13 6 14 7 94 8 15 9 12 10 11 11
REMARK SMILES IDX 9 12 10 13 7 15 8 16 6 17 5 18 3 19 4 20 2 21 1 22 21 23
REMARK SMILES IDX 22 24 23 25 24 26 25 27 26 28 27 29 28 30 29 31 93 32 30 33
REMARK SMILES IDX 92 34 31 35 32 36 33 37 86 38 34 39 91 40 85 41 87 42 35 43
REMARK SMILES IDX 90 44 84 45 83 46 36 48 70 49 49 50 69 51 50 52 53 53 68 54
REMARK SMILES IDX 88 55 51 56 52 57 67 59 89 60 54 61 37 62 38 63 47 64 39 65
REMARK SMILES IDX 40 66 46 67 48 68 41 69 42 70 43 71 44 72 45 73 71 74 72 75
REMARK SMILES IDX 81 76 73 77 74 78 80 79 82 80 75 81 76 82 77 83 78 84 79 85
REMARK SMILES IDX 55 86 56 87 65 88 57 89 58 90 64 91 66 92 59 93 60 94 61 95
REMARK SMILES IDX 62 96 63 97
REMARK H PARENT 11 14 87 47 53 58
REMARK Flexibility Score: inf
ROOT
ATOM      1  C   UNL     1       0.198  -5.500  -9.240  1.00  0.00     0.261 C 
ENDROOT
BRANCH   1   2
ATOM      2  O   UNL     1       0.279  -4.104  -8.905  1.00  0.00    -0.457 OA
BRANCH   2   3
ATOM      3  C   UNL     1      -0.681  -3.639  -8.056  1.00  0.00     0.374 C 
ATOM      4  O   UNL     1      -1.705  -4.239  -7.754  1.00  0.00    -0.242 OA
BRANCH   3   5
ATOM      5  C   UNL     1      -0.236  -2.394  -7.474  1.00  0.00     0.211 A 
ATOM      6  C   UNL     1      -0.158  -0.901  -5.852  1.00  0.00     0.124 A 
ATOM      7  C   UNL     1       0.811  -0.535  -6.763  1.00  0.00     0.048 A 
ATOM      8  O   UNL     1      -0.822  -2.001  -6.300  1.00  0.00    -0.452 OA
ATOM      9  C   UNL     1       0.771  -1.501  -7.798  1.00  0.00     0.058 A 
BRANCH   6  10
ATOM     10  C   UNL     1      -0.564  -0.402  -4.516  1.00  0.00     0.193 C 
BRANCH  10  11
ATOM     11  N   UNL     1       0.634  -0.067  -3.779  1.00  0.00    -0.331 N 
ATOM     12  C   UNL     1       1.174   1.039  -3.251  1.00  0.00     0.317 C 
ATOM     13  O   UNL     1       2.181   0.853  -2.561  1.00  0.00    -0.249 OA
ATOM     14  H   UNL     1       1.200  -0.858  -3.625  1.00  0.00     0.165 HD
BRANCH  12  15
ATOM     15  N   UNL     1       0.637   2.285  -3.414  1.00  0.00    -0.327 N 
ATOM     16  C   UNL     1      -0.395   2.673  -4.361  1.00  0.00     0.148 C 
BRANCH  15  17
ATOM     17  C   UNL     1       1.122   3.346  -2.517  1.00  0.00     0.132 C 
BRANCH  17  18
ATOM     18  C   UNL     1       0.339   3.418  -1.211  1.00  0.00     0.144 C 
BRANCH  18  19
ATOM     19  C   UNL     1       0.875   2.433  -0.207  1.00  0.00     0.307 C 
ATOM     20  O   UNL     1       1.780   2.686   0.577  1.00  0.00    -0.252 OA
BRANCH  19  21
ATOM     21  O   UNL     1       0.216   1.246  -0.302  1.00  0.00    -0.469 OA
ATOM     22  C   UNL     1       0.823   0.179   0.429  1.00  0.00     0.282 C 
ENDBRANCH  19  21
ENDBRANCH  18  19
ENDBRANCH  17  18
ENDBRANCH  15  17
ENDBRANCH  12  15
ENDBRANCH  10  11
ENDBRANCH   6  10
ENDBRANCH   3   5
ENDBRANCH   2   3
ENDBRANCH   1   2
BRANCH   1  23
ATOM     23  C   UNL     1       1.374  -6.252  -8.608  1.00  0.00     0.202 C 
BRANCH  23  24
ATOM     24  O   UNL     1       1.300  -6.346  -7.183  1.00  0.00    -0.374 OA
BRANCH  24  25
ATOM     25  C   UNL     1       1.917  -5.283  -6.451  1.00  0.00     0.202 C 
BRANCH  25  26
ATOM     26  C   UNL     1       3.423  -5.451  -6.223  1.00  0.00     0.261 C 
BRANCH  26  27
ATOM     27  O   UNL     1       4.154  -5.221  -7.442  1.00  0.00    -0.460 OA
BRANCH  27  28
ATOM     28  C   UNL     1       4.697  -6.329  -8.004  1.00  0.00     0.338 C 
ATOM     29  O   UNL     1       4.716  -7.455  -7.536  1.00  0.00    -0.246 OA
BRANCH  28  30
ATOM     30  C   UNL     1       5.120  -6.028  -9.388  1.00  0.00     0.060 A 
ATOM     31  C   UNL     1       4.773  -6.953 -10.380  1.00  0.00     0.016 A 
ATOM     32  C   UNL     1       5.869  -4.893  -9.710  1.00  0.00     0.016 A 
ATOM     33  C   UNL     1       5.213  -6.772 -11.690  1.00  0.00     0.010 A 
ATOM     34  C   UNL     1       6.316  -4.716 -11.025  1.00  0.00     0.010 A 
ATOM     35  C   UNL     1       6.017  -5.671 -12.013  1.00  0.00    -0.014 A 
BRANCH  35  36
ATOM     36  C   UNL     1       6.655  -5.599 -13.350  1.00  0.00     0.031 A 
ATOM     37  C   UNL     1       8.081  -6.052 -13.503  1.00  0.00     0.074 A 
ATOM     38  C   UNL     1       5.964  -5.169 -14.421  1.00  0.00     0.049 A 
ATOM     39  N   UNL     1       8.837  -6.065 -14.570  1.00  0.00    -0.248 NA
ATOM     40  C   UNL     1       8.742  -6.559 -12.289  1.00  0.00     0.031 C 
ATOM     41  C   UNL     1       4.567  -4.737 -14.407  1.00  0.00     0.029 A 
ATOM     42  N   UNL     1       6.349  -5.022 -15.730  1.00  0.00    -0.354 N 
ATOM     43  C   UNL     1      10.062  -6.579 -14.159  1.00  0.00     0.074 A 
ATOM     44  C   UNL     1       9.957  -6.837 -12.739  1.00  0.00     0.031 C 
ATOM     45  C   UNL     1       4.213  -4.365 -15.650  1.00  0.00     0.029 A 
ATOM     46  C   UNL     1       5.364  -4.509 -16.540  1.00  0.00     0.049 A 
ATOM     47  H   UNL     1       7.246  -5.261 -16.058  1.00  0.00     0.167 HD
ATOM     48  C   UNL     1      11.169  -6.824 -14.900  1.00  0.00     0.037 A 
ATOM     49  C   UNL     1       5.395  -4.178 -17.846  1.00  0.00     0.037 A 
ATOM     50  C   UNL     1      11.272  -6.564 -16.312  1.00  0.00     0.049 A 
ATOM     51  C   UNL     1       6.658  -4.399 -18.637  1.00  0.00     0.074 A 
ATOM     52  C   UNL     1      12.348  -6.789 -17.153  1.00  0.00     0.029 A 
ATOM     53  N   UNL     1      10.264  -6.015 -17.090  1.00  0.00    -0.354 N 
ATOM     54  N   UNL     1       7.802  -4.903 -18.239  1.00  0.00    -0.248 NA
ATOM     55  C   UNL     1       6.634  -4.007 -20.053  1.00  0.00     0.031 C 
ATOM     56  C   UNL     1      12.004  -6.338 -18.433  1.00  0.00     0.029 A 
ATOM     57  C   UNL     1      10.699  -5.873 -18.398  1.00  0.00     0.049 A 
ATOM     58  H   UNL     1       9.370  -5.763 -16.762  1.00  0.00     0.167 HD
ATOM     59  C   UNL     1       8.625  -4.912 -19.362  1.00  0.00     0.074 A 
ATOM     60  C   UNL     1       7.845  -4.369 -20.455  1.00  0.00     0.031 C 
ATOM     61  C   UNL     1       9.908  -5.335 -19.477  1.00  0.00     0.037 A 
BRANCH  48  62
ATOM     62  C   UNL     1      12.366  -7.383 -14.185  1.00  0.00     0.058 A 
ATOM     63  C   UNL     1      12.404  -8.715 -13.742  1.00  0.00     0.135 A 
ATOM     64  C   UNL     1      13.495  -6.582 -13.952  1.00  0.00     0.135 A 
ATOM     65  F   UNL     1      11.343  -9.518 -13.923  1.00  0.00    -0.206 F 
ATOM     66  C   UNL     1      13.508  -9.225 -13.067  1.00  0.00     0.059 A 
ATOM     67  C   UNL     1      14.620  -7.079 -13.300  1.00  0.00     0.059 A 
ATOM     68  F   UNL     1      13.510  -5.301 -14.353  1.00  0.00    -0.206 F 
ATOM     69  C   UNL     1      14.610  -8.397 -12.846  1.00  0.00     0.060 A 
BRANCH  69  70
ATOM     70  S   UNL     1      16.032  -9.068 -11.959  1.00  0.00     0.124 S 
ATOM     71  O   UNL     1      15.536  -9.084 -10.586  1.00  0.00    -0.237 OA
ATOM     72  O   UNL     1      16.205 -10.374 -12.585  1.00  0.00    -0.237 OA
ATOM     73  O   UNL     1      17.090  -8.100 -12.233  1.00  0.00    -0.744 OA
ENDBRANCH  69  70
ENDBRANCH  48  62
BRANCH  49  74
ATOM     74  C   UNL     1       4.188  -3.597 -18.491  1.00  0.00     0.058 A 
ATOM     75  C   UNL     1       3.436  -4.333 -19.417  1.00  0.00     0.135 A 
ATOM     76  C   UNL     1       3.760  -2.296 -18.185  1.00  0.00     0.135 A 
ATOM     77  F   UNL     1       3.814  -5.577 -19.750  1.00  0.00    -0.206 F 
ATOM     78  C   UNL     1       2.305  -3.798 -20.025  1.00  0.00     0.059 A 
ATOM     79  C   UNL     1       2.620  -1.747 -18.763  1.00  0.00     0.059 A 
ATOM     80  F   UNL     1       4.441  -1.555 -17.297  1.00  0.00    -0.206 F 
ATOM     81  C   UNL     1       1.903  -2.505 -19.688  1.00  0.00     0.060 A 
BRANCH  81  82
ATOM     82  S   UNL     1       0.398  -1.840 -20.435  1.00  0.00     0.124 S 
ATOM     83  O   UNL     1       0.853  -1.528 -21.784  1.00  0.00    -0.237 OA
ATOM     84  O   UNL     1      -0.526  -2.963 -20.315  1.00  0.00    -0.237 OA
ATOM     85  O   UNL     1       0.086  -0.691 -19.590  1.00  0.00    -0.744 OA
ENDBRANCH  81  82
ENDBRANCH  49  74
BRANCH  61  86
ATOM     86  C   UNL     1      10.545  -5.257 -20.836  1.00  0.00     0.058 A 
ATOM     87  C   UNL     1      10.966  -4.036 -21.384  1.00  0.00     0.135 A 
ATOM     88  C   UNL     1      10.786  -6.426 -21.576  1.00  0.00     0.135 A 
ATOM     89  F   UNL     1      10.755  -2.889 -20.720  1.00  0.00    -0.206 F 
ATOM     90  C   UNL     1      11.588  -3.974 -22.627  1.00  0.00     0.059 A 
ATOM     91  C   UNL     1      11.426  -6.390 -22.811  1.00  0.00     0.059 A 
ATOM     92  F   UNL     1      10.411  -7.622 -21.092  1.00  0.00    -0.206 F 
ATOM     93  C   UNL     1      11.814  -5.157 -23.333  1.00  0.00     0.060 A 
BRANCH  93  94
ATOM     94  S   UNL     1      12.653  -5.069 -24.930  1.00  0.00     0.124 S 
ATOM     95  O   UNL     1      11.587  -4.576 -25.795  1.00  0.00    -0.237 OA
ATOM     96  O   UNL     1      13.739  -4.130 -24.664  1.00  0.00    -0.237 OA
ATOM     97  O   UNL     1      13.071  -6.448 -25.170  1.00  0.00    -0.744 OA
ENDBRANCH  93  94
ENDBRANCH  61  86
ENDBRANCH  35  36
ENDBRANCH  28  30
ENDBRANCH  27  28
ENDBRANCH  26  27
ENDBRANCH  25  26
ENDBRANCH  24  25
ENDBRANCH  23  24
ENDBRANCH   1  23
TORSDOF 24
