REMARK SMILES COc1cc(F)ccc1NCC(C)(C)C(=O)OCCOCCOC(=O)c1ccc(-c2c3nc(c(-c4c(F)cc(S(=O)(=O)[O-])cc4F)c4ccc([nH]4)c(-c4c(F)cc(S(=O)(=O)[O-])cc4F)c4nc(c(-c5c(F)cc(S(=O)(=O)[O-])cc5F)c5ccc2[nH]5)C=C4)C=C3)cc1
REMARK SMILES IDX 19 1 18 2 17 3 15 4 16 5 12 6 13 7 14 8 11 9 10 10 9 12 3 13
REMARK SMILES IDX 4 14 5 15 8 16 6 17 7 18 2 19 1 20 20 21 21 22 22 23 23 24
REMARK SMILES IDX 24 25 25 26 26 27 27 28 91 29 28 30 90 31 29 32 30 33 31 34
REMARK SMILES IDX 84 35 32 36 89 37 83 38 85 39 33 40 88 41 82 42 81 43 34 45
REMARK SMILES IDX 68 46 47 47 67 48 48 49 51 50 66 51 86 52 49 53 50 54 65 56
REMARK SMILES IDX 87 57 52 58 35 59 36 60 45 61 37 62 38 63 44 64 46 65 39 66
REMARK SMILES IDX 40 67 41 68 42 69 43 70 69 71 70 72 79 73 71 74 72 75 78 76
REMARK SMILES IDX 80 77 73 78 74 79 75 80 76 81 77 82 53 83 54 84 63 85 55 86
REMARK SMILES IDX 56 87 62 88 64 89 57 90 58 91 59 92 60 93 61 94
REMARK H PARENT 10 11 85 44 51 55
REMARK Flexibility Score: inf
ROOT
ATOM      1  C   UNL     1      -0.460  -7.325  -2.665  1.00  0.00     0.202 C 
ENDROOT
BRANCH   1   2
ATOM      2  C   UNL     1      -1.034  -6.581  -1.456  1.00  0.00     0.261 C 
BRANCH   2   3
ATOM      3  O   UNL     1      -2.169  -5.787  -1.837  1.00  0.00    -0.463 OA
BRANCH   3   4
ATOM      4  C   UNL     1      -2.262  -4.575  -1.230  1.00  0.00     0.313 C 
ATOM      5  O   UNL     1      -1.565  -4.226  -0.283  1.00  0.00    -0.252 OA
BRANCH   4   6
ATOM      6  C   UNL     1      -3.334  -3.680  -1.862  1.00  0.00     0.080 C 
ATOM      7  C   UNL     1      -4.098  -3.009  -0.708  1.00  0.00     0.025 C 
ATOM      8  C   UNL     1      -4.360  -4.483  -2.691  1.00  0.00     0.025 C 
BRANCH   6   9
ATOM      9  C   UNL     1      -2.682  -2.632  -2.796  1.00  0.00     0.131 C 
BRANCH   9  10
ATOM     10  N   UNL     1      -1.558  -1.926  -2.205  1.00  0.00    -0.381 N 
ATOM     11  H   UNL     1      -1.730  -1.418  -1.380  1.00  0.00     0.160 HD
BRANCH  10  12
ATOM     12  C   UNL     1      -0.260  -1.905  -2.705  1.00  0.00     0.077 A 
ATOM     13  C   UNL     1       0.792  -1.511  -1.844  1.00  0.00     0.144 A 
ATOM     14  C   UNL     1       2.124  -1.518  -2.265  1.00  0.00     0.087 A 
ATOM     15  C   UNL     1       2.412  -1.862  -3.577  1.00  0.00     0.127 A 
ATOM     16  C   UNL     1       0.069  -2.201  -4.034  1.00  0.00     0.032 A 
ATOM     17  F   UNL     1       3.686  -1.868  -3.993  1.00  0.00    -0.207 F 
ATOM     18  C   UNL     1       1.399  -2.189  -4.468  1.00  0.00     0.041 A 
BRANCH  13  19
ATOM     19  O   UNL     1       0.448  -1.199  -0.546  1.00  0.00    -0.494 OA
ATOM     20  C   UNL     1       0.998   0.041  -0.110  1.00  0.00     0.278 C 
ENDBRANCH  13  19
ENDBRANCH  10  12
ENDBRANCH   9  10
ENDBRANCH   6   9
ENDBRANCH   4   6
ENDBRANCH   3   4
ENDBRANCH   2   3
ENDBRANCH   1   2
BRANCH   1  21
ATOM     21  O   UNL     1      -0.005  -6.517  -3.752  1.00  0.00    -0.374 OA
BRANCH  21  22
ATOM     22  C   UNL     1      -0.990  -5.848  -4.537  1.00  0.00     0.202 C 
BRANCH  22  23
ATOM     23  C   UNL     1      -1.822  -6.704  -5.499  1.00  0.00     0.261 C 
BRANCH  23  24
ATOM     24  O   UNL     1      -2.630  -7.689  -4.828  1.00  0.00    -0.460 OA
BRANCH  24  25
ATOM     25  C   UNL     1      -2.257  -8.967  -5.062  1.00  0.00     0.338 C 
ATOM     26  O   UNL     1      -1.366  -9.348  -5.816  1.00  0.00    -0.246 OA
BRANCH  25  27
ATOM     27  C   UNL     1      -2.953  -9.898  -4.157  1.00  0.00     0.060 A 
ATOM     28  C   UNL     1      -2.160 -10.791  -3.422  1.00  0.00     0.016 A 
ATOM     29  C   UNL     1      -4.347  -9.989  -4.119  1.00  0.00     0.016 A 
ATOM     30  C   UNL     1      -2.756 -11.825  -2.708  1.00  0.00     0.010 A 
ATOM     31  C   UNL     1      -4.942 -11.037  -3.406  1.00  0.00     0.010 A 
ATOM     32  C   UNL     1      -4.147 -11.988  -2.741  1.00  0.00    -0.014 A 
BRANCH  32  33
ATOM     33  C   UNL     1      -4.730 -13.264  -2.258  1.00  0.00     0.031 A 
ATOM     34  C   UNL     1      -5.032 -14.344  -3.265  1.00  0.00     0.074 A 
ATOM     35  C   UNL     1      -4.917 -13.490  -0.946  1.00  0.00     0.049 A 
ATOM     36  N   UNL     1      -5.534 -15.536  -3.077  1.00  0.00    -0.248 NA
ATOM     37  C   UNL     1      -4.720 -14.039  -4.672  1.00  0.00     0.031 C 
ATOM     38  C   UNL     1      -4.608 -12.544   0.125  1.00  0.00     0.029 A 
ATOM     39  N   UNL     1      -5.403 -14.594  -0.291  1.00  0.00    -0.354 N 
ATOM     40  C   UNL     1      -5.596 -16.123  -4.335  1.00  0.00     0.074 A 
ATOM     41  C   UNL     1      -5.113 -15.146  -5.285  1.00  0.00     0.031 C 
ATOM     42  C   UNL     1      -4.912 -13.110   1.307  1.00  0.00     0.029 A 
ATOM     43  C   UNL     1      -5.460 -14.446   1.074  1.00  0.00     0.049 A 
ATOM     44  H   UNL     1      -5.684 -15.415  -0.756  1.00  0.00     0.167 HD
ATOM     45  C   UNL     1      -6.006 -17.369  -4.668  1.00  0.00     0.037 A 
ATOM     46  C   UNL     1      -5.911 -15.289   2.025  1.00  0.00     0.037 A 
ATOM     47  C   UNL     1      -6.481 -18.342  -3.720  1.00  0.00     0.049 A 
ATOM     48  C   UNL     1      -6.422 -16.648   1.625  1.00  0.00     0.074 A 
ATOM     49  C   UNL     1      -6.933 -19.627  -3.960  1.00  0.00     0.029 A 
ATOM     50  N   UNL     1      -6.559 -18.138  -2.351  1.00  0.00    -0.354 N 
ATOM     51  N   UNL     1      -6.490 -17.184   0.429  1.00  0.00    -0.248 NA
ATOM     52  C   UNL     1      -6.916 -17.520   2.701  1.00  0.00     0.031 C 
ATOM     53  C   UNL     1      -7.318 -20.189  -2.739  1.00  0.00     0.029 A 
ATOM     54  C   UNL     1      -7.063 -19.270  -1.734  1.00  0.00     0.049 A 
ATOM     55  H   UNL     1      -6.296 -17.311  -1.886  1.00  0.00     0.167 HD
ATOM     56  C   UNL     1      -7.006 -18.463   0.612  1.00  0.00     0.074 A 
ATOM     57  C   UNL     1      -7.230 -18.623   2.033  1.00  0.00     0.031 C 
ATOM     58  C   UNL     1      -7.266 -19.418  -0.314  1.00  0.00     0.037 A 
BRANCH  45  59
ATOM     59  C   UNL     1      -5.971 -17.752  -6.121  1.00  0.00     0.058 A 
ATOM     60  C   UNL     1      -7.163 -17.888  -6.851  1.00  0.00     0.135 A 
ATOM     61  C   UNL     1      -4.763 -18.029  -6.779  1.00  0.00     0.135 A 
ATOM     62  F   UNL     1      -8.345 -17.624  -6.272  1.00  0.00    -0.206 F 
ATOM     63  C   UNL     1      -7.159 -18.301  -8.178  1.00  0.00     0.059 A 
ATOM     64  C   UNL     1      -4.734 -18.422  -8.115  1.00  0.00     0.059 A 
ATOM     65  F   UNL     1      -3.595 -17.888  -6.134  1.00  0.00    -0.206 F 
ATOM     66  C   UNL     1      -5.939 -18.569  -8.802  1.00  0.00     0.060 A 
BRANCH  66  67
ATOM     67  S   UNL     1      -5.949 -19.071 -10.536  1.00  0.00     0.124 S 
ATOM     68  O   UNL     1      -6.481 -20.426 -10.453  1.00  0.00    -0.237 OA
ATOM     69  O   UNL     1      -6.832 -18.076 -11.138  1.00  0.00    -0.237 OA
ATOM     70  O   UNL     1      -4.546 -18.967 -10.926  1.00  0.00    -0.744 OA
ENDBRANCH  66  67
ENDBRANCH  45  59
BRANCH  46  71
ATOM     71  C   UNL     1      -5.892 -14.869   3.451  1.00  0.00     0.058 A 
ATOM     72  C   UNL     1      -6.758 -13.871   3.923  1.00  0.00     0.135 A 
ATOM     73  C   UNL     1      -4.995 -15.442   4.364  1.00  0.00     0.135 A 
ATOM     74  F   UNL     1      -7.634 -13.289   3.089  1.00  0.00    -0.206 F 
ATOM     75  C   UNL     1      -6.718 -13.436   5.243  1.00  0.00     0.059 A 
ATOM     76  C   UNL     1      -4.951 -15.040   5.697  1.00  0.00     0.059 A 
ATOM     77  F   UNL     1      -4.159 -16.412   3.963  1.00  0.00    -0.206 F 
ATOM     78  C   UNL     1      -5.806 -14.023   6.121  1.00  0.00     0.060 A 
BRANCH  78  79
ATOM     79  S   UNL     1      -5.761 -13.435   7.828  1.00  0.00     0.124 S 
ATOM     80  O   UNL     1      -5.165 -12.113   7.663  1.00  0.00    -0.237 OA
ATOM     81  O   UNL     1      -7.173 -13.454   8.197  1.00  0.00    -0.237 OA
ATOM     82  O   UNL     1      -4.926 -14.422   8.503  1.00  0.00    -0.744 OA
ENDBRANCH  78  79
ENDBRANCH  46  71
BRANCH  58  83
ATOM     83  C   UNL     1      -7.790 -20.742   0.170  1.00  0.00     0.058 A 
ATOM     84  C   UNL     1      -6.972 -21.883   0.132  1.00  0.00     0.135 A 
ATOM     85  C   UNL     1      -9.122 -20.900   0.581  1.00  0.00     0.135 A 
ATOM     86  F   UNL     1      -5.692 -21.786  -0.261  1.00  0.00    -0.206 F 
ATOM     87  C   UNL     1      -7.463 -23.140   0.468  1.00  0.00     0.059 A 
ATOM     88  C   UNL     1      -9.627 -22.145   0.944  1.00  0.00     0.059 A 
ATOM     89  F   UNL     1      -9.940 -19.838   0.642  1.00  0.00    -0.206 F 
ATOM     90  C   UNL     1      -8.794 -23.262   0.867  1.00  0.00     0.060 A 
BRANCH  90  91
ATOM     91  S   UNL     1      -9.415 -24.900   1.304  1.00  0.00     0.124 S 
ATOM     92  O   UNL     1      -9.516 -25.540  -0.003  1.00  0.00    -0.237 OA
ATOM     93  O   UNL     1      -8.364 -25.407   2.180  1.00  0.00    -0.237 OA
ATOM     94  O   UNL     1     -10.686 -24.615   1.964  1.00  0.00    -0.744 OA
ENDBRANCH  90  91
ENDBRANCH  58  83
ENDBRANCH  32  33
ENDBRANCH  25  27
ENDBRANCH  24  25
ENDBRANCH  23  24
ENDBRANCH  22  23
ENDBRANCH  21  22
ENDBRANCH   1  21
TORSDOF 21
