REMARK SMILES CCn1cnc(S(=O)(=O)N[C@H](Cc2cnc[nH]2)C(=O)OCCOCCOC(=O)c2ccc(-c3c4nc(c(-c5c(F)cc(S(=O)(=O)[O-])cc5F)c5ccc([nH]5)c(-c5c(F)cc(S(=O)(=O)[O-])cc5F)c5nc(c(-c6c(F)cc(S(=O)(=O)[O-])cc6F)c6ccc3[nH]6)C=C5)C=C4)cc2)c1
REMARK SMILES IDX 22 1 21 2 20 3 18 4 19 5 11 6 10 7 7 9 8 10 9 11 6 12 3 13
REMARK SMILES IDX 4 14 95 15 5 16 2 17 1 18 12 19 13 20 14 21 17 22 15 23
REMARK SMILES IDX 16 24 23 26 24 27 25 28 26 29 27 30 28 31 29 32 30 33 94 34
REMARK SMILES IDX 31 35 93 36 32 37 33 38 34 39 87 40 35 41 92 42 86 43 88 44
REMARK SMILES IDX 36 45 91 46 85 47 84 48 37 50 71 51 50 52 70 53 51 54 54 55
REMARK SMILES IDX 69 56 89 57 52 58 53 59 68 61 90 62 55 63 38 64 39 65 48 66
REMARK SMILES IDX 40 67 41 68 47 69 49 70 42 71 43 72 44 73 45 74 46 75 72 76
REMARK SMILES IDX 73 77 82 78 74 79 75 80 81 81 83 82 76 83 77 84 78 85 79 86
REMARK SMILES IDX 80 87 56 88 57 89 66 90 58 91 59 92 65 93 67 94 60 95 61 96
REMARK SMILES IDX 62 97 63 98 64 99
REMARK H PARENT 10 8 17 25 88 49 54 60
REMARK Flexibility Score: inf
ROOT
ATOM      1  C   UNL     1       3.498  -3.340  -5.804  1.00  0.00     0.202 C 
ENDROOT
BRANCH   1   2
ATOM      2  C   UNL     1       2.139  -2.905  -6.363  1.00  0.00     0.261 C 
BRANCH   2   3
ATOM      3  O   UNL     1       1.961  -1.478  -6.292  1.00  0.00    -0.462 OA
BRANCH   3   4
ATOM      4  C   UNL     1       1.320  -1.029  -5.186  1.00  0.00     0.324 C 
ATOM      5  O   UNL     1       0.929  -1.728  -4.257  1.00  0.00    -0.250 OA
BRANCH   4   6
ATOM      6  C   UNL     1       1.107   0.471  -5.196  1.00  0.00     0.185 C 
BRANCH   6   7
ATOM      7  N   UNL     1       0.041   1.034  -6.068  1.00  0.00    -0.195 NA
ATOM      8  H   UNL     1      -0.233   1.935  -5.675  1.00  0.00     0.142 HD
BRANCH   7   9
ATOM      9  S   UNL     1      -1.377   0.106  -6.261  1.00  0.00     0.260 S 
ATOM     10  O   UNL     1      -0.974  -1.079  -6.981  1.00  0.00    -0.205 OA
ATOM     11  O   UNL     1      -2.378   1.016  -6.772  1.00  0.00    -0.205 OA
BRANCH   9  12
ATOM     12  C   UNL     1      -1.988  -0.433  -4.718  1.00  0.00     0.188 A 
ATOM     13  N   UNL     1      -2.282  -0.683  -2.569  1.00  0.00    -0.336 N 
ATOM     14  C   UNL     1      -2.843  -1.734  -3.245  1.00  0.00     0.201 A 
ATOM     15  C   UNL     1      -1.804   0.196  -3.499  1.00  0.00     0.129 A 
ATOM     16  N   UNL     1      -2.688  -1.614  -4.543  1.00  0.00    -0.224 NA
BRANCH  13  17
ATOM     17  C   UNL     1      -2.203  -0.598  -1.124  1.00  0.00     0.120 C 
ATOM     18  C   UNL     1      -1.258   0.458  -0.572  1.00  0.00     0.027 C 
ENDBRANCH  13  17
ENDBRANCH   9  12
ENDBRANCH   7   9
ENDBRANCH   6   7
BRANCH   6  19
ATOM     19  C   UNL     1       2.381   1.329  -5.219  1.00  0.00     0.087 C 
BRANCH  19  20
ATOM     20  C   UNL     1       3.362   1.206  -6.337  1.00  0.00     0.037 A 
ATOM     21  C   UNL     1       4.741   1.286  -6.286  1.00  0.00     0.134 A 
ATOM     22  N   UNL     1       3.085   1.062  -7.675  1.00  0.00    -0.348 N 
ATOM     23  N   UNL     1       5.289   1.220  -7.533  1.00  0.00    -0.245 NA
ATOM     24  C   UNL     1       4.274   1.074  -8.350  1.00  0.00     0.196 A 
ATOM     25  H   UNL     1       2.190   0.968  -8.076  1.00  0.00     0.167 HD
ENDBRANCH  19  20
ENDBRANCH   6  19
ENDBRANCH   4   6
ENDBRANCH   3   4
ENDBRANCH   2   3
ENDBRANCH   1   2
BRANCH   1  26
ATOM     26  O   UNL     1       3.606  -3.293  -4.380  1.00  0.00    -0.374 OA
BRANCH  26  27
ATOM     27  C   UNL     1       4.077  -2.065  -3.825  1.00  0.00     0.202 C 
BRANCH  27  28
ATOM     28  C   UNL     1       5.600  -1.918  -3.777  1.00  0.00     0.261 C 
BRANCH  28  29
ATOM     29  O   UNL     1       6.121  -1.654  -5.091  1.00  0.00    -0.460 OA
BRANCH  29  30
ATOM     30  C   UNL     1       6.762  -2.694  -5.675  1.00  0.00     0.338 C 
ATOM     31  O   UNL     1       7.043  -3.761  -5.154  1.00  0.00    -0.246 OA
BRANCH  30  32
ATOM     32  C   UNL     1       6.918  -2.445  -7.125  1.00  0.00     0.060 A 
ATOM     33  C   UNL     1       6.656  -3.513  -7.992  1.00  0.00     0.016 A 
ATOM     34  C   UNL     1       7.340  -1.216  -7.634  1.00  0.00     0.016 A 
ATOM     35  C   UNL     1       6.876  -3.374  -9.362  1.00  0.00     0.010 A 
ATOM     36  C   UNL     1       7.551  -1.074  -9.010  1.00  0.00     0.010 A 
ATOM     37  C   UNL     1       7.367  -2.166  -9.875  1.00  0.00    -0.014 A 
BRANCH  37  38
ATOM     38  C   UNL     1       7.851  -2.112 -11.278  1.00  0.00     0.031 A 
ATOM     39  C   UNL     1       9.335  -2.164 -11.532  1.00  0.00     0.074 A 
ATOM     40  C   UNL     1       6.991  -2.070 -12.312  1.00  0.00     0.049 A 
ATOM     41  N   UNL     1       9.984  -2.150 -12.667  1.00  0.00    -0.248 NA
ATOM     42  C   UNL     1      10.203  -2.241 -10.345  1.00  0.00     0.031 C 
ATOM     43  C   UNL     1       5.533  -2.039 -12.200  1.00  0.00     0.029 A 
ATOM     44  N   UNL     1       7.224  -2.049 -13.665  1.00  0.00    -0.354 N 
ATOM     45  C   UNL     1      11.332  -2.208 -12.333  1.00  0.00     0.074 A 
ATOM     46  C   UNL     1      11.411  -2.218 -10.889  1.00  0.00     0.031 C 
ATOM     47  C   UNL     1       5.002  -2.004 -13.435  1.00  0.00     0.029 A 
ATOM     48  C   UNL     1       6.080  -1.986 -14.423  1.00  0.00     0.049 A 
ATOM     49  H   UNL     1       8.127  -2.075 -14.055  1.00  0.00     0.167 HD
ATOM     50  C   UNL     1      12.409  -2.265 -13.152  1.00  0.00     0.037 A 
ATOM     51  C   UNL     1       5.922  -1.915 -15.760  1.00  0.00     0.037 A 
ATOM     52  C   UNL     1      12.331  -2.269 -14.588  1.00  0.00     0.049 A 
ATOM     53  C   UNL     1       7.137  -1.936 -16.653  1.00  0.00     0.074 A 
ATOM     54  C   UNL     1      13.364  -2.353 -15.506  1.00  0.00     0.029 A 
ATOM     55  N   UNL     1      11.155  -2.182 -15.317  1.00  0.00    -0.354 N 
ATOM     56  N   UNL     1       8.403  -2.027 -16.322  1.00  0.00    -0.248 NA
ATOM     57  C   UNL     1       6.901  -1.853 -18.102  1.00  0.00     0.031 C 
ATOM     58  C   UNL     1      12.815  -2.273 -16.790  1.00  0.00     0.029 A 
ATOM     59  C   UNL     1      11.437  -2.189 -16.673  1.00  0.00     0.049 A 
ATOM     60  H   UNL     1      10.252  -2.124 -14.928  1.00  0.00     0.167 HD
ATOM     61  C   UNL     1       9.111  -2.040 -17.521  1.00  0.00     0.074 A 
ATOM     62  C   UNL     1       8.132  -1.957 -18.584  1.00  0.00     0.031 C 
ATOM     63  C   UNL     1      10.450  -2.116 -17.722  1.00  0.00     0.037 A 
BRANCH  50  64
ATOM     64  C   UNL     1      13.767  -2.314 -12.509  1.00  0.00     0.058 A 
ATOM     65  C   UNL     1      14.227  -3.459 -11.839  1.00  0.00     0.135 A 
ATOM     66  C   UNL     1      14.629  -1.208 -12.583  1.00  0.00     0.135 A 
ATOM     67  F   UNL     1      13.436  -4.538 -11.723  1.00  0.00    -0.206 F 
ATOM     68  C   UNL     1      15.482  -3.496 -11.240  1.00  0.00     0.059 A 
ATOM     69  C   UNL     1      15.899  -1.232 -12.014  1.00  0.00     0.059 A 
ATOM     70  F   UNL     1      14.239  -0.087 -13.210  1.00  0.00    -0.206 F 
ATOM     71  C   UNL     1      16.311  -2.377 -11.332  1.00  0.00     0.060 A 
BRANCH  71  72
ATOM     72  S   UNL     1      17.937  -2.440 -10.551  1.00  0.00     0.124 S 
ATOM     73  O   UNL     1      17.586  -2.331  -9.138  1.00  0.00    -0.237 OA
ATOM     74  O   UNL     1      18.440  -3.741 -10.980  1.00  0.00    -0.237 OA
ATOM     75  O   UNL     1      18.631  -1.287 -11.115  1.00  0.00    -0.744 OA
ENDBRANCH  71  72
ENDBRANCH  50  64
BRANCH  51  76
ATOM     76  C   UNL     1       4.557  -1.816 -16.343  1.00  0.00     0.058 A 
ATOM     77  C   UNL     1       3.998  -2.878 -17.070  1.00  0.00     0.135 A 
ATOM     78  C   UNL     1       3.787  -0.652 -16.192  1.00  0.00     0.135 A 
ATOM     79  F   UNL     1       4.699  -4.007 -17.252  1.00  0.00    -0.206 F 
ATOM     80  C   UNL     1       2.731  -2.786 -17.638  1.00  0.00     0.059 A 
ATOM     81  C   UNL     1       2.509  -0.544 -16.730  1.00  0.00     0.059 A 
ATOM     82  F   UNL     1       4.271   0.389 -15.496  1.00  0.00    -0.206 F 
ATOM     83  C   UNL     1       1.994  -1.614 -17.461  1.00  0.00     0.060 A 
BRANCH  83  84
ATOM     84  S   UNL     1       0.333  -1.519 -18.164  1.00  0.00     0.124 S 
ATOM     85  O   UNL     1       0.624  -1.359 -19.584  1.00  0.00    -0.237 OA
ATOM     86  O   UNL     1      -0.241  -2.801 -17.770  1.00  0.00    -0.237 OA
ATOM     87  O   UNL     1      -0.244  -0.353 -17.502  1.00  0.00    -0.744 OA
ENDBRANCH  83  84
ENDBRANCH  51  76
BRANCH  63  88
ATOM     88  C   UNL     1      10.942  -2.150 -19.144  1.00  0.00     0.058 A 
ATOM     89  C   UNL     1      10.931  -1.006 -19.957  1.00  0.00     0.135 A 
ATOM     90  C   UNL     1      11.491  -3.327 -19.678  1.00  0.00     0.135 A 
ATOM     91  F   UNL     1      10.414   0.145 -19.497  1.00  0.00    -0.206 F 
ATOM     92  C   UNL     1      11.427  -1.033 -21.257  1.00  0.00     0.059 A 
ATOM     93  C   UNL     1      12.017  -3.371 -20.965  1.00  0.00     0.059 A 
ATOM     94  F   UNL     1      11.538  -4.447 -18.938  1.00  0.00    -0.206 F 
ATOM     95  C   UNL     1      11.971  -2.221 -21.751  1.00  0.00     0.060 A 
BRANCH  95  96
ATOM     96  S   UNL     1      12.646  -2.234 -23.426  1.00  0.00     0.124 S 
ATOM     97  O   UNL     1      11.431  -2.234 -24.233  1.00  0.00    -0.237 OA
ATOM     98  O   UNL     1      13.429  -1.002 -23.458  1.00  0.00    -0.237 OA
ATOM     99  O   UNL     1      13.428  -3.466 -23.467  1.00  0.00    -0.744 OA
ENDBRANCH  95  96
ENDBRANCH  63  88
ENDBRANCH  37  38
ENDBRANCH  30  32
ENDBRANCH  29  30
ENDBRANCH  28  29
ENDBRANCH  27  28
ENDBRANCH  26  27
ENDBRANCH   1  26
TORSDOF 23
