REMARK SMILES Cc1cc(CS(=O)(=O)N[C@@H]2C=C[C@H](C(=O)OCCOCCOC(=O)c3ccc(-c4c5nc(c(-c6c(F)cc(S(=O)(=O)[O-])cc6F)c6ccc([nH]6)c(-c6c(F)cc(S(=O)(=O)[O-])cc6F)c6nc(c(-c7c(F)cc(S(=O)(=O)[O-])cc7F)c7ccc4[nH]7)C=C6)C=C5)cc3)C2)no1
REMARK SMILES IDX 18 1 17 2 16 3 14 4 15 5 13 6 10 7 11 8 91 9 12 10 9 11 6 13
REMARK SMILES IDX 7 14 8 15 5 16 4 17 1 18 2 19 3 20 93 21 92 22 19 23 20 24
REMARK SMILES IDX 21 25 22 26 23 27 24 28 25 29 26 30 90 31 27 32 89 33 28 34
REMARK SMILES IDX 29 35 30 36 83 37 31 38 88 39 82 40 84 41 32 42 87 43 81 44
REMARK SMILES IDX 80 45 33 47 67 48 46 49 66 50 47 51 50 52 65 53 85 54 48 55
REMARK SMILES IDX 49 56 64 58 86 59 51 60 34 61 35 62 44 63 36 64 37 65 43 66
REMARK SMILES IDX 45 67 38 68 39 69 40 70 41 71 42 72 68 73 69 74 78 75 70 76
REMARK SMILES IDX 71 77 77 78 79 79 72 80 73 81 74 82 75 83 76 84 52 85 53 86
REMARK SMILES IDX 62 87 54 88 55 89 61 90 63 91 56 92 57 93 58 94 59 95 60 96
REMARK H PARENT 9 12 84 46 50 57
REMARK Flexibility Score: inf
ROOT
ATOM      1  C   UNL     1       4.647   0.676   4.338  1.00  0.00     0.202 C 
ENDROOT
BRANCH   1   2
ATOM      2  C   UNL     1       3.709   0.366   3.168  1.00  0.00     0.261 C 
BRANCH   2   3
ATOM      3  O   UNL     1       2.349   0.602   3.551  1.00  0.00    -0.463 OA
BRANCH   3   4
ATOM      4  C   UNL     1       1.506  -0.461   3.431  1.00  0.00     0.312 C 
ATOM      5  O   UNL     1       1.760  -1.502   2.841  1.00  0.00    -0.252 OA
BRANCH   4   6
ATOM      6  C   UNL     1       0.238  -0.219   4.239  1.00  0.00     0.123 C 
ATOM      7  C   UNL     1      -1.807  -0.630   2.980  1.00  0.00     0.093 C 
ATOM      8  C   UNL     1      -1.535   0.831   3.147  1.00  0.00    -0.011 C 
ATOM      9  C   UNL     1      -0.829  -1.280   3.950  1.00  0.00     0.043 C 
ATOM     10  C   UNL     1      -0.426   1.063   3.851  1.00  0.00    -0.015 C 
BRANCH   7  11
ATOM     11  N   UNL     1      -1.529  -0.930   1.584  1.00  0.00    -0.208 NA
ATOM     12  H   UNL     1      -1.442  -0.038   1.098  1.00  0.00     0.141 HD
BRANCH  11  13
ATOM     13  S   UNL     1      -2.626  -1.856   0.719  1.00  0.00     0.218 S 
ATOM     14  O   UNL     1      -2.976  -2.990   1.537  1.00  0.00    -0.212 OA
ATOM     15  O   UNL     1      -1.988  -2.066  -0.570  1.00  0.00    -0.212 OA
BRANCH  13  16
ATOM     16  C   UNL     1      -4.051  -0.762   0.443  1.00  0.00     0.213 C 
BRANCH  16  17
ATOM     17  C   UNL     1      -4.733  -0.342   1.694  1.00  0.00     0.100 A 
ATOM     18  C   UNL     1      -5.325   1.531   4.782  1.00  0.00     0.091 C 
ATOM     19  C   UNL     1      -5.248   0.724   3.551  1.00  0.00     0.133 A 
ATOM     20  C   UNL     1      -4.775   0.950   2.280  1.00  0.00     0.073 A 
ATOM     21  O   UNL     1      -5.643  -0.572   3.654  1.00  0.00    -0.361 OA
ATOM     22  N   UNL     1      -5.361  -1.233   2.472  1.00  0.00    -0.084 NA
ENDBRANCH  16  17
ENDBRANCH  13  16
ENDBRANCH  11  13
ENDBRANCH   7  11
ENDBRANCH   4   6
ENDBRANCH   3   4
ENDBRANCH   2   3
ENDBRANCH   1   2
BRANCH   1  23
ATOM     23  O   UNL     1       4.493  -0.113   5.519  1.00  0.00    -0.374 OA
BRANCH  23  24
ATOM     24  C   UNL     1       3.359   0.135   6.349  1.00  0.00     0.202 C 
BRANCH  24  25
ATOM     25  C   UNL     1       3.348   1.407   7.206  1.00  0.00     0.261 C 
BRANCH  25  26
ATOM     26  O   UNL     1       3.376   2.613   6.425  1.00  0.00    -0.460 OA
BRANCH  26  27
ATOM     27  C   UNL     1       4.543   3.298   6.501  1.00  0.00     0.338 C 
ATOM     28  O   UNL     1       5.516   3.021   7.189  1.00  0.00    -0.246 OA
BRANCH  27  29
ATOM     29  C   UNL     1       4.577   4.359   5.482  1.00  0.00     0.060 A 
ATOM     30  C   UNL     1       5.622   4.327   4.550  1.00  0.00     0.016 A 
ATOM     31  C   UNL     1       3.664   5.415   5.494  1.00  0.00     0.016 A 
ATOM     32  C   UNL     1       5.787   5.377   3.652  1.00  0.00     0.010 A 
ATOM     33  C   UNL     1       3.839   6.476   4.599  1.00  0.00     0.010 A 
ATOM     34  C   UNL     1       4.922   6.477   3.700  1.00  0.00    -0.014 A 
BRANCH  34  35
ATOM     35  C   UNL     1       5.252   7.692   2.919  1.00  0.00     0.031 A 
ATOM     36  C   UNL     1       5.949   8.832   3.610  1.00  0.00     0.074 A 
ATOM     37  C   UNL     1       4.969   7.761   1.606  1.00  0.00     0.049 A 
ATOM     38  N   UNL     1       6.318   9.990   3.130  1.00  0.00    -0.248 NA
ATOM     39  C   UNL     1       6.272   8.638   5.033  1.00  0.00     0.031 C 
ATOM     40  C   UNL     1       4.337   6.701   0.822  1.00  0.00     0.029 A 
ATOM     41  N   UNL     1       5.177   8.771   0.702  1.00  0.00    -0.354 N 
ATOM     42  C   UNL     1       6.906  10.669   4.191  1.00  0.00     0.074 A 
ATOM     43  C   UNL     1       6.823   9.802   5.347  1.00  0.00     0.031 C 
ATOM     44  C   UNL     1       4.205   7.119  -0.448  1.00  0.00     0.029 A 
ATOM     45  C   UNL     1       4.713   8.486  -0.559  1.00  0.00     0.049 A 
ATOM     46  H   UNL     1       5.618   9.620   0.935  1.00  0.00     0.167 HD
ATOM     47  C   UNL     1       7.470  11.900   4.199  1.00  0.00     0.037 A 
ATOM     48  C   UNL     1       4.687   9.248  -1.669  1.00  0.00     0.037 A 
ATOM     49  C   UNL     1       7.555  12.754   3.043  1.00  0.00     0.049 A 
ATOM     50  C   UNL     1       5.261  10.640  -1.620  1.00  0.00     0.074 A 
ATOM     51  C   UNL     1       8.133  14.006   2.938  1.00  0.00     0.029 A 
ATOM     52  N   UNL     1       7.039  12.446   1.793  1.00  0.00    -0.354 N 
ATOM     53  N   UNL     1       5.838  11.260  -0.617  1.00  0.00    -0.248 NA
ATOM     54  C   UNL     1       5.181  11.437  -2.852  1.00  0.00     0.031 C 
ATOM     55  C   UNL     1       7.923  14.477   1.638  1.00  0.00     0.029 A 
ATOM     56  C   UNL     1       7.258  13.497   0.918  1.00  0.00     0.049 A 
ATOM     57  H   UNL     1       6.583  11.604   1.561  1.00  0.00     0.167 HD
ATOM     58  C   UNL     1       6.216  12.506  -1.106  1.00  0.00     0.074 A 
ATOM     59  C   UNL     1       5.808  12.550  -2.495  1.00  0.00     0.031 C 
ATOM     60  C   UNL     1       6.849  13.521  -0.465  1.00  0.00     0.037 A 
BRANCH  47  61
ATOM     61  C   UNL     1       8.006  12.411   5.508  1.00  0.00     0.058 A 
ATOM     62  C   UNL     1       9.177  11.894   6.083  1.00  0.00     0.135 A 
ATOM     63  C   UNL     1       7.346  13.449   6.186  1.00  0.00     0.135 A 
ATOM     64  F   UNL     1       9.837  10.889   5.487  1.00  0.00    -0.206 F 
ATOM     65  C   UNL     1       9.659  12.367   7.300  1.00  0.00     0.059 A 
ATOM     66  C   UNL     1       7.824  13.956   7.390  1.00  0.00     0.059 A 
ATOM     67  F   UNL     1       6.220  13.978   5.681  1.00  0.00    -0.206 F 
ATOM     68  C   UNL     1       8.973  13.396   7.948  1.00  0.00     0.060 A 
BRANCH  68  69
ATOM     69  S   UNL     1       9.605  13.995   9.529  1.00  0.00     0.124 S 
ATOM     70  O   UNL     1       9.237  12.900  10.422  1.00  0.00    -0.237 OA
ATOM     71  O   UNL     1      11.031  14.143   9.262  1.00  0.00    -0.237 OA
ATOM     72  O   UNL     1       8.877  15.243   9.735  1.00  0.00    -0.744 OA
ENDBRANCH  68  69
ENDBRANCH  47  61
BRANCH  48  73
ATOM     73  C   UNL     1       4.092   8.715  -2.923  1.00  0.00     0.058 A 
ATOM     74  C   UNL     1       4.894   8.412  -4.033  1.00  0.00     0.135 A 
ATOM     75  C   UNL     1       2.710   8.496  -3.035  1.00  0.00     0.135 A 
ATOM     76  F   UNL     1       6.220   8.614  -3.977  1.00  0.00    -0.206 F 
ATOM     77  C   UNL     1       4.348   7.921  -5.214  1.00  0.00     0.059 A 
ATOM     78  C   UNL     1       2.143   7.984  -4.198  1.00  0.00     0.059 A 
ATOM     79  F   UNL     1       1.900   8.761  -1.998  1.00  0.00    -0.206 F 
ATOM     80  C   UNL     1       2.970   7.707  -5.285  1.00  0.00     0.060 A 
BRANCH  80  81
ATOM     81  S   UNL     1       2.276   7.022  -6.805  1.00  0.00     0.124 S 
ATOM     82  O   UNL     1       2.351   8.167  -7.704  1.00  0.00    -0.237 OA
ATOM     83  O   UNL     1       3.192   5.922  -7.091  1.00  0.00    -0.237 OA
ATOM     84  O   UNL     1       0.930   6.619  -6.405  1.00  0.00    -0.744 OA
ENDBRANCH  80  81
ENDBRANCH  48  73
BRANCH  60  85
ATOM     85  C   UNL     1       7.172  14.752  -1.266  1.00  0.00     0.058 A 
ATOM     86  C   UNL     1       6.179  15.669  -1.644  1.00  0.00     0.135 A 
ATOM     87  C   UNL     1       8.502  15.046  -1.611  1.00  0.00     0.135 A 
ATOM     88  F   UNL     1       4.892  15.433  -1.345  1.00  0.00    -0.206 F 
ATOM     89  C   UNL     1       6.490  16.823  -2.357  1.00  0.00     0.059 A 
ATOM     90  C   UNL     1       8.839  16.207  -2.299  1.00  0.00     0.059 A 
ATOM     91  F   UNL     1       9.491  14.208  -1.263  1.00  0.00    -0.206 F 
ATOM     92  C   UNL     1       7.824  17.084  -2.678  1.00  0.00     0.060 A 
BRANCH  92  93
ATOM     93  S   UNL     1       8.219  18.602  -3.572  1.00  0.00     0.124 S 
ATOM     94  O   UNL     1       7.767  18.275  -4.920  1.00  0.00    -0.237 OA
ATOM     95  O   UNL     1       7.424  19.600  -2.862  1.00  0.00    -0.237 OA
ATOM     96  O   UNL     1       9.664  18.727  -3.406  1.00  0.00    -0.744 OA
ENDBRANCH  92  93
ENDBRANCH  60  85
ENDBRANCH  34  35
ENDBRANCH  27  29
ENDBRANCH  26  27
ENDBRANCH  25  26
ENDBRANCH  24  25
ENDBRANCH  23  24
ENDBRANCH   1  23
TORSDOF 21
