REMARK SMILES COCCCC(=O)N[C@H]1CC[C@@H](C(=O)OCCOCCOC(=O)c2ccc(-c3c4nc(c(-c5c(F)cc(S(=O)(=O)[O-])cc5F)c5ccc([nH]5)c(-c5c(F)cc(S(=O)(=O)[O-])cc5F)c5nc(c(-c6c(F)cc(S(=O)(=O)[O-])cc6F)c6ccc3[nH]6)C=C5)C=C4)cc2)CC1
REMARK SMILES IDX 17 1 16 2 15 3 13 4 14 5 12 6 9 7 10 8 91 9 11 10 90 11 8 12
REMARK SMILES IDX 6 13 7 14 5 16 4 17 3 18 2 19 1 20 18 21 19 22 20 23 21 24
REMARK SMILES IDX 22 25 23 26 24 27 25 28 89 29 26 30 88 31 27 32 28 33 29 34
REMARK SMILES IDX 82 35 30 36 87 37 81 38 83 39 31 40 86 41 80 42 79 43 32 45
REMARK SMILES IDX 66 46 45 47 65 48 46 49 49 50 64 51 84 52 47 53 48 54 63 56
REMARK SMILES IDX 85 57 50 58 33 59 34 60 43 61 35 62 36 63 42 64 44 65 37 66
REMARK SMILES IDX 38 67 39 68 40 69 41 70 67 71 68 72 77 73 69 74 70 75 76 76
REMARK SMILES IDX 78 77 71 78 72 79 73 80 74 81 75 82 51 83 52 84 61 85 53 86
REMARK SMILES IDX 54 87 60 88 62 89 55 90 56 91 57 92 58 93 59 94
REMARK H PARENT 8 15 83 44 49 55
REMARK Flexibility Score: inf
ROOT
ATOM      1  C   UNL     1       1.313  -1.944   3.642  1.00  0.00     0.202 C 
ENDROOT
BRANCH   1   2
ATOM      2  C   UNL     1       2.519  -2.671   3.040  1.00  0.00     0.261 C 
BRANCH   2   3
ATOM      3  O   UNL     1       2.590  -2.420   1.623  1.00  0.00    -0.463 OA
BRANCH   3   4
ATOM      4  C   UNL     1       2.353  -3.453   0.780  1.00  0.00     0.309 C 
ATOM      5  O   UNL     1       2.140  -4.609   1.119  1.00  0.00    -0.252 OA
BRANCH   4   6
ATOM      6  C   UNL     1       2.364  -3.006  -0.678  1.00  0.00     0.099 C 
ATOM      7  C   UNL     1       3.136  -0.152  -1.243  1.00  0.00     0.082 C 
ATOM      8  C   UNL     1       4.206  -1.207  -0.902  1.00  0.00     0.026 C 
ATOM      9  C   UNL     1       1.848  -0.528  -0.531  1.00  0.00     0.026 C 
ATOM     10  C   UNL     1       3.758  -2.643  -1.199  1.00  0.00     0.017 C 
ATOM     11  C   UNL     1       1.353  -1.902  -0.964  1.00  0.00     0.017 C 
BRANCH   7  12
ATOM     12  N   UNL     1       3.653   1.189  -0.964  1.00  0.00    -0.353 N 
ATOM     13  C   UNL     1       3.078   2.421  -0.980  1.00  0.00     0.220 C 
ATOM     14  O   UNL     1       3.800   3.380  -1.268  1.00  0.00    -0.275 OA
ATOM     15  H   UNL     1       4.606   1.202  -0.715  1.00  0.00     0.163 HD
BRANCH  13  16
ATOM     16  C   UNL     1       1.637   2.658  -0.581  1.00  0.00     0.102 C 
BRANCH  16  17
ATOM     17  C   UNL     1       0.685   2.946  -1.742  1.00  0.00     0.038 C 
BRANCH  17  18
ATOM     18  C   UNL     1       0.088   1.757  -2.502  1.00  0.00     0.160 C 
BRANCH  18  19
ATOM     19  O   UNL     1      -0.797   0.851  -1.842  1.00  0.00    -0.385 OA
ATOM     20  C   UNL     1      -1.428   1.269  -0.645  1.00  0.00     0.194 C 
ENDBRANCH  18  19
ENDBRANCH  17  18
ENDBRANCH  16  17
ENDBRANCH  13  16
ENDBRANCH   7  12
ENDBRANCH   4   6
ENDBRANCH   3   4
ENDBRANCH   2   3
ENDBRANCH   1   2
BRANCH   1  21
ATOM     21  O   UNL     1       0.086  -2.648   3.430  1.00  0.00    -0.374 OA
BRANCH  21  22
ATOM     22  C   UNL     1      -0.687  -2.190   2.320  1.00  0.00     0.202 C 
BRANCH  22  23
ATOM     23  C   UNL     1      -1.658  -1.059   2.673  1.00  0.00     0.261 C 
BRANCH  23  24
ATOM     24  O   UNL     1      -0.944   0.185   2.814  1.00  0.00    -0.460 OA
BRANCH  24  25
ATOM     25  C   UNL     1      -0.772   0.603   4.090  1.00  0.00     0.338 C 
ATOM     26  O   UNL     1      -1.269   0.108   5.094  1.00  0.00    -0.246 OA
BRANCH  25  27
ATOM     27  C   UNL     1       0.254   1.665   4.151  1.00  0.00     0.060 A 
ATOM     28  C   UNL     1       1.138   1.631   5.235  1.00  0.00     0.016 A 
ATOM     29  C   UNL     1       0.329   2.703   3.215  1.00  0.00     0.016 A 
ATOM     30  C   UNL     1       2.046   2.669   5.432  1.00  0.00     0.010 A 
ATOM     31  C   UNL     1       1.250   3.742   3.410  1.00  0.00     0.010 A 
ATOM     32  C   UNL     1       2.077   3.756   4.548  1.00  0.00    -0.014 A 
BRANCH  32  33
ATOM     33  C   UNL     1       2.838   4.973   4.936  1.00  0.00     0.031 A 
ATOM     34  C   UNL     1       2.086   6.154   5.495  1.00  0.00     0.074 A 
ATOM     35  C   UNL     1       4.183   5.002   4.880  1.00  0.00     0.049 A 
ATOM     36  N   UNL     1       2.545   7.295   5.944  1.00  0.00    -0.248 NA
ATOM     37  C   UNL     1       0.621   6.032   5.559  1.00  0.00     0.031 C 
ATOM     38  C   UNL     1       5.033   3.915   4.396  1.00  0.00     0.029 A 
ATOM     39  N   UNL     1       5.070   5.984   5.246  1.00  0.00    -0.354 N 
ATOM     40  C   UNL     1       1.430   8.024   6.339  1.00  0.00     0.074 A 
ATOM     41  C   UNL     1       0.269   7.214   6.041  1.00  0.00     0.031 C 
ATOM     42  C   UNL     1       6.320   4.289   4.500  1.00  0.00     0.029 A 
ATOM     43  C   UNL     1       6.386   5.649   5.035  1.00  0.00     0.049 A 
ATOM     44  H   UNL     1       4.789   6.848   5.625  1.00  0.00     0.167 HD
ATOM     45  C   UNL     1       1.374   9.249   6.914  1.00  0.00     0.037 A 
ATOM     46  C   UNL     1       7.513   6.359   5.241  1.00  0.00     0.037 A 
ATOM     47  C   UNL     1       2.526  10.054   7.222  1.00  0.00     0.049 A 
ATOM     48  C   UNL     1       7.424   7.742   5.834  1.00  0.00     0.074 A 
ATOM     49  C   UNL     1       2.569  11.305   7.812  1.00  0.00     0.029 A 
ATOM     50  N   UNL     1       3.839   9.690   6.963  1.00  0.00    -0.354 N 
ATOM     51  N   UNL     1       6.362   8.410   6.219  1.00  0.00    -0.248 NA
ATOM     52  C   UNL     1       8.689   8.465   6.030  1.00  0.00     0.031 C 
ATOM     53  C   UNL     1       3.905  11.716   7.872  1.00  0.00     0.029 A 
ATOM     54  C   UNL     1       4.699  10.699   7.367  1.00  0.00     0.049 A 
ATOM     55  H   UNL     1       4.120   8.840   6.552  1.00  0.00     0.167 HD
ATOM     56  C   UNL     1       6.835   9.614   6.734  1.00  0.00     0.074 A 
ATOM     57  C   UNL     1       8.277   9.581   6.616  1.00  0.00     0.031 C 
ATOM     58  C   UNL     1       6.136  10.650   7.262  1.00  0.00     0.037 A 
BRANCH  45  59
ATOM     59  C   UNL     1       0.012   9.804   7.231  1.00  0.00     0.058 A 
ATOM     60  C   UNL     1      -0.770   9.289   8.277  1.00  0.00     0.135 A 
ATOM     61  C   UNL     1      -0.507  10.879   6.492  1.00  0.00     0.135 A 
ATOM     62  F   UNL     1      -0.330   8.248   9.002  1.00  0.00    -0.206 F 
ATOM     63  C   UNL     1      -2.032   9.802   8.560  1.00  0.00     0.059 A 
ATOM     64  C   UNL     1      -1.755  11.425   6.776  1.00  0.00     0.059 A 
ATOM     65  F   UNL     1       0.199  11.407   5.480  1.00  0.00    -0.206 F 
ATOM     66  C   UNL     1      -2.517  10.869   7.802  1.00  0.00     0.060 A 
BRANCH  66  67
ATOM     67  S   UNL     1      -4.158  11.520   8.177  1.00  0.00     0.124 S 
ATOM     68  O   UNL     1      -5.017  10.467   7.644  1.00  0.00    -0.237 OA
ATOM     69  O   UNL     1      -4.125  11.635   9.632  1.00  0.00    -0.237 OA
ATOM     70  O   UNL     1      -4.195  12.786   7.452  1.00  0.00    -0.744 OA
ENDBRANCH  66  67
ENDBRANCH  45  59
BRANCH  46  71
ATOM     71  C   UNL     1       8.835   5.774   4.887  1.00  0.00     0.058 A 
ATOM     72  C   UNL     1       9.759   5.411   5.877  1.00  0.00     0.135 A 
ATOM     73  C   UNL     1       9.202   5.576   3.547  1.00  0.00     0.135 A 
ATOM     74  F   UNL     1       9.461   5.593   7.173  1.00  0.00    -0.206 F 
ATOM     75  C   UNL     1      11.007   4.886   5.553  1.00  0.00     0.059 A 
ATOM     76  C   UNL     1      10.432   5.028   3.198  1.00  0.00     0.059 A 
ATOM     77  F   UNL     1       8.350   5.900   2.561  1.00  0.00    -0.206 F 
ATOM     78  C   UNL     1      11.333   4.696   4.209  1.00  0.00     0.060 A 
BRANCH  78  79
ATOM     79  S   UNL     1      12.934   3.967   3.799  1.00  0.00     0.124 S 
ATOM     80  O   UNL     1      13.840   5.077   4.067  1.00  0.00    -0.237 OA
ATOM     81  O   UNL     1      13.006   2.843   4.728  1.00  0.00    -0.237 OA
ATOM     82  O   UNL     1      12.784   3.598   2.394  1.00  0.00    -0.744 OA
ENDBRANCH  78  79
ENDBRANCH  46  71
BRANCH  58  83
ATOM     83  C   UNL     1       6.917  11.815   7.807  1.00  0.00     0.058 A 
ATOM     84  C   UNL     1       7.570  12.731   6.968  1.00  0.00     0.135 A 
ATOM     85  C   UNL     1       6.969  12.046   9.192  1.00  0.00     0.135 A 
ATOM     86  F   UNL     1       7.554  12.557   5.636  1.00  0.00    -0.206 F 
ATOM     87  C   UNL     1       8.271  13.818   7.483  1.00  0.00     0.059 A 
ATOM     88  C   UNL     1       7.641  13.141   9.727  1.00  0.00     0.059 A 
ATOM     89  F   UNL     1       6.351  11.209  10.040  1.00  0.00    -0.206 F 
ATOM     90  C   UNL     1       8.301  14.014   8.865  1.00  0.00     0.060 A 
BRANCH  90  91
ATOM     91  S   UNL     1       9.192  15.442   9.521  1.00  0.00     0.124 S 
ATOM     92  O   UNL     1      10.579  15.017   9.368  1.00  0.00    -0.237 OA
ATOM     93  O   UNL     1       8.757  16.517   8.635  1.00  0.00    -0.237 OA
ATOM     94  O   UNL     1       8.712  15.539  10.896  1.00  0.00    -0.744 OA
ENDBRANCH  90  91
ENDBRANCH  58  83
ENDBRANCH  32  33
ENDBRANCH  25  27
ENDBRANCH  24  25
ENDBRANCH  23  24
ENDBRANCH  22  23
ENDBRANCH  21  22
ENDBRANCH   1  21
TORSDOF 22
