REMARK SMILES O=C(CCc1nc(-c2ccccc2)c(-c2ccccc2)o1)OCCOCCOC(=O)c1ccc(-c2c3nc(c(-c4c(F)cc(S(=O)(=O)[O-])cc4F)c4ccc([nH]4)c(-c4c(F)cc(S(=O)(=O)[O-])cc4F)c4nc(c(-c5c(F)cc(S(=O)(=O)[O-])cc5F)c5ccc2[nH]5)C=C4)C=C3)cc1
REMARK SMILES IDX 25 1 24 2 23 3 22 4 2 5 1 6 3 7 4 8 5 9 6 10 21 11 7 12
REMARK SMILES IDX 14 13 8 14 9 15 13 16 10 17 12 18 11 19 15 20 16 21 20 22
REMARK SMILES IDX 17 23 19 24 18 25 26 26 27 27 28 28 29 29 30 30 31 31 32 32
REMARK SMILES IDX 96 33 33 34 95 35 34 36 35 37 36 38 89 39 37 40 94 41 88 42
REMARK SMILES IDX 90 43 38 44 93 45 87 46 86 47 39 49 73 50 52 51 72 52 53 53
REMARK SMILES IDX 56 54 71 55 91 56 54 57 55 58 70 60 92 61 57 62 40 63 41 64
REMARK SMILES IDX 50 65 42 66 43 67 49 68 51 69 44 70 45 71 46 72 47 73 48 74
REMARK SMILES IDX 74 75 75 76 84 77 76 78 77 79 83 80 85 81 78 82 79 83 80 84
REMARK SMILES IDX 81 85 82 86 58 87 59 88 68 89 60 90 61 91 67 92 69 93 62 94
REMARK SMILES IDX 63 95 64 96 65 97 66 98
REMARK H PARENT 90 48 56 59
REMARK Flexibility Score: inf
ROOT
ATOM      1  O   UNL     1       3.794  -1.837   1.461  1.00  0.00    -0.374 OA
ENDROOT
BRANCH   1   2
ATOM      2  C   UNL     1       4.533  -0.645   1.216  1.00  0.00     0.202 C 
BRANCH   2   3
ATOM      3  C   UNL     1       3.755   0.603   0.794  1.00  0.00     0.261 C 
BRANCH   3   4
ATOM      4  O   UNL     1       2.553   0.422   0.016  1.00  0.00    -0.463 OA
BRANCH   4   5
ATOM      5  C   UNL     1       2.435  -0.007  -1.251  1.00  0.00     0.306 C 
ATOM      6  O   UNL     1       1.464   0.335  -1.925  1.00  0.00    -0.252 OA
BRANCH   5   7
ATOM      7  C   UNL     1       3.424  -0.988  -1.807  1.00  0.00     0.132 C 
BRANCH   7   8
ATOM      8  C   UNL     1       4.324  -0.364  -2.858  1.00  0.00     0.109 C 
BRANCH   8   9
ATOM      9  C   UNL     1       5.354   0.517  -2.257  1.00  0.00     0.196 A 
ATOM     10  N   UNL     1       6.503   0.187  -1.702  1.00  0.00    -0.213 NA
ATOM     11  O   UNL     1       5.050   1.847  -2.193  1.00  0.00    -0.440 OA
ATOM     12  C   UNL     1       6.995   1.386  -1.228  1.00  0.00     0.117 A 
ATOM     13  C   UNL     1       6.120   2.407  -1.549  1.00  0.00     0.162 A 
BRANCH  12  14
ATOM     14  C   UNL     1       8.224   1.518  -0.470  1.00  0.00     0.004 A 
ATOM     15  C   UNL     1       8.289   2.343   0.664  1.00  0.00     0.010 A 
ATOM     16  C   UNL     1       9.374   0.833  -0.877  1.00  0.00     0.010 A 
ATOM     17  C   UNL     1       9.492   2.514   1.351  1.00  0.00     0.001 A 
ATOM     18  C   UNL     1      10.579   1.007  -0.189  1.00  0.00     0.001 A 
ATOM     19  C   UNL     1      10.638   1.852   0.919  1.00  0.00     0.000 A 
ENDBRANCH  12  14
BRANCH  13  20
ATOM     20  C   UNL     1       6.073   3.840  -1.342  1.00  0.00     0.020 A 
ATOM     21  C   UNL     1       4.993   4.426  -0.668  1.00  0.00     0.012 A 
ATOM     22  C   UNL     1       7.141   4.646  -1.755  1.00  0.00     0.012 A 
ATOM     23  C   UNL     1       4.991   5.796  -0.401  1.00  0.00     0.001 A 
ATOM     24  C   UNL     1       7.132   6.017  -1.497  1.00  0.00     0.001 A 
ATOM     25  C   UNL     1       6.058   6.590  -0.819  1.00  0.00     0.000 A 
ENDBRANCH  13  20
ENDBRANCH   8   9
ENDBRANCH   7   8
ENDBRANCH   5   7
ENDBRANCH   4   5
ENDBRANCH   3   4
ENDBRANCH   2   3
ENDBRANCH   1   2
BRANCH   1  26
ATOM     26  C   UNL     1       2.565  -1.753   2.172  1.00  0.00     0.202 C 
BRANCH  26  27
ATOM     27  C   UNL     1       2.652  -1.431   3.664  1.00  0.00     0.261 C 
BRANCH  27  28
ATOM     28  O   UNL     1       3.085  -0.082   3.902  1.00  0.00    -0.460 OA
BRANCH  28  29
ATOM     29  C   UNL     1       4.327   0.035   4.421  1.00  0.00     0.338 C 
ATOM     30  O   UNL     1       5.097  -0.875   4.702  1.00  0.00    -0.246 OA
BRANCH  29  31
ATOM     31  C   UNL     1       4.725   1.452   4.475  1.00  0.00     0.060 A 
ATOM     32  C   UNL     1       5.997   1.791   3.995  1.00  0.00     0.016 A 
ATOM     33  C   UNL     1       3.918   2.410   5.094  1.00  0.00     0.016 A 
ATOM     34  C   UNL     1       6.502   3.068   4.214  1.00  0.00     0.010 A 
ATOM     35  C   UNL     1       4.430   3.691   5.318  1.00  0.00     0.010 A 
ATOM     36  C   UNL     1       5.745   4.003   4.931  1.00  0.00    -0.014 A 
BRANCH  36  37
ATOM     37  C   UNL     1       6.423   5.199   5.487  1.00  0.00     0.031 A 
ATOM     38  C   UNL     1       6.906   5.143   6.913  1.00  0.00     0.074 A 
ATOM     39  C   UNL     1       6.655   6.286   4.733  1.00  0.00     0.049 A 
ATOM     40  N   UNL     1       7.506   6.061   7.624  1.00  0.00    -0.248 NA
ATOM     41  C   UNL     1       6.681   3.877   7.630  1.00  0.00     0.031 C 
ATOM     42  C   UNL     1       6.294   6.431   3.325  1.00  0.00     0.029 A 
ATOM     43  N   UNL     1       7.256   7.476   5.053  1.00  0.00    -0.354 N 
ATOM     44  C   UNL     1       7.713   5.492   8.876  1.00  0.00     0.074 A 
ATOM     45  C   UNL     1       7.156   4.158   8.833  1.00  0.00     0.031 C 
ATOM     46  C   UNL     1       6.679   7.647   2.902  1.00  0.00     0.029 A 
ATOM     47  C   UNL     1       7.286   8.375   4.014  1.00  0.00     0.049 A 
ATOM     48  H   UNL     1       7.631   7.669   5.942  1.00  0.00     0.167 HD
ATOM     49  C   UNL     1       8.318   6.029   9.961  1.00  0.00     0.037 A 
ATOM     50  C   UNL     1       7.741   9.643   3.973  1.00  0.00     0.037 A 
ATOM     51  C   UNL     1       8.877   7.355   9.994  1.00  0.00     0.049 A 
ATOM     52  C   UNL     1       8.359  10.242   5.209  1.00  0.00     0.074 A 
ATOM     53  C   UNL     1       9.517   7.995  11.041  1.00  0.00     0.029 A 
ATOM     54  N   UNL     1       8.857   8.246   8.931  1.00  0.00    -0.354 N 
ATOM     55  N   UNL     1       8.551   9.695   6.386  1.00  0.00    -0.248 NA
ATOM     56  C   UNL     1       8.829  11.631   5.109  1.00  0.00     0.031 C 
ATOM     57  C   UNL     1       9.845   9.290  10.624  1.00  0.00     0.029 A 
ATOM     58  C   UNL     1       9.458   9.438   9.302  1.00  0.00     0.049 A 
ATOM     59  H   UNL     1       8.473   8.060   8.045  1.00  0.00     0.167 HD
ATOM     60  C   UNL     1       9.200  10.657   7.154  1.00  0.00     0.074 A 
ATOM     61  C   UNL     1       9.366  11.821   6.307  1.00  0.00     0.031 C 
ATOM     62  C   UNL     1       9.628  10.581   8.439  1.00  0.00     0.037 A 
BRANCH  49  63
ATOM     63  C   UNL     1       8.359   5.194  11.211  1.00  0.00     0.058 A 
ATOM     64  C   UNL     1       9.175   4.056  11.320  1.00  0.00     0.135 A 
ATOM     65  C   UNL     1       7.556   5.531  12.312  1.00  0.00     0.135 A 
ATOM     66  F   UNL     1       9.947   3.675  10.290  1.00  0.00    -0.206 F 
ATOM     67  C   UNL     1       9.163   3.260  12.462  1.00  0.00     0.059 A 
ATOM     68  C   UNL     1       7.549   4.766  13.474  1.00  0.00     0.059 A 
ATOM     69  F   UNL     1       6.754   6.607  12.259  1.00  0.00    -0.206 F 
ATOM     70  C   UNL     1       8.341   3.621  13.531  1.00  0.00     0.060 A 
BRANCH  70  71
ATOM     71  S   UNL     1       8.313   2.567  14.997  1.00  0.00     0.124 S 
ATOM     72  O   UNL     1       7.533   1.429  14.521  1.00  0.00    -0.237 OA
ATOM     73  O   UNL     1       9.731   2.311  15.226  1.00  0.00    -0.237 OA
ATOM     74  O   UNL     1       7.660   3.400  16.002  1.00  0.00    -0.744 OA
ENDBRANCH  70  71
ENDBRANCH  49  63
BRANCH  50  75
ATOM     75  C   UNL     1       7.642  10.427   2.713  1.00  0.00     0.058 A 
ATOM     76  C   UNL     1       8.788  10.757   1.976  1.00  0.00     0.135 A 
ATOM     77  C   UNL     1       6.400  10.854   2.218  1.00  0.00     0.135 A 
ATOM     78  F   UNL     1       9.999  10.380   2.413  1.00  0.00    -0.206 F 
ATOM     79  C   UNL     1       8.709  11.491   0.797  1.00  0.00     0.059 A 
ATOM     80  C   UNL     1       6.293  11.569   1.029  1.00  0.00     0.059 A 
ATOM     81  F   UNL     1       5.272  10.555   2.881  1.00  0.00    -0.206 F 
ATOM     82  C   UNL     1       7.455  11.888   0.329  1.00  0.00     0.060 A 
BRANCH  82  83
ATOM     83  S   UNL     1       7.361  12.785  -1.235  1.00  0.00     0.124 S 
ATOM     84  O   UNL     1       7.888  14.091  -0.858  1.00  0.00    -0.237 OA
ATOM     85  O   UNL     1       8.213  11.976  -2.101  1.00  0.00    -0.237 OA
ATOM     86  O   UNL     1       5.937  12.746  -1.557  1.00  0.00    -0.744 OA
ENDBRANCH  82  83
ENDBRANCH  50  75
BRANCH  62  87
ATOM     87  C   UNL     1      10.374  11.765   8.991  1.00  0.00     0.058 A 
ATOM     88  C   UNL     1       9.730  12.969   9.312  1.00  0.00     0.135 A 
ATOM     89  C   UNL     1      11.754  11.674   9.239  1.00  0.00     0.135 A 
ATOM     90  F   UNL     1       8.413  13.110   9.091  1.00  0.00    -0.206 F 
ATOM     91  C   UNL     1      10.432  14.053   9.829  1.00  0.00     0.059 A 
ATOM     92  C   UNL     1      12.471  12.735   9.782  1.00  0.00     0.059 A 
ATOM     93  F   UNL     1      12.417  10.539   8.963  1.00  0.00    -0.206 F 
ATOM     94  C   UNL     1      11.804  13.927  10.058  1.00  0.00     0.060 A 
BRANCH  94  95
ATOM     95  S   UNL     1      12.704  15.334  10.743  1.00  0.00     0.124 S 
ATOM     96  O   UNL     1      12.809  16.209   9.581  1.00  0.00    -0.237 OA
ATOM     97  O   UNL     1      11.812  15.792  11.804  1.00  0.00    -0.237 OA
ATOM     98  O   UNL     1      13.959  14.743  11.201  1.00  0.00    -0.744 OA
ENDBRANCH  94  95
ENDBRANCH  62  87
ENDBRANCH  36  37
ENDBRANCH  29  31
ENDBRANCH  28  29
ENDBRANCH  27  28
ENDBRANCH  26  27
ENDBRANCH   1  26
TORSDOF 21
