REMARK SMILES COc1cc(Cl)c2c(c1)C=C(C(=O)OCCOCCOC(=O)c1ccc(-c3c4nc(c(-c5c(F)cc(S(=O)(=O)[O-])cc5F)c5ccc([nH]5)c(-c5c(F)cc(S(=O)(=O)[O-])cc5F)c5nc(c(-c6c(F)cc(S(=O)(=O)[O-])cc6F)c6ccc3[nH]6)C=C5)C=C4)cc1)[C@@H](C(F)(F)F)O2
REMARK SMILES IDX 18 1 17 2 16 3 15 4 14 5 12 6 13 7 11 8 3 9 4 10 9 11 5 12
REMARK SMILES IDX 8 13 6 14 7 15 10 16 94 17 89 18 2 19 1 20 90 21 91 22 92 23
REMARK SMILES IDX 93 24 19 25 20 26 21 27 22 28 23 29 24 30 88 31 25 32 87 33
REMARK SMILES IDX 26 34 27 35 28 36 81 37 29 38 86 39 80 40 82 41 30 42 85 43
REMARK SMILES IDX 79 44 78 45 31 47 65 48 44 49 64 50 45 51 48 52 63 53 83 54
REMARK SMILES IDX 46 55 47 56 62 58 84 59 49 60 32 61 33 62 42 63 34 64 35 65
REMARK SMILES IDX 41 66 43 67 36 68 37 69 38 70 39 71 40 72 66 73 67 74 76 75
REMARK SMILES IDX 68 76 69 77 75 78 77 79 70 80 71 81 72 82 73 83 74 84 50 85
REMARK SMILES IDX 51 86 60 87 52 88 53 89 59 90 61 91 54 92 55 93 56 94 57 95
REMARK SMILES IDX 58 96
REMARK H PARENT 82 46 48 57
REMARK Flexibility Score: inf
ROOT
ATOM      1  C   UNL     1      -2.908  -8.365  -1.194  1.00  0.00     0.202 C 
ENDROOT
BRANCH   1   2
ATOM      2  O   UNL     1      -4.004  -8.641  -2.068  1.00  0.00    -0.374 OA
BRANCH   2   3
ATOM      3  C   UNL     1      -3.705  -9.261  -3.318  1.00  0.00     0.202 C 
BRANCH   3   4
ATOM      4  C   UNL     1      -3.225  -8.323  -4.428  1.00  0.00     0.261 C 
BRANCH   4   5
ATOM      5  O   UNL     1      -2.011  -7.654  -4.049  1.00  0.00    -0.460 OA
BRANCH   5   6
ATOM      6  C   UNL     1      -2.126  -6.317  -3.890  1.00  0.00     0.338 C 
ATOM      7  O   UNL     1      -3.100  -5.627  -4.153  1.00  0.00    -0.246 OA
BRANCH   6   8
ATOM      8  C   UNL     1      -0.926  -5.786  -3.216  1.00  0.00     0.087 C 
ATOM      9  C   UNL     1       0.874  -2.399  -0.332  1.00  0.00     0.121 A 
ATOM     10  C   UNL     1       2.171  -2.788  -0.651  1.00  0.00     0.070 A 
ATOM     11  C   UNL     1      -0.216  -3.109  -0.825  1.00  0.00     0.058 A 
ATOM     12  C   UNL     1       2.372  -3.888  -1.490  1.00  0.00     0.087 A 
ATOM     13  C   UNL     1      -0.014  -4.186  -1.694  1.00  0.00     0.022 A 
ATOM     14  Cl  UNL     1       3.998  -4.333  -1.870  1.00  0.00    -0.080 Cl
ATOM     15  C   UNL     1       1.282  -4.593  -2.022  1.00  0.00     0.146 A 
ATOM     16  C   UNL     1      -1.158  -4.841  -2.297  1.00  0.00     0.027 C 
ATOM     17  O   UNL     1       1.533  -5.671  -2.827  1.00  0.00    -0.474 OA
ATOM     18  C   UNL     1       0.447  -6.272  -3.589  1.00  0.00     0.316 C 
BRANCH   9  19
ATOM     19  O   UNL     1       0.611  -1.352   0.507  1.00  0.00    -0.497 OA
ATOM     20  C   UNL     1       1.051  -0.113  -0.050  1.00  0.00     0.278 C 
ENDBRANCH   9  19
BRANCH  18  21
ATOM     21  C   UNL     1       0.745  -6.097  -5.086  1.00  0.00     0.430 C 
ATOM     22  F   UNL     1       1.999  -6.504  -5.390  1.00  0.00    -0.167 F 
ATOM     23  F   UNL     1      -0.101  -6.822  -5.854  1.00  0.00    -0.167 F 
ATOM     24  F   UNL     1       0.632  -4.804  -5.469  1.00  0.00    -0.167 F 
ENDBRANCH  18  21
ENDBRANCH   6   8
ENDBRANCH   5   6
ENDBRANCH   4   5
ENDBRANCH   3   4
ENDBRANCH   2   3
ENDBRANCH   1   2
BRANCH   1  25
ATOM     25  C   UNL     1      -2.315  -9.558  -0.434  1.00  0.00     0.261 C 
BRANCH  25  26
ATOM     26  O   UNL     1      -1.586 -10.447  -1.300  1.00  0.00    -0.460 OA
BRANCH  26  27
ATOM     27  C   UNL     1      -2.167 -11.656  -1.493  1.00  0.00     0.338 C 
ATOM     28  O   UNL     1      -3.206 -12.062  -0.993  1.00  0.00    -0.246 OA
BRANCH  27  29
ATOM     29  C   UNL     1      -1.457 -12.395  -2.551  1.00  0.00     0.060 A 
ATOM     30  C   UNL     1      -2.200 -12.843  -3.651  1.00  0.00     0.016 A 
ATOM     31  C   UNL     1      -0.109 -12.735  -2.416  1.00  0.00     0.016 A 
ATOM     32  C   UNL     1      -1.610 -13.676  -4.600  1.00  0.00     0.010 A 
ATOM     33  C   UNL     1       0.475 -13.587  -3.357  1.00  0.00     0.010 A 
ATOM     34  C   UNL     1      -0.282 -14.089  -4.431  1.00  0.00    -0.014 A 
BRANCH  34  35
ATOM     35  C   UNL     1       0.272 -15.174  -5.274  1.00  0.00     0.031 A 
ATOM     36  C   UNL     1       0.188 -16.590  -4.773  1.00  0.00     0.074 A 
ATOM     37  C   UNL     1       0.833 -14.902  -6.465  1.00  0.00     0.049 A 
ATOM     38  N   UNL     1       0.707 -17.678  -5.277  1.00  0.00    -0.248 NA
ATOM     39  C   UNL     1      -0.591 -16.810  -3.541  1.00  0.00     0.031 C 
ATOM     40  C   UNL     1       0.903 -13.580  -7.087  1.00  0.00     0.029 A 
ATOM     41  N   UNL     1       1.460 -15.729  -7.362  1.00  0.00    -0.354 N 
ATOM     42  C   UNL     1       0.312 -18.711  -4.435  1.00  0.00     0.074 A 
ATOM     43  C   UNL     1      -0.469 -18.119  -3.371  1.00  0.00     0.031 C 
ATOM     44  C   UNL     1       1.556 -13.683  -8.258  1.00  0.00     0.029 A 
ATOM     45  C   UNL     1       1.980 -15.069  -8.450  1.00  0.00     0.049 A 
ATOM     46  H   UNL     1       1.531 -16.703  -7.239  1.00  0.00     0.167 HD
ATOM     47  C   UNL     1       0.573 -20.035  -4.545  1.00  0.00     0.037 A 
ATOM     48  C   UNL     1       2.734 -15.531  -9.466  1.00  0.00     0.037 A 
ATOM     49  C   UNL     1       1.369 -20.614  -5.594  1.00  0.00     0.049 A 
ATOM     50  C   UNL     1       3.106 -16.992  -9.502  1.00  0.00     0.074 A 
ATOM     51  C   UNL     1       1.740 -21.937  -5.764  1.00  0.00     0.029 A 
ATOM     52  N   UNL     1       1.909 -19.908  -6.658  1.00  0.00    -0.354 N 
ATOM     53  N   UNL     1       2.769 -17.951  -8.673  1.00  0.00    -0.248 NA
ATOM     54  C   UNL     1       3.966 -17.433 -10.611  1.00  0.00     0.031 C 
ATOM     55  C   UNL     1       2.527 -22.026  -6.916  1.00  0.00     0.029 A 
ATOM     56  C   UNL     1       2.609 -20.767  -7.487  1.00  0.00     0.049 A 
ATOM     57  H   UNL     1       1.810 -18.939  -6.802  1.00  0.00     0.167 HD
ATOM     58  C   UNL     1       3.337 -19.113  -9.185  1.00  0.00     0.074 A 
ATOM     59  C   UNL     1       4.042 -18.738 -10.392  1.00  0.00     0.031 C 
ATOM     60  C   UNL     1       3.277 -20.379  -8.702  1.00  0.00     0.037 A 
BRANCH  47  61
ATOM     61  C   UNL     1      -0.003 -20.957  -3.509  1.00  0.00     0.058 A 
ATOM     62  C   UNL     1      -1.360 -21.312  -3.528  1.00  0.00     0.135 A 
ATOM     63  C   UNL     1       0.823 -21.564  -2.550  1.00  0.00     0.135 A 
ATOM     64  F   UNL     1      -2.196 -20.741  -4.410  1.00  0.00    -0.206 F 
ATOM     65  C   UNL     1      -1.877 -22.248  -2.638  1.00  0.00     0.059 A 
ATOM     66  C   UNL     1       0.331 -22.516  -1.662  1.00  0.00     0.059 A 
ATOM     67  F   UNL     1       2.126 -21.249  -2.484  1.00  0.00    -0.206 F 
ATOM     68  C   UNL     1      -1.021 -22.853  -1.716  1.00  0.00     0.060 A 
BRANCH  68  69
ATOM     69  S   UNL     1      -1.698 -24.112  -0.614  1.00  0.00     0.124 S 
ATOM     70  O   UNL     1      -2.545 -23.309   0.263  1.00  0.00    -0.237 OA
ATOM     71  O   UNL     1      -2.400 -24.992  -1.542  1.00  0.00    -0.237 OA
ATOM     72  O   UNL     1      -0.513 -24.687   0.016  1.00  0.00    -0.744 OA
ENDBRANCH  68  69
ENDBRANCH  47  61
BRANCH  48  73
ATOM     73  C   UNL     1       3.210 -14.611 -10.534  1.00  0.00     0.058 A 
ATOM     74  C   UNL     1       2.731 -14.725 -11.848  1.00  0.00     0.135 A 
ATOM     75  C   UNL     1       4.183 -13.633 -10.276  1.00  0.00     0.135 A 
ATOM     76  F   UNL     1       1.808 -15.652 -12.146  1.00  0.00    -0.206 F 
ATOM     77  C   UNL     1       3.220 -13.925 -12.874  1.00  0.00     0.059 A 
ATOM     78  C   UNL     1       4.670 -12.803 -11.281  1.00  0.00     0.059 A 
ATOM     79  F   UNL     1       4.667 -13.477  -9.034  1.00  0.00    -0.206 F 
ATOM     80  C   UNL     1       4.195 -12.969 -12.581  1.00  0.00     0.060 A 
BRANCH  80  81
ATOM     81  S   UNL     1       4.821 -11.932 -13.920  1.00  0.00     0.124 S 
ATOM     82  O   UNL     1       5.663 -12.872 -14.649  1.00  0.00    -0.237 OA
ATOM     83  O   UNL     1       3.591 -11.522 -14.591  1.00  0.00    -0.237 OA
ATOM     84  O   UNL     1       5.527 -10.866 -13.215  1.00  0.00    -0.744 OA
ENDBRANCH  80  81
ENDBRANCH  48  73
BRANCH  60  85
ATOM     85  C   UNL     1       3.928 -21.464  -9.513  1.00  0.00     0.058 A 
ATOM     86  C   UNL     1       5.321 -21.621  -9.559  1.00  0.00     0.135 A 
ATOM     87  C   UNL     1       3.137 -22.393 -10.209  1.00  0.00     0.135 A 
ATOM     88  F   UNL     1       6.120 -20.757  -8.914  1.00  0.00    -0.206 F 
ATOM     89  C   UNL     1       5.910 -22.648 -10.289  1.00  0.00     0.059 A 
ATOM     90  C   UNL     1       3.703 -23.442 -10.924  1.00  0.00     0.059 A 
ATOM     91  F   UNL     1       1.798 -22.294 -10.185  1.00  0.00    -0.206 F 
ATOM     92  C   UNL     1       5.092 -23.554 -10.969  1.00  0.00     0.060 A 
BRANCH  92  93
ATOM     93  S   UNL     1       5.869 -24.899 -11.890  1.00  0.00     0.124 S 
ATOM     94  O   UNL     1       6.397 -24.192 -13.052  1.00  0.00    -0.237 OA
ATOM     95  O   UNL     1       6.863 -25.393 -10.943  1.00  0.00    -0.237 OA
ATOM     96  O   UNL     1       4.761 -25.811 -12.160  1.00  0.00    -0.744 OA
ENDBRANCH  92  93
ENDBRANCH  60  85
ENDBRANCH  34  35
ENDBRANCH  27  29
ENDBRANCH  26  27
ENDBRANCH  25  26
ENDBRANCH   1  25
TORSDOF 19
