REMARK SMILES O=C(OCCOCCOC(=O)c1cccc([C@@H]2CCC[N@@H+](Cc3cccc(OCCO)c3)C2)c1)c1ccc(-c2c3nc(c(-c4c(F)cc(S(=O)(=O)[O-])cc4F)c4ccc([nH]4)c(-c4c(F)cc(S(=O)(=O)[O-])cc4F)c4nc(c(-c5c(F)cc(S(=O)(=O)[O-])cc5F)c5ccc2[nH]5)C=C4)C=C3)cc1
REMARK SMILES IDX 8 1 7 2 6 3 5 4 4 5 3 6 2 7 1 8 35 9 36 10 100 11 37 12
REMARK SMILES IDX 99 13 38 14 39 15 40 16 93 17 41 18 98 19 92 20 94 21 42 22
REMARK SMILES IDX 97 23 91 24 90 25 43 27 77 28 56 29 76 30 57 31 60 32 75 33
REMARK SMILES IDX 95 34 58 35 59 36 74 38 96 39 61 40 44 41 45 42 54 43 46 44
REMARK SMILES IDX 47 45 53 46 55 47 48 48 49 49 50 50 51 51 52 52 78 53 79 54
REMARK SMILES IDX 88 55 80 56 81 57 87 58 89 59 82 60 83 61 84 62 85 63 86 64
REMARK SMILES IDX 62 65 63 66 72 67 64 68 65 69 71 70 73 71 66 72 67 73 68 74
REMARK SMILES IDX 69 75 70 76 9 77 10 78 11 79 12 80 13 81 34 82 14 83 16 84
REMARK SMILES IDX 15 85 17 86 18 87 33 88 19 89 21 90 20 91 22 93 23 94 24 95
REMARK SMILES IDX 32 96 25 97 27 98 26 99 28 100 29 101 30 102 31 103
REMARK H PARENT 94 26 60 37 21 92 31 104
REMARK Flexibility Score: inf
ROOT
ATOM      1  C   UNL     1       3.057  -3.539   0.784  1.00  0.00     0.261 C 
ENDROOT
BRANCH   1   2
ATOM      2  C   UNL     1       2.770  -2.039   0.932  1.00  0.00     0.202 C 
BRANCH   2   3
ATOM      3  O   UNL     1       4.019  -1.354   0.861  1.00  0.00    -0.374 OA
BRANCH   3   4
ATOM      4  C   UNL     1       4.209  -0.221   1.694  1.00  0.00     0.202 C 
BRANCH   4   5
ATOM      5  C   UNL     1       3.920   1.094   0.974  1.00  0.00     0.261 C 
BRANCH   5   6
ATOM      6  O   UNL     1       2.540   1.132   0.575  1.00  0.00    -0.460 OA
BRANCH   6   7
ATOM      7  C   UNL     1       2.021   0.895  -0.652  1.00  0.00     0.338 C 
ATOM      8  O   UNL     1       0.800   0.956  -0.792  1.00  0.00    -0.246 OA
BRANCH   7   9
ATOM      9  C   UNL     1       2.845   0.583  -1.858  1.00  0.00     0.060 A 
ATOM     10  C   UNL     1       4.043  -0.134  -1.845  1.00  0.00     0.016 A 
ATOM     11  C   UNL     1       2.313   0.950  -3.105  1.00  0.00     0.016 A 
ATOM     12  C   UNL     1       4.713  -0.458  -3.012  1.00  0.00     0.010 A 
ATOM     13  C   UNL     1       2.968   0.608  -4.292  1.00  0.00     0.010 A 
ATOM     14  C   UNL     1       4.175  -0.097  -4.240  1.00  0.00    -0.014 A 
BRANCH  14  15
ATOM     15  C   UNL     1       4.973  -0.394  -5.438  1.00  0.00     0.031 A 
ATOM     16  C   UNL     1       5.748   0.723  -6.059  1.00  0.00     0.074 A 
ATOM     17  C   UNL     1       5.106  -1.671  -5.838  1.00  0.00     0.049 A 
ATOM     18  N   UNL     1       6.482   0.720  -7.134  1.00  0.00    -0.248 NA
ATOM     19  C   UNL     1       5.701   2.021  -5.361  1.00  0.00     0.031 C 
ATOM     20  C   UNL     1       4.497  -2.829  -5.175  1.00  0.00     0.029 A 
ATOM     21  N   UNL     1       5.822  -2.218  -6.867  1.00  0.00    -0.354 N 
ATOM     22  C   UNL     1       6.963   2.016  -7.261  1.00  0.00     0.074 A 
ATOM     23  C   UNL     1       6.437   2.783  -6.154  1.00  0.00     0.031 C 
ATOM     24  C   UNL     1       4.883  -3.950  -5.805  1.00  0.00     0.029 A 
ATOM     25  C   UNL     1       5.701  -3.585  -6.954  1.00  0.00     0.049 A 
ATOM     26  H   UNL     1       6.371  -1.684  -7.485  1.00  0.00     0.167 HD
ATOM     27  C   UNL     1       7.766   2.510  -8.230  1.00  0.00     0.037 A 
ATOM     28  C   UNL     1       6.171  -4.430  -7.891  1.00  0.00     0.037 A 
ATOM     29  C   UNL     1       8.260   1.705  -9.313  1.00  0.00     0.049 A 
ATOM     30  C   UNL     1       6.968  -3.836  -9.021  1.00  0.00     0.074 A 
ATOM     31  C   UNL     1       9.008   2.089 -10.408  1.00  0.00     0.029 A 
ATOM     32  N   UNL     1       8.048   0.335  -9.428  1.00  0.00    -0.354 N 
ATOM     33  N   UNL     1       7.340  -2.587  -9.196  1.00  0.00    -0.248 NA
ATOM     34  C   UNL     1       7.391  -4.747 -10.089  1.00  0.00     0.031 C 
ATOM     35  C   UNL     1       9.212   0.959 -11.208  1.00  0.00     0.029 A 
ATOM     36  C   UNL     1       8.637  -0.141 -10.584  1.00  0.00     0.049 A 
ATOM     37  H   UNL     1       7.551  -0.216  -8.781  1.00  0.00     0.167 HD
ATOM     38  C   UNL     1       8.054  -2.564 -10.386  1.00  0.00     0.074 A 
ATOM     39  C   UNL     1       8.075  -3.930 -10.879  1.00  0.00     0.031 C 
ATOM     40  C   UNL     1       8.636  -1.517 -11.023  1.00  0.00     0.037 A 
BRANCH  27  41
ATOM     41  C   UNL     1       8.068   3.981  -8.187  1.00  0.00     0.058 A 
ATOM     42  C   UNL     1       8.918   4.543  -7.220  1.00  0.00     0.135 A 
ATOM     43  C   UNL     1       7.458   4.851  -9.105  1.00  0.00     0.135 A 
ATOM     44  F   UNL     1       9.499   3.762  -6.295  1.00  0.00    -0.206 F 
ATOM     45  C   UNL     1       9.128   5.917  -7.146  1.00  0.00     0.059 A 
ATOM     46  C   UNL     1       7.673   6.226  -9.066  1.00  0.00     0.059 A 
ATOM     47  F   UNL     1       6.623   4.370 -10.040  1.00  0.00    -0.206 F 
ATOM     48  C   UNL     1       8.496   6.751  -8.071  1.00  0.00     0.060 A 
BRANCH  48  49
ATOM     49  S   UNL     1       8.759   8.533  -7.950  1.00  0.00     0.124 S 
ATOM     50  O   UNL     1       7.987   8.861  -6.755  1.00  0.00    -0.237 OA
ATOM     51  O   UNL     1      10.208   8.627  -7.811  1.00  0.00    -0.237 OA
ATOM     52  O   UNL     1       8.217   9.044  -9.205  1.00  0.00    -0.744 OA
ENDBRANCH  48  49
ENDBRANCH  27  41
BRANCH  28  53
ATOM     53  C   UNL     1       5.850  -5.883  -7.830  1.00  0.00     0.058 A 
ATOM     54  C   UNL     1       6.850  -6.849  -7.647  1.00  0.00     0.135 A 
ATOM     55  C   UNL     1       4.526  -6.339  -7.950  1.00  0.00     0.135 A 
ATOM     56  F   UNL     1       8.133  -6.473  -7.534  1.00  0.00    -0.206 F 
ATOM     57  C   UNL     1       6.554  -8.210  -7.600  1.00  0.00     0.059 A 
ATOM     58  C   UNL     1       4.201  -7.691  -7.878  1.00  0.00     0.059 A 
ATOM     59  F   UNL     1       3.524  -5.462  -8.120  1.00  0.00    -0.206 F 
ATOM     60  C   UNL     1       5.225  -8.621  -7.716  1.00  0.00     0.060 A 
BRANCH  60  61
ATOM     61  S   UNL     1       4.846 -10.386  -7.629  1.00  0.00     0.124 S 
ATOM     62  O   UNL     1       5.356 -10.859  -8.911  1.00  0.00    -0.237 OA
ATOM     63  O   UNL     1       5.595 -10.804  -6.449  1.00  0.00    -0.237 OA
ATOM     64  O   UNL     1       3.393 -10.411  -7.481  1.00  0.00    -0.744 OA
ENDBRANCH  60  61
ENDBRANCH  28  53
BRANCH  40  65
ATOM     65  C   UNL     1       9.369  -1.821 -12.296  1.00  0.00     0.058 A 
ATOM     66  C   UNL     1       8.685  -2.098 -13.488  1.00  0.00     0.135 A 
ATOM     67  C   UNL     1      10.771  -1.758 -12.332  1.00  0.00     0.135 A 
ATOM     68  F   UNL     1       7.345  -2.176 -13.498  1.00  0.00    -0.206 F 
ATOM     69  C   UNL     1       9.370  -2.320 -14.676  1.00  0.00     0.059 A 
ATOM     70  C   UNL     1      11.474  -1.947 -13.515  1.00  0.00     0.059 A 
ATOM     71  F   UNL     1      11.466  -1.484 -11.217  1.00  0.00    -0.206 F 
ATOM     72  C   UNL     1      10.764  -2.235 -14.680  1.00  0.00     0.060 A 
BRANCH  72  73
ATOM     73  S   UNL     1      11.638  -2.469 -16.241  1.00  0.00     0.124 S 
ATOM     74  O   UNL     1      11.528  -3.912 -16.425  1.00  0.00    -0.237 OA
ATOM     75  O   UNL     1      10.856  -1.650 -17.162  1.00  0.00    -0.237 OA
ATOM     76  O   UNL     1      12.981  -1.972 -15.956  1.00  0.00    -0.744 OA
ENDBRANCH  72  73
ENDBRANCH  40  65
ENDBRANCH  14  15
ENDBRANCH   7   9
ENDBRANCH   6   7
ENDBRANCH   5   6
ENDBRANCH   4   5
ENDBRANCH   3   4
ENDBRANCH   2   3
ENDBRANCH   1   2
BRANCH   1  77
ATOM     77  O   UNL     1       3.885  -3.959   1.877  1.00  0.00    -0.460 OA
BRANCH  77  78
ATOM     78  C   UNL     1       5.187  -3.559   1.833  1.00  0.00     0.338 C 
ATOM     79  O   UNL     1       5.893  -3.467   0.844  1.00  0.00    -0.246 OA
BRANCH  78  80
ATOM     80  C   UNL     1       5.578  -3.108   3.195  1.00  0.00     0.060 A 
ATOM     81  C   UNL     1       6.717  -2.341   3.428  1.00  0.00     0.016 A 
ATOM     82  C   UNL     1       4.756  -3.429   4.269  1.00  0.00     0.020 A 
ATOM     83  C   UNL     1       7.023  -1.936   4.733  1.00  0.00     0.001 A 
ATOM     84  C   UNL     1       5.103  -3.149   5.585  1.00  0.00    -0.038 A 
ATOM     85  C   UNL     1       6.234  -2.360   5.812  1.00  0.00     0.004 A 
BRANCH  84  86
ATOM     86  C   UNL     1       4.279  -3.760   6.700  1.00  0.00     0.074 C 
ATOM     87  C   UNL     1       4.228  -5.304   6.618  1.00  0.00     0.020 C 
ATOM     88  C   UNL     1       2.856  -3.181   6.777  1.00  0.00     0.270 C 
ATOM     89  C   UNL     1       3.163  -5.859   5.665  1.00  0.00     0.062 C 
ATOM     90  N   UNL     1       1.909  -3.678   5.765  1.00  0.00    -0.331 N 
ATOM     91  C   UNL     1       1.811  -5.145   5.780  1.00  0.00     0.262 C 
ATOM     92  H   UNL     1       2.296  -3.417   4.859  1.00  0.00     0.348 HD
BRANCH  90  93
ATOM     93  C   UNL     1       0.582  -3.015   5.830  1.00  0.00     0.299 C 
BRANCH  93  94
ATOM     94  C   UNL     1      -0.265  -3.376   7.040  1.00  0.00     0.010 A 
ATOM     95  C   UNL     1      -1.356  -4.244   6.930  1.00  0.00     0.010 A 
ATOM     96  C   UNL     1       0.129  -2.946   8.316  1.00  0.00     0.056 A 
ATOM     97  C   UNL     1      -1.976  -4.732   8.081  1.00  0.00     0.004 A 
ATOM     98  C   UNL     1      -0.374  -3.550   9.462  1.00  0.00     0.119 A 
ATOM     99  C   UNL     1      -1.462  -4.413   9.341  1.00  0.00     0.046 A 
BRANCH  98 100
ATOM    100  O   UNL     1       0.156  -3.419  10.717  1.00  0.00    -0.491 OA
BRANCH 100 101
ATOM    101  C   UNL     1       1.536  -3.030  10.833  1.00  0.00     0.257 C 
BRANCH 101 102
ATOM    102  C   UNL     1       2.499  -4.225  10.826  1.00  0.00     0.197 C 
BRANCH 102 103
ATOM    103  O   UNL     1       2.434  -4.996   9.635  1.00  0.00    -0.393 OA
ATOM    104  H   UNL     1       1.545  -5.372   9.541  1.00  0.00     0.210 HD
ENDBRANCH 102 103
ENDBRANCH 101 102
ENDBRANCH 100 101
ENDBRANCH  98 100
ENDBRANCH  93  94
ENDBRANCH  90  93
ENDBRANCH  84  86
ENDBRANCH  78  80
ENDBRANCH  77  78
ENDBRANCH   1  77
TORSDOF 24
