REMARK SMILES Cc1cc2c(cc1C(=O)c1ccccc1C(=O)OCCOCCOC(=O)c1ccc(-c3c4nc(c(-c5c(F)cc(S(=O)(=O)[O-])cc5F)c5ccc([nH]5)c(-c5c(F)cc(S(=O)(=O)[O-])cc5F)c5nc(c(-c6c(F)cc(S(=O)(=O)[O-])cc6F)c6ccc3[nH]6)C=C5)C=C4)cc1)CCCC2
REMARK SMILES IDX 22 1 21 2 20 3 19 4 18 5 16 6 17 7 15 8 10 9 11 10 12 11
REMARK SMILES IDX 14 12 13 13 8 14 9 15 7 16 1 17 2 18 3 19 4 20 6 21 5 22
REMARK SMILES IDX 96 23 93 24 95 25 94 26 23 27 24 28 25 29 26 30 27 31 28 32
REMARK SMILES IDX 92 33 29 34 91 35 30 36 31 37 32 38 85 39 33 40 90 41 84 42
REMARK SMILES IDX 86 43 34 44 89 45 83 46 82 47 35 49 69 50 48 51 68 52 49 53
REMARK SMILES IDX 52 54 67 55 87 56 50 57 51 58 66 60 88 61 53 62 36 63 37 64
REMARK SMILES IDX 46 65 38 66 39 67 45 68 47 69 40 70 41 71 42 72 43 73 44 74
REMARK SMILES IDX 70 75 71 76 80 77 72 78 73 79 79 80 81 81 74 82 75 83 76 84
REMARK SMILES IDX 77 85 78 86 54 87 55 88 64 89 56 90 57 91 63 92 65 93 58 94
REMARK SMILES IDX 59 95 60 96 61 97 62 98
REMARK H PARENT 86 48 52 59
REMARK Flexibility Score: inf
ROOT
ATOM      1  C   UNL     1      -2.507   3.095   2.551  1.00  0.00     0.202 C 
ENDROOT
BRANCH   1   2
ATOM      2  O   UNL     1      -3.021   4.423   2.464  1.00  0.00    -0.374 OA
BRANCH   2   3
ATOM      3  C   UNL     1      -2.905   5.109   1.218  1.00  0.00     0.202 C 
BRANCH   3   4
ATOM      4  C   UNL     1      -1.517   5.591   0.793  1.00  0.00     0.261 C 
BRANCH   4   5
ATOM      5  O   UNL     1      -0.574   4.512   0.750  1.00  0.00    -0.460 OA
BRANCH   5   6
ATOM      6  C   UNL     1       0.433   4.616   1.646  1.00  0.00     0.338 C 
ATOM      7  O   UNL     1       0.601   5.526   2.446  1.00  0.00    -0.246 OA
BRANCH   6   8
ATOM      8  C   UNL     1       1.228   3.371   1.743  1.00  0.00     0.071 A 
ATOM      9  C   UNL     1       1.711   2.620   0.665  1.00  0.00     0.037 A 
ATOM     10  C   UNL     1       2.694   1.647   0.905  1.00  0.00     0.013 A 
ATOM     11  C   UNL     1       3.020   1.273   2.212  1.00  0.00     0.001 A 
ATOM     12  C   UNL     1       1.551   2.977   3.056  1.00  0.00     0.016 A 
ATOM     13  C   UNL     1       2.411   1.907   3.290  1.00  0.00     0.001 A 
BRANCH   9  14
ATOM     14  C   UNL     1       1.262   2.840  -0.721  1.00  0.00     0.194 C 
ATOM     15  O   UNL     1       1.440   3.973  -1.163  1.00  0.00    -0.289 OA
BRANCH  14  16
ATOM     16  C   UNL     1       0.658   1.753  -1.596  1.00  0.00     0.026 A 
ATOM     17  C   UNL     1       0.487  -0.210   0.114  1.00  0.00     0.045 C 
ATOM     18  C   UNL     1       0.349   0.418  -1.244  1.00  0.00    -0.040 A 
ATOM     19  C   UNL     1      -0.103  -0.468  -2.250  1.00  0.00     0.008 A 
ATOM     20  C   UNL     1      -0.335  -0.059  -3.566  1.00  0.00    -0.044 A 
ATOM     21  C   UNL     1       0.390   2.156  -2.926  1.00  0.00     0.016 A 
ATOM     22  C   UNL     1      -0.093   1.271  -3.910  1.00  0.00    -0.044 A 
ATOM     23  C   UNL     1      -0.767  -1.082  -4.587  1.00  0.00     0.036 C 
ATOM     24  C   UNL     1      -0.387   1.788  -5.299  1.00  0.00     0.036 C 
ATOM     25  C   UNL     1      -1.409  -0.467  -5.826  1.00  0.00     0.005 C 
ATOM     26  C   UNL     1      -0.569   0.692  -6.349  1.00  0.00     0.005 C 
ENDBRANCH  14  16
ENDBRANCH   9  14
ENDBRANCH   6   8
ENDBRANCH   5   6
ENDBRANCH   4   5
ENDBRANCH   3   4
ENDBRANCH   2   3
ENDBRANCH   1   2
BRANCH   1  27
ATOM     27  C   UNL     1      -3.255   1.973   1.819  1.00  0.00     0.261 C 
BRANCH  27  28
ATOM     28  O   UNL     1      -3.262   2.130   0.392  1.00  0.00    -0.460 OA
BRANCH  28  29
ATOM     29  C   UNL     1      -4.458   2.490  -0.141  1.00  0.00     0.338 C 
ATOM     30  O   UNL     1      -5.512   2.657   0.455  1.00  0.00    -0.246 OA
BRANCH  29  31
ATOM     31  C   UNL     1      -4.268   2.841  -1.559  1.00  0.00     0.060 A 
ATOM     32  C   UNL     1      -3.785   1.897  -2.458  1.00  0.00     0.016 A 
ATOM     33  C   UNL     1      -4.618   4.127  -1.995  1.00  0.00     0.016 A 
ATOM     34  C   UNL     1      -3.671   2.247  -3.803  1.00  0.00     0.010 A 
ATOM     35  C   UNL     1      -4.479   4.476  -3.341  1.00  0.00     0.010 A 
ATOM     36  C   UNL     1      -4.010   3.534  -4.262  1.00  0.00    -0.014 A 
BRANCH  36  37
ATOM     37  C   UNL     1      -3.960   3.839  -5.718  1.00  0.00     0.031 A 
ATOM     38  C   UNL     1      -2.929   4.769  -6.296  1.00  0.00     0.074 A 
ATOM     39  C   UNL     1      -4.853   3.242  -6.530  1.00  0.00     0.049 A 
ATOM     40  N   UNL     1      -2.727   5.094  -7.549  1.00  0.00    -0.248 NA
ATOM     41  C   UNL     1      -2.002   5.413  -5.353  1.00  0.00     0.031 C 
ATOM     42  C   UNL     1      -5.905   2.325  -6.087  1.00  0.00     0.029 A 
ATOM     43  N   UNL     1      -5.016   3.301  -7.891  1.00  0.00    -0.354 N 
ATOM     44  C   UNL     1      -1.648   5.971  -7.551  1.00  0.00     0.074 A 
ATOM     45  C   UNL     1      -1.261   6.156  -6.167  1.00  0.00     0.031 C 
ATOM     46  C   UNL     1      -6.579   1.879  -7.157  1.00  0.00     0.029 A 
ATOM     47  C   UNL     1      -6.043   2.513  -8.357  1.00  0.00     0.049 A 
ATOM     48  H   UNL     1      -4.452   3.854  -8.479  1.00  0.00     0.167 HD
ATOM     49  C   UNL     1      -1.030   6.552  -8.610  1.00  0.00     0.037 A 
ATOM     50  C   UNL     1      -6.510   2.325  -9.607  1.00  0.00     0.037 A 
ATOM     51  C   UNL     1      -1.429   6.372  -9.986  1.00  0.00     0.049 A 
ATOM     52  C   UNL     1      -5.847   3.034 -10.755  1.00  0.00     0.074 A 
ATOM     53  C   UNL     1      -0.850   6.907 -11.125  1.00  0.00     0.029 A 
ATOM     54  N   UNL     1      -2.509   5.612 -10.413  1.00  0.00    -0.354 N 
ATOM     55  N   UNL     1      -4.803   3.827 -10.741  1.00  0.00    -0.248 NA
ATOM     56  C   UNL     1      -6.424   2.821 -12.089  1.00  0.00     0.031 C 
ATOM     57  C   UNL     1      -1.610   6.516 -12.232  1.00  0.00     0.029 A 
ATOM     58  C   UNL     1      -2.628   5.687 -11.793  1.00  0.00     0.049 A 
ATOM     59  H   UNL     1      -3.104   5.095  -9.822  1.00  0.00     0.167 HD
ATOM     60  C   UNL     1      -4.586   4.193 -12.065  1.00  0.00     0.074 A 
ATOM     61  C   UNL     1      -5.594   3.516 -12.855  1.00  0.00     0.031 C 
ATOM     62  C   UNL     1      -3.638   5.016 -12.577  1.00  0.00     0.037 A 
BRANCH  49  63
ATOM     63  C   UNL     1       0.154   7.444  -8.336  1.00  0.00     0.058 A 
ATOM     64  C   UNL     1       1.385   6.920  -7.910  1.00  0.00     0.135 A 
ATOM     65  C   UNL     1       0.085   8.826  -8.584  1.00  0.00     0.135 A 
ATOM     66  F   UNL     1       1.507   5.608  -7.652  1.00  0.00    -0.206 F 
ATOM     67  C   UNL     1       2.499   7.733  -7.724  1.00  0.00     0.059 A 
ATOM     68  C   UNL     1       1.194   9.654  -8.431  1.00  0.00     0.059 A 
ATOM     69  F   UNL     1      -1.064   9.382  -8.998  1.00  0.00    -0.206 F 
ATOM     70  C   UNL     1       2.395   9.099  -7.993  1.00  0.00     0.060 A 
BRANCH  70  71
ATOM     71  S   UNL     1       3.860  10.133  -7.771  1.00  0.00     0.124 S 
ATOM     72  O   UNL     1       4.028  10.096  -6.322  1.00  0.00    -0.237 OA
ATOM     73  O   UNL     1       4.866   9.414  -8.545  1.00  0.00    -0.237 OA
ATOM     74  O   UNL     1       3.454  11.424  -8.320  1.00  0.00    -0.744 OA
ENDBRANCH  70  71
ENDBRANCH  49  63
BRANCH  50  75
ATOM     75  C   UNL     1      -7.658   1.408  -9.832  1.00  0.00     0.058 A 
ATOM     76  C   UNL     1      -7.485   0.187 -10.500  1.00  0.00     0.135 A 
ATOM     77  C   UNL     1      -8.943   1.718  -9.359  1.00  0.00     0.135 A 
ATOM     78  F   UNL     1      -6.278  -0.151 -10.978  1.00  0.00    -0.206 F 
ATOM     79  C   UNL     1      -8.545  -0.691 -10.698  1.00  0.00     0.059 A 
ATOM     80  C   UNL     1     -10.012   0.843  -9.518  1.00  0.00     0.059 A 
ATOM     81  F   UNL     1      -9.159   2.869  -8.702  1.00  0.00    -0.206 F 
ATOM     82  C   UNL     1      -9.804  -0.357 -10.195  1.00  0.00     0.060 A 
BRANCH  82  83
ATOM     83  S   UNL     1     -11.156  -1.534 -10.408  1.00  0.00     0.124 S 
ATOM     84  O   UNL     1     -11.373  -1.477 -11.849  1.00  0.00    -0.237 OA
ATOM     85  O   UNL     1     -10.566  -2.768  -9.899  1.00  0.00    -0.237 OA
ATOM     86  O   UNL     1     -12.225  -0.972  -9.587  1.00  0.00    -0.744 OA
ENDBRANCH  82  83
ENDBRANCH  50  75
BRANCH  62  87
ATOM     87  C   UNL     1      -3.628   5.224 -14.069  1.00  0.00     0.058 A 
ATOM     88  C   UNL     1      -4.629   5.965 -14.717  1.00  0.00     0.135 A 
ATOM     89  C   UNL     1      -2.579   4.719 -14.855  1.00  0.00     0.135 A 
ATOM     90  F   UNL     1      -5.660   6.464 -14.018  1.00  0.00    -0.206 F 
ATOM     91  C   UNL     1      -4.604   6.175 -16.093  1.00  0.00     0.059 A 
ATOM     92  C   UNL     1      -2.516   4.944 -16.227  1.00  0.00     0.059 A 
ATOM     93  F   UNL     1      -1.589   4.011 -14.288  1.00  0.00    -0.206 F 
ATOM     94  C   UNL     1      -3.541   5.664 -16.839  1.00  0.00     0.060 A 
BRANCH  94  95
ATOM     95  S   UNL     1      -3.511   5.970 -18.619  1.00  0.00     0.124 S 
ATOM     96  O   UNL     1      -4.623   5.145 -19.079  1.00  0.00    -0.237 OA
ATOM     97  O   UNL     1      -3.721   7.413 -18.688  1.00  0.00    -0.237 OA
ATOM     98  O   UNL     1      -2.184   5.514 -19.022  1.00  0.00    -0.744 OA
ENDBRANCH  94  95
ENDBRANCH  62  87
ENDBRANCH  36  37
ENDBRANCH  29  31
ENDBRANCH  28  29
ENDBRANCH  27  28
ENDBRANCH   1  27
TORSDOF 19
