REMARK SMILES CC1(C)O[C@](C)([C@H](O)C2CCCCC2)CC[C@H]1C(=O)OCCOCCOC(=O)c1ccc(-c2c3nc(c(-c4c(F)cc(S(=O)(=O)[O-])cc4F)c4ccc([nH]4)c(-c4c(F)cc(S(=O)(=O)[O-])cc4F)c4nc(c(-c5c(F)cc(S(=O)(=O)[O-])cc5F)c5ccc2[nH]5)C=C4)C=C3)cc1
REMARK SMILES IDX 24 1 23 2 22 3 21 4 20 5 18 6 19 7 17 8 1 9 2 10 3 11 4 12
REMARK SMILES IDX 5 13 16 14 6 15 15 16 7 17 9 18 10 19 14 20 11 21 13 22
REMARK SMILES IDX 12 23 8 24 25 26 26 27 27 28 28 29 29 30 30 31 94 32 31 33
REMARK SMILES IDX 93 34 32 35 33 36 34 37 87 38 35 39 92 40 86 41 88 42 36 43
REMARK SMILES IDX 91 44 85 45 84 46 37 48 71 49 50 50 70 51 51 52 54 53 69 54
REMARK SMILES IDX 89 55 52 56 53 57 68 59 90 60 55 61 38 62 39 63 48 64 40 65
REMARK SMILES IDX 41 66 47 67 49 68 42 69 43 70 44 71 45 72 46 73 72 74 73 75
REMARK SMILES IDX 82 76 74 77 75 78 81 79 83 80 76 81 77 82 78 83 79 84 80 85
REMARK SMILES IDX 56 86 57 87 66 88 58 89 59 90 65 91 67 92 60 93 61 94 62 95
REMARK SMILES IDX 63 96 64 97
REMARK H PARENT 8 25 88 47 54 58
REMARK Flexibility Score: inf
ROOT
ATOM      1  C   UNL     1      -7.052   3.913   7.389  1.00  0.00     0.202 C 
ENDROOT
BRANCH   1   2
ATOM      2  O   UNL     1      -7.265   2.943   8.413  1.00  0.00    -0.374 OA
BRANCH   2   3
ATOM      3  C   UNL     1      -6.112   2.368   9.023  1.00  0.00     0.202 C 
BRANCH   3   4
ATOM      4  C   UNL     1      -5.390   1.272   8.233  1.00  0.00     0.261 C 
BRANCH   4   5
ATOM      5  O   UNL     1      -4.792   1.739   7.009  1.00  0.00    -0.463 OA
BRANCH   5   6
ATOM      6  C   UNL     1      -5.457   1.420   5.873  1.00  0.00     0.311 C 
ATOM      7  O   UNL     1      -6.547   0.856   5.842  1.00  0.00    -0.252 OA
BRANCH   6   8
ATOM      8  C   UNL     1      -4.688   1.720   4.603  1.00  0.00     0.131 C 
ATOM      9  C   UNL     1      -2.829   3.269   5.624  1.00  0.00     0.043 C 
ATOM     10  C   UNL     1      -3.832   3.007   4.490  1.00  0.00     0.077 C 
ATOM     11  C   UNL     1      -4.739   4.254   4.397  1.00  0.00     0.043 C 
ATOM     12  O   UNL     1      -3.140   3.030   3.218  1.00  0.00    -0.366 OA
ATOM     13  C   UNL     1      -2.402   1.886   2.766  1.00  0.00     0.092 C 
ATOM     14  C   UNL     1      -3.911   0.457   4.236  1.00  0.00     0.021 C 
ATOM     15  C   UNL     1      -1.111   1.649   3.576  1.00  0.00     0.045 C 
ATOM     16  C   UNL     1      -3.284   0.621   2.860  1.00  0.00     0.039 C 
BRANCH  13  17
ATOM     17  C   UNL     1      -2.079   2.128   1.240  1.00  0.00     0.149 C 
BRANCH  17  18
ATOM     18  C   UNL     1      -1.659   3.560   0.772  1.00  0.00     0.021 C 
ATOM     19  C   UNL     1      -0.651   4.337   1.630  1.00  0.00     0.006 C 
ATOM     20  C   UNL     1      -1.198   3.584  -0.705  1.00  0.00     0.006 C 
ATOM     21  C   UNL     1       0.789   3.874   1.456  1.00  0.00     0.000 C 
ATOM     22  C   UNL     1       0.267   3.195  -0.922  1.00  0.00     0.000 C 
ATOM     23  C   UNL     1       1.216   3.956  -0.004  1.00  0.00     0.000 C 
ENDBRANCH  17  18
BRANCH  17  24
ATOM     24  O   UNL     1      -1.222   1.105   0.728  1.00  0.00    -0.390 OA
ATOM     25  H   UNL     1      -0.349   1.177   1.145  1.00  0.00     0.211 HD
ENDBRANCH  17  24
ENDBRANCH  13  17
ENDBRANCH   6   8
ENDBRANCH   5   6
ENDBRANCH   4   5
ENDBRANCH   3   4
ENDBRANCH   2   3
ENDBRANCH   1   2
BRANCH   1  26
ATOM     26  C   UNL     1      -6.495   5.265   7.848  1.00  0.00     0.261 C 
BRANCH  26  27
ATOM     27  O   UNL     1      -5.113   5.156   8.245  1.00  0.00    -0.460 OA
BRANCH  27  28
ATOM     28  C   UNL     1      -4.841   5.673   9.466  1.00  0.00     0.338 C 
ATOM     29  O   UNL     1      -5.601   6.316  10.178  1.00  0.00    -0.246 OA
BRANCH  28  30
ATOM     30  C   UNL     1      -3.530   5.206   9.949  1.00  0.00     0.060 A 
ATOM     31  C   UNL     1      -3.513   4.460  11.134  1.00  0.00     0.016 A 
ATOM     32  C   UNL     1      -2.336   5.600   9.341  1.00  0.00     0.016 A 
ATOM     33  C   UNL     1      -2.302   4.162  11.755  1.00  0.00     0.010 A 
ATOM     34  C   UNL     1      -1.119   5.304   9.972  1.00  0.00     0.010 A 
ATOM     35  C   UNL     1      -1.099   4.625  11.204  1.00  0.00    -0.014 A 
BRANCH  35  36
ATOM     36  C   UNL     1       0.144   4.538  12.013  1.00  0.00     0.031 A 
ATOM     37  C   UNL     1       0.607   5.751  12.778  1.00  0.00     0.074 A 
ATOM     38  C   UNL     1       0.820   3.380  12.122  1.00  0.00     0.049 A 
ATOM     39  N   UNL     1       1.650   5.894  13.555  1.00  0.00    -0.248 NA
ATOM     40  C   UNL     1      -0.220   6.963  12.653  1.00  0.00     0.031 C 
ATOM     41  C   UNL     1       0.452   2.123  11.472  1.00  0.00     0.029 A 
ATOM     42  N   UNL     1       1.959   3.074  12.826  1.00  0.00    -0.354 N 
ATOM     43  C   UNL     1       1.608   7.207  14.009  1.00  0.00     0.074 A 
ATOM     44  C   UNL     1       0.453   7.829  13.398  1.00  0.00     0.031 C 
ATOM     45  C   UNL     1       1.354   1.182  11.802  1.00  0.00     0.029 A 
ATOM     46  C   UNL     1       2.376   1.775  12.664  1.00  0.00     0.049 A 
ATOM     47  H   UNL     1       2.432   3.725  13.393  1.00  0.00     0.167 HD
ATOM     48  C   UNL     1       2.449   7.836  14.865  1.00  0.00     0.037 A 
ATOM     49  C   UNL     1       3.466   1.140  13.141  1.00  0.00     0.037 A 
ATOM     50  C   UNL     1       3.595   7.218  15.479  1.00  0.00     0.049 A 
ATOM     51  C   UNL     1       4.425   1.879  14.038  1.00  0.00     0.074 A 
ATOM     52  C   UNL     1       4.493   7.771  16.375  1.00  0.00     0.029 A 
ATOM     53  N   UNL     1       4.006   5.913  15.256  1.00  0.00    -0.354 N 
ATOM     54  N   UNL     1       4.359   3.114  14.475  1.00  0.00    -0.248 NA
ATOM     55  C   UNL     1       5.604   1.138  14.508  1.00  0.00     0.031 C 
ATOM     56  C   UNL     1       5.474   6.814  16.659  1.00  0.00     0.029 A 
ATOM     57  C   UNL     1       5.160   5.650  15.976  1.00  0.00     0.049 A 
ATOM     58  H   UNL     1       3.546   5.268  14.672  1.00  0.00     0.167 HD
ATOM     59  C   UNL     1       5.474   3.290  15.289  1.00  0.00     0.074 A 
ATOM     60  C   UNL     1       6.192   2.033  15.291  1.00  0.00     0.031 C 
ATOM     61  C   UNL     1       5.864   4.393  15.976  1.00  0.00     0.037 A 
BRANCH  48  62
ATOM     62  C   UNL     1       2.173   9.282  15.172  1.00  0.00     0.058 A 
ATOM     63  C   UNL     1       1.107   9.672  15.998  1.00  0.00     0.135 A 
ATOM     64  C   UNL     1       3.008  10.288  14.659  1.00  0.00     0.135 A 
ATOM     65  F   UNL     1       0.270   8.751  16.501  1.00  0.00    -0.206 F 
ATOM     66  C   UNL     1       0.863  11.011  16.285  1.00  0.00     0.059 A 
ATOM     67  C   UNL     1       2.797  11.632  14.953  1.00  0.00     0.059 A 
ATOM     68  F   UNL     1       4.040   9.969  13.863  1.00  0.00    -0.206 F 
ATOM     69  C   UNL     1       1.713  11.984  15.755  1.00  0.00     0.060 A 
BRANCH  69  70
ATOM     70  S   UNL     1       1.385  13.719  16.135  1.00  0.00     0.124 S 
ATOM     71  O   UNL     1       0.221  13.984  15.294  1.00  0.00    -0.237 OA
ATOM     72  O   UNL     1       1.133  13.683  17.572  1.00  0.00    -0.237 OA
ATOM     73  O   UNL     1       2.615  14.393  15.734  1.00  0.00    -0.744 OA
ENDBRANCH  69  70
ENDBRANCH  48  62
BRANCH  49  74
ATOM     74  C   UNL     1       3.720  -0.275  12.764  1.00  0.00     0.058 A 
ATOM     75  C   UNL     1       3.598  -1.311  13.701  1.00  0.00     0.135 A 
ATOM     76  C   UNL     1       4.086  -0.617  11.453  1.00  0.00     0.135 A 
ATOM     77  F   UNL     1       3.263  -1.032  14.970  1.00  0.00    -0.206 F 
ATOM     78  C   UNL     1       3.839  -2.637  13.354  1.00  0.00     0.059 A 
ATOM     79  C   UNL     1       4.309  -1.937  11.076  1.00  0.00     0.059 A 
ATOM     80  F   UNL     1       4.207   0.338  10.517  1.00  0.00    -0.206 F 
ATOM     81  C   UNL     1       4.191  -2.940  12.037  1.00  0.00     0.060 A 
BRANCH  81  82
ATOM     82  S   UNL     1       4.444  -4.669  11.581  1.00  0.00     0.124 S 
ATOM     83  O   UNL     1       5.746  -4.942  12.176  1.00  0.00    -0.237 OA
ATOM     84  O   UNL     1       3.301  -5.324  12.211  1.00  0.00    -0.237 OA
ATOM     85  O   UNL     1       4.409  -4.637  10.121  1.00  0.00    -0.744 OA
ENDBRANCH  81  82
ENDBRANCH  49  74
BRANCH  61  86
ATOM     86  C   UNL     1       7.110   4.290  16.813  1.00  0.00     0.058 A 
ATOM     87  C   UNL     1       8.387   4.275  16.234  1.00  0.00     0.135 A 
ATOM     88  C   UNL     1       7.025   4.275  18.215  1.00  0.00     0.135 A 
ATOM     89  F   UNL     1       8.524   4.283  14.898  1.00  0.00    -0.206 F 
ATOM     90  C   UNL     1       9.539   4.232  17.015  1.00  0.00     0.059 A 
ATOM     91  C   UNL     1       8.163   4.256  19.016  1.00  0.00     0.059 A 
ATOM     92  F   UNL     1       5.827   4.298  18.820  1.00  0.00    -0.206 F 
ATOM     93  C   UNL     1       9.416   4.226  18.406  1.00  0.00     0.060 A 
BRANCH  93  94
ATOM     94  S   UNL     1      10.918   4.214  19.409  1.00  0.00     0.124 S 
ATOM     95  O   UNL     1      11.357   2.830  19.265  1.00  0.00    -0.237 OA
ATOM     96  O   UNL     1      11.747   5.215  18.744  1.00  0.00    -0.237 OA
ATOM     97  O   UNL     1      10.441   4.587  20.737  1.00  0.00    -0.744 OA
ENDBRANCH  93  94
ENDBRANCH  61  86
ENDBRANCH  35  36
ENDBRANCH  28  30
ENDBRANCH  27  28
ENDBRANCH  26  27
ENDBRANCH   1  26
TORSDOF 20
