REMARK SMILES Cn1c(=O)c2c(-c3ccc(Cl)cc3)n(CC(=O)OCCOCCOC(=O)c3ccc(-c4c5nc(c(-c6c(F)cc(S(=O)(=O)[O-])cc6F)c6ccc([nH]6)c(-c6c(F)cc(S(=O)(=O)[O-])cc6F)c6nc(c(-c7c(F)cc(S(=O)(=O)[O-])cc7F)c7ccc4[nH]7)C=C6)C=C5)cc3)cc2n(C)c1=O
REMARK SMILES IDX 22 1 21 2 20 3 19 4 18 5 16 6 17 7 15 8 14 9 1 10 2 11 3 12
REMARK SMILES IDX 97 13 4 14 5 15 95 16 98 17 6 18 94 19 96 20 93 21 7 22 8 23
REMARK SMILES IDX 13 24 9 25 12 26 10 27 11 28 23 29 24 30 25 31 26 32 27 33
REMARK SMILES IDX 28 34 92 35 29 36 91 37 30 38 31 39 32 40 85 41 33 42 90 43
REMARK SMILES IDX 84 44 86 45 34 46 89 47 83 48 82 49 35 51 69 52 48 53 68 54
REMARK SMILES IDX 49 55 52 56 67 57 87 58 50 59 51 60 66 62 88 63 53 64 36 65
REMARK SMILES IDX 37 66 46 67 38 68 39 69 45 70 47 71 40 72 41 73 42 74 43 75
REMARK SMILES IDX 44 76 70 77 71 78 80 79 72 80 73 81 79 82 81 83 74 84 75 85
REMARK SMILES IDX 76 86 77 87 78 88 54 89 55 90 64 91 56 92 57 93 63 94 65 95
REMARK SMILES IDX 58 96 59 97 60 98 61 99 62 100
REMARK H PARENT 86 50 52 61
REMARK Flexibility Score: inf
ROOT
ATOM      1  C   UNL     1      -1.108  -8.109   3.240  1.00  0.00     0.202 C 
ENDROOT
BRANCH   1   2
ATOM      2  O   UNL     1      -0.304  -8.932   4.079  1.00  0.00    -0.374 OA
BRANCH   2   3
ATOM      3  C   UNL     1       1.018  -8.521   4.418  1.00  0.00     0.202 C 
BRANCH   3   4
ATOM      4  C   UNL     1       2.059  -8.445   3.299  1.00  0.00     0.261 C 
BRANCH   4   5
ATOM      5  O   UNL     1       1.673  -7.569   2.221  1.00  0.00    -0.462 OA
BRANCH   5   6
ATOM      6  C   UNL     1       1.496  -8.180   1.021  1.00  0.00     0.326 C 
ATOM      7  O   UNL     1       1.694  -9.377   0.821  1.00  0.00    -0.250 OA
BRANCH   6   8
ATOM      8  C   UNL     1       0.911  -7.322  -0.066  1.00  0.00     0.244 C 
BRANCH   8   9
ATOM      9  N   UNL     1       0.805  -5.880   0.150  1.00  0.00    -0.333 N 
ATOM     10  C   UNL     1       1.071   0.046   0.084  1.00  0.00     0.158 C 
ATOM     11  N   UNL     1       0.686  -1.342   0.280  1.00  0.00    -0.263 N 
ATOM     12  C   UNL     1       1.579  -2.320  -0.178  1.00  0.00     0.265 A 
ATOM     13  C   UNL     1      -0.573  -1.567   0.864  1.00  0.00     0.330 A 
ATOM     14  O   UNL     1       2.651  -2.070  -0.722  1.00  0.00    -0.268 OA
ATOM     15  C   UNL     1       1.114  -3.674   0.036  1.00  0.00     0.090 A 
ATOM     16  N   UNL     1      -0.971  -2.900   1.042  1.00  0.00    -0.295 N 
ATOM     17  O   UNL     1      -1.306  -0.635   1.200  1.00  0.00    -0.248 OA
ATOM     18  C   UNL     1       1.691  -4.900  -0.287  1.00  0.00     0.064 A 
ATOM     19  C   UNL     1      -0.138  -3.919   0.614  1.00  0.00     0.076 A 
ATOM     20  C   UNL     1      -2.237  -3.165   1.708  1.00  0.00     0.155 C 
ATOM     21  C   UNL     1      -0.341  -5.274   0.623  1.00  0.00     0.114 A 
BRANCH  18  22
ATOM     22  C   UNL     1       2.951  -5.184  -0.975  1.00  0.00    -0.001 A 
ATOM     23  C   UNL     1       2.945  -5.820  -2.225  1.00  0.00     0.012 A 
ATOM     24  C   UNL     1       4.174  -4.813  -0.407  1.00  0.00     0.012 A 
ATOM     25  C   UNL     1       4.142  -6.142  -2.865  1.00  0.00     0.021 A 
ATOM     26  C   UNL     1       5.374  -5.107  -1.061  1.00  0.00     0.021 A 
ATOM     27  C   UNL     1       5.353  -5.785  -2.278  1.00  0.00     0.041 A 
ATOM     28  Cl  UNL     1       6.829  -6.182  -3.068  1.00  0.00    -0.084 Cl
ENDBRANCH  18  22
ENDBRANCH   8   9
ENDBRANCH   6   8
ENDBRANCH   5   6
ENDBRANCH   4   5
ENDBRANCH   3   4
ENDBRANCH   2   3
ENDBRANCH   1   2
BRANCH   1  29
ATOM     29  C   UNL     1      -1.537  -6.741   3.754  1.00  0.00     0.261 C 
BRANCH  29  30
ATOM     30  O   UNL     1      -0.432  -5.876   3.970  1.00  0.00    -0.460 OA
BRANCH  30  31
ATOM     31  C   UNL     1      -0.151  -5.676   5.281  1.00  0.00     0.338 C 
ATOM     32  O   UNL     1      -0.575  -6.315   6.222  1.00  0.00    -0.246 OA
BRANCH  31  33
ATOM     33  C   UNL     1       0.661  -4.463   5.420  1.00  0.00     0.060 A 
ATOM     34  C   UNL     1       0.906  -4.053   6.731  1.00  0.00     0.016 A 
ATOM     35  C   UNL     1       0.872  -3.619   4.322  1.00  0.00     0.016 A 
ATOM     36  C   UNL     1       1.100  -2.714   6.960  1.00  0.00     0.010 A 
ATOM     37  C   UNL     1       1.058  -2.278   4.551  1.00  0.00     0.010 A 
ATOM     38  C   UNL     1       1.065  -1.838   5.870  1.00  0.00    -0.014 A 
BRANCH  38  39
ATOM     39  C   UNL     1       1.103  -0.425   6.156  1.00  0.00     0.031 A 
ATOM     40  C   UNL     1       2.432   0.015   6.626  1.00  0.00     0.074 A 
ATOM     41  C   UNL     1       0.043   0.377   5.953  1.00  0.00     0.049 A 
ATOM     42  N   UNL     1       2.761   0.346   7.829  1.00  0.00    -0.248 NA
ATOM     43  C   UNL     1       3.572  -0.161   5.714  1.00  0.00     0.031 C 
ATOM     44  C   UNL     1      -1.222   0.076   5.281  1.00  0.00     0.029 A 
ATOM     45  N   UNL     1      -0.067   1.701   6.237  1.00  0.00    -0.354 N 
ATOM     46  C   UNL     1       4.113   0.658   7.766  1.00  0.00     0.074 A 
ATOM     47  C   UNL     1       4.595   0.117   6.522  1.00  0.00     0.031 C 
ATOM     48  C   UNL     1      -1.861   1.236   4.999  1.00  0.00     0.029 A 
ATOM     49  C   UNL     1      -1.115   2.338   5.579  1.00  0.00     0.049 A 
ATOM     50  H   UNL     1       0.541   2.168   6.855  1.00  0.00     0.167 HD
ATOM     51  C   UNL     1       4.665   1.562   8.617  1.00  0.00     0.037 A 
ATOM     52  C   UNL     1      -1.240   3.685   5.446  1.00  0.00     0.037 A 
ATOM     53  C   UNL     1       3.805   1.806   9.749  1.00  0.00     0.049 A 
ATOM     54  C   UNL     1      -0.435   4.295   6.550  1.00  0.00     0.074 A 
ATOM     55  C   UNL     1       3.290   1.006  10.751  1.00  0.00     0.029 A 
ATOM     56  N   UNL     1       3.023   2.938   9.728  1.00  0.00    -0.354 N 
ATOM     57  N   UNL     1      -0.739   4.157   7.816  1.00  0.00    -0.248 NA
ATOM     58  C   UNL     1       0.969   4.582   6.280  1.00  0.00     0.031 C 
ATOM     59  C   UNL     1       1.954   1.466  10.938  1.00  0.00     0.029 A 
ATOM     60  C   UNL     1       1.755   2.565  10.101  1.00  0.00     0.049 A 
ATOM     61  H   UNL     1       3.318   3.847   9.490  1.00  0.00     0.167 HD
ATOM     62  C   UNL     1       0.473   3.924   8.457  1.00  0.00     0.074 A 
ATOM     63  C   UNL     1       1.496   4.249   7.463  1.00  0.00     0.031 C 
ATOM     64  C   UNL     1       0.549   3.207   9.619  1.00  0.00     0.037 A 
BRANCH  51  65
ATOM     65  C   UNL     1       5.786   2.491   8.236  1.00  0.00     0.058 A 
ATOM     66  C   UNL     1       6.410   3.259   9.238  1.00  0.00     0.135 A 
ATOM     67  C   UNL     1       6.081   2.863   6.905  1.00  0.00     0.135 A 
ATOM     68  F   UNL     1       6.193   2.996  10.536  1.00  0.00    -0.206 F 
ATOM     69  C   UNL     1       7.207   4.363   8.938  1.00  0.00     0.059 A 
ATOM     70  C   UNL     1       6.919   3.921   6.584  1.00  0.00     0.059 A 
ATOM     71  F   UNL     1       5.494   2.288   5.848  1.00  0.00    -0.206 F 
ATOM     72  C   UNL     1       7.442   4.693   7.606  1.00  0.00     0.060 A 
BRANCH  72  73
ATOM     73  S   UNL     1       8.373   6.182   7.215  1.00  0.00     0.124 S 
ATOM     74  O   UNL     1       7.473   7.222   7.700  1.00  0.00    -0.237 OA
ATOM     75  O   UNL     1       9.596   5.980   7.985  1.00  0.00    -0.237 OA
ATOM     76  O   UNL     1       8.531   6.109   5.766  1.00  0.00    -0.744 OA
ENDBRANCH  72  73
ENDBRANCH  51  65
BRANCH  52  77
ATOM     77  C   UNL     1      -1.647   4.414   4.209  1.00  0.00     0.058 A 
ATOM     78  C   UNL     1      -1.938   5.790   4.213  1.00  0.00     0.135 A 
ATOM     79  C   UNL     1      -1.524   3.820   2.934  1.00  0.00     0.135 A 
ATOM     80  F   UNL     1      -2.035   6.454   5.375  1.00  0.00    -0.206 F 
ATOM     81  C   UNL     1      -2.078   6.532   3.029  1.00  0.00     0.059 A 
ATOM     82  C   UNL     1      -1.675   4.531   1.745  1.00  0.00     0.059 A 
ATOM     83  F   UNL     1      -1.158   2.538   2.797  1.00  0.00    -0.206 F 
ATOM     84  C   UNL     1      -1.931   5.893   1.797  1.00  0.00     0.060 A 
BRANCH  84  85
ATOM     85  S   UNL     1      -1.969   6.858   0.266  1.00  0.00     0.124 S 
ATOM     86  O   UNL     1      -3.345   7.343   0.245  1.00  0.00    -0.237 OA
ATOM     87  O   UNL     1      -0.942   7.864   0.512  1.00  0.00    -0.237 OA
ATOM     88  O   UNL     1      -1.640   5.877  -0.765  1.00  0.00    -0.744 OA
ENDBRANCH  84  85
ENDBRANCH  52  77
BRANCH  64  89
ATOM     89  C   UNL     1      -0.725   2.845  10.343  1.00  0.00     0.058 A 
ATOM     90  C   UNL     1      -1.714   1.990   9.822  1.00  0.00     0.135 A 
ATOM     91  C   UNL     1      -0.842   3.203  11.694  1.00  0.00     0.135 A 
ATOM     92  F   UNL     1      -1.621   1.511   8.574  1.00  0.00    -0.206 F 
ATOM     93  C   UNL     1      -2.784   1.539  10.600  1.00  0.00     0.059 A 
ATOM     94  C   UNL     1      -1.880   2.740  12.498  1.00  0.00     0.059 A 
ATOM     95  F   UNL     1       0.106   3.961  12.272  1.00  0.00    -0.206 F 
ATOM     96  C   UNL     1      -2.855   1.915  11.942  1.00  0.00     0.060 A 
BRANCH  96  97
ATOM     97  S   UNL     1      -4.190   1.264  12.971  1.00  0.00     0.124 S 
ATOM     98  O   UNL     1      -5.362   1.925  12.407  1.00  0.00    -0.237 OA
ATOM     99  O   UNL     1      -4.098  -0.174  12.735  1.00  0.00    -0.237 OA
ATOM    100  O   UNL     1      -3.822   1.691  14.319  1.00  0.00    -0.744 OA
ENDBRANCH  96  97
ENDBRANCH  64  89
ENDBRANCH  38  39
ENDBRANCH  31  33
ENDBRANCH  30  31
ENDBRANCH  29  30
ENDBRANCH   1  29
TORSDOF 19
