REMARK SMILES O=C(OCCOCCOC(=O)c1ccc([C@@H]2CC(O)=Nc3c2ncn3-c2cccc(Cl)c2)cc1)c1ccc(-c2c3nc(c(-c4c(F)cc(S(=O)(=O)[O-])cc4F)c4ccc([nH]4)c(-c4c(F)cc(S(=O)(=O)[O-])cc4F)c4nc(c(-c5c(F)cc(S(=O)(=O)[O-])cc5F)c5ccc2[nH]5)C=C4)C=C3)cc1
REMARK SMILES IDX 5 1 4 2 3 3 2 4 1 5 35 6 36 7 100 8 37 9 99 10 38 11 39 12
REMARK SMILES IDX 40 13 93 14 41 15 98 16 92 17 94 18 42 19 97 20 91 21 90 22
REMARK SMILES IDX 43 24 77 25 56 26 76 27 57 28 60 29 75 30 95 31 58 32 59 33
REMARK SMILES IDX 74 35 96 36 61 37 44 38 45 39 54 40 46 41 47 42 53 43 55 44
REMARK SMILES IDX 48 45 49 46 50 47 51 48 52 49 78 50 79 51 88 52 80 53 81 54
REMARK SMILES IDX 87 55 89 56 82 57 83 58 84 59 85 60 86 61 62 62 63 63 72 64
REMARK SMILES IDX 64 65 65 66 71 67 73 68 66 69 67 70 68 71 69 72 70 73 6 74
REMARK SMILES IDX 7 75 8 76 9 77 10 78 11 79 12 80 13 81 34 82 14 83 33 84
REMARK SMILES IDX 15 85 16 86 17 87 22 88 18 89 21 90 23 91 20 92 25 93 24 94
REMARK SMILES IDX 19 95 26 97 27 98 32 99 28 100 30 101 29 102 31 103
REMARK H PARENT 94 23 60 34 19 96
REMARK Flexibility Score: inf
ROOT
ATOM      1  C   UNL     1       4.851  -0.838  -0.284  1.00  0.00     0.202 C 
ENDROOT
BRANCH   1   2
ATOM      2  C   UNL     1       4.569  -0.214   1.083  1.00  0.00     0.261 C 
BRANCH   2   3
ATOM      3  O   UNL     1       3.203  -0.358   1.501  1.00  0.00    -0.460 OA
BRANCH   3   4
ATOM      4  C   UNL     1       2.130   0.155   0.864  1.00  0.00     0.338 C 
ATOM      5  O   UNL     1       1.102  -0.511   0.762  1.00  0.00    -0.246 OA
BRANCH   4   6
ATOM      6  C   UNL     1       2.107   1.594   0.495  1.00  0.00     0.060 A 
ATOM      7  C   UNL     1       3.226   2.411   0.338  1.00  0.00     0.016 A 
ATOM      8  C   UNL     1       0.828   2.167   0.430  1.00  0.00     0.016 A 
ATOM      9  C   UNL     1       3.097   3.779   0.456  1.00  0.00     0.010 A 
ATOM     10  C   UNL     1       0.685   3.538   0.464  1.00  0.00     0.010 A 
ATOM     11  C   UNL     1       1.825   4.320   0.602  1.00  0.00    -0.014 A 
BRANCH  11  12
ATOM     12  C   UNL     1       1.715   5.752   0.792  1.00  0.00     0.031 A 
ATOM     13  C   UNL     1       2.199   6.531  -0.374  1.00  0.00     0.074 A 
ATOM     14  C   UNL     1       1.125   6.262   1.891  1.00  0.00     0.049 A 
ATOM     15  N   UNL     1       3.226   7.312  -0.437  1.00  0.00    -0.248 NA
ATOM     16  C   UNL     1       1.591   6.243  -1.686  1.00  0.00     0.031 C 
ATOM     17  C   UNL     1       0.426   5.542   2.960  1.00  0.00     0.029 A 
ATOM     18  N   UNL     1       0.923   7.563   2.226  1.00  0.00    -0.354 N 
ATOM     19  C   UNL     1       3.232   7.814  -1.736  1.00  0.00     0.074 A 
ATOM     20  C   UNL     1       2.357   6.968  -2.501  1.00  0.00     0.031 C 
ATOM     21  C   UNL     1      -0.329   6.412   3.667  1.00  0.00     0.029 A 
ATOM     22  C   UNL     1      -0.060   7.756   3.195  1.00  0.00     0.049 A 
ATOM     23  H   UNL     1       1.427   8.305   1.820  1.00  0.00     0.167 HD
ATOM     24  C   UNL     1       3.741   9.046  -2.011  1.00  0.00     0.037 A 
ATOM     25  C   UNL     1      -0.659   8.941   3.486  1.00  0.00     0.037 A 
ATOM     26  C   UNL     1       4.588   9.508  -0.943  1.00  0.00     0.049 A 
ATOM     27  C   UNL     1       0.247  10.012   2.980  1.00  0.00     0.074 A 
ATOM     28  C   UNL     1       5.757   9.050  -0.368  1.00  0.00     0.029 A 
ATOM     29  N   UNL     1       4.045  10.396  -0.045  1.00  0.00    -0.354 N 
ATOM     30  N   UNL     1       1.438  10.236   3.471  1.00  0.00    -0.248 NA
ATOM     31  C   UNL     1       0.041  10.476   1.615  1.00  0.00     0.031 C 
ATOM     32  C   UNL     1       5.607   9.309   1.025  1.00  0.00     0.029 A 
ATOM     33  C   UNL     1       4.398   9.980   1.214  1.00  0.00     0.049 A 
ATOM     34  H   UNL     1       3.501  11.186  -0.265  1.00  0.00     0.167 HD
ATOM     35  C   UNL     1       2.244  10.469   2.364  1.00  0.00     0.074 A 
ATOM     36  C   UNL     1       1.314  10.661   1.251  1.00  0.00     0.031 C 
ATOM     37  C   UNL     1       3.582  10.192   2.389  1.00  0.00     0.037 A 
BRANCH  24  38
ATOM     38  C   UNL     1       3.160   9.985  -3.041  1.00  0.00     0.058 A 
ATOM     39  C   UNL     1       3.851  11.173  -3.353  1.00  0.00     0.135 A 
ATOM     40  C   UNL     1       1.829   9.914  -3.510  1.00  0.00     0.135 A 
ATOM     41  F   UNL     1       5.120  11.353  -2.950  1.00  0.00    -0.206 F 
ATOM     42  C   UNL     1       3.241  12.239  -4.016  1.00  0.00     0.059 A 
ATOM     43  C   UNL     1       1.220  10.941  -4.219  1.00  0.00     0.059 A 
ATOM     44  F   UNL     1       1.018   8.889  -3.222  1.00  0.00    -0.206 F 
ATOM     45  C   UNL     1       1.919  12.116  -4.432  1.00  0.00     0.060 A 
BRANCH  45  46
ATOM     46  S   UNL     1       1.100  13.520  -5.205  1.00  0.00     0.124 S 
ATOM     47  O   UNL     1       1.008  14.454  -4.089  1.00  0.00    -0.237 OA
ATOM     48  O   UNL     1       2.043  13.873  -6.261  1.00  0.00    -0.237 OA
ATOM     49  O   UNL     1      -0.167  12.958  -5.665  1.00  0.00    -0.744 OA
ENDBRANCH  45  46
ENDBRANCH  24  38
BRANCH  25  50
ATOM     50  C   UNL     1      -2.105   9.172   3.769  1.00  0.00     0.058 A 
ATOM     51  C   UNL     1      -2.570  10.408   4.255  1.00  0.00     0.135 A 
ATOM     52  C   UNL     1      -3.097   8.281   3.308  1.00  0.00     0.135 A 
ATOM     53  F   UNL     1      -1.698  11.330   4.693  1.00  0.00    -0.206 F 
ATOM     54  C   UNL     1      -3.928  10.756   4.242  1.00  0.00     0.059 A 
ATOM     55  C   UNL     1      -4.454   8.601   3.295  1.00  0.00     0.059 A 
ATOM     56  F   UNL     1      -2.770   7.099   2.765  1.00  0.00    -0.206 F 
ATOM     57  C   UNL     1      -4.862   9.851   3.740  1.00  0.00     0.060 A 
BRANCH  57  58
ATOM     58  S   UNL     1      -6.591  10.354   3.554  1.00  0.00     0.124 S 
ATOM     59  O   UNL     1      -7.031  10.443   4.942  1.00  0.00    -0.237 OA
ATOM     60  O   UNL     1      -6.470  11.621   2.841  1.00  0.00    -0.237 OA
ATOM     61  O   UNL     1      -7.181   9.263   2.782  1.00  0.00    -0.744 OA
ENDBRANCH  57  58
ENDBRANCH  25  50
BRANCH  37  62
ATOM     62  C   UNL     1       4.226   9.881   3.716  1.00  0.00     0.058 A 
ATOM     63  C   UNL     1       3.936   8.751   4.502  1.00  0.00     0.135 A 
ATOM     64  C   UNL     1       5.309  10.677   4.117  1.00  0.00     0.135 A 
ATOM     65  F   UNL     1       2.987   7.879   4.130  1.00  0.00    -0.206 F 
ATOM     66  C   UNL     1       4.664   8.450   5.656  1.00  0.00     0.059 A 
ATOM     67  C   UNL     1       6.068  10.380   5.244  1.00  0.00     0.059 A 
ATOM     68  F   UNL     1       5.678  11.732   3.373  1.00  0.00    -0.206 F 
ATOM     69  C   UNL     1       5.732   9.272   6.018  1.00  0.00     0.060 A 
BRANCH  69  70
ATOM     70  S   UNL     1       6.721   8.851   7.470  1.00  0.00     0.124 S 
ATOM     71  O   UNL     1       5.794   9.128   8.562  1.00  0.00    -0.237 OA
ATOM     72  O   UNL     1       7.033   7.443   7.244  1.00  0.00    -0.237 OA
ATOM     73  O   UNL     1       7.864   9.756   7.378  1.00  0.00    -0.744 OA
ENDBRANCH  69  70
ENDBRANCH  37  62
ENDBRANCH  11  12
ENDBRANCH   4   6
ENDBRANCH   3   4
ENDBRANCH   2   3
ENDBRANCH   1   2
BRANCH   1  74
ATOM     74  O   UNL     1       4.292  -0.244  -1.450  1.00  0.00    -0.374 OA
BRANCH  74  75
ATOM     75  C   UNL     1       3.083  -0.800  -1.981  1.00  0.00     0.202 C 
BRANCH  75  76
ATOM     76  C   UNL     1       3.062  -2.229  -2.550  1.00  0.00     0.261 C 
BRANCH  76  77
ATOM     77  O   UNL     1       3.396  -3.237  -1.583  1.00  0.00    -0.460 OA
BRANCH  77  78
ATOM     78  C   UNL     1       4.660  -3.716  -1.693  1.00  0.00     0.338 C 
ATOM     79  O   UNL     1       5.468  -3.474  -2.566  1.00  0.00    -0.246 OA
BRANCH  78  80
ATOM     80  C   UNL     1       5.031  -4.434  -0.458  1.00  0.00     0.060 A 
ATOM     81  C   UNL     1       6.200  -4.020   0.190  1.00  0.00     0.016 A 
ATOM     82  C   UNL     1       4.309  -5.530   0.008  1.00  0.00     0.016 A 
ATOM     83  C   UNL     1       6.695  -4.748   1.262  1.00  0.00     0.005 A 
ATOM     84  C   UNL     1       4.834  -6.290   1.057  1.00  0.00     0.005 A 
ATOM     85  C   UNL     1       6.058  -5.933   1.660  1.00  0.00    -0.038 A 
BRANCH  85  86
ATOM     86  C   UNL     1       6.851  -6.879   2.541  1.00  0.00     0.081 C 
ATOM     87  C   UNL     1       7.389  -8.047   1.682  1.00  0.00     0.111 C 
ATOM     88  C   UNL     1       5.992  -7.355   3.642  1.00  0.00     0.093 A 
ATOM     89  C   UNL     1       6.763  -9.398   1.975  1.00  0.00     0.188 C 
ATOM     90  C   UNL     1       5.726  -8.695   3.809  1.00  0.00     0.164 A 
ATOM     91  N   UNL     1       5.390  -6.593   4.603  1.00  0.00    -0.238 NA
ATOM     92  N   UNL     1       6.041  -9.731   2.995  1.00  0.00    -0.198 NA
ATOM     93  N   UNL     1       4.942  -8.766   4.942  1.00  0.00    -0.283 N 
ATOM     94  C   UNL     1       4.722  -7.462   5.337  1.00  0.00     0.206 A 
BRANCH  89  95
ATOM     95  O   UNL     1       7.056 -10.347   1.063  1.00  0.00    -0.496 OA
ATOM     96  H   UNL     1       7.577 -10.133   0.315  1.00  0.00     0.294 HD
ENDBRANCH  89  95
BRANCH  93  97
ATOM     97  C   UNL     1       4.481  -9.937   5.581  1.00  0.00     0.050 A 
ATOM     98  C   UNL     1       3.182  -9.994   6.096  1.00  0.00     0.027 A 
ATOM     99  C   UNL     1       5.340 -11.039   5.686  1.00  0.00     0.047 A 
ATOM    100  C   UNL     1       2.731 -11.181   6.679  1.00  0.00     0.004 A 
ATOM    101  C   UNL     1       4.894 -12.197   6.315  1.00  0.00     0.043 A 
ATOM    102  C   UNL     1       3.589 -12.278   6.797  1.00  0.00     0.020 A 
ATOM    103  Cl  UNL     1       5.967 -13.528   6.514  1.00  0.00    -0.084 Cl
ENDBRANCH  93  97
ENDBRANCH  85  86
ENDBRANCH  78  80
ENDBRANCH  77  78
ENDBRANCH  76  77
ENDBRANCH  75  76
ENDBRANCH  74  75
ENDBRANCH   1  74
TORSDOF 20
