REMARK SMILES Cn1c(C[NH+](C)C)nnc1[C@@H]1CCC[N@@H+](Cc2ccccc2C(=O)OCCOCCOC(=O)c2ccc(-c3c4nc(c(-c5c(F)cc(S(=O)(=O)[O-])cc5F)c5ccc([nH]5)c(-c5c(F)cc(S(=O)(=O)[O-])cc5F)c5nc(c(-c6c(F)cc(S(=O)(=O)[O-])cc6F)c6ccc3[nH]6)C=C5)C=C4)cc2)C1
REMARK SMILES IDX 27 1 26 2 25 3 23 4 24 5 22 6 17 7 18 8 19 9 21 10 20 11
REMARK SMILES IDX 16 12 15 13 11 14 12 15 100 16 13 17 14 18 10 20 3 21 8 22
REMARK SMILES IDX 2 23 9 24 1 25 4 26 5 27 6 28 7 29 28 31 29 32 30 33 31 34
REMARK SMILES IDX 32 35 33 36 34 37 35 38 99 39 36 40 98 41 37 42 38 43 39 44
REMARK SMILES IDX 92 45 40 46 97 47 91 48 93 49 41 50 96 51 90 52 89 53 42 55
REMARK SMILES IDX 76 56 55 57 75 58 56 59 59 60 74 61 94 62 57 63 58 64 73 66
REMARK SMILES IDX 95 67 60 68 43 69 44 70 53 71 45 72 46 73 52 74 54 75 47 76
REMARK SMILES IDX 48 77 49 78 50 79 51 80 77 81 78 82 87 83 79 84 80 85 86 86
REMARK SMILES IDX 88 87 81 88 82 89 83 90 84 91 85 92 61 93 62 94 71 95 63 96
REMARK SMILES IDX 64 97 70 98 72 99 65 100 66 101 67 102 68 103 69 104
REMARK H PARENT 15 19 5 30 93 54 59 65
REMARK Flexibility Score: inf
ROOT
ATOM      1  C   UNL     1      -2.991  -4.048   5.336  1.00  0.00     0.202 C 
ENDROOT
BRANCH   1   2
ATOM      2  C   UNL     1      -1.549  -4.550   5.334  1.00  0.00     0.261 C 
BRANCH   2   3
ATOM      3  O   UNL     1      -1.286  -5.455   4.234  1.00  0.00    -0.460 OA
BRANCH   3   4
ATOM      4  C   UNL     1      -0.304  -6.358   4.486  1.00  0.00     0.338 C 
ATOM      5  O   UNL     1       0.317  -6.470   5.533  1.00  0.00    -0.246 OA
BRANCH   4   6
ATOM      6  C   UNL     1      -0.067  -7.284   3.354  1.00  0.00     0.068 A 
ATOM      7  C   UNL     1       0.266  -6.927   2.029  1.00  0.00     0.021 A 
ATOM      8  C   UNL     1       0.571  -7.979   1.132  1.00  0.00     0.010 A 
ATOM      9  C   UNL     1       0.567  -9.318   1.531  1.00  0.00     0.001 A 
ATOM     10  C   UNL     1      -0.062  -8.639   3.744  1.00  0.00     0.016 A 
ATOM     11  C   UNL     1       0.251  -9.649   2.841  1.00  0.00     0.001 A 
BRANCH   7  12
ATOM     12  C   UNL     1       0.351  -5.513   1.466  1.00  0.00     0.299 C 
BRANCH  12  13
ATOM     13  N   UNL     1       1.469  -4.643   1.895  1.00  0.00    -0.331 N 
ATOM     14  C   UNL     1       2.091  -3.109   3.903  1.00  0.00     0.113 C 
ATOM     15  C   UNL     1       3.525  -3.608   3.782  1.00  0.00     0.023 C 
ATOM     16  C   UNL     1       1.062  -3.807   3.015  1.00  0.00     0.274 C 
ATOM     17  C   UNL     1       3.840  -4.322   2.471  1.00  0.00     0.062 C 
ATOM     18  C   UNL     1       2.748  -5.314   2.071  1.00  0.00     0.262 C 
ATOM     19  H   UNL     1       1.673  -4.022   1.112  1.00  0.00     0.348 HD
BRANCH  14  20
ATOM     20  C   UNL     1       1.831  -1.639   3.906  1.00  0.00     0.141 A 
ATOM     21  C   UNL     1       1.650   0.475   3.362  1.00  0.00     0.187 A 
ATOM     22  N   UNL     1       0.857   0.241   4.390  1.00  0.00    -0.129 NA
ATOM     23  N   UNL     1       2.266  -0.701   3.004  1.00  0.00    -0.313 N 
ATOM     24  N   UNL     1       0.974  -1.072   4.732  1.00  0.00    -0.135 NA
ATOM     25  C   UNL     1       3.168  -0.942   1.913  1.00  0.00     0.153 C 
BRANCH  21  26
ATOM     26  C   UNL     1       1.887   1.826   2.775  1.00  0.00     0.340 C 
BRANCH  26  27
ATOM     27  N   UNL     1       1.100   2.185   1.599  1.00  0.00    -0.333 N 
ATOM     28  C   UNL     1       1.625   1.647   0.365  1.00  0.00     0.332 C 
ATOM     29  C   UNL     1      -0.336   1.962   1.719  1.00  0.00     0.332 C 
ATOM     30  H   UNL     1       1.207   3.198   1.554  1.00  0.00     0.348 HD
ENDBRANCH  26  27
ENDBRANCH  21  26
ENDBRANCH  14  20
ENDBRANCH  12  13
ENDBRANCH   7  12
ENDBRANCH   4   6
ENDBRANCH   3   4
ENDBRANCH   2   3
ENDBRANCH   1   2
BRANCH   1  31
ATOM     31  O   UNL     1      -3.998  -5.039   5.532  1.00  0.00    -0.374 OA
BRANCH  31  32
ATOM     32  C   UNL     1      -4.017  -6.135   4.627  1.00  0.00     0.202 C 
BRANCH  32  33
ATOM     33  C   UNL     1      -4.452  -5.871   3.175  1.00  0.00     0.261 C 
BRANCH  33  34
ATOM     34  O   UNL     1      -3.857  -4.749   2.497  1.00  0.00    -0.460 OA
BRANCH  34  35
ATOM     35  C   UNL     1      -4.662  -3.654   2.429  1.00  0.00     0.338 C 
ATOM     36  O   UNL     1      -5.730  -3.500   2.997  1.00  0.00    -0.246 OA
BRANCH  35  37
ATOM     37  C   UNL     1      -4.099  -2.611   1.546  1.00  0.00     0.060 A 
ATOM     38  C   UNL     1      -3.810  -1.351   2.081  1.00  0.00     0.016 A 
ATOM     39  C   UNL     1      -4.090  -2.803   0.161  1.00  0.00     0.016 A 
ATOM     40  C   UNL     1      -3.555  -0.271   1.225  1.00  0.00     0.010 A 
ATOM     41  C   UNL     1      -3.848  -1.716  -0.693  1.00  0.00     0.010 A 
ATOM     42  C   UNL     1      -3.613  -0.435  -0.170  1.00  0.00    -0.014 A 
BRANCH  42  43
ATOM     43  C   UNL     1      -3.555   0.758  -1.061  1.00  0.00     0.031 A 
ATOM     44  C   UNL     1      -4.808   1.540  -1.346  1.00  0.00     0.074 A 
ATOM     45  C   UNL     1      -2.411   1.133  -1.662  1.00  0.00     0.049 A 
ATOM     46  N   UNL     1      -4.955   2.626  -2.060  1.00  0.00    -0.248 NA
ATOM     47  C   UNL     1      -6.065   0.987  -0.821  1.00  0.00     0.031 C 
ATOM     48  C   UNL     1      -1.160   0.387  -1.616  1.00  0.00     0.029 A 
ATOM     49  N   UNL     1      -2.106   2.257  -2.399  1.00  0.00    -0.354 N 
ATOM     50  C   UNL     1      -6.325   2.824  -2.171  1.00  0.00     0.074 A 
ATOM     51  C   UNL     1      -6.961   1.792  -1.377  1.00  0.00     0.031 C 
ATOM     52  C   UNL     1      -0.201   1.124  -2.201  1.00  0.00     0.029 A 
ATOM     53  C   UNL     1      -0.752   2.415  -2.603  1.00  0.00     0.049 A 
ATOM     54  H   UNL     1      -2.784   2.882  -2.744  1.00  0.00     0.167 HD
ATOM     55  C   UNL     1      -6.984   3.735  -2.928  1.00  0.00     0.037 A 
ATOM     56  C   UNL     1      -0.049   3.509  -2.973  1.00  0.00     0.037 A 
ATOM     57  C   UNL     1      -6.346   4.764  -3.709  1.00  0.00     0.049 A 
ATOM     58  C   UNL     1      -0.795   4.707  -3.494  1.00  0.00     0.074 A 
ATOM     59  C   UNL     1      -6.927   5.706  -4.542  1.00  0.00     0.029 A 
ATOM     60  N   UNL     1      -4.980   4.997  -3.744  1.00  0.00    -0.354 N 
ATOM     61  N   UNL     1      -2.089   4.883  -3.599  1.00  0.00    -0.248 NA
ATOM     62  C   UNL     1       0.011   5.820  -4.022  1.00  0.00     0.031 C 
ATOM     63  C   UNL     1      -5.911   6.495  -5.097  1.00  0.00     0.029 A 
ATOM     64  C   UNL     1      -4.701   6.069  -4.577  1.00  0.00     0.049 A 
ATOM     65  H   UNL     1      -4.307   4.477  -3.249  1.00  0.00     0.167 HD
ATOM     66  C   UNL     1      -2.248   6.077  -4.290  1.00  0.00     0.074 A 
ATOM     67  C   UNL     1      -0.928   6.641  -4.473  1.00  0.00     0.031 C 
ATOM     68  C   UNL     1      -3.385   6.610  -4.796  1.00  0.00     0.037 A 
BRANCH  55  69
ATOM     69  C   UNL     1      -8.475   3.586  -3.033  1.00  0.00     0.058 A 
ATOM     70  C   UNL     1      -9.342   3.943  -1.991  1.00  0.00     0.135 A 
ATOM     71  C   UNL     1      -9.039   3.078  -4.215  1.00  0.00     0.135 A 
ATOM     72  F   UNL     1      -8.851   4.412  -0.833  1.00  0.00    -0.206 F 
ATOM     73  C   UNL     1     -10.719   3.776  -2.108  1.00  0.00     0.059 A 
ATOM     74  C   UNL     1     -10.413   2.926  -4.363  1.00  0.00     0.059 A 
ATOM     75  F   UNL     1      -8.252   2.717  -5.241  1.00  0.00    -0.206 F 
ATOM     76  C   UNL     1     -11.244   3.263  -3.296  1.00  0.00     0.060 A 
BRANCH  76  77
ATOM     77  S   UNL     1     -13.030   3.043  -3.437  1.00  0.00     0.124 S 
ATOM     78  O   UNL     1     -13.236   1.829  -2.652  1.00  0.00    -0.237 OA
ATOM     79  O   UNL     1     -13.547   4.274  -2.847  1.00  0.00    -0.237 OA
ATOM     80  O   UNL     1     -13.243   2.904  -4.874  1.00  0.00    -0.744 OA
ENDBRANCH  76  77
ENDBRANCH  55  69
BRANCH  56  81
ATOM     81  C   UNL     1       1.426   3.599  -2.762  1.00  0.00     0.058 A 
ATOM     82  C   UNL     1       1.934   4.511  -1.814  1.00  0.00     0.135 A 
ATOM     83  C   UNL     1       2.351   2.793  -3.436  1.00  0.00     0.135 A 
ATOM     84  F   UNL     1       1.094   5.312  -1.140  1.00  0.00    -0.206 F 
ATOM     85  C   UNL     1       3.294   4.614  -1.537  1.00  0.00     0.059 A 
ATOM     86  C   UNL     1       3.716   2.861  -3.159  1.00  0.00     0.059 A 
ATOM     87  F   UNL     1       1.932   1.902  -4.346  1.00  0.00    -0.206 F 
ATOM     88  C   UNL     1       4.178   3.777  -2.212  1.00  0.00     0.060 A 
BRANCH  88  89
ATOM     89  S   UNL     1       5.936   3.817  -1.792  1.00  0.00     0.124 S 
ATOM     90  O   UNL     1       6.437   4.823  -2.720  1.00  0.00    -0.237 OA
ATOM     91  O   UNL     1       5.923   4.194  -0.382  1.00  0.00    -0.237 OA
ATOM     92  O   UNL     1       6.356   2.442  -2.052  1.00  0.00    -0.744 OA
ENDBRANCH  88  89
ENDBRANCH  56  81
BRANCH  68  93
ATOM     93  C   UNL     1      -3.238   7.805  -5.691  1.00  0.00     0.058 A 
ATOM     94  C   UNL     1      -2.722   7.665  -6.991  1.00  0.00     0.135 A 
ATOM     95  C   UNL     1      -3.642   9.082  -5.279  1.00  0.00     0.135 A 
ATOM     96  F   UNL     1      -2.318   6.463  -7.432  1.00  0.00    -0.206 F 
ATOM     97  C   UNL     1      -2.592   8.754  -7.845  1.00  0.00     0.059 A 
ATOM     98  C   UNL     1      -3.537  10.184  -6.124  1.00  0.00     0.059 A 
ATOM     99  F   UNL     1      -4.145   9.268  -4.049  1.00  0.00    -0.206 F 
ATOM    100  C   UNL     1      -3.002  10.012  -7.401  1.00  0.00     0.060 A 
BRANCH 100 101
ATOM    101  S   UNL     1      -2.852  11.414  -8.528  1.00  0.00     0.124 S 
ATOM    102  O   UNL     1      -1.417  11.674  -8.485  1.00  0.00    -0.237 OA
ATOM    103  O   UNL     1      -3.359  10.865  -9.782  1.00  0.00    -0.237 OA
ATOM    104  O   UNL     1      -3.694  12.435  -7.912  1.00  0.00    -0.744 OA
ENDBRANCH 100 101
ENDBRANCH  68  93
ENDBRANCH  42  43
ENDBRANCH  35  37
ENDBRANCH  34  35
ENDBRANCH  33  34
ENDBRANCH  32  33
ENDBRANCH  31  32
ENDBRANCH   1  31
TORSDOF 22
