REMARK SMILES Cc1cccc(-c2ncc(C[NH+]3CCC4(CC3)NC(=O)C[C@H]4C(=O)OCCOCCOC(=O)c3ccc(-c4c5nc(c(-c6c(F)cc(S(=O)(=O)[O-])cc6F)c6ccc([nH]6)c(-c6c(F)cc(S(=O)(=O)[O-])cc6F)c6nc(c(-c7c(F)cc(S(=O)(=O)[O-])cc7F)c7ccc4[nH]7)C=C6)C=C5)cc3)cn2)c1
REMARK SMILES IDX 28 1 27 2 26 3 25 4 23 5 24 6 22 7 12 8 13 9 17 10 14 12
REMARK SMILES IDX 16 13 15 14 18 15 19 16 21 18 20 19 11 20 10 21 7 22 8 23
REMARK SMILES IDX 101 24 9 25 100 26 6 27 1 28 2 29 3 30 102 31 4 32 5 33
REMARK SMILES IDX 29 34 30 35 31 36 32 37 33 38 34 39 35 40 99 41 36 42 98 43
REMARK SMILES IDX 37 44 38 45 39 46 92 47 40 48 97 49 91 50 93 51 41 52 96 53
REMARK SMILES IDX 90 54 89 55 42 57 76 58 55 59 75 60 56 61 59 62 74 63 94 64
REMARK SMILES IDX 57 65 58 66 73 68 95 69 60 70 43 71 44 72 53 73 45 74 46 75
REMARK SMILES IDX 52 76 54 77 47 78 48 79 49 80 50 81 51 82 77 83 78 84 87 85
REMARK SMILES IDX 79 86 80 87 86 88 88 89 81 90 82 91 83 92 84 93 85 94 61 95
REMARK SMILES IDX 62 96 71 97 63 98 64 99 70 100 72 101 65 102 66 103 67 104
REMARK SMILES IDX 68 105 69 106
REMARK H PARENT 12 11 18 17 93 56 59 67
REMARK Flexibility Score: inf
ROOT
ATOM      1  O   UNL     1      -1.944   7.255  -3.014  1.00  0.00    -0.374 OA
ENDROOT
BRANCH   1   2
ATOM      2  C   UNL     1      -2.067   5.853  -3.171  1.00  0.00     0.202 C 
BRANCH   2   3
ATOM      3  C   UNL     1      -0.681   5.270  -3.109  1.00  0.00     0.261 C 
BRANCH   3   4
ATOM      4  O   UNL     1       0.164   5.520  -1.937  1.00  0.00    -0.463 OA
BRANCH   4   5
ATOM      5  C   UNL     1       0.475   6.748  -1.447  1.00  0.00     0.311 C 
ATOM      6  O   UNL     1       0.595   7.772  -2.102  1.00  0.00    -0.252 OA
BRANCH   5   7
ATOM      7  C   UNL     1       0.660   6.709   0.082  1.00  0.00     0.134 C 
ATOM      8  N   UNL     1      -3.228   6.673   1.262  1.00  0.00    -0.331 N 
ATOM      9  C   UNL     1      -2.218   6.993   2.273  1.00  0.00     0.264 C 
ATOM     10  C   UNL     1      -2.582   6.534  -0.028  1.00  0.00     0.264 C 
ATOM     11  H   UNL     1      -3.841   7.487   1.321  1.00  0.00     0.348 HD
ATOM     12  C   UNL     1      -0.848   6.255   2.233  1.00  0.00     0.091 C 
ATOM     13  C   UNL     1      -1.561   5.419   0.058  1.00  0.00     0.091 C 
ATOM     14  C   UNL     1      -0.330   5.791   0.837  1.00  0.00     0.064 C 
ATOM     15  N   UNL     1       0.461   4.592   1.047  1.00  0.00    -0.349 N 
ATOM     16  C   UNL     1       1.802   4.725   0.787  1.00  0.00     0.221 C 
ATOM     17  H   UNL     1       0.065   3.744   1.353  1.00  0.00     0.164 HD
ATOM     18  C   UNL     1       2.055   6.167   0.435  1.00  0.00     0.117 C 
ATOM     19  O   UNL     1       2.622   3.847   0.916  1.00  0.00    -0.275 OA
BRANCH   8  20
ATOM     20  C   UNL     1      -4.295   5.661   1.498  1.00  0.00     0.302 C 
BRANCH  20  21
ATOM     21  C   UNL     1      -3.969   4.196   1.280  1.00  0.00     0.043 A 
ATOM     22  C   UNL     1      -2.598   1.895   0.712  1.00  0.00     0.159 A 
ATOM     23  N   UNL     1      -2.577   2.349   1.984  1.00  0.00    -0.236 NA
ATOM     24  N   UNL     1      -3.365   2.423  -0.257  1.00  0.00    -0.236 NA
ATOM     25  C   UNL     1      -3.293   3.469   2.241  1.00  0.00     0.124 A 
ATOM     26  C   UNL     1      -4.029   3.568   0.038  1.00  0.00     0.124 A 
BRANCH  22  27
ATOM     27  C   UNL     1      -1.693   0.782   0.376  1.00  0.00     0.019 A 
ATOM     28  C   UNL     1       2.071   0.011   0.117  1.00  0.00     0.044 C 
ATOM     29  C   UNL     1       0.576  -0.158   0.124  1.00  0.00    -0.050 A 
ATOM     30  C   UNL     1       0.023  -1.426  -0.064  1.00  0.00     0.003 A 
ATOM     31  C   UNL     1      -0.287   0.933   0.335  1.00  0.00     0.015 A 
ATOM     32  C   UNL     1      -1.361  -1.590  -0.078  1.00  0.00     0.001 A 
ATOM     33  C   UNL     1      -2.208  -0.496   0.130  1.00  0.00     0.012 A 
ENDBRANCH  22  27
ENDBRANCH  20  21
ENDBRANCH   8  20
ENDBRANCH   5   7
ENDBRANCH   4   5
ENDBRANCH   3   4
ENDBRANCH   2   3
ENDBRANCH   1   2
BRANCH   1  34
ATOM     34  C   UNL     1      -3.108   8.055  -3.085  1.00  0.00     0.202 C 
BRANCH  34  35
ATOM     35  C   UNL     1      -4.267   7.537  -3.947  1.00  0.00     0.261 C 
BRANCH  35  36
ATOM     36  O   UNL     1      -4.187   7.964  -5.327  1.00  0.00    -0.460 OA
BRANCH  36  37
ATOM     37  C   UNL     1      -3.759   7.048  -6.249  1.00  0.00     0.338 C 
ATOM     38  O   UNL     1      -4.514   6.383  -6.935  1.00  0.00    -0.246 OA
BRANCH  37  39
ATOM     39  C   UNL     1      -2.278   7.082  -6.391  1.00  0.00     0.060 A 
ATOM     40  C   UNL     1      -1.544   5.992  -6.890  1.00  0.00     0.016 A 
ATOM     41  C   UNL     1      -1.612   8.164  -5.835  1.00  0.00     0.016 A 
ATOM     42  C   UNL     1      -0.154   5.929  -6.691  1.00  0.00     0.010 A 
ATOM     43  C   UNL     1      -0.297   8.009  -5.475  1.00  0.00     0.010 A 
ATOM     44  C   UNL     1       0.454   6.902  -5.906  1.00  0.00    -0.014 A 
BRANCH  44  45
ATOM     45  C   UNL     1       1.848   6.971  -5.459  1.00  0.00     0.031 A 
ATOM     46  C   UNL     1       2.573   8.177  -5.920  1.00  0.00     0.074 A 
ATOM     47  C   UNL     1       2.331   6.219  -4.432  1.00  0.00     0.049 A 
ATOM     48  N   UNL     1       3.758   8.469  -5.543  1.00  0.00    -0.248 NA
ATOM     49  C   UNL     1       2.020   9.183  -6.835  1.00  0.00     0.031 C 
ATOM     50  C   UNL     1       3.431   6.498  -3.504  1.00  0.00     0.029 A 
ATOM     51  N   UNL     1       1.931   4.948  -4.005  1.00  0.00    -0.354 N 
ATOM     52  C   UNL     1       3.994   9.784  -5.848  1.00  0.00     0.074 A 
ATOM     53  C   UNL     1       2.936  10.152  -6.749  1.00  0.00     0.031 C 
ATOM     54  C   UNL     1       3.809   5.352  -2.900  1.00  0.00     0.029 A 
ATOM     55  C   UNL     1       3.055   4.271  -3.517  1.00  0.00     0.049 A 
ATOM     56  H   UNL     1       1.014   4.590  -4.040  1.00  0.00     0.167 HD
ATOM     57  C   UNL     1       5.016  10.386  -5.179  1.00  0.00     0.037 A 
ATOM     58  C   UNL     1       3.492   3.198  -4.230  1.00  0.00     0.037 A 
ATOM     59  C   UNL     1       5.864   9.347  -4.545  1.00  0.00     0.049 A 
ATOM     60  C   UNL     1       4.787   3.590  -4.912  1.00  0.00     0.074 A 
ATOM     61  C   UNL     1       6.168   8.923  -3.263  1.00  0.00     0.029 A 
ATOM     62  N   UNL     1       6.294   8.309  -5.367  1.00  0.00    -0.354 N 
ATOM     63  N   UNL     1       5.311   4.783  -4.796  1.00  0.00    -0.248 NA
ATOM     64  C   UNL     1       5.606   2.730  -5.751  1.00  0.00     0.031 C 
ATOM     65  C   UNL     1       6.710   7.585  -3.352  1.00  0.00     0.029 A 
ATOM     66  C   UNL     1       6.770   7.208  -4.687  1.00  0.00     0.049 A 
ATOM     67  H   UNL     1       6.262   8.358  -6.350  1.00  0.00     0.167 HD
ATOM     68  C   UNL     1       6.468   4.894  -5.486  1.00  0.00     0.074 A 
ATOM     69  C   UNL     1       6.594   3.578  -6.110  1.00  0.00     0.031 C 
ATOM     70  C   UNL     1       7.209   6.048  -5.482  1.00  0.00     0.037 A 
BRANCH  57  71
ATOM     71  C   UNL     1       5.198  11.886  -5.040  1.00  0.00     0.058 A 
ATOM     72  C   UNL     1       6.306  12.398  -4.334  1.00  0.00     0.135 A 
ATOM     73  C   UNL     1       4.297  12.880  -5.498  1.00  0.00     0.135 A 
ATOM     74  F   UNL     1       7.218  11.579  -3.791  1.00  0.00    -0.206 F 
ATOM     75  C   UNL     1       6.515  13.767  -4.125  1.00  0.00     0.059 A 
ATOM     76  C   UNL     1       4.508  14.254  -5.340  1.00  0.00     0.059 A 
ATOM     77  F   UNL     1       3.128  12.585  -6.072  1.00  0.00    -0.206 F 
ATOM     78  C   UNL     1       5.619  14.692  -4.646  1.00  0.00     0.060 A 
BRANCH  78  79
ATOM     79  S   UNL     1       5.907  16.452  -4.388  1.00  0.00     0.124 S 
ATOM     80  O   UNL     1       5.803  16.568  -2.937  1.00  0.00    -0.237 OA
ATOM     81  O   UNL     1       7.243  16.630  -4.947  1.00  0.00    -0.237 OA
ATOM     82  O   UNL     1       4.830  17.091  -5.140  1.00  0.00    -0.744 OA
ENDBRANCH  78  79
ENDBRANCH  57  71
BRANCH  58  83
ATOM     83  C   UNL     1       2.306   2.380  -4.710  1.00  0.00     0.058 A 
ATOM     84  C   UNL     1       1.493   1.778  -3.711  1.00  0.00     0.135 A 
ATOM     85  C   UNL     1       1.677   2.618  -5.942  1.00  0.00     0.135 A 
ATOM     86  F   UNL     1       2.017   1.526  -2.501  1.00  0.00    -0.206 F 
ATOM     87  C   UNL     1       0.111   1.583  -3.862  1.00  0.00     0.059 A 
ATOM     88  C   UNL     1       0.292   2.422  -6.117  1.00  0.00     0.059 A 
ATOM     89  F   UNL     1       2.357   3.197  -6.942  1.00  0.00    -0.206 F 
ATOM     90  C   UNL     1      -0.493   1.971  -5.053  1.00  0.00     0.060 A 
BRANCH  90  91
ATOM     91  S   UNL     1      -2.311   2.112  -5.118  1.00  0.00     0.124 S 
ATOM     92  O   UNL     1      -2.732   0.717  -5.144  1.00  0.00    -0.237 OA
ATOM     93  O   UNL     1      -2.624   2.852  -3.898  1.00  0.00    -0.237 OA
ATOM     94  O   UNL     1      -2.541   2.864  -6.347  1.00  0.00    -0.744 OA
ENDBRANCH  90  91
ENDBRANCH  58  83
BRANCH  70  95
ATOM     95  C   UNL     1       8.428   6.181  -6.347  1.00  0.00     0.058 A 
ATOM     96  C   UNL     1       9.379   5.159  -6.460  1.00  0.00     0.135 A 
ATOM     97  C   UNL     1       8.695   7.362  -7.077  1.00  0.00     0.135 A 
ATOM     98  F   UNL     1       9.296   4.051  -5.706  1.00  0.00    -0.206 F 
ATOM     99  C   UNL     1      10.439   5.242  -7.357  1.00  0.00     0.059 A 
ATOM    100  C   UNL     1       9.790   7.500  -7.909  1.00  0.00     0.059 A 
ATOM    101  F   UNL     1       7.879   8.423  -7.062  1.00  0.00    -0.206 F 
ATOM    102  C   UNL     1      10.624   6.413  -8.088  1.00  0.00     0.060 A 
BRANCH 102 103
ATOM    103  S   UNL     1      11.960   6.517  -9.280  1.00  0.00     0.124 S 
ATOM    104  O   UNL     1      13.061   5.874  -8.570  1.00  0.00    -0.237 OA
ATOM    105  O   UNL     1      11.402   5.767 -10.401  1.00  0.00    -0.237 OA
ATOM    106  O   UNL     1      12.112   7.952  -9.496  1.00  0.00    -0.744 OA
ENDBRANCH 102 103
ENDBRANCH  70  95
ENDBRANCH  44  45
ENDBRANCH  37  39
ENDBRANCH  36  37
ENDBRANCH  35  36
ENDBRANCH  34  35
ENDBRANCH   1  34
TORSDOF 20
