REMARK SMILES CNC(=O)[C@H](C)S(=O)(=O)c1cc(C(=O)OCCOCCOC(=O)c2ccc(-c3c4nc(c(-c5c(F)cc(S(=O)(=O)[O-])cc5F)c5ccc([nH]5)c(-c5c(F)cc(S(=O)(=O)[O-])cc5F)c5nc(c(-c6c(F)cc(S(=O)(=O)[O-])cc6F)c6ccc3[nH]6)C=C5)C=C4)cc2)c(C)cc1C
REMARK SMILES IDX 18 1 17 2 16 3 15 4 13 5 14 6 12 7 10 8 11 9 93 10 92 11
REMARK SMILES IDX 94 12 90 13 91 14 7 15 8 16 9 17 5 18 6 19 3 20 1 21 2 22
REMARK SMILES IDX 4 24 19 25 20 26 21 27 22 28 23 29 24 30 25 31 89 32 26 33
REMARK SMILES IDX 88 34 27 35 28 36 29 37 82 38 30 39 87 40 81 41 83 42 31 43
REMARK SMILES IDX 86 44 80 45 79 46 32 48 66 49 45 50 65 51 46 52 49 53 64 54
REMARK SMILES IDX 84 55 47 56 48 57 63 59 85 60 50 61 33 62 34 63 43 64 35 65
REMARK SMILES IDX 36 66 42 67 44 68 37 69 38 70 39 71 40 72 41 73 67 74 68 75
REMARK SMILES IDX 77 76 69 77 70 78 76 79 78 80 71 81 72 82 73 83 74 84 75 85
REMARK SMILES IDX 51 86 52 87 61 88 53 89 54 90 60 91 62 92 55 93 56 94 57 95
REMARK SMILES IDX 58 96 59 97
REMARK H PARENT 2 23 83 47 49 58
REMARK Flexibility Score: inf
ROOT
ATOM      1  O   UNL     1       4.408  -0.233  -2.434  1.00  0.00    -0.374 OA
ENDROOT
BRANCH   1   2
ATOM      2  C   UNL     1       4.370   0.701  -3.516  1.00  0.00     0.202 C 
BRANCH   2   3
ATOM      3  C   UNL     1       2.990   0.950  -4.127  1.00  0.00     0.261 C 
BRANCH   3   4
ATOM      4  O   UNL     1       2.160   1.681  -3.204  1.00  0.00    -0.460 OA
BRANCH   4   5
ATOM      5  C   UNL     1       1.010   1.088  -2.825  1.00  0.00     0.338 C 
ATOM      6  O   UNL     1       0.572   0.035  -3.262  1.00  0.00    -0.246 OA
BRANCH   5   7
ATOM      7  C   UNL     1       0.398   1.764  -1.637  1.00  0.00     0.064 A 
ATOM      8  C   UNL     1      -0.987   1.356   0.359  1.00  0.00     0.071 A 
ATOM      9  C   UNL     1      -0.378   0.909  -0.819  1.00  0.00     0.036 A 
ATOM     10  C   UNL     1      -1.012   2.734   0.615  1.00  0.00    -0.032 A 
ATOM     11  C   UNL     1      -0.204   3.578  -0.174  1.00  0.00     0.009 A 
ATOM     12  C   UNL     1      -1.887   3.415   1.634  1.00  0.00     0.046 C 
ATOM     13  C   UNL     1       0.552   3.110  -1.268  1.00  0.00    -0.036 A 
ATOM     14  C   UNL     1       1.372   4.133  -2.008  1.00  0.00     0.045 C 
BRANCH   8  15
ATOM     15  S   UNL     1      -1.788   0.152   1.421  1.00  0.00     0.190 S 
ATOM     16  O   UNL     1      -2.922  -0.322   0.645  1.00  0.00    -0.223 OA
ATOM     17  O   UNL     1      -2.020   0.796   2.702  1.00  0.00    -0.223 OA
BRANCH  15  18
ATOM     18  C   UNL     1      -0.764  -1.242   1.763  1.00  0.00     0.199 C 
ATOM     19  C   UNL     1      -0.255  -2.084   0.610  1.00  0.00     0.036 C 
BRANCH  18  20
ATOM     20  C   UNL     1       0.222  -1.008   2.881  1.00  0.00     0.238 C 
ATOM     21  C   UNL     1       1.977   0.367   1.641  1.00  0.00     0.142 C 
ATOM     22  N   UNL     1       1.375  -0.309   2.752  1.00  0.00    -0.358 N 
ATOM     23  H   UNL     1       1.901  -0.256   3.583  1.00  0.00     0.163 HD
ATOM     24  O   UNL     1       0.041  -1.538   3.984  1.00  0.00    -0.274 OA
ENDBRANCH  18  20
ENDBRANCH  15  18
ENDBRANCH   8  15
ENDBRANCH   5   7
ENDBRANCH   4   5
ENDBRANCH   3   4
ENDBRANCH   2   3
ENDBRANCH   1   2
BRANCH   1  25
ATOM     25  C   UNL     1       3.993   0.241  -1.157  1.00  0.00     0.202 C 
BRANCH  25  26
ATOM     26  C   UNL     1       5.024   1.032  -0.342  1.00  0.00     0.261 C 
BRANCH  26  27
ATOM     27  O   UNL     1       5.404   2.256  -0.977  1.00  0.00    -0.460 OA
BRANCH  27  28
ATOM     28  C   UNL     1       6.619   2.218  -1.573  1.00  0.00     0.338 C 
ATOM     29  O   UNL     1       7.411   1.288  -1.587  1.00  0.00    -0.246 OA
BRANCH  28  30
ATOM     30  C   UNL     1       6.787   3.438  -2.372  1.00  0.00     0.060 A 
ATOM     31  C   UNL     1       7.128   3.296  -3.722  1.00  0.00     0.016 A 
ATOM     32  C   UNL     1       6.651   4.700  -1.791  1.00  0.00     0.016 A 
ATOM     33  C   UNL     1       7.386   4.425  -4.493  1.00  0.00     0.010 A 
ATOM     34  C   UNL     1       6.915   5.829  -2.562  1.00  0.00     0.010 A 
ATOM     35  C   UNL     1       7.320   5.693  -3.903  1.00  0.00    -0.014 A 
BRANCH  35  36
ATOM     36  C   UNL     1       7.840   6.879  -4.617  1.00  0.00     0.031 A 
ATOM     37  C   UNL     1       9.193   7.404  -4.225  1.00  0.00     0.074 A 
ATOM     38  C   UNL     1       7.109   7.490  -5.563  1.00  0.00     0.049 A 
ATOM     39  N   UNL     1       9.787   8.511  -4.582  1.00  0.00    -0.248 NA
ATOM     40  C   UNL     1       9.973   6.573  -3.292  1.00  0.00     0.031 C 
ATOM     41  C   UNL     1       5.807   7.036  -6.050  1.00  0.00     0.029 A 
ATOM     42  N   UNL     1       7.349   8.643  -6.264  1.00  0.00    -0.354 N 
ATOM     43  C   UNL     1      10.998   8.522  -3.900  1.00  0.00     0.074 A 
ATOM     44  C   UNL     1      11.043   7.325  -3.090  1.00  0.00     0.031 C 
ATOM     45  C   UNL     1       5.350   7.918  -6.956  1.00  0.00     0.029 A 
ATOM     46  C   UNL     1       6.305   9.018  -7.076  1.00  0.00     0.049 A 
ATOM     47  H   UNL     1       8.188   9.153  -6.194  1.00  0.00     0.167 HD
ATOM     48  C   UNL     1      11.982   9.450  -3.951  1.00  0.00     0.037 A 
ATOM     49  C   UNL     1       6.130  10.141  -7.799  1.00  0.00     0.037 A 
ATOM     50  C   UNL     1      11.919  10.633  -4.768  1.00  0.00     0.049 A 
ATOM     51  C   UNL     1       7.210  11.192  -7.793  1.00  0.00     0.074 A 
ATOM     52  C   UNL     1      12.864  11.633  -4.907  1.00  0.00     0.029 A 
ATOM     53  N   UNL     1      10.848  10.977  -5.580  1.00  0.00    -0.354 N 
ATOM     54  N   UNL     1       8.354  11.194  -7.149  1.00  0.00    -0.248 NA
ATOM     55  C   UNL     1       6.979  12.392  -8.609  1.00  0.00     0.031 C 
ATOM     56  C   UNL     1      12.342  12.608  -5.761  1.00  0.00     0.029 A 
ATOM     57  C   UNL     1      11.100  12.183  -6.208  1.00  0.00     0.049 A 
ATOM     58  H   UNL     1      10.029  10.441  -5.692  1.00  0.00     0.167 HD
ATOM     59  C   UNL     1       8.998  12.371  -7.519  1.00  0.00     0.074 A 
ATOM     60  C   UNL     1       8.113  13.058  -8.437  1.00  0.00     0.031 C 
ATOM     61  C   UNL     1      10.215  12.836  -7.142  1.00  0.00     0.037 A 
BRANCH  48  62
ATOM     62  C   UNL     1      13.190   9.238  -3.080  1.00  0.00     0.058 A 
ATOM     63  C   UNL     1      14.118   8.216  -3.332  1.00  0.00     0.135 A 
ATOM     64  C   UNL     1      13.436  10.091  -1.992  1.00  0.00     0.135 A 
ATOM     65  F   UNL     1      13.922   7.357  -4.346  1.00  0.00    -0.206 F 
ATOM     66  C   UNL     1      15.233   8.030  -2.520  1.00  0.00     0.059 A 
ATOM     67  C   UNL     1      14.561   9.944  -1.186  1.00  0.00     0.059 A 
ATOM     68  F   UNL     1      12.578  11.082  -1.702  1.00  0.00    -0.206 F 
ATOM     69  C   UNL     1      15.446   8.900  -1.450  1.00  0.00     0.060 A 
BRANCH  69  70
ATOM     70  S   UNL     1      16.900   8.648  -0.411  1.00  0.00     0.124 S 
ATOM     71  O   UNL     1      16.535   7.431   0.307  1.00  0.00    -0.237 OA
ATOM     72  O   UNL     1      17.966   8.507  -1.397  1.00  0.00    -0.237 OA
ATOM     73  O   UNL     1      16.954   9.861   0.399  1.00  0.00    -0.744 OA
ENDBRANCH  69  70
ENDBRANCH  48  62
BRANCH  49  74
ATOM     74  C   UNL     1       4.878  10.333  -8.580  1.00  0.00     0.058 A 
ATOM     75  C   UNL     1       4.892  10.323  -9.982  1.00  0.00     0.135 A 
ATOM     76  C   UNL     1       3.642  10.521  -7.940  1.00  0.00     0.135 A 
ATOM     77  F   UNL     1       6.050  10.155 -10.639  1.00  0.00    -0.206 F 
ATOM     78  C   UNL     1       3.731  10.509 -10.724  1.00  0.00     0.059 A 
ATOM     79  C   UNL     1       2.463  10.681  -8.660  1.00  0.00     0.059 A 
ATOM     80  F   UNL     1       3.571  10.525  -6.600  1.00  0.00    -0.206 F 
ATOM     81  C   UNL     1       2.519  10.683 -10.053  1.00  0.00     0.060 A 
BRANCH  81  82
ATOM     82  S   UNL     1       1.011  10.874 -11.027  1.00  0.00     0.124 S 
ATOM     83  O   UNL     1       1.190  12.208 -11.587  1.00  0.00    -0.237 OA
ATOM     84  O   UNL     1       1.116   9.765 -11.970  1.00  0.00    -0.237 OA
ATOM     85  O   UNL     1      -0.050  10.742 -10.033  1.00  0.00    -0.744 OA
ENDBRANCH  81  82
ENDBRANCH  49  74
BRANCH  61  86
ATOM     86  C   UNL     1      10.707  14.111  -7.771  1.00  0.00     0.058 A 
ATOM     87  C   UNL     1      10.186  15.366  -7.422  1.00  0.00     0.135 A 
ATOM     88  C   UNL     1      11.786  14.075  -8.671  1.00  0.00     0.135 A 
ATOM     89  F   UNL     1       9.151  15.455  -6.572  1.00  0.00    -0.206 F 
ATOM     90  C   UNL     1      10.712  16.541  -7.950  1.00  0.00     0.059 A 
ATOM     91  C   UNL     1      12.346  15.238  -9.188  1.00  0.00     0.059 A 
ATOM     92  F   UNL     1      12.328  12.900  -9.031  1.00  0.00    -0.206 F 
ATOM     93  C   UNL     1      11.798  16.467  -8.825  1.00  0.00     0.060 A 
BRANCH  93  94
ATOM     94  S   UNL     1      12.512  18.003  -9.451  1.00  0.00     0.124 S 
ATOM     95  O   UNL     1      11.482  18.447 -10.384  1.00  0.00    -0.237 OA
ATOM     96  O   UNL     1      12.652  18.798  -8.235  1.00  0.00    -0.237 OA
ATOM     97  O   UNL     1      13.767  17.572 -10.060  1.00  0.00    -0.744 OA
ENDBRANCH  93  94
ENDBRANCH  61  86
ENDBRANCH  35  36
ENDBRANCH  28  30
ENDBRANCH  27  28
ENDBRANCH  26  27
ENDBRANCH  25  26
ENDBRANCH   1  25
TORSDOF 20
