REMARK SMILES Cc1ccccc1C(=O)Nc1ccc(OCC(=O)OCCOCCOC(=O)c2ccc(-c3c4nc(c(-c5c(F)cc(S(=O)(=O)[O-])cc5F)c5ccc([nH]5)c(-c5c(F)cc(S(=O)(=O)[O-])cc5F)c5nc(c(-c6c(F)cc(S(=O)(=O)[O-])cc6F)c6ccc3[nH]6)C=C5)C=C4)cc2)c(-c2nc3ccccc3s2)c1
REMARK SMILES IDX 21 1 20 2 19 3 17 4 18 5 16 6 15 7 14 8 11 9 12 10 104 11
REMARK SMILES IDX 13 12 94 13 10 14 8 15 9 16 7 18 1 19 2 20 3 21 4 22 6 23
REMARK SMILES IDX 5 24 95 25 96 26 103 27 97 28 102 29 98 30 101 31 99 32
REMARK SMILES IDX 100 33 22 34 23 35 24 36 25 37 26 38 27 39 28 40 29 41 93 42
REMARK SMILES IDX 30 43 92 44 31 45 32 46 33 47 86 48 34 49 91 50 85 51 87 52
REMARK SMILES IDX 35 53 90 54 84 55 83 56 36 58 70 59 49 60 69 61 50 62 53 63
REMARK SMILES IDX 68 64 88 65 51 66 52 67 67 69 89 70 54 71 37 72 38 73 47 74
REMARK SMILES IDX 39 75 40 76 46 77 48 78 41 79 42 80 43 81 44 82 45 83 71 84
REMARK SMILES IDX 72 85 81 86 73 87 74 88 80 89 82 90 75 91 76 92 77 93 78 94
REMARK SMILES IDX 79 95 55 96 56 97 65 98 57 99 58 100 64 101 66 102 59 103
REMARK SMILES IDX 60 104 61 105 62 106 63 107
REMARK H PARENT 10 17 87 57 53 68
REMARK Flexibility Score: inf
ROOT
ATOM      1  C   UNL     1       1.303  -2.474  -1.160  1.00  0.00     0.202 C 
ENDROOT
BRANCH   1   2
ATOM      2  C   UNL     1       2.362  -3.534  -1.421  1.00  0.00     0.261 C 
BRANCH   2   3
ATOM      3  O   UNL     1       3.625  -2.881  -1.479  1.00  0.00    -0.461 OA
BRANCH   3   4
ATOM      4  C   UNL     1       4.711  -3.513  -1.937  1.00  0.00     0.344 C 
ATOM      5  O   UNL     1       4.739  -4.585  -2.522  1.00  0.00    -0.248 OA
BRANCH   4   6
ATOM      6  C   UNL     1       5.935  -2.641  -1.646  1.00  0.00     0.352 C 
BRANCH   6   7
ATOM      7  O   UNL     1       6.063  -1.225  -1.750  1.00  0.00    -0.481 OA
BRANCH   7   8
ATOM      8  C   UNL     1       5.063  -0.302  -1.595  1.00  0.00     0.130 A 
ATOM      9  C   UNL     1       3.418   2.002  -1.153  1.00  0.00     0.042 A 
ATOM     10  C   UNL     1       4.575   1.800  -0.406  1.00  0.00     0.030 A 
ATOM     11  C   UNL     1       3.121   1.083  -2.154  1.00  0.00     0.041 A 
ATOM     12  C   UNL     1       5.345   0.639  -0.585  1.00  0.00     0.049 A 
ATOM     13  C   UNL     1       3.974  -0.036  -2.458  1.00  0.00     0.055 A 
BRANCH   9  14
ATOM     14  N   UNL     1       2.667   3.168  -0.898  1.00  0.00    -0.322 N 
ATOM     15  C   UNL     1       1.316   3.456  -0.961  1.00  0.00     0.255 C 
ATOM     16  O   UNL     1       0.973   4.635  -1.090  1.00  0.00    -0.269 OA
ATOM     17  H   UNL     1       3.217   3.935  -0.617  1.00  0.00     0.170 HD
BRANCH  15  18
ATOM     18  C   UNL     1       0.247   2.442  -0.709  1.00  0.00     0.043 A 
ATOM     19  C   UNL     1       1.421   1.446   1.317  1.00  0.00     0.045 C 
ATOM     20  C   UNL     1       0.329   1.460   0.291  1.00  0.00    -0.038 A 
ATOM     21  C   UNL     1      -0.720   0.531   0.436  1.00  0.00     0.004 A 
ATOM     22  C   UNL     1      -1.917   0.689  -0.254  1.00  0.00     0.000 A 
ATOM     23  C   UNL     1      -0.997   2.639  -1.339  1.00  0.00     0.014 A 
ATOM     24  C   UNL     1      -2.078   1.783  -1.095  1.00  0.00     0.001 A 
ENDBRANCH  15  18
ENDBRANCH   9  14
BRANCH  13  25
ATOM     25  C   UNL     1       3.570  -0.792  -3.668  1.00  0.00     0.128 A 
ATOM     26  N   UNL     1       2.407  -0.611  -4.275  1.00  0.00    -0.236 NA
ATOM     27  S   UNL     1       4.529  -1.953  -4.505  1.00  0.00    -0.114 S 
ATOM     28  C   UNL     1       2.073  -1.747  -4.980  1.00  0.00     0.082 A 
ATOM     29  C   UNL     1       3.066  -2.723  -5.013  1.00  0.00     0.055 A 
ATOM     30  C   UNL     1       0.824  -2.021  -5.562  1.00  0.00     0.030 A 
ATOM     31  C   UNL     1       2.799  -4.036  -5.428  1.00  0.00     0.021 A 
ATOM     32  C   UNL     1       0.553  -3.313  -6.019  1.00  0.00     0.002 A 
ATOM     33  C   UNL     1       1.513  -4.317  -5.906  1.00  0.00     0.002 A 
ENDBRANCH  13  25
ENDBRANCH   7   8
ENDBRANCH   6   7
ENDBRANCH   4   6
ENDBRANCH   3   4
ENDBRANCH   2   3
ENDBRANCH   1   2
BRANCH   1  34
ATOM     34  O   UNL     1       1.714  -1.405  -0.302  1.00  0.00    -0.374 OA
BRANCH  34  35
ATOM     35  C   UNL     1       2.556  -1.707   0.810  1.00  0.00     0.202 C 
BRANCH  35  36
ATOM     36  C   UNL     1       1.839  -2.078   2.092  1.00  0.00     0.261 C 
BRANCH  36  37
ATOM     37  O   UNL     1       0.996  -3.209   1.939  1.00  0.00    -0.460 OA
BRANCH  37  38
ATOM     38  C   UNL     1      -0.238  -3.137   2.540  1.00  0.00     0.338 C 
ATOM     39  O   UNL     1      -0.814  -2.219   3.016  1.00  0.00    -0.246 OA
BRANCH  38  40
ATOM     40  C   UNL     1      -0.807  -4.471   2.227  1.00  0.00     0.060 A 
ATOM     41  C   UNL     1      -0.150  -5.583   2.765  1.00  0.00     0.016 A 
ATOM     42  C   UNL     1      -1.409  -4.512   0.971  1.00  0.00     0.016 A 
ATOM     43  C   UNL     1       0.221  -6.598   1.896  1.00  0.00     0.010 A 
ATOM     44  C   UNL     1      -0.995  -5.502   0.104  1.00  0.00     0.010 A 
ATOM     45  C   UNL     1      -0.009  -6.399   0.531  1.00  0.00    -0.014 A 
BRANCH  45  46
ATOM     46  C   UNL     1       1.000  -6.795  -0.463  1.00  0.00     0.031 A 
ATOM     47  C   UNL     1       0.552  -7.332  -1.742  1.00  0.00     0.074 A 
ATOM     48  C   UNL     1       2.321  -6.562  -0.294  1.00  0.00     0.049 A 
ATOM     49  N   UNL     1       0.310  -8.579  -1.962  1.00  0.00    -0.248 NA
ATOM     50  C   UNL     1       0.293  -6.432  -2.867  1.00  0.00     0.031 C 
ATOM     51  C   UNL     1       3.411  -6.907  -1.198  1.00  0.00     0.029 A 
ATOM     52  N   UNL     1       2.966  -5.999   0.801  1.00  0.00    -0.354 N 
ATOM     53  C   UNL     1       0.167  -8.660  -3.329  1.00  0.00     0.074 A 
ATOM     54  C   UNL     1      -0.087  -7.305  -3.800  1.00  0.00     0.031 C 
ATOM     55  C   UNL     1       4.573  -6.810  -0.522  1.00  0.00     0.029 A 
ATOM     56  C   UNL     1       4.295  -6.404   0.852  1.00  0.00     0.049 A 
ATOM     57  H   UNL     1       2.540  -5.395   1.451  1.00  0.00     0.167 HD
ATOM     58  C   UNL     1       0.852  -9.574  -4.075  1.00  0.00     0.037 A 
ATOM     59  C   UNL     1       4.755  -7.033   1.968  1.00  0.00     0.037 A 
ATOM     60  C   UNL     1       2.072 -10.003  -3.382  1.00  0.00     0.049 A 
ATOM     61  C   UNL     1       4.566  -8.533   1.798  1.00  0.00     0.074 A 
ATOM     62  C   UNL     1       3.409  -9.710  -3.607  1.00  0.00     0.029 A 
ATOM     63  N   UNL     1       2.020 -10.558  -2.101  1.00  0.00    -0.354 N 
ATOM     64  N   UNL     1       4.051  -9.057   0.714  1.00  0.00    -0.248 NA
ATOM     65  C   UNL     1       4.955  -9.566   2.753  1.00  0.00     0.031 C 
ATOM     66  C   UNL     1       4.146 -10.038  -2.439  1.00  0.00     0.029 A 
ATOM     67  C   UNL     1       3.271 -10.557  -1.501  1.00  0.00     0.049 A 
ATOM     68  H   UNL     1       1.201 -10.906  -1.679  1.00  0.00     0.167 HD
ATOM     69  C   UNL     1       4.004 -10.416   0.802  1.00  0.00     0.074 A 
ATOM     70  C   UNL     1       4.595 -10.692   2.100  1.00  0.00     0.031 C 
ATOM     71  C   UNL     1       3.487 -11.190  -0.200  1.00  0.00     0.037 A 
BRANCH  58  72
ATOM     72  C   UNL     1       0.565  -9.673  -5.561  1.00  0.00     0.058 A 
ATOM     73  C   UNL     1       1.498 -10.138  -6.503  1.00  0.00     0.135 A 
ATOM     74  C   UNL     1      -0.714  -9.356  -6.091  1.00  0.00     0.135 A 
ATOM     75  F   UNL     1       2.718 -10.548  -6.132  1.00  0.00    -0.206 F 
ATOM     76  C   UNL     1       1.214 -10.209  -7.871  1.00  0.00     0.059 A 
ATOM     77  C   UNL     1      -1.010  -9.386  -7.454  1.00  0.00     0.059 A 
ATOM     78  F   UNL     1      -1.724  -8.989  -5.283  1.00  0.00    -0.206 F 
ATOM     79  C   UNL     1      -0.037  -9.821  -8.341  1.00  0.00     0.060 A 
BRANCH  79  80
ATOM     80  S   UNL     1      -0.380  -9.904 -10.110  1.00  0.00     0.124 S 
ATOM     81  O   UNL     1       0.764  -9.200 -10.680  1.00  0.00    -0.237 OA
ATOM     82  O   UNL     1      -0.423 -11.344 -10.340  1.00  0.00    -0.237 OA
ATOM     83  O   UNL     1      -1.659  -9.210 -10.240  1.00  0.00    -0.744 OA
ENDBRANCH  79  80
ENDBRANCH  58  72
BRANCH  59  84
ATOM     84  C   UNL     1       4.666  -6.140   3.169  1.00  0.00     0.058 A 
ATOM     85  C   UNL     1       5.579  -5.059   3.198  1.00  0.00     0.135 A 
ATOM     86  C   UNL     1       3.532  -6.009   3.985  1.00  0.00     0.135 A 
ATOM     87  F   UNL     1       6.685  -5.106   2.436  1.00  0.00    -0.206 F 
ATOM     88  C   UNL     1       5.330  -3.873   3.891  1.00  0.00     0.059 A 
ATOM     89  C   UNL     1       3.255  -4.820   4.687  1.00  0.00     0.059 A 
ATOM     90  F   UNL     1       2.600  -6.973   3.993  1.00  0.00    -0.206 F 
ATOM     91  C   UNL     1       4.146  -3.745   4.610  1.00  0.00     0.060 A 
BRANCH  91  92
ATOM     92  S   UNL     1       3.678  -2.093   5.227  1.00  0.00     0.124 S 
ATOM     93  O   UNL     1       4.356  -2.044   6.515  1.00  0.00    -0.237 OA
ATOM     94  O   UNL     1       4.213  -1.209   4.192  1.00  0.00    -0.237 OA
ATOM     95  O   UNL     1       2.222  -2.172   5.271  1.00  0.00    -0.744 OA
ENDBRANCH  91  92
ENDBRANCH  59  84
BRANCH  71  96
ATOM     96  C   UNL     1       3.216 -12.668  -0.098  1.00  0.00     0.058 A 
ATOM     97  C   UNL     1       2.760 -13.291   1.071  1.00  0.00     0.135 A 
ATOM     98  C   UNL     1       3.240 -13.472  -1.265  1.00  0.00     0.135 A 
ATOM     99  F   UNL     1       2.627 -12.607   2.217  1.00  0.00    -0.206 F 
ATOM    100  C   UNL     1       2.379 -14.633   1.092  1.00  0.00     0.059 A 
ATOM    101  C   UNL     1       2.807 -14.790  -1.279  1.00  0.00     0.059 A 
ATOM    102  F   UNL     1       3.672 -12.988  -2.440  1.00  0.00    -0.206 F 
ATOM    103  C   UNL     1       2.396 -15.370  -0.089  1.00  0.00     0.060 A 
BRANCH 103 104
ATOM    104  S   UNL     1       1.827 -17.078  -0.087  1.00  0.00     0.124 S 
ATOM    105  O   UNL     1       3.063 -17.792   0.218  1.00  0.00    -0.237 OA
ATOM    106  O   UNL     1       0.820 -17.081   0.970  1.00  0.00    -0.237 OA
ATOM    107  O   UNL     1       1.307 -17.259  -1.438  1.00  0.00    -0.744 OA
ENDBRANCH 103 104
ENDBRANCH  71  96
ENDBRANCH  45  46
ENDBRANCH  38  40
ENDBRANCH  37  38
ENDBRANCH  36  37
ENDBRANCH  35  36
ENDBRANCH  34  35
ENDBRANCH   1  34
TORSDOF 22
