REMARK SMILES CC(C)(C)OC(=O)N1CCN(N[C@@H](C(=O)OCCOCCOC(=O)c2ccc(-c3c4nc(c(-c5c(F)cc(S(=O)(=O)[O-])cc5F)c5ccc([nH]5)c(-c5c(F)cc(S(=O)(=O)[O-])cc5F)c5nc(c(-c6c(F)cc(S(=O)(=O)[O-])cc6F)c6ccc3[nH]6)C=C5)C=C4)cc2)c2ccccc2Cl)CC1
REMARK SMILES IDX 18 1 17 2 16 3 14 4 15 5 13 6 12 7 11 9 6 10 7 11 8 12 9 13
REMARK SMILES IDX 99 14 10 15 98 16 5 17 2 18 1 19 3 20 4 21 91 22 92 23 96 24
REMARK SMILES IDX 93 25 95 26 97 27 94 28 19 29 20 30 21 31 22 32 23 33 24 34
REMARK SMILES IDX 25 35 26 36 90 37 27 38 89 39 28 40 29 41 30 42 83 43 31 44
REMARK SMILES IDX 88 45 82 46 84 47 32 48 87 49 81 50 80 51 33 53 67 54 46 55
REMARK SMILES IDX 66 56 47 57 50 58 65 59 85 60 48 61 49 62 64 64 86 65 51 66
REMARK SMILES IDX 34 67 35 68 44 69 36 70 37 71 43 72 45 73 38 74 39 75 40 76
REMARK SMILES IDX 41 77 42 78 68 79 69 80 78 81 70 82 71 83 77 84 79 85 72 86
REMARK SMILES IDX 73 87 74 88 75 89 76 90 52 91 53 92 62 93 54 94 55 95 61 96
REMARK SMILES IDX 63 97 56 98 57 99 58 100 59 101 60 102
REMARK H PARENT 12 8 84 52 50 63
REMARK Flexibility Score: inf
ROOT
ATOM      1  C   UNL     1       1.824   0.782  10.781  1.00  0.00     0.202 C 
ENDROOT
BRANCH   1   2
ATOM      2  C   UNL     1       0.570   1.603  10.482  1.00  0.00     0.261 C 
BRANCH   2   3
ATOM      3  O   UNL     1       0.777   2.365   9.281  1.00  0.00    -0.462 OA
BRANCH   3   4
ATOM      4  C   UNL     1       0.522   3.695   9.346  1.00  0.00     0.329 C 
ATOM      5  O   UNL     1      -0.019   4.230  10.312  1.00  0.00    -0.250 OA
BRANCH   4   6
ATOM      6  C   UNL     1       0.986   4.496   8.100  1.00  0.00     0.211 C 
BRANCH   6   7
ATOM      7  N   UNL     1       1.888   3.792   7.123  1.00  0.00    -0.237 NA
ATOM      8  H   UNL     1       2.085   4.434   6.355  1.00  0.00     0.143 HD
BRANCH   7   9
ATOM      9  N   UNL     1       1.340   2.548   6.550  1.00  0.00    -0.240 NA
ATOM     10  C   UNL     1       0.532   2.924   2.372  1.00  0.00     0.410 C 
ATOM     11  O   UNL     1      -0.384   3.607   1.928  1.00  0.00    -0.224 OA
ATOM     12  N   UNL     1       0.978   3.032   3.668  1.00  0.00    -0.306 N 
ATOM     13  C   UNL     1       0.104   3.644   4.652  1.00  0.00     0.140 C 
ATOM     14  C   UNL     1       2.307   2.662   4.151  1.00  0.00     0.140 C 
ATOM     15  C   UNL     1       0.027   2.746   5.891  1.00  0.00     0.124 C 
ATOM     16  C   UNL     1       2.286   1.981   5.543  1.00  0.00     0.124 C 
BRANCH  10  17
ATOM     17  O   UNL     1       1.150   1.929   1.686  1.00  0.00    -0.444 OA
BRANCH  17  18
ATOM     18  C   UNL     1       0.639   1.532   0.383  1.00  0.00     0.106 C 
ATOM     19  C   UNL     1       1.312   0.184   0.080  1.00  0.00     0.056 C 
ATOM     20  C   UNL     1       1.065   2.557  -0.670  1.00  0.00     0.056 C 
ATOM     21  C   UNL     1      -0.883   1.300   0.365  1.00  0.00     0.056 C 
ENDBRANCH  17  18
ENDBRANCH  10  17
ENDBRANCH   7   9
ENDBRANCH   6   7
BRANCH   6  22
ATOM     22  C   UNL     1       1.645   5.816   8.529  1.00  0.00     0.000 A 
ATOM     23  C   UNL     1       2.550   5.840   9.614  1.00  0.00     0.007 A 
ATOM     24  C   UNL     1       1.361   7.037   7.893  1.00  0.00     0.046 A 
ATOM     25  C   UNL     1       3.108   7.035  10.073  1.00  0.00     0.000 A 
ATOM     26  C   UNL     1       1.926   8.232   8.355  1.00  0.00     0.021 A 
ATOM     27  Cl  UNL     1       0.300   7.155   6.535  1.00  0.00    -0.084 Cl
ATOM     28  C   UNL     1       2.791   8.233   9.448  1.00  0.00     0.002 A 
ENDBRANCH   6  22
ENDBRANCH   4   6
ENDBRANCH   3   4
ENDBRANCH   2   3
ENDBRANCH   1   2
BRANCH   1  29
ATOM     29  O   UNL     1       2.971   1.536  11.189  1.00  0.00    -0.374 OA
BRANCH  29  30
ATOM     30  C   UNL     1       3.694   2.213  10.164  1.00  0.00     0.202 C 
BRANCH  30  31
ATOM     31  C   UNL     1       4.708   1.391   9.362  1.00  0.00     0.261 C 
BRANCH  31  32
ATOM     32  O   UNL     1       4.080   0.353   8.597  1.00  0.00    -0.460 OA
BRANCH  32  33
ATOM     33  C   UNL     1       4.181  -0.880   9.152  1.00  0.00     0.338 C 
ATOM     34  O   UNL     1       4.813  -1.186  10.149  1.00  0.00    -0.246 OA
BRANCH  33  35
ATOM     35  C   UNL     1       3.252  -1.808   8.480  1.00  0.00     0.060 A 
ATOM     36  C   UNL     1       2.452  -2.618   9.298  1.00  0.00     0.016 A 
ATOM     37  C   UNL     1       3.206  -1.929   7.090  1.00  0.00     0.016 A 
ATOM     38  C   UNL     1       1.653  -3.606   8.732  1.00  0.00     0.010 A 
ATOM     39  C   UNL     1       2.411  -2.928   6.524  1.00  0.00     0.010 A 
ATOM     40  C   UNL     1       1.672  -3.799   7.346  1.00  0.00    -0.014 A 
BRANCH  40  41
ATOM     41  C   UNL     1       1.102  -5.039   6.771  1.00  0.00     0.031 A 
ATOM     42  C   UNL     1       2.046  -6.168   6.455  1.00  0.00     0.074 A 
ATOM     43  C   UNL     1      -0.216  -5.162   6.546  1.00  0.00     0.049 A 
ATOM     44  N   UNL     1       1.812  -7.298   5.845  1.00  0.00    -0.248 NA
ATOM     45  C   UNL     1       3.446  -5.990   6.880  1.00  0.00     0.031 C 
ATOM     46  C   UNL     1      -1.227  -4.157   6.870  1.00  0.00     0.029 A 
ATOM     47  N   UNL     1      -0.928  -6.185   5.973  1.00  0.00    -0.354 N 
ATOM     48  C   UNL     1       3.035  -7.957   5.793  1.00  0.00     0.074 A 
ATOM     49  C   UNL     1       4.013  -7.093   6.415  1.00  0.00     0.031 C 
ATOM     50  C   UNL     1      -2.430  -4.605   6.469  1.00  0.00     0.029 A 
ATOM     51  C   UNL     1      -2.266  -5.908   5.826  1.00  0.00     0.049 A 
ATOM     52  H   UNL     1      -0.520  -7.037   5.695  1.00  0.00     0.167 HD
ATOM     53  C   UNL     1       3.314  -9.175   5.274  1.00  0.00     0.037 A 
ATOM     54  C   UNL     1      -3.236  -6.613   5.210  1.00  0.00     0.037 A 
ATOM     55  C   UNL     1       2.329 -10.028   4.666  1.00  0.00     0.049 A 
ATOM     56  C   UNL     1      -2.892  -7.940   4.582  1.00  0.00     0.074 A 
ATOM     57  C   UNL     1       2.502 -11.283   4.111  1.00  0.00     0.029 A 
ATOM     58  N   UNL     1       0.985  -9.710   4.532  1.00  0.00    -0.354 N 
ATOM     59  N   UNL     1      -1.732  -8.553   4.535  1.00  0.00    -0.248 NA
ATOM     60  C   UNL     1      -3.984  -8.673   3.925  1.00  0.00     0.031 C 
ATOM     61  C   UNL     1       1.270 -11.705   3.601  1.00  0.00     0.029 A 
ATOM     62  C   UNL     1       0.320 -10.738   3.889  1.00  0.00     0.049 A 
ATOM     63  H   UNL     1       0.568  -8.876   4.847  1.00  0.00     0.167 HD
ATOM     64  C   UNL     1      -1.964  -9.760   3.882  1.00  0.00     0.074 A 
ATOM     65  C   UNL     1      -3.372  -9.787   3.545  1.00  0.00     0.031 C 
ATOM     66  C   UNL     1      -1.092 -10.758   3.594  1.00  0.00     0.037 A 
BRANCH  53  67
ATOM     67  C   UNL     1       4.743  -9.640   5.312  1.00  0.00     0.058 A 
ATOM     68  C   UNL     1       5.368 -10.023   6.509  1.00  0.00     0.135 A 
ATOM     69  C   UNL     1       5.491  -9.726   4.126  1.00  0.00     0.135 A 
ATOM     70  F   UNL     1       4.706  -9.939   7.674  1.00  0.00    -0.206 F 
ATOM     71  C   UNL     1       6.692 -10.451   6.534  1.00  0.00     0.059 A 
ATOM     72  C   UNL     1       6.807 -10.178   4.123  1.00  0.00     0.059 A 
ATOM     73  F   UNL     1       4.944  -9.367   2.954  1.00  0.00    -0.206 F 
ATOM     74  C   UNL     1       7.403 -10.524   5.335  1.00  0.00     0.060 A 
BRANCH  74  75
ATOM     75  S   UNL     1       9.119 -11.083   5.382  1.00  0.00     0.124 S 
ATOM     76  O   UNL     1       9.785  -9.926   5.972  1.00  0.00    -0.237 OA
ATOM     77  O   UNL     1       9.039 -12.268   6.230  1.00  0.00    -0.237 OA
ATOM     78  O   UNL     1       9.432 -11.339   3.979  1.00  0.00    -0.744 OA
ENDBRANCH  74  75
ENDBRANCH  53  67
BRANCH  54  79
ATOM     79  C   UNL     1      -4.619  -6.071   5.143  1.00  0.00     0.058 A 
ATOM     80  C   UNL     1      -5.666  -6.663   5.864  1.00  0.00     0.135 A 
ATOM     81  C   UNL     1      -4.920  -4.943   4.363  1.00  0.00     0.135 A 
ATOM     82  F   UNL     1      -5.431  -7.749   6.617  1.00  0.00    -0.206 F 
ATOM     83  C   UNL     1      -6.964  -6.166   5.806  1.00  0.00     0.059 A 
ATOM     84  C   UNL     1      -6.205  -4.412   4.308  1.00  0.00     0.059 A 
ATOM     85  F   UNL     1      -3.952  -4.332   3.662  1.00  0.00    -0.206 F 
ATOM     86  C   UNL     1      -7.223  -5.037   5.026  1.00  0.00     0.060 A 
BRANCH  86  87
ATOM     87  S   UNL     1      -8.902  -4.372   4.996  1.00  0.00     0.124 S 
ATOM     88  O   UNL     1      -9.596  -5.365   4.186  1.00  0.00    -0.237 OA
ATOM     89  O   UNL     1      -9.247  -4.348   6.414  1.00  0.00    -0.237 OA
ATOM     90  O   UNL     1      -8.731  -3.060   4.379  1.00  0.00    -0.744 OA
ENDBRANCH  86  87
ENDBRANCH  54  79
BRANCH  66  91
ATOM     91  C   UNL     1      -1.631 -12.000   2.944  1.00  0.00     0.058 A 
ATOM     92  C   UNL     1      -1.968 -12.040   1.583  1.00  0.00     0.135 A 
ATOM     93  C   UNL     1      -1.703 -13.198   3.675  1.00  0.00     0.135 A 
ATOM     94  F   UNL     1      -1.922 -10.921   0.843  1.00  0.00    -0.206 F 
ATOM     95  C   UNL     1      -2.357 -13.226   0.968  1.00  0.00     0.059 A 
ATOM     96  C   UNL     1      -2.065 -14.399   3.075  1.00  0.00     0.059 A 
ATOM     97  F   UNL     1      -1.382 -13.214   4.979  1.00  0.00    -0.206 F 
ATOM     98  C   UNL     1      -2.392 -14.402   1.720  1.00  0.00     0.060 A 
BRANCH  98  99
ATOM     99  S   UNL     1      -2.820 -15.948   0.891  1.00  0.00     0.124 S 
ATOM    100  O   UNL     1      -4.257 -15.789   0.694  1.00  0.00    -0.237 OA
ATOM    101  O   UNL     1      -2.004 -15.890  -0.317  1.00  0.00    -0.237 OA
ATOM    102  O   UNL     1      -2.428 -16.971   1.856  1.00  0.00    -0.744 OA
ENDBRANCH  98  99
ENDBRANCH  66  91
ENDBRANCH  40  41
ENDBRANCH  33  35
ENDBRANCH  32  33
ENDBRANCH  31  32
ENDBRANCH  30  31
ENDBRANCH  29  30
ENDBRANCH   1  29
TORSDOF 22
