REMARK SMILES O=C(CSCc1ccc(C(=O)OCCOCCOC(=O)c2ccc(-c3c4nc(c(-c5c(F)cc(S(=O)(=O)[O-])cc5F)c5ccc([nH]5)c(-c5c(F)cc(S(=O)(=O)[O-])cc5F)c5nc(c(-c6c(F)cc(S(=O)(=O)[O-])cc6F)c6ccc3[nH]6)C=C5)C=C4)cc2)cc1)Nc1ccc(Cl)cc1
REMARK SMILES IDX 14 1 13 2 12 3 10 4 11 5 9 6 6 7 7 8 88 9 8 10 87 11 5 12
REMARK SMILES IDX 4 13 3 14 2 15 1 16 89 17 90 19 91 20 96 21 92 22 95 23
REMARK SMILES IDX 93 24 94 25 15 26 16 27 17 28 18 29 19 30 20 31 21 32 22 33
REMARK SMILES IDX 86 34 23 35 85 36 24 37 25 38 26 39 79 40 27 41 84 42 78 43
REMARK SMILES IDX 80 44 28 45 83 46 77 47 76 48 29 50 63 51 42 52 62 53 43 54
REMARK SMILES IDX 46 55 61 56 81 57 44 58 45 59 60 61 82 62 47 63 30 64 31 65
REMARK SMILES IDX 40 66 32 67 33 68 39 69 41 70 34 71 35 72 36 73 37 74 38 75
REMARK SMILES IDX 64 76 65 77 74 78 66 79 67 80 73 81 75 82 68 83 69 84 70 85
REMARK SMILES IDX 71 86 72 87 48 88 49 89 58 90 50 91 51 92 57 93 59 94 52 95
REMARK SMILES IDX 53 96 54 97 55 98 56 99
REMARK H PARENT 89 18 80 49 46 60
REMARK Flexibility Score: inf
ROOT
ATOM      1  C   UNL     1      -2.259  -6.547  -4.739  1.00  0.00     0.202 C 
ENDROOT
BRANCH   1   2
ATOM      2  C   UNL     1      -1.302  -6.137  -5.862  1.00  0.00     0.261 C 
BRANCH   2   3
ATOM      3  O   UNL     1      -0.272  -5.260  -5.374  1.00  0.00    -0.460 OA
BRANCH   3   4
ATOM      4  C   UNL     1      -0.368  -3.977  -5.795  1.00  0.00     0.338 C 
ATOM      5  O   UNL     1      -1.149  -3.534  -6.625  1.00  0.00    -0.246 OA
BRANCH   4   6
ATOM      6  C   UNL     1       0.513  -3.097  -4.992  1.00  0.00     0.060 A 
ATOM      7  C   UNL     1       2.131  -1.264  -3.585  1.00  0.00    -0.038 A 
ATOM      8  C   UNL     1       0.859  -0.893  -4.049  1.00  0.00     0.005 A 
ATOM      9  C   UNL     1       2.568  -2.581  -3.815  1.00  0.00     0.005 A 
ATOM     10  C   UNL     1       0.061  -1.797  -4.750  1.00  0.00     0.016 A 
ATOM     11  C   UNL     1       1.757  -3.501  -4.498  1.00  0.00     0.016 A 
BRANCH   7  12
ATOM     12  C   UNL     1       3.013  -0.182  -3.008  1.00  0.00     0.105 C 
BRANCH  12  13
ATOM     13  S   UNL     1       4.153  -0.639  -1.671  1.00  0.00    -0.147 SA
BRANCH  13  14
ATOM     14  C   UNL     1       2.973  -1.162  -0.387  1.00  0.00     0.170 C 
BRANCH  14  15
ATOM     15  C   UNL     1       2.044  -0.053   0.088  1.00  0.00     0.234 C 
ATOM     16  O   UNL     1       0.866  -0.296   0.335  1.00  0.00    -0.274 OA
ATOM     17  N   UNL     1       2.663   1.175   0.257  1.00  0.00    -0.325 N 
ATOM     18  H   UNL     1       3.589   1.251  -0.069  1.00  0.00     0.169 HD
BRANCH  17  19
ATOM     19  C   UNL     1       2.107   2.328   0.846  1.00  0.00     0.041 A 
ATOM     20  C   UNL     1       2.772   3.545   0.655  1.00  0.00     0.027 A 
ATOM     21  C   UNL     1       0.947   2.307   1.627  1.00  0.00     0.027 A 
ATOM     22  C   UNL     1       2.266   4.727   1.209  1.00  0.00     0.022 A 
ATOM     23  C   UNL     1       0.450   3.484   2.196  1.00  0.00     0.022 A 
ATOM     24  C   UNL     1       1.106   4.691   1.978  1.00  0.00     0.041 A 
ATOM     25  Cl  UNL     1       0.485   6.141   2.664  1.00  0.00    -0.084 Cl
ENDBRANCH  17  19
ENDBRANCH  14  15
ENDBRANCH  13  14
ENDBRANCH  12  13
ENDBRANCH   7  12
ENDBRANCH   4   6
ENDBRANCH   3   4
ENDBRANCH   2   3
ENDBRANCH   1   2
BRANCH   1  26
ATOM     26  O   UNL     1      -3.020  -5.488  -4.154  1.00  0.00    -0.374 OA
BRANCH  26  27
ATOM     27  C   UNL     1      -2.375  -4.725  -3.132  1.00  0.00     0.202 C 
BRANCH  27  28
ATOM     28  C   UNL     1      -2.357  -5.354  -1.733  1.00  0.00     0.261 C 
BRANCH  28  29
ATOM     29  O   UNL     1      -1.498  -6.507  -1.677  1.00  0.00    -0.460 OA
BRANCH  29  30
ATOM     30  C   UNL     1      -2.141  -7.693  -1.561  1.00  0.00     0.338 C 
ATOM     31  O   UNL     1      -3.343  -7.868  -1.415  1.00  0.00    -0.246 OA
BRANCH  30  32
ATOM     32  C   UNL     1      -1.203  -8.802  -1.819  1.00  0.00     0.060 A 
ATOM     33  C   UNL     1      -1.599  -9.783  -2.738  1.00  0.00     0.016 A 
ATOM     34  C   UNL     1       0.013  -8.917  -1.141  1.00  0.00     0.016 A 
ATOM     35  C   UNL     1      -0.806 -10.909  -2.943  1.00  0.00     0.010 A 
ATOM     36  C   UNL     1       0.805 -10.053  -1.343  1.00  0.00     0.010 A 
ATOM     37  C   UNL     1       0.382 -11.070  -2.218  1.00  0.00    -0.014 A 
BRANCH  37  38
ATOM     38  C   UNL     1       1.106 -12.363  -2.274  1.00  0.00     0.031 A 
ATOM     39  C   UNL     1       0.918 -13.353  -1.157  1.00  0.00     0.074 A 
ATOM     40  C   UNL     1       1.902 -12.661  -3.316  1.00  0.00     0.049 A 
ATOM     41  N   UNL     1       1.471 -14.525  -0.986  1.00  0.00    -0.248 NA
ATOM     42  C   UNL     1      -0.016 -12.966  -0.088  1.00  0.00     0.031 C 
ATOM     43  C   UNL     1       2.139 -11.797  -4.471  1.00  0.00     0.029 A 
ATOM     44  N   UNL     1       2.666 -13.774  -3.564  1.00  0.00    -0.354 N 
ATOM     45  C   UNL     1       0.961 -15.014   0.211  1.00  0.00     0.074 A 
ATOM     46  C   UNL     1       0.076 -13.997   0.739  1.00  0.00     0.031 C 
ATOM     47  C   UNL     1       3.002 -12.407  -5.301  1.00  0.00     0.029 A 
ATOM     48  C   UNL     1       3.400 -13.690  -4.723  1.00  0.00     0.049 A 
ATOM     49  H   UNL     1       2.687 -14.557  -2.969  1.00  0.00     0.167 HD
ATOM     50  C   UNL     1       1.202 -16.204   0.812  1.00  0.00     0.037 A 
ATOM     51  C   UNL     1       4.304 -14.542  -5.247  1.00  0.00     0.037 A 
ATOM     52  C   UNL     1       2.082 -17.212   0.281  1.00  0.00     0.049 A 
ATOM     53  C   UNL     1       4.596 -15.838  -4.537  1.00  0.00     0.074 A 
ATOM     54  C   UNL     1       2.373 -18.461   0.801  1.00  0.00     0.029 A 
ATOM     55  N   UNL     1       2.822 -17.083  -0.886  1.00  0.00    -0.354 N 
ATOM     56  N   UNL     1       4.085 -16.299  -3.420  1.00  0.00    -0.248 NA
ATOM     57  C   UNL     1       5.584 -16.730  -5.160  1.00  0.00     0.031 C 
ATOM     58  C   UNL     1       3.324 -19.068  -0.027  1.00  0.00     0.029 A 
ATOM     59  C   UNL     1       3.588 -18.218  -1.090  1.00  0.00     0.049 A 
ATOM     60  H   UNL     1       2.804 -16.299  -1.481  1.00  0.00     0.167 HD
ATOM     61  C   UNL     1       4.670 -17.546  -3.220  1.00  0.00     0.074 A 
ATOM     62  C   UNL     1       5.567 -17.769  -4.335  1.00  0.00     0.031 C 
ATOM     63  C   UNL     1       4.476 -18.428  -2.207  1.00  0.00     0.037 A 
BRANCH  50  64
ATOM     64  C   UNL     1       0.524 -16.464   2.129  1.00  0.00     0.058 A 
ATOM     65  C   UNL     1      -0.857 -16.707   2.216  1.00  0.00     0.135 A 
ATOM     66  C   UNL     1       1.268 -16.481   3.320  1.00  0.00     0.135 A 
ATOM     67  F   UNL     1      -1.618 -16.685   1.111  1.00  0.00    -0.206 F 
ATOM     68  C   UNL     1      -1.481 -16.924   3.441  1.00  0.00     0.059 A 
ATOM     69  C   UNL     1       0.669 -16.723   4.552  1.00  0.00     0.059 A 
ATOM     70  F   UNL     1       2.590 -16.254   3.293  1.00  0.00    -0.206 F 
ATOM     71  C   UNL     1      -0.709 -16.925   4.604  1.00  0.00     0.060 A 
BRANCH  71  72
ATOM     72  S   UNL     1      -1.534 -17.192   6.188  1.00  0.00     0.124 S 
ATOM     73  O   UNL     1      -2.203 -15.910   6.387  1.00  0.00    -0.237 OA
ATOM     74  O   UNL     1      -2.407 -18.325   5.900  1.00  0.00    -0.237 OA
ATOM     75  O   UNL     1      -0.431 -17.471   7.103  1.00  0.00    -0.744 OA
ENDBRANCH  71  72
ENDBRANCH  50  64
BRANCH  51  76
ATOM     76  C   UNL     1       5.000 -14.188  -6.511  1.00  0.00     0.058 A 
ATOM     77  C   UNL     1       4.714 -14.857  -7.709  1.00  0.00     0.135 A 
ATOM     78  C   UNL     1       5.948 -13.153  -6.549  1.00  0.00     0.135 A 
ATOM     79  F   UNL     1       3.825 -15.862  -7.721  1.00  0.00    -0.206 F 
ATOM     80  C   UNL     1       5.343 -14.515  -8.902  1.00  0.00     0.059 A 
ATOM     81  C   UNL     1       6.573 -12.777  -7.734  1.00  0.00     0.059 A 
ATOM     82  F   UNL     1       6.250 -12.476  -5.431  1.00  0.00    -0.206 F 
ATOM     83  C   UNL     1       6.267 -13.468  -8.905  1.00  0.00     0.060 A 
BRANCH  83  84
ATOM     84  S   UNL     1       7.023 -12.982 -10.472  1.00  0.00     0.124 S 
ATOM     85  O   UNL     1       7.959 -14.077 -10.699  1.00  0.00    -0.237 OA
ATOM     86  O   UNL     1       5.870 -12.931 -11.365  1.00  0.00    -0.237 OA
ATOM     87  O   UNL     1       7.626 -11.688 -10.166  1.00  0.00    -0.744 OA
ENDBRANCH  83  84
ENDBRANCH  51  76
BRANCH  63  88
ATOM     88  C   UNL     1       5.224 -19.732  -2.267  1.00  0.00     0.058 A 
ATOM     89  C   UNL     1       6.601 -19.807  -2.005  1.00  0.00     0.135 A 
ATOM     90  C   UNL     1       4.541 -20.930  -2.533  1.00  0.00     0.135 A 
ATOM     91  F   UNL     1       7.302 -18.691  -1.751  1.00  0.00    -0.206 F 
ATOM     92  C   UNL     1       7.279 -21.022  -2.024  1.00  0.00     0.059 A 
ATOM     93  C   UNL     1       5.194 -22.159  -2.532  1.00  0.00     0.059 A 
ATOM     94  F   UNL     1       3.222 -20.916  -2.780  1.00  0.00    -0.206 F 
ATOM     95  C   UNL     1       6.566 -22.194  -2.287  1.00  0.00     0.060 A 
BRANCH  95  96
ATOM     96  S   UNL     1       7.449 -23.769  -2.273  1.00  0.00     0.124 S 
ATOM     97  O   UNL     1       8.177 -23.709  -3.536  1.00  0.00    -0.237 OA
ATOM     98  O   UNL     1       8.264 -23.660  -1.066  1.00  0.00    -0.237 OA
ATOM     99  O   UNL     1       6.378 -24.758  -2.211  1.00  0.00    -0.744 OA
ENDBRANCH  95  96
ENDBRANCH  63  88
ENDBRANCH  37  38
ENDBRANCH  30  32
ENDBRANCH  29  30
ENDBRANCH  28  29
ENDBRANCH  27  28
ENDBRANCH  26  27
ENDBRANCH   1  26
TORSDOF 22
