REMARK SMILES O=C(OCCOCCOC(=O)c1ccc(-c2ccc(Cl)c3ccccc23)o1)c1ccc(-c2c3nc(c(-c4c(F)cc(S(=O)(=O)[O-])cc4F)c4ccc([nH]4)c(-c4c(F)cc(S(=O)(=O)[O-])cc4F)c4nc(c(-c5c(F)cc(S(=O)(=O)[O-])cc5F)c5ccc2[nH]5)C=C4)C=C3)cc1
REMARK SMILES IDX 5 1 4 2 3 3 2 4 1 5 28 6 29 7 93 8 30 9 92 10 31 11 32 12
REMARK SMILES IDX 33 13 86 14 34 15 91 16 85 17 87 18 35 19 90 20 84 21 83 22
REMARK SMILES IDX 36 24 70 25 49 26 69 27 50 28 53 29 68 30 88 31 51 32 52 33
REMARK SMILES IDX 67 35 89 36 54 37 37 38 38 39 47 40 39 41 40 42 46 43 48 44
REMARK SMILES IDX 41 45 42 46 43 47 44 48 45 49 71 50 72 51 81 52 73 53 74 54
REMARK SMILES IDX 80 55 82 56 75 57 76 58 77 59 78 60 79 61 55 62 56 63 65 64
REMARK SMILES IDX 57 65 58 66 64 67 66 68 59 69 60 70 61 71 62 72 63 73 6 74
REMARK SMILES IDX 7 75 8 76 9 77 10 78 11 79 12 80 13 81 27 82 14 83 15 84
REMARK SMILES IDX 16 85 17 86 26 87 18 88 21 89 25 90 19 91 22 92 24 93 20 94
REMARK SMILES IDX 23 95
REMARK H PARENT 87 23 53 34
REMARK Flexibility Score: inf
ROOT
ATOM      1  C   UNL     1       4.486  -1.351   1.220  1.00  0.00     0.202 C 
ENDROOT
BRANCH   1   2
ATOM      2  C   UNL     1       4.223   0.143   1.412  1.00  0.00     0.261 C 
BRANCH   2   3
ATOM      3  O   UNL     1       2.828   0.418   1.192  1.00  0.00    -0.460 OA
BRANCH   3   4
ATOM      4  C   UNL     1       2.232   1.029   0.144  1.00  0.00     0.338 C 
ATOM      5  O   UNL     1       1.015   1.201   0.189  1.00  0.00    -0.246 OA
BRANCH   4   6
ATOM      6  C   UNL     1       2.962   1.517  -1.068  1.00  0.00     0.060 A 
ATOM      7  C   UNL     1       4.140   0.968  -1.580  1.00  0.00     0.016 A 
ATOM      8  C   UNL     1       2.344   2.547  -1.799  1.00  0.00     0.016 A 
ATOM      9  C   UNL     1       4.727   1.461  -2.743  1.00  0.00     0.010 A 
ATOM     10  C   UNL     1       2.906   3.022  -2.987  1.00  0.00     0.010 A 
ATOM     11  C   UNL     1       4.112   2.489  -3.452  1.00  0.00    -0.014 A 
BRANCH  11  12
ATOM     12  C   UNL     1       4.777   3.043  -4.645  1.00  0.00     0.031 A 
ATOM     13  C   UNL     1       5.494   4.351  -4.527  1.00  0.00     0.074 A 
ATOM     14  C   UNL     1       4.763   2.353  -5.799  1.00  0.00     0.049 A 
ATOM     15  N   UNL     1       6.077   5.060  -5.454  1.00  0.00    -0.248 NA
ATOM     16  C   UNL     1       5.565   4.937  -3.179  1.00  0.00     0.031 C 
ATOM     17  C   UNL     1       4.146   1.038  -5.984  1.00  0.00     0.029 A 
ATOM     18  N   UNL     1       5.278   2.659  -7.030  1.00  0.00    -0.354 N 
ATOM     19  C   UNL     1       6.563   6.190  -4.809  1.00  0.00     0.074 A 
ATOM     20  C   UNL     1       6.204   6.073  -3.413  1.00  0.00     0.031 C 
ATOM     21  C   UNL     1       4.310   0.655  -7.261  1.00  0.00     0.029 A 
ATOM     22  C   UNL     1       4.999   1.716  -7.990  1.00  0.00     0.049 A 
ATOM     23  H   UNL     1       5.797   3.476  -7.210  1.00  0.00     0.167 HD
ATOM     24  C   UNL     1       7.236   7.235  -5.344  1.00  0.00     0.037 A 
ATOM     25  C   UNL     1       5.242   1.730  -9.314  1.00  0.00     0.037 A 
ATOM     26  C   UNL     1       7.565   7.333  -6.739  1.00  0.00     0.049 A 
ATOM     27  C   UNL     1       5.952   2.920  -9.900  1.00  0.00     0.074 A 
ATOM     28  C   UNL     1       8.207   8.358  -7.407  1.00  0.00     0.029 A 
ATOM     29  N   UNL     1       7.264   6.361  -7.686  1.00  0.00    -0.354 N 
ATOM     30  N   UNL     1       6.389   3.996  -9.287  1.00  0.00    -0.248 NA
ATOM     31  C   UNL     1       6.195   2.909 -11.347  1.00  0.00     0.031 C 
ATOM     32  C   UNL     1       8.265   8.020  -8.765  1.00  0.00     0.029 A 
ATOM     33  C   UNL     1       7.691   6.768  -8.936  1.00  0.00     0.049 A 
ATOM     34  H   UNL     1       6.812   5.508  -7.493  1.00  0.00     0.167 HD
ATOM     35  C   UNL     1       6.963   4.790 -10.271  1.00  0.00     0.074 A 
ATOM     36  C   UNL     1       6.830   4.063 -11.520  1.00  0.00     0.031 C 
ATOM     37  C   UNL     1       7.544   6.010 -10.156  1.00  0.00     0.037 A 
BRANCH  24  38
ATOM     38  C   UNL     1       7.579   8.362  -4.413  1.00  0.00     0.058 A 
ATOM     39  C   UNL     1       8.590   8.244  -3.447  1.00  0.00     0.135 A 
ATOM     40  C   UNL     1       6.827   9.547  -4.436  1.00  0.00     0.135 A 
ATOM     41  F   UNL     1       9.321   7.120  -3.367  1.00  0.00    -0.206 F 
ATOM     42  C   UNL     1       8.809   9.240  -2.500  1.00  0.00     0.059 A 
ATOM     43  C   UNL     1       7.042  10.565  -3.511  1.00  0.00     0.059 A 
ATOM     44  F   UNL     1       5.844   9.707  -5.335  1.00  0.00    -0.206 F 
ATOM     45  C   UNL     1       8.016  10.388  -2.529  1.00  0.00     0.060 A 
BRANCH  45  46
ATOM     46  S   UNL     1       8.245  11.637  -1.245  1.00  0.00     0.124 S 
ATOM     47  O   UNL     1       7.546  11.024  -0.119  1.00  0.00    -0.237 OA
ATOM     48  O   UNL     1       9.697  11.707  -1.125  1.00  0.00    -0.237 OA
ATOM     49  O   UNL     1       7.608  12.823  -1.809  1.00  0.00    -0.744 OA
ENDBRANCH  45  46
ENDBRANCH  24  38
BRANCH  25  50
ATOM     50  C   UNL     1       4.772   0.597 -10.154  1.00  0.00     0.058 A 
ATOM     51  C   UNL     1       5.668  -0.342 -10.682  1.00  0.00     0.135 A 
ATOM     52  C   UNL     1       3.401   0.390 -10.379  1.00  0.00     0.135 A 
ATOM     53  F   UNL     1       6.988  -0.184 -10.502  1.00  0.00    -0.206 F 
ATOM     54  C   UNL     1       5.222  -1.454 -11.392  1.00  0.00     0.059 A 
ATOM     55  C   UNL     1       2.930  -0.723 -11.067  1.00  0.00     0.059 A 
ATOM     56  F   UNL     1       2.501   1.255  -9.884  1.00  0.00    -0.206 F 
ATOM     57  C   UNL     1       3.850  -1.642 -11.571  1.00  0.00     0.060 A 
BRANCH  57  58
ATOM     58  S   UNL     1       3.272  -3.138 -12.404  1.00  0.00     0.124 S 
ATOM     59  O   UNL     1       3.542  -2.818 -13.801  1.00  0.00    -0.237 OA
ATOM     60  O   UNL     1       4.118  -4.169 -11.811  1.00  0.00    -0.237 OA
ATOM     61  O   UNL     1       1.863  -3.205 -12.031  1.00  0.00    -0.744 OA
ENDBRANCH  57  58
ENDBRANCH  25  50
BRANCH  37  62
ATOM     62  C   UNL     1       8.090   6.634 -11.405  1.00  0.00     0.058 A 
ATOM     63  C   UNL     1       7.250   7.289 -12.317  1.00  0.00     0.135 A 
ATOM     64  C   UNL     1       9.475   6.677 -11.629  1.00  0.00     0.135 A 
ATOM     65  F   UNL     1       5.919   7.267 -12.146  1.00  0.00    -0.206 F 
ATOM     66  C   UNL     1       7.767   7.977 -13.409  1.00  0.00     0.059 A 
ATOM     67  C   UNL     1      10.014   7.373 -12.705  1.00  0.00     0.059 A 
ATOM     68  F   UNL     1      10.316   6.070 -10.777  1.00  0.00    -0.206 F 
ATOM     69  C   UNL     1       9.151   8.021 -13.589  1.00  0.00     0.060 A 
BRANCH  69  70
ATOM     70  S   UNL     1       9.818   8.994 -14.956  1.00  0.00     0.124 S 
ATOM     71  O   UNL     1       9.578   8.108 -16.090  1.00  0.00    -0.237 OA
ATOM     72  O   UNL     1       9.000  10.202 -14.911  1.00  0.00    -0.237 OA
ATOM     73  O   UNL     1      11.218   9.180 -14.587  1.00  0.00    -0.744 OA
ENDBRANCH  69  70
ENDBRANCH  37  62
ENDBRANCH  11  12
ENDBRANCH   4   6
ENDBRANCH   3   4
ENDBRANCH   2   3
ENDBRANCH   1   2
BRANCH   1  74
ATOM     74  O   UNL     1       4.259  -1.806  -0.114  1.00  0.00    -0.374 OA
BRANCH  74  75
ATOM     75  C   UNL     1       2.925  -2.229  -0.417  1.00  0.00     0.202 C 
BRANCH  75  76
ATOM     76  C   UNL     1       2.982  -3.598  -1.104  1.00  0.00     0.261 C 
BRANCH  76  77
ATOM     77  O   UNL     1       3.426  -4.566  -0.139  1.00  0.00    -0.457 OA
BRANCH  77  78
ATOM     78  C   UNL     1       4.783  -4.620   0.023  1.00  0.00     0.374 C 
ATOM     79  O   UNL     1       5.607  -4.383  -0.851  1.00  0.00    -0.242 OA
BRANCH  78  80
ATOM     80  C   UNL     1       5.058  -4.867   1.418  1.00  0.00     0.212 A 
ATOM     81  C   UNL     1       4.263  -5.354   2.442  1.00  0.00     0.059 A 
ATOM     82  O   UNL     1       6.270  -4.480   1.931  1.00  0.00    -0.449 OA
ATOM     83  C   UNL     1       5.011  -5.231   3.635  1.00  0.00     0.052 A 
ATOM     84  C   UNL     1       6.219  -4.674   3.276  1.00  0.00     0.135 A 
BRANCH  84  85
ATOM     85  C   UNL     1       7.399  -4.288   4.032  1.00  0.00     0.025 A 
ATOM     86  C   UNL     1       8.474  -5.186   4.036  1.00  0.00     0.014 A 
ATOM     87  C   UNL     1       7.450  -3.093   4.806  1.00  0.00    -0.006 A 
ATOM     88  C   UNL     1       9.583  -4.949   4.837  1.00  0.00     0.022 A 
ATOM     89  C   UNL     1       8.580  -2.856   5.637  1.00  0.00     0.001 A 
ATOM     90  C   UNL     1       6.420  -2.119   4.786  1.00  0.00     0.009 A 
ATOM     91  C   UNL     1       9.630  -3.810   5.642  1.00  0.00     0.048 A 
ATOM     92  C   UNL     1       8.604  -1.678   6.424  1.00  0.00     0.010 A 
ATOM     93  C   UNL     1       6.481  -0.958   5.558  1.00  0.00     0.001 A 
ATOM     94  Cl  UNL     1      11.033  -3.636   6.648  1.00  0.00    -0.084 Cl
ATOM     95  C   UNL     1       7.570  -0.742   6.385  1.00  0.00     0.001 A 
ENDBRANCH  84  85
ENDBRANCH  78  80
ENDBRANCH  77  78
ENDBRANCH  76  77
ENDBRANCH  75  76
ENDBRANCH  74  75
ENDBRANCH   1  74
TORSDOF 18
