REMARK SMILES Cc1ccc(C(=O)NC2CC2)cc1NC(=O)[C@@H]1[C@@H](C(=O)OCCOCCOC(=O)c2ccc(-c3c4nc(c(-c5c(F)cc(S(=O)(=O)[O-])cc5F)c5ccc([nH]5)c(-c5c(F)cc(S(=O)(=O)[O-])cc5F)c5nc(c(-c6c(F)cc(S(=O)(=O)[O-])cc6F)c6ccc3[nH]6)C=C5)C=C4)cc2)[C@H]2C=C[C@@H]1C2
REMARK SMILES IDX 23 1 22 2 21 3 19 4 20 5 18 6 17 7 99 8 96 9 98 10 100 11
REMARK SMILES IDX 97 12 15 13 14 14 16 16 13 17 1 18 2 19 3 20 4 21 12 22 5 23
REMARK SMILES IDX 6 24 7 25 8 26 9 28 10 29 11 30 24 31 25 32 26 33 27 34
REMARK SMILES IDX 28 35 29 36 30 37 31 38 95 39 32 40 94 41 33 42 34 43 35 44
REMARK SMILES IDX 88 45 36 46 93 47 87 48 89 49 37 50 92 51 86 52 85 53 38 55
REMARK SMILES IDX 72 56 51 57 71 58 52 59 55 60 70 61 90 62 53 63 54 64 69 66
REMARK SMILES IDX 91 67 56 68 39 69 40 70 49 71 41 72 42 73 48 74 50 75 43 76
REMARK SMILES IDX 44 77 45 78 46 79 47 80 73 81 74 82 83 83 75 84 76 85 82 86
REMARK SMILES IDX 84 87 77 88 78 89 79 90 80 91 81 92 57 93 58 94 67 95 59 96
REMARK SMILES IDX 60 97 66 98 68 99 61 100 62 101 63 102 64 103 65 104
REMARK H PARENT 14 15 8 27 89 54 55 65
REMARK Flexibility Score: inf
ROOT
ATOM      1  C   UNL     1      -0.955   5.433  -3.187  1.00  0.00     0.202 C 
ENDROOT
BRANCH   1   2
ATOM      2  C   UNL     1      -2.073   5.537  -2.138  1.00  0.00     0.261 C 
BRANCH   2   3
ATOM      3  O   UNL     1      -1.647   5.549  -0.781  1.00  0.00    -0.463 OA
BRANCH   3   4
ATOM      4  C   UNL     1      -1.080   4.399  -0.401  1.00  0.00     0.310 C 
ATOM      5  O   UNL     1      -0.897   3.433  -1.153  1.00  0.00    -0.252 OA
BRANCH   4   6
ATOM      6  C   UNL     1      -0.528   4.486   0.978  1.00  0.00     0.119 C 
ATOM      7  C   UNL     1      -0.046   3.074   1.404  1.00  0.00     0.100 C 
ATOM      8  C   UNL     1      -0.434   3.019   2.895  1.00  0.00     0.025 C 
ATOM      9  C   UNL     1      -1.465   4.873   2.140  1.00  0.00     0.027 C 
ATOM     10  C   UNL     1      -1.929   2.732   2.881  1.00  0.00    -0.027 C 
ATOM     11  C   UNL     1      -0.527   4.495   3.303  1.00  0.00     0.017 C 
ATOM     12  C   UNL     1      -2.534   3.826   2.389  1.00  0.00    -0.027 C 
BRANCH   7  13
ATOM     13  C   UNL     1       1.388   2.848   0.986  1.00  0.00     0.228 C 
ATOM     14  N   UNL     1       1.828   1.673   0.430  1.00  0.00    -0.326 N 
ATOM     15  H   UNL     1       2.762   1.717   0.122  1.00  0.00     0.169 HD
ATOM     16  O   UNL     1       2.236   3.731   1.165  1.00  0.00    -0.274 OA
BRANCH  14  17
ATOM     17  C   UNL     1       1.226   0.410   0.205  1.00  0.00     0.044 A 
ATOM     18  C   UNL     1       3.514  -0.748   0.285  1.00  0.00     0.046 C 
ATOM     19  C   UNL     1       2.012  -0.750   0.239  1.00  0.00    -0.027 A 
ATOM     20  C   UNL     1       1.375  -2.006   0.217  1.00  0.00     0.006 A 
ATOM     21  C   UNL     1      -0.017  -2.116   0.183  1.00  0.00     0.014 A 
ATOM     22  C   UNL     1      -0.140   0.252  -0.028  1.00  0.00     0.040 A 
ATOM     23  C   UNL     1      -0.803  -0.977   0.050  1.00  0.00     0.041 A 
BRANCH  23  24
ATOM     24  C   UNL     1      -2.293  -1.150   0.131  1.00  0.00     0.251 C 
ATOM     25  O   UNL     1      -2.737  -2.180   0.640  1.00  0.00    -0.269 OA
ATOM     26  N   UNL     1      -3.184  -0.188  -0.283  1.00  0.00    -0.349 N 
ATOM     27  H   UNL     1      -4.133  -0.377  -0.105  1.00  0.00     0.164 HD
BRANCH  26  28
ATOM     28  C   UNL     1      -2.913   1.036  -0.931  1.00  0.00     0.082 C 
ATOM     29  C   UNL     1      -2.625   1.054  -2.367  1.00  0.00     0.027 C 
ATOM     30  C   UNL     1      -3.874   1.736  -1.845  1.00  0.00     0.027 C 
ENDBRANCH  26  28
ENDBRANCH  23  24
ENDBRANCH  14  17
ENDBRANCH   7  13
ENDBRANCH   4   6
ENDBRANCH   3   4
ENDBRANCH   2   3
ENDBRANCH   1   2
BRANCH   1  31
ATOM     31  O   UNL     1       0.324   5.976  -2.896  1.00  0.00    -0.374 OA
BRANCH  31  32
ATOM     32  C   UNL     1       0.409   7.284  -2.339  1.00  0.00     0.202 C 
BRANCH  32  33
ATOM     33  C   UNL     1      -0.321   8.407  -3.094  1.00  0.00     0.261 C 
BRANCH  33  34
ATOM     34  O   UNL     1      -1.497   8.769  -2.341  1.00  0.00    -0.460 OA
BRANCH  34  35
ATOM     35  C   UNL     1      -2.810   8.919  -2.600  1.00  0.00     0.338 C 
ATOM     36  O   UNL     1      -3.557   9.011  -1.625  1.00  0.00    -0.246 OA
BRANCH  35  37
ATOM     37  C   UNL     1      -3.479   8.745  -3.958  1.00  0.00     0.060 A 
ATOM     38  C   UNL     1      -4.866   8.936  -3.850  1.00  0.00     0.016 A 
ATOM     39  C   UNL     1      -3.092   7.655  -4.723  1.00  0.00     0.016 A 
ATOM     40  C   UNL     1      -5.706   7.819  -3.837  1.00  0.00     0.010 A 
ATOM     41  C   UNL     1      -3.903   6.519  -4.711  1.00  0.00     0.010 A 
ATOM     42  C   UNL     1      -5.144   6.566  -4.069  1.00  0.00    -0.014 A 
BRANCH  42  43
ATOM     43  C   UNL     1      -5.603   5.383  -3.306  1.00  0.00     0.031 A 
ATOM     44  C   UNL     1      -5.986   4.093  -3.947  1.00  0.00     0.074 A 
ATOM     45  C   UNL     1      -5.464   5.418  -1.951  1.00  0.00     0.049 A 
ATOM     46  N   UNL     1      -6.695   3.164  -3.391  1.00  0.00    -0.248 NA
ATOM     47  C   UNL     1      -5.545   3.725  -5.282  1.00  0.00     0.031 C 
ATOM     48  C   UNL     1      -5.632   4.304  -1.019  1.00  0.00     0.029 A 
ATOM     49  N   UNL     1      -5.198   6.485  -1.089  1.00  0.00    -0.354 N 
ATOM     50  C   UNL     1      -6.536   1.992  -4.113  1.00  0.00     0.074 A 
ATOM     51  C   UNL     1      -5.871   2.428  -5.321  1.00  0.00     0.031 C 
ATOM     52  C   UNL     1      -5.630   4.747   0.246  1.00  0.00     0.029 A 
ATOM     53  C   UNL     1      -5.750   6.186   0.159  1.00  0.00     0.049 A 
ATOM     54  H   UNL     1      -4.706   7.306  -1.320  1.00  0.00     0.167 HD
ATOM     55  C   UNL     1      -6.847   0.777  -3.545  1.00  0.00     0.037 A 
ATOM     56  C   UNL     1      -6.811   6.869   0.679  1.00  0.00     0.037 A 
ATOM     57  C   UNL     1      -7.363   0.947  -2.163  1.00  0.00     0.049 A 
ATOM     58  C   UNL     1      -8.032   5.952   0.775  1.00  0.00     0.074 A 
ATOM     59  C   UNL     1      -6.911   0.528  -0.921  1.00  0.00     0.029 A 
ATOM     60  N   UNL     1      -8.408   1.843  -1.885  1.00  0.00    -0.354 N 
ATOM     61  N   UNL     1      -8.201   4.883   0.032  1.00  0.00    -0.248 NA
ATOM     62  C   UNL     1      -9.085   6.087   1.778  1.00  0.00     0.031 C 
ATOM     63  C   UNL     1      -7.585   1.265   0.086  1.00  0.00     0.029 A 
ATOM     64  C   UNL     1      -8.517   2.087  -0.526  1.00  0.00     0.049 A 
ATOM     65  H   UNL     1      -8.990   2.247  -2.570  1.00  0.00     0.167 HD
ATOM     66  C   UNL     1      -9.262   4.153   0.495  1.00  0.00     0.074 A 
ATOM     67  C   UNL     1      -9.818   4.979   1.556  1.00  0.00     0.031 C 
ATOM     68  C   UNL     1      -9.587   2.901   0.046  1.00  0.00     0.037 A 
BRANCH  55  69
ATOM     69  C   UNL     1      -6.408  -0.596  -4.128  1.00  0.00     0.058 A 
ATOM     70  C   UNL     1      -6.332  -1.778  -3.346  1.00  0.00     0.135 A 
ATOM     71  C   UNL     1      -6.021  -0.814  -5.469  1.00  0.00     0.135 A 
ATOM     72  F   UNL     1      -6.833  -1.829  -2.106  1.00  0.00    -0.206 F 
ATOM     73  C   UNL     1      -5.781  -2.991  -3.805  1.00  0.00     0.059 A 
ATOM     74  C   UNL     1      -5.416  -1.991  -5.939  1.00  0.00     0.059 A 
ATOM     75  F   UNL     1      -6.312   0.068  -6.431  1.00  0.00    -0.206 F 
ATOM     76  C   UNL     1      -5.284  -3.078  -5.096  1.00  0.00     0.060 A 
BRANCH  76  77
ATOM     77  S   UNL     1      -4.559  -4.624  -5.690  1.00  0.00     0.124 S 
ATOM     78  O   UNL     1      -3.455  -4.830  -4.758  1.00  0.00    -0.237 OA
ATOM     79  O   UNL     1      -5.675  -5.555  -5.572  1.00  0.00    -0.237 OA
ATOM     80  O   UNL     1      -4.158  -4.307  -7.059  1.00  0.00    -0.744 OA
ENDBRANCH  76  77
ENDBRANCH  55  69
BRANCH  56  81
ATOM     81  C   UNL     1      -6.753   8.342   0.452  1.00  0.00     0.058 A 
ATOM     82  C   UNL     1      -5.699   9.053   1.071  1.00  0.00     0.135 A 
ATOM     83  C   UNL     1      -7.408   8.986  -0.605  1.00  0.00     0.135 A 
ATOM     84  F   UNL     1      -5.034   8.494   2.097  1.00  0.00    -0.206 F 
ATOM     85  C   UNL     1      -5.234  10.281   0.591  1.00  0.00     0.059 A 
ATOM     86  C   UNL     1      -6.967  10.225  -1.096  1.00  0.00     0.059 A 
ATOM     87  F   UNL     1      -8.397   8.364  -1.263  1.00  0.00    -0.206 F 
ATOM     88  C   UNL     1      -5.849  10.844  -0.523  1.00  0.00     0.060 A 
BRANCH  88  89
ATOM     89  S   UNL     1      -5.066  12.269  -1.345  1.00  0.00     0.124 S 
ATOM     90  O   UNL     1      -5.625  13.389  -0.597  1.00  0.00    -0.237 OA
ATOM     91  O   UNL     1      -3.636  12.045  -1.160  1.00  0.00    -0.237 OA
ATOM     92  O   UNL     1      -5.524  12.150  -2.728  1.00  0.00    -0.744 OA
ENDBRANCH  88  89
ENDBRANCH  56  81
BRANCH  68  93
ATOM     93  C   UNL     1     -10.942   2.259   0.246  1.00  0.00     0.058 A 
ATOM     94  C   UNL     1     -12.129   3.012   0.284  1.00  0.00     0.135 A 
ATOM     95  C   UNL     1     -11.110   0.854   0.186  1.00  0.00     0.135 A 
ATOM     96  F   UNL     1     -12.103   4.353   0.259  1.00  0.00    -0.206 F 
ATOM     97  C   UNL     1     -13.390   2.419   0.293  1.00  0.00     0.059 A 
ATOM     98  C   UNL     1     -12.361   0.244   0.145  1.00  0.00     0.059 A 
ATOM     99  F   UNL     1     -10.063   0.019   0.137  1.00  0.00    -0.206 F 
ATOM    100  C   UNL     1     -13.498   1.035   0.210  1.00  0.00     0.060 A 
BRANCH 100 101
ATOM    101  S   UNL     1     -15.126   0.273   0.090  1.00  0.00     0.124 S 
ATOM    102  O   UNL     1     -15.441   0.037   1.495  1.00  0.00    -0.237 OA
ATOM    103  O   UNL     1     -15.920   1.306  -0.569  1.00  0.00    -0.237 OA
ATOM    104  O   UNL     1     -14.877  -0.920  -0.714  1.00  0.00    -0.744 OA
ENDBRANCH 100 101
ENDBRANCH  68  93
ENDBRANCH  42  43
ENDBRANCH  35  37
ENDBRANCH  34  35
ENDBRANCH  33  34
ENDBRANCH  32  33
ENDBRANCH  31  32
ENDBRANCH   1  31
TORSDOF 21
