REMARK SMILES O=C(CC1(NS(=O)(=O)C[C@H]2CCCO2)CCC1)OCCOCCOC(=O)c1ccc(-c2c3nc(c(-c4c(F)cc(S(=O)(=O)[O-])cc4F)c4ccc([nH]4)c(-c4c(F)cc(S(=O)(=O)[O-])cc4F)c4nc(c(-c5c(F)cc(S(=O)(=O)[O-])cc5F)c5ccc2[nH]5)C=C4)C=C3)cc1
REMARK SMILES IDX 20 1 19 2 18 3 2 4 1 5 3 6 4 7 15 8 17 9 16 10 5 11 6 13
REMARK SMILES IDX 7 14 8 15 9 16 10 17 11 18 14 19 12 20 13 21 21 22 22 23
REMARK SMILES IDX 23 24 24 25 25 26 26 27 27 28 28 29 92 30 29 31 91 32 30 33
REMARK SMILES IDX 31 34 32 35 85 36 33 37 90 38 84 39 86 40 34 41 89 42 83 43
REMARK SMILES IDX 82 44 35 46 69 47 48 48 68 49 49 50 52 51 67 52 87 53 50 54
REMARK SMILES IDX 51 55 66 57 88 58 53 59 36 60 37 61 46 62 38 63 39 64 45 65
REMARK SMILES IDX 47 66 40 67 41 68 42 69 43 70 44 71 70 72 71 73 80 74 72 75
REMARK SMILES IDX 73 76 79 77 81 78 74 79 75 80 76 81 77 82 78 83 54 84 55 85
REMARK SMILES IDX 64 86 56 87 57 88 63 89 65 90 58 91 59 92 60 93 61 94 62 95
REMARK H PARENT 5 12 86 45 52 56
REMARK Flexibility Score: inf
ROOT
ATOM      1  C   UNL     1       5.042  -5.169   0.642  1.00  0.00     0.202 C 
ENDROOT
BRANCH   1   2
ATOM      2  C   UNL     1       6.193  -4.955  -0.337  1.00  0.00     0.261 C 
BRANCH   2   3
ATOM      3  O   UNL     1       6.376  -3.571  -0.662  1.00  0.00    -0.463 OA
BRANCH   3   4
ATOM      4  C   UNL     1       5.762  -2.983  -1.710  1.00  0.00     0.307 C 
ATOM      5  O   UNL     1       6.003  -1.811  -1.990  1.00  0.00    -0.252 OA
BRANCH   4   6
ATOM      6  C   UNL     1       4.743  -3.766  -2.483  1.00  0.00     0.146 C 
BRANCH   6   7
ATOM      7  C   UNL     1       5.129  -4.318  -3.847  1.00  0.00     0.043 C 
ATOM      8  C   UNL     1       6.638  -4.369  -4.221  1.00  0.00     0.024 C 
ATOM      9  C   UNL     1       5.141  -5.890  -3.833  1.00  0.00     0.024 C 
ATOM     10  C   UNL     1       6.622  -5.900  -4.197  1.00  0.00     0.004 C 
BRANCH   7  11
ATOM     11  N   UNL     1       4.162  -3.798  -4.892  1.00  0.00    -0.208 NA
ATOM     12  H   UNL     1       3.247  -4.116  -4.574  1.00  0.00     0.141 HD
BRANCH  11  13
ATOM     13  S   UNL     1       3.908  -2.226  -5.389  1.00  0.00     0.214 S 
ATOM     14  O   UNL     1       5.172  -1.534  -5.284  1.00  0.00    -0.212 OA
ATOM     15  O   UNL     1       3.264  -2.352  -6.680  1.00  0.00    -0.212 OA
BRANCH  13  16
ATOM     16  C   UNL     1       2.743  -1.477  -4.256  1.00  0.00     0.185 C 
BRANCH  16  17
ATOM     17  C   UNL     1       1.472  -2.222  -3.854  1.00  0.00     0.134 C 
ATOM     18  C   UNL     1       0.777  -3.175  -4.813  1.00  0.00     0.035 C 
ATOM     19  O   UNL     1       1.654  -2.937  -2.614  1.00  0.00    -0.377 OA
ATOM     20  C   UNL     1       0.966  -4.536  -4.185  1.00  0.00     0.031 C 
ATOM     21  C   UNL     1       1.016  -4.215  -2.712  1.00  0.00     0.160 C 
ENDBRANCH  16  17
ENDBRANCH  13  16
ENDBRANCH  11  13
ENDBRANCH   7  11
ENDBRANCH   6   7
ENDBRANCH   4   6
ENDBRANCH   3   4
ENDBRANCH   2   3
ENDBRANCH   1   2
BRANCH   1  22
ATOM     22  O   UNL     1       3.753  -4.745   0.192  1.00  0.00    -0.374 OA
BRANCH  22  23
ATOM     23  C   UNL     1       3.368  -3.427   0.609  1.00  0.00     0.202 C 
BRANCH  23  24
ATOM     24  C   UNL     1       2.511  -3.434   1.878  1.00  0.00     0.261 C 
BRANCH  24  25
ATOM     25  O   UNL     1       3.302  -3.887   2.983  1.00  0.00    -0.460 OA
BRANCH  25  26
ATOM     26  C   UNL     1       3.221  -5.217   3.233  1.00  0.00     0.338 C 
ATOM     27  O   UNL     1       2.363  -5.989   2.839  1.00  0.00    -0.246 OA
BRANCH  26  28
ATOM     28  C   UNL     1       4.498  -5.648   3.848  1.00  0.00     0.060 A 
ATOM     29  C   UNL     1       4.975  -6.925   3.515  1.00  0.00     0.016 A 
ATOM     30  C   UNL     1       5.265  -4.792   4.647  1.00  0.00     0.016 A 
ATOM     31  C   UNL     1       6.184  -7.375   4.032  1.00  0.00     0.010 A 
ATOM     32  C   UNL     1       6.471  -5.246   5.178  1.00  0.00     0.010 A 
ATOM     33  C   UNL     1       6.897  -6.559   4.918  1.00  0.00    -0.014 A 
BRANCH  33  34
ATOM     34  C   UNL     1       7.880  -7.195   5.819  1.00  0.00     0.031 A 
ATOM     35  C   UNL     1       7.370  -7.651   7.160  1.00  0.00     0.074 A 
ATOM     36  C   UNL     1       9.152  -7.401   5.445  1.00  0.00     0.049 A 
ATOM     37  N   UNL     1       8.005  -8.239   8.137  1.00  0.00    -0.248 NA
ATOM     38  C   UNL     1       5.942  -7.403   7.436  1.00  0.00     0.031 C 
ATOM     39  C   UNL     1       9.729  -7.033   4.153  1.00  0.00     0.029 A 
ATOM     40  N   UNL     1      10.191  -7.979   6.127  1.00  0.00    -0.354 N 
ATOM     41  C   UNL     1       7.060  -8.418   9.142  1.00  0.00     0.074 A 
ATOM     42  C   UNL     1       5.819  -7.846   8.675  1.00  0.00     0.031 C 
ATOM     43  C   UNL     1      11.024  -7.396   4.136  1.00  0.00     0.029 A 
ATOM     44  C   UNL     1      11.370  -7.997   5.423  1.00  0.00     0.049 A 
ATOM     45  H   UNL     1      10.100  -8.347   7.035  1.00  0.00     0.167 HD
ATOM     46  C   UNL     1       7.213  -9.017  10.344  1.00  0.00     0.037 A 
ATOM     47  C   UNL     1      12.586  -8.444   5.792  1.00  0.00     0.037 A 
ATOM     48  C   UNL     1       8.456  -9.581  10.791  1.00  0.00     0.049 A 
ATOM     49  C   UNL     1      12.746  -9.060   7.160  1.00  0.00     0.074 A 
ATOM     50  C   UNL     1       8.730 -10.228  11.980  1.00  0.00     0.029 A 
ATOM     51  N   UNL     1       9.637  -9.553  10.063  1.00  0.00    -0.354 N 
ATOM     52  N   UNL     1      11.841  -9.251   8.092  1.00  0.00    -0.248 NA
ATOM     53  C   UNL     1      14.090  -9.528   7.522  1.00  0.00     0.031 C 
ATOM     54  C   UNL     1      10.093 -10.546  11.993  1.00  0.00     0.029 A 
ATOM     55  C   UNL     1      10.652 -10.150  10.787  1.00  0.00     0.049 A 
ATOM     56  H   UNL     1       9.738  -9.165   9.164  1.00  0.00     0.167 HD
ATOM     57  C   UNL     1      12.498  -9.893   9.138  1.00  0.00     0.074 A 
ATOM     58  C   UNL     1      13.875 -10.062   8.717  1.00  0.00     0.031 C 
ATOM     59  C   UNL     1      12.012 -10.310  10.334  1.00  0.00     0.037 A 
BRANCH  46  60
ATOM     60  C   UNL     1       6.019  -9.048  11.258  1.00  0.00     0.058 A 
ATOM     61  C   UNL     1       4.889  -9.836  10.982  1.00  0.00     0.135 A 
ATOM     62  C   UNL     1       6.001  -8.264  12.422  1.00  0.00     0.135 A 
ATOM     63  F   UNL     1       4.840 -10.582   9.867  1.00  0.00    -0.206 F 
ATOM     64  C   UNL     1       3.772  -9.822  11.812  1.00  0.00     0.059 A 
ATOM     65  C   UNL     1       4.907  -8.258  13.282  1.00  0.00     0.059 A 
ATOM     66  F   UNL     1       7.048  -7.482  12.727  1.00  0.00    -0.206 F 
ATOM     67  C   UNL     1       3.791  -9.028  12.959  1.00  0.00     0.060 A 
BRANCH  67  68
ATOM     68  S   UNL     1       2.333  -9.017  14.025  1.00  0.00     0.124 S 
ATOM     69  O   UNL     1       1.391  -8.244  13.220  1.00  0.00    -0.237 OA
ATOM     70  O   UNL     1       2.034 -10.439  14.159  1.00  0.00    -0.237 OA
ATOM     71  O   UNL     1       2.806  -8.361  15.240  1.00  0.00    -0.744 OA
ENDBRANCH  67  68
ENDBRANCH  46  60
BRANCH  47  72
ATOM     72  C   UNL     1      13.737  -8.345   4.855  1.00  0.00     0.058 A 
ATOM     73  C   UNL     1      14.307  -9.492   4.284  1.00  0.00     0.135 A 
ATOM     74  C   UNL     1      14.288  -7.101   4.506  1.00  0.00     0.135 A 
ATOM     75  F   UNL     1      13.823 -10.705   4.591  1.00  0.00    -0.206 F 
ATOM     76  C   UNL     1      15.390  -9.414   3.413  1.00  0.00     0.059 A 
ATOM     77  C   UNL     1      15.354  -6.995   3.618  1.00  0.00     0.059 A 
ATOM     78  F   UNL     1      13.774  -5.971   5.016  1.00  0.00    -0.206 F 
ATOM     79  C   UNL     1      15.904  -8.159   3.083  1.00  0.00     0.060 A 
BRANCH  79  80
ATOM     80  S   UNL     1      17.275  -8.069   1.910  1.00  0.00     0.124 S 
ATOM     81  O   UNL     1      18.381  -8.582   2.709  1.00  0.00    -0.237 OA
ATOM     82  O   UNL     1      16.810  -8.934   0.831  1.00  0.00    -0.237 OA
ATOM     83  O   UNL     1      17.340  -6.648   1.579  1.00  0.00    -0.744 OA
ENDBRANCH  79  80
ENDBRANCH  47  72
BRANCH  59  84
ATOM     84  C   UNL     1      12.962 -11.033  11.249  1.00  0.00     0.058 A 
ATOM     85  C   UNL     1      13.996 -10.365  11.921  1.00  0.00     0.135 A 
ATOM     86  C   UNL     1      12.801 -12.408  11.489  1.00  0.00     0.135 A 
ATOM     87  F   UNL     1      14.194  -9.052  11.725  1.00  0.00    -0.206 F 
ATOM     88  C   UNL     1      14.862 -11.043  12.773  1.00  0.00     0.059 A 
ATOM     89  C   UNL     1      13.634 -13.098  12.361  1.00  0.00     0.059 A 
ATOM     90  F   UNL     1      11.815 -13.089  10.884  1.00  0.00    -0.206 F 
ATOM     91  C   UNL     1      14.673 -12.410  12.985  1.00  0.00     0.060 A 
BRANCH  91  92
ATOM     92  S   UNL     1      15.794 -13.276  14.103  1.00  0.00     0.124 S 
ATOM     93  O   UNL     1      17.003 -13.369  13.292  1.00  0.00    -0.237 OA
ATOM     94  O   UNL     1      15.863 -12.367  15.243  1.00  0.00    -0.237 OA
ATOM     95  O   UNL     1      15.110 -14.541  14.358  1.00  0.00    -0.744 OA
ENDBRANCH  91  92
ENDBRANCH  59  84
ENDBRANCH  33  34
ENDBRANCH  26  28
ENDBRANCH  25  26
ENDBRANCH  24  25
ENDBRANCH  23  24
ENDBRANCH  22  23
ENDBRANCH   1  22
TORSDOF 22
