REMARK SMILES O=C(CN1C(=O)N[C@@](CCC(=O)OCCOCCOC(=O)c2ccc(-c3c4nc(c(-c5c(F)cc(S(=O)(=O)[O-])cc5F)c5ccc([nH]5)c(-c5c(F)cc(S(=O)(=O)[O-])cc5F)c5nc(c(-c6c(F)cc(S(=O)(=O)[O-])cc6F)c6ccc3[nH]6)C=C5)C=C4)cc2)(c2ccccc2)C1=O)Nc1cccc(F)c1
REMARK SMILES IDX 15 1 14 2 13 3 11 4 12 5 10 6 9 7 8 8 4 9 5 10 94 11 6 12
REMARK SMILES IDX 7 13 95 14 3 16 2 17 1 18 96 19 97 21 98 22 103 23 99 24
REMARK SMILES IDX 101 25 100 26 102 27 88 28 89 29 93 30 90 31 92 32 91 33
REMARK SMILES IDX 16 34 17 35 18 36 19 37 20 38 21 39 22 40 23 41 87 42 24 43
REMARK SMILES IDX 86 44 25 45 26 46 27 47 80 48 28 49 85 50 79 51 81 52 29 53
REMARK SMILES IDX 84 54 78 55 77 56 30 58 64 59 43 60 63 61 44 62 47 63 62 64
REMARK SMILES IDX 82 65 45 66 46 67 61 69 83 70 48 71 31 72 32 73 41 74 33 75
REMARK SMILES IDX 34 76 40 77 42 78 35 79 36 80 37 81 38 82 39 83 65 84 66 85
REMARK SMILES IDX 75 86 67 87 68 88 74 89 76 90 69 91 70 92 71 93 72 94 73 95
REMARK SMILES IDX 49 96 50 97 59 98 51 99 52 100 58 101 60 102 53 103 54 104
REMARK SMILES IDX 55 105 56 106 57 107
REMARK H PARENT 7 15 96 20 81 57 47 68
REMARK Flexibility Score: inf
ROOT
ATOM      1  C   UNL     1       6.956   4.625   5.968  1.00  0.00     0.202 C 
ENDROOT
BRANCH   1   2
ATOM      2  C   UNL     1       6.684   5.686   4.875  1.00  0.00     0.261 C 
BRANCH   2   3
ATOM      3  O   UNL     1       6.404   5.202   3.541  1.00  0.00    -0.463 OA
BRANCH   3   4
ATOM      4  C   UNL     1       7.337   5.380   2.574  1.00  0.00     0.305 C 
ATOM      5  O   UNL     1       8.482   5.764   2.780  1.00  0.00    -0.252 OA
BRANCH   4   6
ATOM      6  C   UNL     1       6.790   5.130   1.167  1.00  0.00     0.126 C 
BRANCH   6   7
ATOM      7  C   UNL     1       6.572   3.670   0.712  1.00  0.00     0.055 C 
BRANCH   7   8
ATOM      8  C   UNL     1       5.091   3.202   0.592  1.00  0.00     0.147 C 
ATOM      9  N   UNL     1       3.974   1.682  -0.834  1.00  0.00    -0.252 N 
ATOM     10  C   UNL     1       3.636   2.942  -1.228  1.00  0.00     0.325 C 
ATOM     11  C   UNL     1       4.966   1.730   0.104  1.00  0.00     0.261 C 
ATOM     12  O   UNL     1       2.834   3.274  -2.071  1.00  0.00    -0.248 OA
ATOM     13  N   UNL     1       4.400   3.840  -0.505  1.00  0.00    -0.319 N 
ATOM     14  O   UNL     1       5.546   0.752   0.565  1.00  0.00    -0.271 OA
ATOM     15  H   UNL     1       4.465   4.800  -0.712  1.00  0.00     0.166 HD
BRANCH   9  16
ATOM     16  C   UNL     1       3.381   0.464  -1.334  1.00  0.00     0.230 C 
BRANCH  16  17
ATOM     17  C   UNL     1       2.430  -0.146  -0.298  1.00  0.00     0.244 C 
ATOM     18  O   UNL     1       1.232   0.123  -0.300  1.00  0.00    -0.273 OA
ATOM     19  N   UNL     1       3.068  -0.954   0.635  1.00  0.00    -0.324 N 
ATOM     20  H   UNL     1       4.047  -0.873   0.702  1.00  0.00     0.170 HD
BRANCH  19  21
ATOM     21  C   UNL     1       2.438  -1.881   1.498  1.00  0.00     0.044 A 
ATOM     22  C   UNL     1       3.184  -2.404   2.564  1.00  0.00     0.026 A 
ATOM     23  C   UNL     1       1.130  -2.332   1.310  1.00  0.00     0.065 A 
ATOM     24  C   UNL     1       2.612  -3.314   3.464  1.00  0.00     0.005 A 
ATOM     25  C   UNL     1       0.583  -3.268   2.186  1.00  0.00     0.125 A 
ATOM     26  C   UNL     1       1.305  -3.751   3.269  1.00  0.00     0.039 A 
ATOM     27  F   UNL     1      -0.655  -3.728   1.966  1.00  0.00    -0.207 F 
ENDBRANCH  19  21
ENDBRANCH  16  17
ENDBRANCH   9  16
BRANCH   8  28
ATOM     28  C   UNL     1       4.287   3.317   1.874  1.00  0.00    -0.013 A 
ATOM     29  C   UNL     1       4.877   2.931   3.065  1.00  0.00     0.007 A 
ATOM     30  C   UNL     1       2.956   3.764   1.927  1.00  0.00     0.007 A 
ATOM     31  C   UNL     1       4.269   3.237   4.271  1.00  0.00     0.000 A 
ATOM     32  C   UNL     1       2.314   3.974   3.146  1.00  0.00     0.000 A 
ATOM     33  C   UNL     1       3.000   3.771   4.327  1.00  0.00     0.000 A 
ENDBRANCH   8  28
ENDBRANCH   7   8
ENDBRANCH   6   7
ENDBRANCH   4   6
ENDBRANCH   3   4
ENDBRANCH   2   3
ENDBRANCH   1   2
BRANCH   1  34
ATOM     34  O   UNL     1       8.124   3.820   5.845  1.00  0.00    -0.374 OA
BRANCH  34  35
ATOM     35  C   UNL     1       8.139   2.831   4.818  1.00  0.00     0.202 C 
BRANCH  35  36
ATOM     36  C   UNL     1       7.759   1.395   5.242  1.00  0.00     0.261 C 
BRANCH  36  37
ATOM     37  O   UNL     1       6.334   1.129   5.173  1.00  0.00    -0.460 OA
BRANCH  37  38
ATOM     38  C   UNL     1       5.695   0.771   6.321  1.00  0.00     0.338 C 
ATOM     39  O   UNL     1       6.222   0.656   7.415  1.00  0.00    -0.246 OA
BRANCH  38  40
ATOM     40  C   UNL     1       4.207   0.694   6.125  1.00  0.00     0.060 A 
ATOM     41  C   UNL     1       3.388   1.169   7.160  1.00  0.00     0.016 A 
ATOM     42  C   UNL     1       3.600   0.276   4.933  1.00  0.00     0.016 A 
ATOM     43  C   UNL     1       1.990   1.222   7.013  1.00  0.00     0.010 A 
ATOM     44  C   UNL     1       2.196   0.341   4.782  1.00  0.00     0.010 A 
ATOM     45  C   UNL     1       1.372   0.792   5.830  1.00  0.00    -0.014 A 
BRANCH  45  46
ATOM     46  C   UNL     1      -0.116   0.620   5.778  1.00  0.00     0.031 A 
ATOM     47  C   UNL     1      -0.675  -0.739   6.115  1.00  0.00     0.074 A 
ATOM     48  C   UNL     1      -0.983   1.613   5.488  1.00  0.00     0.049 A 
ATOM     49  N   UNL     1      -1.919  -1.113   6.275  1.00  0.00    -0.248 NA
ATOM     50  C   UNL     1       0.308  -1.813   6.321  1.00  0.00     0.031 C 
ATOM     51  C   UNL     1      -0.622   2.989   5.176  1.00  0.00     0.029 A 
ATOM     52  N   UNL     1      -2.360   1.615   5.407  1.00  0.00    -0.354 N 
ATOM     53  C   UNL     1      -1.866  -2.454   6.631  1.00  0.00     0.074 A 
ATOM     54  C   UNL     1      -0.473  -2.844   6.602  1.00  0.00     0.031 C 
ATOM     55  C   UNL     1      -1.733   3.696   4.899  1.00  0.00     0.029 A 
ATOM     56  C   UNL     1      -2.901   2.829   5.043  1.00  0.00     0.049 A 
ATOM     57  H   UNL     1      -2.908   0.819   5.593  1.00  0.00     0.167 HD
ATOM     58  C   UNL     1      -2.877  -3.285   6.981  1.00  0.00     0.037 A 
ATOM     59  C   UNL     1      -4.185   3.212   4.867  1.00  0.00     0.037 A 
ATOM     60  C   UNL     1      -4.270  -2.923   6.974  1.00  0.00     0.049 A 
ATOM     61  C   UNL     1      -5.303   2.239   5.159  1.00  0.00     0.074 A 
ATOM     62  C   UNL     1      -5.359  -3.693   7.344  1.00  0.00     0.029 A 
ATOM     63  N   UNL     1      -4.771  -1.703   6.546  1.00  0.00    -0.354 N 
ATOM     64  N   UNL     1      -5.231   1.008   5.604  1.00  0.00    -0.248 NA
ATOM     65  C   UNL     1      -6.679   2.721   4.957  1.00  0.00     0.031 C 
ATOM     66  C   UNL     1      -6.522  -2.963   7.079  1.00  0.00     0.029 A 
ATOM     67  C   UNL     1      -6.156  -1.712   6.609  1.00  0.00     0.049 A 
ATOM     68  H   UNL     1      -4.224  -0.943   6.243  1.00  0.00     0.167 HD
ATOM     69  C   UNL     1      -6.548   0.587   5.781  1.00  0.00     0.074 A 
ATOM     70  C   UNL     1      -7.396   1.694   5.396  1.00  0.00     0.031 C 
ATOM     71  C   UNL     1      -7.006  -0.607   6.235  1.00  0.00     0.037 A 
BRANCH  58  72
ATOM     72  C   UNL     1      -2.498  -4.684   7.385  1.00  0.00     0.058 A 
ATOM     73  C   UNL     1      -1.793  -4.940   8.573  1.00  0.00     0.135 A 
ATOM     74  C   UNL     1      -2.833  -5.779   6.573  1.00  0.00     0.135 A 
ATOM     75  F   UNL     1      -1.433  -3.928   9.379  1.00  0.00    -0.206 F 
ATOM     76  C   UNL     1      -1.388  -6.225   8.916  1.00  0.00     0.059 A 
ATOM     77  C   UNL     1      -2.467  -7.077   6.914  1.00  0.00     0.059 A 
ATOM     78  F   UNL     1      -3.509  -5.592   5.429  1.00  0.00    -0.206 F 
ATOM     79  C   UNL     1      -1.724  -7.287   8.075  1.00  0.00     0.060 A 
BRANCH  79  80
ATOM     80  S   UNL     1      -1.155  -8.941   8.513  1.00  0.00     0.124 S 
ATOM     81  O   UNL     1       0.275  -8.838   8.235  1.00  0.00    -0.237 OA
ATOM     82  O   UNL     1      -1.520  -9.035   9.922  1.00  0.00    -0.237 OA
ATOM     83  O   UNL     1      -1.907  -9.810   7.613  1.00  0.00    -0.744 OA
ENDBRANCH  79  80
ENDBRANCH  58  72
BRANCH  59  84
ATOM     84  C   UNL     1      -4.508   4.607   4.443  1.00  0.00     0.058 A 
ATOM     85  C   UNL     1      -5.120   5.509   5.328  1.00  0.00     0.135 A 
ATOM     86  C   UNL     1      -4.243   5.058   3.141  1.00  0.00     0.135 A 
ATOM     87  F   UNL     1      -5.414   5.124   6.580  1.00  0.00    -0.206 F 
ATOM     88  C   UNL     1      -5.466   6.800   4.937  1.00  0.00     0.059 A 
ATOM     89  C   UNL     1      -4.560   6.353   2.732  1.00  0.00     0.059 A 
ATOM     90  F   UNL     1      -3.660   4.239   2.252  1.00  0.00    -0.206 F 
ATOM     91  C   UNL     1      -5.177   7.215   3.637  1.00  0.00     0.060 A 
BRANCH  91  92
ATOM     92  S   UNL     1      -5.580   8.912   3.163  1.00  0.00     0.124 S 
ATOM     93  O   UNL     1      -7.037   8.874   3.127  1.00  0.00    -0.237 OA
ATOM     94  O   UNL     1      -4.988   9.680   4.254  1.00  0.00    -0.237 OA
ATOM     95  O   UNL     1      -4.921   9.067   1.869  1.00  0.00    -0.744 OA
ENDBRANCH  91  92
ENDBRANCH  59  84
BRANCH  71  96
ATOM     96  C   UNL     1      -8.495  -0.782   6.393  1.00  0.00     0.058 A 
ATOM     97  C   UNL     1      -9.356  -0.882   5.289  1.00  0.00     0.135 A 
ATOM     98  C   UNL     1      -9.062  -0.918   7.672  1.00  0.00     0.135 A 
ATOM     99  F   UNL     1      -8.875  -0.755   4.042  1.00  0.00    -0.206 F 
ATOM    100  C   UNL     1     -10.725  -1.090   5.447  1.00  0.00     0.059 A 
ATOM    101  C   UNL     1     -10.421  -1.158   7.853  1.00  0.00     0.059 A 
ATOM    102  F   UNL     1      -8.287  -0.842   8.766  1.00  0.00    -0.206 F 
ATOM    103  C   UNL     1     -11.248  -1.231   6.734  1.00  0.00     0.060 A 
BRANCH 103 104
ATOM    104  S   UNL     1     -13.017  -1.542   6.922  1.00  0.00     0.124 S 
ATOM    105  O   UNL     1     -13.584  -0.243   6.576  1.00  0.00    -0.237 OA
ATOM    106  O   UNL     1     -13.251  -2.613   5.958  1.00  0.00    -0.237 OA
ATOM    107  O   UNL     1     -13.148  -1.929   8.324  1.00  0.00    -0.744 OA
ENDBRANCH 103 104
ENDBRANCH  71  96
ENDBRANCH  45  46
ENDBRANCH  38  40
ENDBRANCH  37  38
ENDBRANCH  36  37
ENDBRANCH  35  36
ENDBRANCH  34  35
ENDBRANCH   1  34
TORSDOF 23
