REMARK SMILES COc1ccc2c(c1)c(CC(=O)OCCOCCOC(=O)c1ccc(-c3c4nc(c(-c5c(F)cc(S(=O)(=O)[O-])cc5F)c5ccc([nH]5)c(-c5c(F)cc(S(=O)(=O)[O-])cc5F)c5nc(c(-c6c(F)cc(S(=O)(=O)[O-])cc6F)c6ccc3[nH]6)C=C5)C=C4)cc1)c(C(F)(F)F)n2C(=O)c1ccc(Cl)cc1
REMARK SMILES IDX 16 1 15 2 14 3 13 4 11 5 12 6 10 7 9 8 3 9 4 10 8 11 5 12
REMARK SMILES IDX 7 13 6 14 93 15 88 16 2 17 1 18 94 19 95 20 96 21 97 22
REMARK SMILES IDX 102 23 98 24 101 25 99 26 100 27 89 28 90 29 91 30 92 31
REMARK SMILES IDX 17 32 18 33 19 34 20 35 21 36 22 37 23 38 87 39 24 40 86 41
REMARK SMILES IDX 25 42 26 43 27 44 80 45 28 46 85 47 79 48 81 49 29 50 84 51
REMARK SMILES IDX 78 52 77 53 30 55 64 56 43 57 63 58 44 59 47 60 62 61 82 62
REMARK SMILES IDX 45 63 46 64 61 66 83 67 48 68 31 69 32 70 41 71 33 72 34 73
REMARK SMILES IDX 40 74 42 75 35 76 36 77 37 78 38 79 39 80 65 81 66 82 75 83
REMARK SMILES IDX 67 84 68 85 74 86 76 87 69 88 70 89 71 90 72 91 73 92 49 93
REMARK SMILES IDX 50 94 59 95 51 96 52 97 58 98 60 99 53 100 54 101 55 102
REMARK SMILES IDX 56 103 57 104
REMARK H PARENT 81 54 47 65
REMARK Flexibility Score: inf
ROOT
ATOM      1  O   UNL     1      -2.490   2.511   4.148  1.00  0.00    -0.374 OA
ENDROOT
BRANCH   1   2
ATOM      2  C   UNL     1      -2.357   2.975   5.482  1.00  0.00     0.202 C 
BRANCH   2   3
ATOM      3  C   UNL     1      -2.551   2.022   6.675  1.00  0.00     0.261 C 
BRANCH   3   4
ATOM      4  O   UNL     1      -1.874   0.758   6.549  1.00  0.00    -0.463 OA
BRANCH   4   5
ATOM      5  C   UNL     1      -2.701  -0.292   6.303  1.00  0.00     0.310 C 
ATOM      6  O   UNL     1      -3.922  -0.201   6.199  1.00  0.00    -0.252 OA
BRANCH   5   7
ATOM      7  C   UNL     1      -2.025  -1.635   6.149  1.00  0.00     0.161 C 
BRANCH   7   8
ATOM      8  C   UNL     1      -0.532  -1.711   5.903  1.00  0.00     0.002 A 
ATOM      9  C   UNL     1       0.552  -1.194   2.263  1.00  0.00     0.119 A 
ATOM     10  C   UNL     1       1.901  -1.383   2.482  1.00  0.00     0.048 A 
ATOM     11  C   UNL     1      -0.340  -1.395   3.322  1.00  0.00     0.057 A 
ATOM     12  C   UNL     1       2.372  -1.732   3.752  1.00  0.00     0.031 A 
ATOM     13  C   UNL     1       0.123  -1.622   4.643  1.00  0.00     0.008 A 
ATOM     14  C   UNL     1       1.492  -1.808   4.855  1.00  0.00     0.057 A 
ATOM     15  N   UNL     1       1.688  -2.124   6.218  1.00  0.00    -0.271 N 
ATOM     16  C   UNL     1       0.442  -2.025   6.855  1.00  0.00     0.135 A 
BRANCH   9  17
ATOM     17  O   UNL     1      -0.021  -0.750   1.103  1.00  0.00    -0.497 OA
ATOM     18  C   UNL     1       0.844  -0.346   0.046  1.00  0.00     0.278 C 
ENDBRANCH   9  17
BRANCH  15  19
ATOM     19  C   UNL     1       2.919  -2.567   6.787  1.00  0.00     0.262 C 
ATOM     20  O   UNL     1       2.896  -3.131   7.876  1.00  0.00    -0.268 OA
BRANCH  19  21
ATOM     21  C   UNL     1       4.240  -2.549   6.128  1.00  0.00     0.040 A 
ATOM     22  C   UNL     1       4.879  -1.353   5.781  1.00  0.00     0.015 A 
ATOM     23  C   UNL     1       4.827  -3.785   5.824  1.00  0.00     0.015 A 
ATOM     24  C   UNL     1       6.063  -1.404   5.034  1.00  0.00     0.021 A 
ATOM     25  C   UNL     1       6.013  -3.829   5.091  1.00  0.00     0.021 A 
ATOM     26  C   UNL     1       6.613  -2.639   4.679  1.00  0.00     0.041 A 
ATOM     27  Cl  UNL     1       8.028  -2.698   3.702  1.00  0.00    -0.084 Cl
ENDBRANCH  19  21
ENDBRANCH  15  19
BRANCH  16  28
ATOM     28  C   UNL     1       0.151  -2.270   8.308  1.00  0.00     0.432 C 
ATOM     29  F   UNL     1      -0.601  -1.244   8.791  1.00  0.00    -0.165 F 
ATOM     30  F   UNL     1      -0.611  -3.389   8.441  1.00  0.00    -0.165 F 
ATOM     31  F   UNL     1       1.186  -2.386   9.157  1.00  0.00    -0.165 F 
ENDBRANCH  16  28
ENDBRANCH   7   8
ENDBRANCH   5   7
ENDBRANCH   4   5
ENDBRANCH   3   4
ENDBRANCH   2   3
ENDBRANCH   1   2
BRANCH   1  32
ATOM     32  C   UNL     1      -1.516   1.586   3.689  1.00  0.00     0.202 C 
BRANCH  32  33
ATOM     33  C   UNL     1      -0.042   2.025   3.610  1.00  0.00     0.261 C 
BRANCH  33  34
ATOM     34  O   UNL     1       0.496   2.416   4.872  1.00  0.00    -0.460 OA
BRANCH  34  35
ATOM     35  C   UNL     1       1.342   3.485   4.811  1.00  0.00     0.338 C 
ATOM     36  O   UNL     1       2.010   3.854   3.875  1.00  0.00    -0.246 OA
BRANCH  35  37
ATOM     37  C   UNL     1       0.930   4.307   5.961  1.00  0.00     0.060 A 
ATOM     38  C   UNL     1       0.881   3.737   7.238  1.00  0.00     0.016 A 
ATOM     39  C   UNL     1       0.204   5.462   5.634  1.00  0.00     0.016 A 
ATOM     40  C   UNL     1       0.002   4.269   8.168  1.00  0.00     0.010 A 
ATOM     41  C   UNL     1      -0.709   5.956   6.550  1.00  0.00     0.010 A 
ATOM     42  C   UNL     1      -0.836   5.332   7.797  1.00  0.00    -0.014 A 
BRANCH  42  43
ATOM     43  C   UNL     1      -1.653   5.962   8.830  1.00  0.00     0.031 A 
ATOM     44  C   UNL     1      -0.808   6.780   9.742  1.00  0.00     0.074 A 
ATOM     45  C   UNL     1      -3.001   5.973   8.859  1.00  0.00     0.049 A 
ATOM     46  N   UNL     1      -0.594   6.604  11.005  1.00  0.00    -0.248 NA
ATOM     47  C   UNL     1       0.082   7.781   9.119  1.00  0.00     0.031 C 
ATOM     48  C   UNL     1      -3.937   5.409   7.894  1.00  0.00     0.029 A 
ATOM     49  N   UNL     1      -3.835   6.611   9.731  1.00  0.00    -0.354 N 
ATOM     50  C   UNL     1       0.281   7.622  11.368  1.00  0.00     0.074 A 
ATOM     51  C   UNL     1       0.843   8.139  10.151  1.00  0.00     0.031 C 
ATOM     52  C   UNL     1      -5.171   5.919   8.087  1.00  0.00     0.029 A 
ATOM     53  C   UNL     1      -5.141   6.766   9.260  1.00  0.00     0.049 A 
ATOM     54  H   UNL     1      -3.542   6.933  10.614  1.00  0.00     0.167 HD
ATOM     55  C   UNL     1       0.270   8.170  12.612  1.00  0.00     0.037 A 
ATOM     56  C   UNL     1      -6.078   7.620   9.750  1.00  0.00     0.037 A 
ATOM     57  C   UNL     1      -0.375   7.309  13.565  1.00  0.00     0.049 A 
ATOM     58  C   UNL     1      -5.665   7.935  11.147  1.00  0.00     0.074 A 
ATOM     59  C   UNL     1      -0.138   6.019  14.002  1.00  0.00     0.029 A 
ATOM     60  N   UNL     1      -1.672   7.591  13.919  1.00  0.00    -0.354 N 
ATOM     61  N   UNL     1      -5.623   7.039  12.100  1.00  0.00    -0.248 NA
ATOM     62  C   UNL     1      -4.800   9.091  11.339  1.00  0.00     0.031 C 
ATOM     63  C   UNL     1      -1.428   5.433  14.134  1.00  0.00     0.029 A 
ATOM     64  C   UNL     1      -2.378   6.415  13.847  1.00  0.00     0.049 A 
ATOM     65  H   UNL     1      -2.029   8.472  14.176  1.00  0.00     0.167 HD
ATOM     66  C   UNL     1      -4.446   7.302  12.789  1.00  0.00     0.074 A 
ATOM     67  C   UNL     1      -4.002   8.606  12.295  1.00  0.00     0.031 C 
ATOM     68  C   UNL     1      -3.775   6.328  13.474  1.00  0.00     0.037 A 
BRANCH  55  69
ATOM     69  C   UNL     1       0.537   9.632  12.856  1.00  0.00     0.058 A 
ATOM     70  C   UNL     1       0.783  10.090  14.162  1.00  0.00     0.135 A 
ATOM     71  C   UNL     1       0.326  10.639  11.884  1.00  0.00     0.135 A 
ATOM     72  F   UNL     1       0.958   9.219  15.168  1.00  0.00    -0.206 F 
ATOM     73  C   UNL     1       0.791  11.448  14.482  1.00  0.00     0.059 A 
ATOM     74  C   UNL     1       0.396  11.995  12.166  1.00  0.00     0.059 A 
ATOM     75  F   UNL     1      -0.056  10.359  10.631  1.00  0.00    -0.206 F 
ATOM     76  C   UNL     1       0.594  12.392  13.475  1.00  0.00     0.060 A 
BRANCH  76  77
ATOM     77  S   UNL     1       0.527  14.140  13.895  1.00  0.00     0.124 S 
ATOM     78  O   UNL     1      -0.699  14.204  14.683  1.00  0.00    -0.237 OA
ATOM     79  O   UNL     1       1.774  14.320  14.631  1.00  0.00    -0.237 OA
ATOM     80  O   UNL     1       0.474  14.798  12.592  1.00  0.00    -0.744 OA
ENDBRANCH  76  77
ENDBRANCH  55  69
BRANCH  56  81
ATOM     81  C   UNL     1      -6.999   8.470   8.934  1.00  0.00     0.058 A 
ATOM     82  C   UNL     1      -8.072   9.182   9.503  1.00  0.00     0.135 A 
ATOM     83  C   UNL     1      -6.703   8.792   7.590  1.00  0.00     0.135 A 
ATOM     84  F   UNL     1      -8.408   8.980  10.786  1.00  0.00    -0.206 F 
ATOM     85  C   UNL     1      -8.792  10.156   8.789  1.00  0.00     0.059 A 
ATOM     86  C   UNL     1      -7.411   9.742   6.858  1.00  0.00     0.059 A 
ATOM     87  F   UNL     1      -5.649   8.252   6.961  1.00  0.00    -0.206 F 
ATOM     88  C   UNL     1      -8.444  10.437   7.467  1.00  0.00     0.060 A 
BRANCH  88  89
ATOM     89  S   UNL     1      -9.276  11.772   6.571  1.00  0.00     0.124 S 
ATOM     90  O   UNL     1     -10.648  11.282   6.498  1.00  0.00    -0.237 OA
ATOM     91  O   UNL     1      -9.052  12.916   7.448  1.00  0.00    -0.237 OA
ATOM     92  O   UNL     1      -8.565  11.821   5.295  1.00  0.00    -0.744 OA
ENDBRANCH  88  89
ENDBRANCH  56  81
BRANCH  68  93
ATOM     93  C   UNL     1      -4.423   4.975  13.658  1.00  0.00     0.058 A 
ATOM     94  C   UNL     1      -4.690   4.080  12.605  1.00  0.00     0.135 A 
ATOM     95  C   UNL     1      -4.557   4.479  14.964  1.00  0.00     0.135 A 
ATOM     96  F   UNL     1      -4.492   4.440  11.330  1.00  0.00    -0.206 F 
ATOM     97  C   UNL     1      -5.085   2.759  12.841  1.00  0.00     0.059 A 
ATOM     98  C   UNL     1      -4.918   3.158  15.222  1.00  0.00     0.059 A 
ATOM     99  F   UNL     1      -4.256   5.262  16.013  1.00  0.00    -0.206 F 
ATOM    100  C   UNL     1      -5.184   2.303  14.155  1.00  0.00     0.060 A 
BRANCH 100 101
ATOM    101  S   UNL     1      -5.583   0.567  14.460  1.00  0.00     0.124 S 
ATOM    102  O   UNL     1      -6.966   0.484  14.003  1.00  0.00    -0.237 OA
ATOM    103  O   UNL     1      -4.600  -0.131  13.636  1.00  0.00    -0.237 OA
ATOM    104  O   UNL     1      -5.393   0.419  15.901  1.00  0.00    -0.744 OA
ENDBRANCH 100 101
ENDBRANCH  68  93
ENDBRANCH  42  43
ENDBRANCH  35  37
ENDBRANCH  34  35
ENDBRANCH  33  34
ENDBRANCH  32  33
ENDBRANCH   1  32
TORSDOF 22
