REMARK SMILES CC[C@@H](C)[C@@H](NC(N)=O)C(=O)N1CCC[C@H](C(=O)OCCOCCOC(=O)c2ccc(-c3c4nc(c(-c5c(F)cc(S(=O)(=O)[O-])cc5F)c5ccc([nH]5)c(-c5c(F)cc(S(=O)(=O)[O-])cc5F)c5nc(c(-c6c(F)cc(S(=O)(=O)[O-])cc6F)c6ccc3[nH]6)C=C5)C=C4)cc2)C1
REMARK SMILES IDX 21 1 20 2 19 3 17 4 18 5 16 6 12 7 13 8 94 9 14 10 15 11
REMARK SMILES IDX 10 12 11 13 5 14 3 15 4 16 2 17 1 18 6 19 7 20 8 22 9 23
REMARK SMILES IDX 22 26 23 27 24 28 25 29 26 30 27 31 28 32 29 33 93 34 30 35
REMARK SMILES IDX 92 36 31 37 32 38 33 39 86 40 34 41 91 42 85 43 87 44 35 45
REMARK SMILES IDX 90 46 84 47 83 48 36 50 70 51 49 52 69 53 50 54 53 55 68 56
REMARK SMILES IDX 88 57 51 58 52 59 67 61 89 62 54 63 37 64 38 65 47 66 39 67
REMARK SMILES IDX 40 68 46 69 48 70 41 71 42 72 43 73 44 74 45 75 71 76 72 77
REMARK SMILES IDX 81 78 73 79 74 80 80 81 82 82 75 83 76 84 77 85 78 86 79 87
REMARK SMILES IDX 55 88 56 89 65 90 57 91 58 92 64 93 66 94 59 95 60 96 61 97
REMARK SMILES IDX 62 98 63 99
REMARK H PARENT 6 21 8 24 8 25 87 49 53 60
REMARK Flexibility Score: inf
ROOT
ATOM      1  C   UNL     1       1.697   1.601   7.295  1.00  0.00     0.202 C 
ENDROOT
BRANCH   1   2
ATOM      2  C   UNL     1       1.467   0.828   5.997  1.00  0.00     0.261 C 
BRANCH   2   3
ATOM      3  O   UNL     1       2.485  -0.165   5.790  1.00  0.00    -0.463 OA
BRANCH   3   4
ATOM      4  C   UNL     1       3.231  -0.085   4.662  1.00  0.00     0.310 C 
ATOM      5  O   UNL     1       3.104   0.768   3.790  1.00  0.00    -0.252 OA
BRANCH   4   6
ATOM      6  C   UNL     1       4.259  -1.204   4.552  1.00  0.00     0.119 C 
ATOM      7  N   UNL     1       2.643  -3.002   4.344  1.00  0.00    -0.340 N 
ATOM      8  C   UNL     1       3.049  -3.683   5.566  1.00  0.00     0.119 C 
ATOM      9  C   UNL     1       3.710  -2.306   3.648  1.00  0.00     0.134 C 
ATOM     10  C   UNL     1       3.738  -2.745   6.552  1.00  0.00     0.022 C 
ATOM     11  C   UNL     1       4.752  -1.814   5.876  1.00  0.00     0.019 C 
BRANCH   7  12
ATOM     12  C   UNL     1       1.285  -2.810   4.100  1.00  0.00     0.245 C 
ATOM     13  O   UNL     1       0.503  -2.599   5.032  1.00  0.00    -0.272 OA
BRANCH  12  14
ATOM     14  C   UNL     1       0.773  -2.787   2.618  1.00  0.00     0.176 C 
BRANCH  14  15
ATOM     15  C   UNL     1       0.846  -1.376   1.949  1.00  0.00     0.018 C 
ATOM     16  C   UNL     1       0.110  -0.308   2.768  1.00  0.00     0.010 C 
BRANCH  15  17
ATOM     17  C   UNL     1       0.312  -1.352   0.495  1.00  0.00     0.002 C 
ATOM     18  C   UNL     1       0.772  -0.110  -0.267  1.00  0.00     0.004 C 
ENDBRANCH  15  17
ENDBRANCH  14  15
BRANCH  14  19
ATOM     19  N   UNL     1       1.508  -3.807   1.844  1.00  0.00    -0.326 N 
ATOM     20  C   UNL     1       1.572  -5.103   2.266  1.00  0.00     0.312 C 
ATOM     21  H   UNL     1       1.959  -3.547   1.009  1.00  0.00     0.166 HD
ATOM     22  N   UNL     1       2.201  -5.918   1.390  1.00  0.00    -0.352 N 
ATOM     23  O   UNL     1       1.177  -5.535   3.339  1.00  0.00    -0.249 OA
ATOM     24  H   UNL     1       2.516  -5.563   0.527  1.00  0.00     0.161 HD
ATOM     25  H   UNL     1       2.344  -6.865   1.614  1.00  0.00     0.161 HD
ENDBRANCH  14  19
ENDBRANCH  12  14
ENDBRANCH   7  12
ENDBRANCH   4   6
ENDBRANCH   3   4
ENDBRANCH   2   3
ENDBRANCH   1   2
BRANCH   1  26
ATOM     26  O   UNL     1       2.889   2.381   7.378  1.00  0.00    -0.374 OA
BRANCH  26  27
ATOM     27  C   UNL     1       4.130   1.688   7.476  1.00  0.00     0.202 C 
BRANCH  27  28
ATOM     28  C   UNL     1       4.464   0.996   8.806  1.00  0.00     0.261 C 
BRANCH  28  29
ATOM     29  O   UNL     1       3.538  -0.040   9.173  1.00  0.00    -0.460 OA
BRANCH  29  30
ATOM     30  C   UNL     1       2.725   0.290  10.209  1.00  0.00     0.338 C 
ATOM     31  O   UNL     1       2.741   1.332  10.844  1.00  0.00    -0.246 OA
BRANCH  30  32
ATOM     32  C   UNL     1       1.665  -0.718  10.402  1.00  0.00     0.060 A 
ATOM     33  C   UNL     1       0.344  -0.253  10.438  1.00  0.00     0.016 A 
ATOM     34  C   UNL     1       1.956  -2.051  10.693  1.00  0.00     0.016 A 
ATOM     35  C   UNL     1      -0.682  -1.097  10.850  1.00  0.00     0.010 A 
ATOM     36  C   UNL     1       0.922  -2.899  11.108  1.00  0.00     0.010 A 
ATOM     37  C   UNL     1      -0.391  -2.409  11.244  1.00  0.00    -0.014 A 
BRANCH  37  38
ATOM     38  C   UNL     1      -1.425  -3.187  11.976  1.00  0.00     0.031 A 
ATOM     39  C   UNL     1      -1.314  -3.315  13.474  1.00  0.00     0.074 A 
ATOM     40  C   UNL     1      -2.480  -3.714  11.330  1.00  0.00     0.049 A 
ATOM     41  N   UNL     1      -2.093  -3.945  14.316  1.00  0.00    -0.248 NA
ATOM     42  C   UNL     1      -0.168  -2.643  14.108  1.00  0.00     0.031 C 
ATOM     43  C   UNL     1      -2.722  -3.620   9.892  1.00  0.00     0.029 A 
ATOM     44  N   UNL     1      -3.547  -4.436  11.805  1.00  0.00    -0.354 N 
ATOM     45  C   UNL     1      -1.526  -3.759  15.572  1.00  0.00     0.074 A 
ATOM     46  C   UNL     1      -0.319  -2.986  15.379  1.00  0.00     0.031 C 
ATOM     47  C   UNL     1      -3.864  -4.264   9.599  1.00  0.00     0.029 A 
ATOM     48  C   UNL     1      -4.416  -4.845  10.822  1.00  0.00     0.049 A 
ATOM     49  H   UNL     1      -3.677  -4.641  12.759  1.00  0.00     0.167 HD
ATOM     50  C   UNL     1      -1.975  -4.184  16.778  1.00  0.00     0.037 A 
ATOM     51  C   UNL     1      -5.519  -5.616  10.899  1.00  0.00     0.037 A 
ATOM     52  C   UNL     1      -3.183  -4.947  16.963  1.00  0.00     0.049 A 
ATOM     53  C   UNL     1      -5.972  -6.125  12.244  1.00  0.00     0.074 A 
ATOM     54  C   UNL     1      -3.735  -5.412  18.143  1.00  0.00     0.029 A 
ATOM     55  N   UNL     1      -4.023  -5.363  15.939  1.00  0.00    -0.354 N 
ATOM     56  N   UNL     1      -5.435  -5.930  13.426  1.00  0.00    -0.248 NA
ATOM     57  C   UNL     1      -7.187  -6.950  12.267  1.00  0.00     0.031 C 
ATOM     58  C   UNL     1      -4.876  -6.157  17.829  1.00  0.00     0.029 A 
ATOM     59  C   UNL     1      -5.075  -6.099  16.459  1.00  0.00     0.049 A 
ATOM     60  H   UNL     1      -3.891  -5.164  14.984  1.00  0.00     0.167 HD
ATOM     61  C   UNL     1      -6.266  -6.577  14.335  1.00  0.00     0.074 A 
ATOM     62  C   UNL     1      -7.345  -7.163  13.566  1.00  0.00     0.031 C 
ATOM     63  C   UNL     1      -6.151  -6.671  15.684  1.00  0.00     0.037 A 
BRANCH  50  64
ATOM     64  C   UNL     1      -1.137  -3.862  17.988  1.00  0.00     0.058 A 
ATOM     65  C   UNL     1      -1.003  -2.552  18.477  1.00  0.00     0.135 A 
ATOM     66  C   UNL     1      -0.473  -4.887  18.683  1.00  0.00     0.135 A 
ATOM     67  F   UNL     1      -1.602  -1.530  17.845  1.00  0.00    -0.206 F 
ATOM     68  C   UNL     1      -0.214  -2.266  19.587  1.00  0.00     0.059 A 
ATOM     69  C   UNL     1       0.295  -4.628  19.814  1.00  0.00     0.059 A 
ATOM     70  F   UNL     1      -0.565  -6.158  18.262  1.00  0.00    -0.206 F 
ATOM     71  C   UNL     1       0.432  -3.311  20.249  1.00  0.00     0.060 A 
BRANCH  71  72
ATOM     72  S   UNL     1       1.458  -2.923  21.683  1.00  0.00     0.124 S 
ATOM     73  O   UNL     1       2.602  -2.269  21.056  1.00  0.00    -0.237 OA
ATOM     74  O   UNL     1       0.583  -2.056  22.467  1.00  0.00    -0.237 OA
ATOM     75  O   UNL     1       1.730  -4.231  22.272  1.00  0.00    -0.744 OA
ENDBRANCH  71  72
ENDBRANCH  50  64
BRANCH  51  76
ATOM     76  C   UNL     1      -6.271  -5.956   9.660  1.00  0.00     0.058 A 
ATOM     77  C   UNL     1      -7.553  -5.441   9.422  1.00  0.00     0.135 A 
ATOM     78  C   UNL     1      -5.713  -6.796   8.682  1.00  0.00     0.135 A 
ATOM     79  F   UNL     1      -8.136  -4.644  10.331  1.00  0.00    -0.206 F 
ATOM     80  C   UNL     1      -8.261  -5.753   8.265  1.00  0.00     0.059 A 
ATOM     81  C   UNL     1      -6.389  -7.099   7.505  1.00  0.00     0.059 A 
ATOM     82  F   UNL     1      -4.487  -7.311   8.859  1.00  0.00    -0.206 F 
ATOM     83  C   UNL     1      -7.668  -6.579   7.309  1.00  0.00     0.060 A 
BRANCH  83  84
ATOM     84  S   UNL     1      -8.577  -6.934   5.789  1.00  0.00     0.124 S 
ATOM     85  O   UNL     1      -9.631  -7.817   6.275  1.00  0.00    -0.237 OA
ATOM     86  O   UNL     1      -9.002  -5.603   5.369  1.00  0.00    -0.237 OA
ATOM     87  O   UNL     1      -7.574  -7.562   4.934  1.00  0.00    -0.744 OA
ENDBRANCH  83  84
ENDBRANCH  51  76
BRANCH  63  88
ATOM     88  C   UNL     1      -7.247  -7.387  16.430  1.00  0.00     0.058 A 
ATOM     89  C   UNL     1      -7.420  -8.777  16.351  1.00  0.00     0.135 A 
ATOM     90  C   UNL     1      -8.112  -6.668  17.273  1.00  0.00     0.135 A 
ATOM     91  F   UNL     1      -6.625  -9.514  15.560  1.00  0.00    -0.206 F 
ATOM     92  C   UNL     1      -8.433  -9.425  17.054  1.00  0.00     0.059 A 
ATOM     93  C   UNL     1      -9.109  -7.299  18.010  1.00  0.00     0.059 A 
ATOM     94  F   UNL     1      -7.984  -5.338  17.399  1.00  0.00    -0.206 F 
ATOM     95  C   UNL     1      -9.273  -8.677  17.881  1.00  0.00     0.060 A 
BRANCH  95  96
ATOM     96  S   UNL     1     -10.570  -9.532  18.800  1.00  0.00     0.124 S 
ATOM     97  O   UNL     1     -11.520  -9.852  17.740  1.00  0.00    -0.237 OA
ATOM     98  O   UNL     1      -9.853 -10.667  19.372  1.00  0.00    -0.237 OA
ATOM     99  O   UNL     1     -11.020  -8.532  19.765  1.00  0.00    -0.744 OA
ENDBRANCH  95  96
ENDBRANCH  63  88
ENDBRANCH  37  38
ENDBRANCH  30  32
ENDBRANCH  29  30
ENDBRANCH  28  29
ENDBRANCH  27  28
ENDBRANCH  26  27
ENDBRANCH   1  26
TORSDOF 22
