REMARK SMILES COc1cccc(C(=O)NNC(=O)[C@H]2CC(C)=C(C)C[C@@H]2C(=O)OCCOCCOC(=O)c2ccc(-c3c4nc(c(-c5c(F)cc(S(=O)(=O)[O-])cc5F)c5ccc([nH]5)c(-c5c(F)cc(S(=O)(=O)[O-])cc5F)c5nc(c(-c6c(F)cc(S(=O)(=O)[O-])cc6F)c6ccc3[nH]6)C=C5)C=C4)cc2)c1
REMARK SMILES IDX 26 1 25 2 24 3 22 4 23 5 21 6 14 7 15 8 16 9 20 10 17 11
REMARK SMILES IDX 18 12 19 13 12 14 11 15 13 17 10 18 8 19 9 20 7 22 3 23 4 24
REMARK SMILES IDX 99 25 5 26 6 27 2 28 1 29 27 30 28 31 29 32 30 33 31 34
REMARK SMILES IDX 32 35 33 36 34 37 98 38 35 39 97 40 36 41 37 42 38 43 91 44
REMARK SMILES IDX 39 45 96 46 90 47 92 48 40 49 95 50 89 51 88 52 41 54 75 55
REMARK SMILES IDX 54 56 74 57 55 58 58 59 73 60 93 61 56 62 57 63 72 65 94 66
REMARK SMILES IDX 59 67 42 68 43 69 52 70 44 71 45 72 51 73 53 74 46 75 47 76
REMARK SMILES IDX 48 77 49 78 50 79 76 80 77 81 86 82 78 83 79 84 85 85 87 86
REMARK SMILES IDX 80 87 81 88 82 89 83 90 84 91 60 92 61 93 70 94 62 95 63 96
REMARK SMILES IDX 69 97 71 98 64 99 65 100 66 101 67 102 68 103
REMARK H PARENT 11 16 10 21 92 53 58 64
REMARK Flexibility Score: inf
ROOT
ATOM      1  C   UNL     1       8.887   3.413   4.453  1.00  0.00     0.202 C 
ENDROOT
BRANCH   1   2
ATOM      2  C   UNL     1       9.478   2.040   4.111  1.00  0.00     0.261 C 
BRANCH   2   3
ATOM      3  O   UNL     1       9.168   1.656   2.762  1.00  0.00    -0.463 OA
BRANCH   3   4
ATOM      4  C   UNL     1       8.445   0.510   2.630  1.00  0.00     0.310 C 
ATOM      5  O   UNL     1       8.175  -0.249   3.553  1.00  0.00    -0.252 OA
BRANCH   4   6
ATOM      6  C   UNL     1       7.782   0.441   1.265  1.00  0.00     0.116 C 
ATOM      7  C   UNL     1       6.778  -0.728   1.224  1.00  0.00     0.099 C 
ATOM      8  C   UNL     1       7.275  -1.980   0.495  1.00  0.00     0.045 C 
ATOM      9  C   UNL     1       8.495  -1.860  -0.387  1.00  0.00    -0.074 C 
ATOM     10  C   UNL     1       8.729   0.576   0.077  1.00  0.00     0.046 C 
ATOM     11  C   UNL     1       8.933  -3.172  -0.989  1.00  0.00     0.039 C 
ATOM     12  C   UNL     1       9.137  -0.696  -0.600  1.00  0.00    -0.073 C 
ATOM     13  C   UNL     1      10.296  -0.547  -1.555  1.00  0.00     0.039 C 
BRANCH   7  14
ATOM     14  C   UNL     1       5.453  -0.153   0.728  1.00  0.00     0.242 C 
ATOM     15  N   UNL     1       4.731   0.628   1.618  1.00  0.00    -0.267 N 
ATOM     16  H   UNL     1       4.055   1.240   1.248  1.00  0.00     0.191 HD
ATOM     17  O   UNL     1       5.058  -0.266  -0.430  1.00  0.00    -0.273 OA
BRANCH  15  18
ATOM     18  N   UNL     1       4.899   0.604   3.007  1.00  0.00    -0.263 N 
ATOM     19  C   UNL     1       3.917   0.827   3.959  1.00  0.00     0.269 C 
ATOM     20  O   UNL     1       4.230   0.840   5.149  1.00  0.00    -0.267 OA
ATOM     21  H   UNL     1       5.804   0.409   3.342  1.00  0.00     0.191 HD
BRANCH  19  22
ATOM     22  C   UNL     1       2.501   1.106   3.596  1.00  0.00     0.045 A 
ATOM     23  C   UNL     1       0.569   0.920   2.142  1.00  0.00     0.119 A 
ATOM     24  C   UNL     1      -0.147   1.765   2.993  1.00  0.00     0.046 A 
ATOM     25  C   UNL     1       1.874   0.550   2.476  1.00  0.00     0.060 A 
ATOM     26  C   UNL     1       0.439   2.259   4.158  1.00  0.00     0.005 A 
ATOM     27  C   UNL     1       1.764   1.940   4.452  1.00  0.00     0.014 A 
BRANCH  23  28
ATOM     28  O   UNL     1      -0.106   0.520   1.022  1.00  0.00    -0.497 OA
ATOM     29  C   UNL     1       0.656  -0.151   0.023  1.00  0.00     0.278 C 
ENDBRANCH  23  28
ENDBRANCH  19  22
ENDBRANCH  15  18
ENDBRANCH   7  14
ENDBRANCH   4   6
ENDBRANCH   3   4
ENDBRANCH   2   3
ENDBRANCH   1   2
BRANCH   1  30
ATOM     30  O   UNL     1       7.469   3.566   4.405  1.00  0.00    -0.374 OA
BRANCH  30  31
ATOM     31  C   UNL     1       6.841   3.621   3.128  1.00  0.00     0.202 C 
BRANCH  31  32
ATOM     32  C   UNL     1       7.019   4.871   2.257  1.00  0.00     0.261 C 
BRANCH  32  33
ATOM     33  O   UNL     1       8.384   5.125   1.898  1.00  0.00    -0.460 OA
BRANCH  33  34
ATOM     34  C   UNL     1       8.950   6.171   2.547  1.00  0.00     0.338 C 
ATOM     35  O   UNL     1       8.413   6.918   3.356  1.00  0.00    -0.246 OA
BRANCH  34  36
ATOM     36  C   UNL     1      10.399   6.178   2.296  1.00  0.00     0.060 A 
ATOM     37  C   UNL     1      11.259   6.069   3.398  1.00  0.00     0.016 A 
ATOM     38  C   UNL     1      10.904   6.350   1.007  1.00  0.00     0.016 A 
ATOM     39  C   UNL     1      12.636   6.156   3.218  1.00  0.00     0.010 A 
ATOM     40  C   UNL     1      12.284   6.458   0.832  1.00  0.00     0.010 A 
ATOM     41  C   UNL     1      13.151   6.390   1.938  1.00  0.00    -0.014 A 
BRANCH  41  42
ATOM     42  C   UNL     1      14.581   6.725   1.760  1.00  0.00     0.031 A 
ATOM     43  C   UNL     1      14.961   8.169   1.595  1.00  0.00     0.074 A 
ATOM     44  C   UNL     1      15.513   5.758   1.719  1.00  0.00     0.049 A 
ATOM     45  N   UNL     1      16.116   8.690   1.278  1.00  0.00    -0.248 NA
ATOM     46  C   UNL     1      13.890   9.156   1.808  1.00  0.00     0.031 C 
ATOM     47  C   UNL     1      15.260   4.332   1.919  1.00  0.00     0.029 A 
ATOM     48  N   UNL     1      16.860   5.831   1.469  1.00  0.00    -0.354 N 
ATOM     49  C   UNL     1      15.907  10.063   1.231  1.00  0.00     0.074 A 
ATOM     50  C   UNL     1      14.512  10.293   1.535  1.00  0.00     0.031 C 
ATOM     51  C   UNL     1      16.412   3.659   1.753  1.00  0.00     0.029 A 
ATOM     52  C   UNL     1      17.469   4.602   1.393  1.00  0.00     0.049 A 
ATOM     53  H   UNL     1      17.343   6.681   1.355  1.00  0.00     0.167 HD
ATOM     54  C   UNL     1      16.803  11.041   0.957  1.00  0.00     0.037 A 
ATOM     55  C   UNL     1      18.727   4.276   1.034  1.00  0.00     0.037 A 
ATOM     56  C   UNL     1      18.188  10.793   0.657  1.00  0.00     0.049 A 
ATOM     57  C   UNL     1      19.692   5.375   0.667  1.00  0.00     0.074 A 
ATOM     58  C   UNL     1      19.186  11.710   0.379  1.00  0.00     0.029 A 
ATOM     59  N   UNL     1      18.769   9.534   0.589  1.00  0.00    -0.354 N 
ATOM     60  N   UNL     1      19.489   6.671   0.632  1.00  0.00    -0.248 NA
ATOM     61  C   UNL     1      21.053   4.971   0.291  1.00  0.00     0.031 C 
ATOM     62  C   UNL     1      20.358  11.004   0.092  1.00  0.00     0.029 A 
ATOM     63  C   UNL     1      20.107   9.649   0.252  1.00  0.00     0.049 A 
ATOM     64  H   UNL     1      18.300   8.685   0.755  1.00  0.00     0.167 HD
ATOM     65  C   UNL     1      20.706   7.239   0.268  1.00  0.00     0.074 A 
ATOM     66  C   UNL     1      21.638   6.144   0.090  1.00  0.00     0.031 C 
ATOM     67  C   UNL     1      21.025   8.546   0.103  1.00  0.00     0.037 A 
BRANCH  54  68
ATOM     68  C   UNL     1      16.304  12.459   0.932  1.00  0.00     0.058 A 
ATOM     69  C   UNL     1      15.929  13.135   2.104  1.00  0.00     0.135 A 
ATOM     70  C   UNL     1      16.227  13.162  -0.282  1.00  0.00     0.135 A 
ATOM     71  F   UNL     1      15.964  12.505   3.289  1.00  0.00    -0.206 F 
ATOM     72  C   UNL     1      15.471  14.448   2.070  1.00  0.00     0.059 A 
ATOM     73  C   UNL     1      15.800  14.485  -0.335  1.00  0.00     0.059 A 
ATOM     74  F   UNL     1      16.569  12.562  -1.433  1.00  0.00    -0.206 F 
ATOM     75  C   UNL     1      15.410  15.115   0.845  1.00  0.00     0.060 A 
BRANCH  75  76
ATOM     76  S   UNL     1      14.817  16.820   0.819  1.00  0.00     0.124 S 
ATOM     77  O   UNL     1      13.391  16.635   1.069  1.00  0.00    -0.237 OA
ATOM     78  O   UNL     1      15.576  17.431   1.905  1.00  0.00    -0.237 OA
ATOM     79  O   UNL     1      15.164  17.280  -0.522  1.00  0.00    -0.744 OA
ENDBRANCH  75  76
ENDBRANCH  54  68
BRANCH  55  80
ATOM     80  C   UNL     1      19.137   2.848   0.986  1.00  0.00     0.058 A 
ATOM     81  C   UNL     1      20.050   2.325   1.914  1.00  0.00     0.135 A 
ATOM     82  C   UNL     1      18.613   1.972   0.022  1.00  0.00     0.135 A 
ATOM     83  F   UNL     1      20.587   3.124   2.849  1.00  0.00    -0.206 F 
ATOM     84  C   UNL     1      20.436   0.989   1.883  1.00  0.00     0.059 A 
ATOM     85  C   UNL     1      18.963   0.627  -0.014  1.00  0.00     0.059 A 
ATOM     86  F   UNL     1      17.727   2.420  -0.882  1.00  0.00    -0.206 F 
ATOM     87  C   UNL     1      19.883   0.146   0.917  1.00  0.00     0.060 A 
BRANCH  87  88
ATOM     88  S   UNL     1      20.349  -1.599   0.921  1.00  0.00     0.124 S 
ATOM     89  O   UNL     1      21.719  -1.538   0.426  1.00  0.00    -0.237 OA
ATOM     90  O   UNL     1      20.193  -1.952   2.329  1.00  0.00    -0.237 OA
ATOM     91  O   UNL     1      19.377  -2.208   0.019  1.00  0.00    -0.744 OA
ENDBRANCH  87  88
ENDBRANCH  55  80
BRANCH  67  92
ATOM     92  C   UNL     1      22.452   8.885  -0.229  1.00  0.00     0.058 A 
ATOM     93  C   UNL     1      22.989   8.669  -1.507  1.00  0.00     0.135 A 
ATOM     94  C   UNL     1      23.261   9.525   0.724  1.00  0.00     0.135 A 
ATOM     95  F   UNL     1      22.260   8.055  -2.452  1.00  0.00    -0.206 F 
ATOM     96  C   UNL     1      24.282   9.071  -1.827  1.00  0.00     0.059 A 
ATOM     97  C   UNL     1      24.546   9.960   0.418  1.00  0.00     0.059 A 
ATOM     98  F   UNL     1      22.791   9.764   1.959  1.00  0.00    -0.206 F 
ATOM     99  C   UNL     1      25.050   9.724  -0.860  1.00  0.00     0.060 A 
BRANCH  99 100
ATOM    100  S   UNL     1      26.700  10.302  -1.309  1.00  0.00     0.124 S 
ATOM    101  O   UNL     1      27.444   9.049  -1.374  1.00  0.00    -0.237 OA
ATOM    102  O   UNL     1      26.461  10.964  -2.588  1.00  0.00    -0.237 OA
ATOM    103  O   UNL     1      27.062  11.191  -0.209  1.00  0.00    -0.744 OA
ENDBRANCH  99 100
ENDBRANCH  67  92
ENDBRANCH  41  42
ENDBRANCH  34  36
ENDBRANCH  33  34
ENDBRANCH  32  33
ENDBRANCH  31  32
ENDBRANCH  30  31
ENDBRANCH   1  30
TORSDOF 21
