REMARK SMILES Cc1cc(Nc2ccc(C(=O)OCCOCCOC(=O)c3ccc(-c4c5nc(c(-c6c(F)cc(S(=O)(=O)[O-])cc6F)c6ccc([nH]6)c(-c6c(F)cc(S(=O)(=O)[O-])cc6F)c6nc(c(-c7c(F)cc(S(=O)(=O)[O-])cc7F)c7ccc4[nH]7)C=C6)C=C5)cc3)cc2)nc(C(C)C)n1
REMARK SMILES IDX 15 1 14 2 13 3 12 4 10 5 11 6 9 7 6 8 7 9 88 10 8 11 87 12
REMARK SMILES IDX 5 13 4 15 1 16 2 17 3 18 94 19 90 20 89 21 91 22 92 23 93 24
REMARK SMILES IDX 16 25 17 26 18 27 19 28 20 29 21 30 22 31 86 32 23 33 85 34
REMARK SMILES IDX 24 35 25 36 26 37 79 38 27 39 84 40 78 41 80 42 28 43 83 44
REMARK SMILES IDX 77 45 76 46 29 48 63 49 42 50 62 51 43 52 46 53 61 54 81 55
REMARK SMILES IDX 44 56 45 57 60 59 82 60 47 61 30 62 31 63 40 64 32 65 33 66
REMARK SMILES IDX 39 67 41 68 34 69 35 70 36 71 37 72 38 73 64 74 65 75 74 76
REMARK SMILES IDX 66 77 67 78 73 79 75 80 68 81 69 82 70 83 71 84 72 85 48 86
REMARK SMILES IDX 49 87 58 88 50 89 51 90 57 91 59 92 52 93 53 94 54 95 55 96
REMARK SMILES IDX 56 97
REMARK H PARENT 5 14 80 47 46 58
REMARK Flexibility Score: inf
ROOT
ATOM      1  O   UNL     1       9.917  -3.380   0.126  1.00  0.00    -0.374 OA
ENDROOT
BRANCH   1   2
ATOM      2  C   UNL     1      10.260  -2.151   0.771  1.00  0.00     0.202 C 
BRANCH   2   3
ATOM      3  C   UNL     1       9.584  -0.893   0.217  1.00  0.00     0.261 C 
BRANCH   3   4
ATOM      4  O   UNL     1       8.164  -0.937   0.427  1.00  0.00    -0.460 OA
BRANCH   4   5
ATOM      5  C   UNL     1       7.424  -1.121  -0.690  1.00  0.00     0.338 C 
ATOM      6  O   UNL     1       7.825  -1.111  -1.847  1.00  0.00    -0.246 OA
BRANCH   5   7
ATOM      7  C   UNL     1       6.040  -1.505  -0.333  1.00  0.00     0.060 A 
ATOM      8  C   UNL     1       3.345  -2.147   0.107  1.00  0.00     0.040 A 
ATOM      9  C   UNL     1       4.024  -2.680  -0.993  1.00  0.00     0.027 A 
ATOM     10  C   UNL     1       4.053  -1.353   1.024  1.00  0.00     0.027 A 
ATOM     11  C   UNL     1       5.361  -2.353  -1.218  1.00  0.00     0.018 A 
ATOM     12  C   UNL     1       5.399  -1.039   0.817  1.00  0.00     0.018 A 
BRANCH   8  13
ATOM     13  N   UNL     1       1.936  -2.232   0.153  1.00  0.00    -0.340 N 
ATOM     14  H   UNL     1       1.523  -3.123   0.219  1.00  0.00     0.168 HD
BRANCH  13  15
ATOM     15  C   UNL     1       1.089  -1.102   0.108  1.00  0.00     0.134 A 
ATOM     16  C   UNL     1      -2.547  -0.202   0.046  1.00  0.00     0.067 C 
ATOM     17  C   UNL     1      -1.051  -0.126   0.053  1.00  0.00     0.043 A 
ATOM     18  C   UNL     1      -0.279  -1.270   0.142  1.00  0.00     0.070 A 
ATOM     19  N   UNL     1      -0.514   1.108  -0.028  1.00  0.00    -0.238 NA
ATOM     20  C   UNL     1       0.828   1.185  -0.022  1.00  0.00     0.133 A 
ATOM     21  N   UNL     1       1.638   0.121   0.040  1.00  0.00    -0.216 NA
BRANCH  20  22
ATOM     22  C   UNL     1       1.496   2.538  -0.080  1.00  0.00     0.051 C 
ATOM     23  C   UNL     1       1.126   3.282  -1.361  1.00  0.00     0.016 C 
ATOM     24  C   UNL     1       1.168   3.361   1.163  1.00  0.00     0.016 C 
ENDBRANCH  20  22
ENDBRANCH  13  15
ENDBRANCH   8  13
ENDBRANCH   5   7
ENDBRANCH   4   5
ENDBRANCH   3   4
ENDBRANCH   2   3
ENDBRANCH   1   2
BRANCH   1  25
ATOM     25  C   UNL     1       8.697  -4.003   0.530  1.00  0.00     0.202 C 
BRANCH  25  26
ATOM     26  C   UNL     1       8.747  -4.826   1.822  1.00  0.00     0.261 C 
BRANCH  26  27
ATOM     27  O   UNL     1       8.992  -4.000   2.974  1.00  0.00    -0.460 OA
BRANCH  27  28
ATOM     28  C   UNL     1      10.233  -4.129   3.498  1.00  0.00     0.338 C 
ATOM     29  O   UNL     1      11.095  -4.926   3.152  1.00  0.00    -0.246 OA
BRANCH  28  30
ATOM     30  C   UNL     1      10.504  -3.049   4.466  1.00  0.00     0.060 A 
ATOM     31  C   UNL     1      11.741  -2.403   4.364  1.00  0.00     0.016 A 
ATOM     32  C   UNL     1       9.621  -2.731   5.502  1.00  0.00     0.016 A 
ATOM     33  C   UNL     1      12.140  -1.502   5.346  1.00  0.00     0.010 A 
ATOM     34  C   UNL     1      10.024  -1.825   6.490  1.00  0.00     0.010 A 
ATOM     35  C   UNL     1      11.308  -1.251   6.445  1.00  0.00    -0.014 A 
BRANCH  35  36
ATOM     36  C   UNL     1      11.879  -0.548   7.620  1.00  0.00     0.031 A 
ATOM     37  C   UNL     1      12.369  -1.368   8.786  1.00  0.00     0.074 A 
ATOM     38  C   UNL     1      12.039   0.787   7.617  1.00  0.00     0.049 A 
ATOM     39  N   UNL     1      12.978  -0.980   9.877  1.00  0.00    -0.248 NA
ATOM     40  C   UNL     1      12.143  -2.821   8.709  1.00  0.00     0.031 C 
ATOM     41  C   UNL     1      11.638   1.683   6.534  1.00  0.00     0.029 A 
ATOM     42  N   UNL     1      12.598   1.619   8.554  1.00  0.00    -0.354 N 
ATOM     43  C   UNL     1      13.203  -2.136  10.617  1.00  0.00     0.074 A 
ATOM     44  C   UNL     1      12.634  -3.235   9.867  1.00  0.00     0.031 C 
ATOM     45  C   UNL     1      11.978   2.942   6.862  1.00  0.00     0.029 A 
ATOM     46  C   UNL     1      12.603   2.942   8.184  1.00  0.00     0.049 A 
ATOM     47  H   UNL     1      12.962   1.298   9.411  1.00  0.00     0.167 HD
ATOM     48  C   UNL     1      13.837  -2.274  11.806  1.00  0.00     0.037 A 
ATOM     49  C   UNL     1      13.063   4.027   8.837  1.00  0.00     0.037 A 
ATOM     50  C   UNL     1      14.411  -1.180  12.544  1.00  0.00     0.049 A 
ATOM     51  C   UNL     1      13.727   3.855  10.179  1.00  0.00     0.074 A 
ATOM     52  C   UNL     1      15.100  -1.217  13.744  1.00  0.00     0.029 A 
ATOM     53  N   UNL     1      14.357   0.151  12.156  1.00  0.00    -0.354 N 
ATOM     54  N   UNL     1      13.963   2.752  10.850  1.00  0.00    -0.248 NA
ATOM     55  C   UNL     1      14.195   5.077  10.848  1.00  0.00     0.031 C 
ATOM     56  C   UNL     1      15.423   0.096  14.104  1.00  0.00     0.029 A 
ATOM     57  C   UNL     1      14.979   0.947  13.103  1.00  0.00     0.049 A 
ATOM     58  H   UNL     1      13.939   0.480  11.328  1.00  0.00     0.167 HD
ATOM     59  C   UNL     1      14.641   3.144  12.001  1.00  0.00     0.074 A 
ATOM     60  C   UNL     1      14.777   4.585  11.933  1.00  0.00     0.031 C 
ATOM     61  C   UNL     1      15.114   2.380  13.018  1.00  0.00     0.037 A 
BRANCH  48  62
ATOM     62  C   UNL     1      13.910  -3.657  12.393  1.00  0.00     0.058 A 
ATOM     63  C   UNL     1      14.734  -4.654  11.845  1.00  0.00     0.135 A 
ATOM     64  C   UNL     1      13.143  -3.990  13.520  1.00  0.00     0.135 A 
ATOM     65  F   UNL     1      15.476  -4.395  10.756  1.00  0.00    -0.206 F 
ATOM     66  C   UNL     1      14.766  -5.942  12.371  1.00  0.00     0.059 A 
ATOM     67  C   UNL     1      13.179  -5.264  14.079  1.00  0.00     0.059 A 
ATOM     68  F   UNL     1      12.338  -3.075  14.084  1.00  0.00    -0.206 F 
ATOM     69  C   UNL     1      13.978  -6.239  13.485  1.00  0.00     0.060 A 
BRANCH  69  70
ATOM     70  S   UNL     1      14.009  -7.919  14.145  1.00  0.00     0.124 S 
ATOM     71  O   UNL     1      13.208  -8.634  13.155  1.00  0.00    -0.237 OA
ATOM     72  O   UNL     1      15.435  -8.229  14.149  1.00  0.00    -0.237 OA
ATOM     73  O   UNL     1      13.397  -7.777  15.462  1.00  0.00    -0.744 OA
ENDBRANCH  69  70
ENDBRANCH  48  62
BRANCH  49  74
ATOM     74  C   UNL     1      12.940   5.373   8.219  1.00  0.00     0.058 A 
ATOM     75  C   UNL     1      14.069   6.056   7.744  1.00  0.00     0.135 A 
ATOM     76  C   UNL     1      11.692   6.001   8.086  1.00  0.00     0.135 A 
ATOM     77  F   UNL     1      15.286   5.501   7.857  1.00  0.00    -0.206 F 
ATOM     78  C   UNL     1      13.969   7.319   7.168  1.00  0.00     0.059 A 
ATOM     79  C   UNL     1      11.563   7.253   7.494  1.00  0.00     0.059 A 
ATOM     80  F   UNL     1      10.580   5.385   8.517  1.00  0.00    -0.206 F 
ATOM     81  C   UNL     1      12.710   7.908   7.045  1.00  0.00     0.060 A 
BRANCH  81  82
ATOM     82  S   UNL     1      12.583   9.524   6.248  1.00  0.00     0.124 S 
ATOM     83  O   UNL     1      13.115  10.404   7.281  1.00  0.00    -0.237 OA
ATOM     84  O   UNL     1      13.419   9.348   5.064  1.00  0.00    -0.237 OA
ATOM     85  O   UNL     1      11.153   9.654   5.981  1.00  0.00    -0.744 OA
ENDBRANCH  81  82
ENDBRANCH  49  74
BRANCH  61  86
ATOM     86  C   UNL     1      15.864   3.082  14.117  1.00  0.00     0.058 A 
ATOM     87  C   UNL     1      15.213   3.888  15.062  1.00  0.00     0.135 A 
ATOM     88  C   UNL     1      17.254   2.918  14.241  1.00  0.00     0.135 A 
ATOM     89  F   UNL     1      13.886   4.080  14.988  1.00  0.00    -0.206 F 
ATOM     90  C   UNL     1      15.917   4.537  16.072  1.00  0.00     0.059 A 
ATOM     91  C   UNL     1      17.974   3.536  15.258  1.00  0.00     0.059 A 
ATOM     92  F   UNL     1      17.925   2.146  13.371  1.00  0.00    -0.206 F 
ATOM     93  C   UNL     1      17.299   4.358  16.159  1.00  0.00     0.060 A 
BRANCH  93  94
ATOM     94  S   UNL     1      18.204   5.197  17.477  1.00  0.00     0.124 S 
ATOM     95  O   UNL     1      18.263   6.563  16.969  1.00  0.00    -0.237 OA
ATOM     96  O   UNL     1      17.339   4.988  18.635  1.00  0.00    -0.237 OA
ATOM     97  O   UNL     1      19.478   4.486  17.520  1.00  0.00    -0.744 OA
ENDBRANCH  93  94
ENDBRANCH  61  86
ENDBRANCH  35  36
ENDBRANCH  28  30
ENDBRANCH  27  28
ENDBRANCH  26  27
ENDBRANCH  25  26
ENDBRANCH   1  25
TORSDOF 20
