REMARK SMILES CCC[C@@H]([NH2+]C[C@H]1CSc2ccccc21)C(=O)OCCOCCOC(=O)c1ccc(-c2c3nc(c(-c4c(F)cc(S(=O)(=O)[O-])cc4F)c4ccc([nH]4)c(-c4c(F)cc(S(=O)(=O)[O-])cc4F)c4nc(c(-c5c(F)cc(S(=O)(=O)[O-])cc5F)c5ccc2[nH]5)C=C4)C=C3)cc1
REMARK SMILES IDX 21 1 20 2 19 3 18 4 16 5 17 6 4 7 3 8 2 9 1 10 5 11 6 14
REMARK SMILES IDX 7 15 8 16 15 17 9 18 10 19 14 20 11 21 13 22 12 23 22 24
REMARK SMILES IDX 23 25 24 26 25 27 26 28 27 29 28 30 92 31 29 32 91 33 30 34
REMARK SMILES IDX 31 35 32 36 85 37 33 38 90 39 84 40 86 41 34 42 89 43 83 44
REMARK SMILES IDX 82 45 35 47 69 48 48 49 68 50 49 51 52 52 67 53 87 54 50 55
REMARK SMILES IDX 51 56 66 58 88 59 53 60 36 61 37 62 46 63 38 64 39 65 45 66
REMARK SMILES IDX 47 67 40 68 41 69 42 70 43 71 44 72 70 73 71 74 80 75 72 76
REMARK SMILES IDX 73 77 79 78 81 79 74 80 75 81 76 82 77 83 78 84 54 85 55 86
REMARK SMILES IDX 64 87 56 88 57 89 63 90 65 91 58 92 59 93 60 94 61 95 62 96
REMARK H PARENT 5 12 5 13 86 46 52 57
REMARK Flexibility Score: inf
ROOT
ATOM      1  O   UNL     1       3.227   5.004  -3.088  1.00  0.00    -0.374 OA
ENDROOT
BRANCH   1   2
ATOM      2  C   UNL     1       2.471   6.170  -2.786  1.00  0.00     0.202 C 
BRANCH   2   3
ATOM      3  C   UNL     1       0.978   6.053  -2.437  1.00  0.00     0.261 C 
BRANCH   3   4
ATOM      4  O   UNL     1       0.651   4.967  -1.562  1.00  0.00    -0.459 OA
BRANCH   4   5
ATOM      5  C   UNL     1       0.386   3.826  -2.247  1.00  0.00     0.364 C 
ATOM      6  O   UNL     1       0.466   3.744  -3.474  1.00  0.00    -0.245 OA
BRANCH   5   7
ATOM      7  C   UNL     1       0.038   2.603  -1.366  1.00  0.00     0.293 C 
BRANCH   7   8
ATOM      8  C   UNL     1       0.365   2.773   0.133  1.00  0.00     0.077 C 
BRANCH   8   9
ATOM      9  C   UNL     1       0.168   1.522   1.009  1.00  0.00     0.003 C 
ATOM     10  C   UNL     1       0.849   0.264   0.490  1.00  0.00     0.004 C 
ENDBRANCH   8   9
ENDBRANCH   7   8
BRANCH   7  11
ATOM     11  N   UNL     1      -1.358   2.165  -1.571  1.00  0.00    -0.334 N 
ATOM     12  H   UNL     1      -1.959   2.763  -1.004  1.00  0.00     0.347 HD
ATOM     13  H   UNL     1      -1.379   1.181  -1.306  1.00  0.00     0.347 HD
BRANCH  11  14
ATOM     14  C   UNL     1      -1.852   2.213  -2.953  1.00  0.00     0.270 C 
BRANCH  14  15
ATOM     15  C   UNL     1      -1.414   1.150  -4.001  1.00  0.00     0.086 C 
ATOM     16  C   UNL     1       0.071   0.755  -4.133  1.00  0.00     0.089 C 
ATOM     17  C   UNL     1      -2.165  -0.139  -3.771  1.00  0.00    -0.025 A 
ATOM     18  S   UNL     1       0.328  -0.822  -3.254  1.00  0.00    -0.125 SA
ATOM     19  C   UNL     1      -1.392  -1.200  -3.301  1.00  0.00     0.011 A 
ATOM     20  C   UNL     1      -3.541  -0.279  -3.926  1.00  0.00     0.005 A 
ATOM     21  C   UNL     1      -1.982  -2.395  -2.926  1.00  0.00     0.015 A 
ATOM     22  C   UNL     1      -4.141  -1.480  -3.561  1.00  0.00     0.000 A 
ATOM     23  C   UNL     1      -3.367  -2.530  -3.051  1.00  0.00     0.001 A 
ENDBRANCH  14  15
ENDBRANCH  11  14
ENDBRANCH   7  11
ENDBRANCH   5   7
ENDBRANCH   4   5
ENDBRANCH   3   4
ENDBRANCH   2   3
ENDBRANCH   1   2
BRANCH   1  24
ATOM     24  C   UNL     1       3.524   4.057  -2.064  1.00  0.00     0.202 C 
BRANCH  24  25
ATOM     25  C   UNL     1       4.216   4.515  -0.776  1.00  0.00     0.261 C 
BRANCH  25  26
ATOM     26  O   UNL     1       3.430   5.455  -0.025  1.00  0.00    -0.460 OA
BRANCH  26  27
ATOM     27  C   UNL     1       4.007   6.672   0.129  1.00  0.00     0.338 C 
ATOM     28  O   UNL     1       5.122   7.010  -0.245  1.00  0.00    -0.246 OA
BRANCH  27  29
ATOM     29  C   UNL     1       3.011   7.639   0.621  1.00  0.00     0.060 A 
ATOM     30  C   UNL     1       2.361   7.457   1.840  1.00  0.00     0.016 A 
ATOM     31  C   UNL     1       2.799   8.800  -0.137  1.00  0.00     0.016 A 
ATOM     32  C   UNL     1       1.535   8.475   2.326  1.00  0.00     0.010 A 
ATOM     33  C   UNL     1       1.972   9.810   0.347  1.00  0.00     0.010 A 
ATOM     34  C   UNL     1       1.365   9.671   1.601  1.00  0.00    -0.014 A 
BRANCH  34  35
ATOM     35  C   UNL     1       0.724  10.847   2.241  1.00  0.00     0.031 A 
ATOM     36  C   UNL     1      -0.632  11.334   1.829  1.00  0.00     0.074 A 
ATOM     37  C   UNL     1       1.423  11.504   3.187  1.00  0.00     0.049 A 
ATOM     38  N   UNL     1      -1.348  12.295   2.354  1.00  0.00    -0.248 NA
ATOM     39  C   UNL     1      -1.262  10.672   0.678  1.00  0.00     0.031 C 
ATOM     40  C   UNL     1       2.783  11.160   3.612  1.00  0.00     0.029 A 
ATOM     41  N   UNL     1       1.095  12.583   3.967  1.00  0.00    -0.354 N 
ATOM     42  C   UNL     1      -2.525  12.338   1.620  1.00  0.00     0.074 A 
ATOM     43  C   UNL     1      -2.402  11.345   0.572  1.00  0.00     0.031 C 
ATOM     44  C   UNL     1       3.154  11.981   4.605  1.00  0.00     0.029 A 
ATOM     45  C   UNL     1       2.075  12.928   4.869  1.00  0.00     0.049 A 
ATOM     46  H   UNL     1       0.240  13.066   3.889  1.00  0.00     0.167 HD
ATOM     47  C   UNL     1      -3.614  13.120   1.822  1.00  0.00     0.037 A 
ATOM     48  C   UNL     1       2.100  13.889   5.812  1.00  0.00     0.037 A 
ATOM     49  C   UNL     1      -3.709  14.118   2.859  1.00  0.00     0.049 A 
ATOM     50  C   UNL     1       0.890  14.762   5.998  1.00  0.00     0.074 A 
ATOM     51  C   UNL     1      -4.786  14.931   3.170  1.00  0.00     0.029 A 
ATOM     52  N   UNL     1      -2.692  14.452   3.742  1.00  0.00    -0.354 N 
ATOM     53  N   UNL     1      -0.254  14.726   5.358  1.00  0.00    -0.248 NA
ATOM     54  C   UNL     1       0.967  15.800   7.035  1.00  0.00     0.031 C 
ATOM     55  C   UNL     1      -4.402  15.793   4.200  1.00  0.00     0.029 A 
ATOM     56  C   UNL     1      -3.107  15.476   4.578  1.00  0.00     0.049 A 
ATOM     57  H   UNL     1      -1.806  14.024   3.770  1.00  0.00     0.167 HD
ATOM     58  C   UNL     1      -1.043  15.715   5.934  1.00  0.00     0.074 A 
ATOM     59  C   UNL     1      -0.249  16.329   6.977  1.00  0.00     0.031 C 
ATOM     60  C   UNL     1      -2.313  16.074   5.625  1.00  0.00     0.037 A 
BRANCH  47  61
ATOM     61  C   UNL     1      -4.805  12.921   0.925  1.00  0.00     0.058 A 
ATOM     62  C   UNL     1      -5.598  11.765   1.014  1.00  0.00     0.135 A 
ATOM     63  C   UNL     1      -5.216  13.927   0.035  1.00  0.00     0.135 A 
ATOM     64  F   UNL     1      -5.251  10.768   1.843  1.00  0.00    -0.206 F 
ATOM     65  C   UNL     1      -6.743  11.607   0.240  1.00  0.00     0.059 A 
ATOM     66  C   UNL     1      -6.374  13.802  -0.729  1.00  0.00     0.059 A 
ATOM     67  F   UNL     1      -4.499  15.056  -0.087  1.00  0.00    -0.206 F 
ATOM     68  C   UNL     1      -7.126  12.633  -0.625  1.00  0.00     0.060 A 
BRANCH  68  69
ATOM     69  S   UNL     1      -8.623  12.410  -1.608  1.00  0.00     0.124 S 
ATOM     70  O   UNL     1      -8.220  11.339  -2.515  1.00  0.00    -0.237 OA
ATOM     71  O   UNL     1      -9.607  12.043  -0.595  1.00  0.00    -0.237 OA
ATOM     72  O   UNL     1      -8.822  13.715  -2.231  1.00  0.00    -0.744 OA
ENDBRANCH  68  69
ENDBRANCH  47  61
BRANCH  48  73
ATOM     73  C   UNL     1       3.296  14.030   6.684  1.00  0.00     0.058 A 
ATOM     74  C   UNL     1       3.244  13.674   8.039  1.00  0.00     0.135 A 
ATOM     75  C   UNL     1       4.525  14.473   6.171  1.00  0.00     0.135 A 
ATOM     76  F   UNL     1       2.091  13.245   8.576  1.00  0.00    -0.206 F 
ATOM     77  C   UNL     1       4.364  13.760   8.858  1.00  0.00     0.059 A 
ATOM     78  C   UNL     1       5.667  14.542   6.963  1.00  0.00     0.059 A 
ATOM     79  F   UNL     1       4.633  14.806   4.875  1.00  0.00    -0.206 F 
ATOM     80  C   UNL     1       5.574  14.189   8.309  1.00  0.00     0.060 A 
BRANCH  80  81
ATOM     81  S   UNL     1       7.032  14.244   9.372  1.00  0.00     0.124 S 
ATOM     82  O   UNL     1       6.695  15.336  10.277  1.00  0.00    -0.237 OA
ATOM     83  O   UNL     1       7.031  12.906   9.957  1.00  0.00    -0.237 OA
ATOM     84  O   UNL     1       8.121  14.512   8.438  1.00  0.00    -0.744 OA
ENDBRANCH  80  81
ENDBRANCH  48  73
BRANCH  60  85
ATOM     85  C   UNL     1      -2.957  17.166   6.434  1.00  0.00     0.058 A 
ATOM     86  C   UNL     1      -2.607  18.514   6.263  1.00  0.00     0.135 A 
ATOM     87  C   UNL     1      -4.025  16.870   7.298  1.00  0.00     0.135 A 
ATOM     88  F   UNL     1      -1.587  18.851   5.458  1.00  0.00    -0.206 F 
ATOM     89  C   UNL     1      -3.298  19.531   6.914  1.00  0.00     0.059 A 
ATOM     90  C   UNL     1      -4.747  17.873   7.938  1.00  0.00     0.059 A 
ATOM     91  F   UNL     1      -4.404  15.597   7.493  1.00  0.00    -0.206 F 
ATOM     92  C   UNL     1      -4.378  19.201   7.736  1.00  0.00     0.060 A 
BRANCH  92  93
ATOM     93  S   UNL     1      -5.322  20.540   8.496  1.00  0.00     0.124 S 
ATOM     94  O   UNL     1      -4.360  21.075   9.454  1.00  0.00    -0.237 OA
ATOM     95  O   UNL     1      -5.619  21.396   7.352  1.00  0.00    -0.237 OA
ATOM     96  O   UNL     1      -6.474  19.859   9.079  1.00  0.00    -0.744 OA
ENDBRANCH  92  93
ENDBRANCH  60  85
ENDBRANCH  34  35
ENDBRANCH  27  29
ENDBRANCH  26  27
ENDBRANCH  25  26
ENDBRANCH  24  25
ENDBRANCH   1  24
TORSDOF 22
