REMARK SMILES Cc1ccccc1NC(=O)NC[C@@H]1CC[C@@H](C(=O)OCCOCCOC(=O)c2ccc(-c3c4nc(c(-c5c(F)cc(S(=O)(=O)[O-])cc5F)c5ccc([nH]5)c(-c5c(F)cc(S(=O)(=O)[O-])cc5F)c5nc(c(-c6c(F)cc(S(=O)(=O)[O-])cc6F)c6ccc3[nH]6)C=C5)C=C4)cc2)O1
REMARK SMILES IDX 22 1 21 2 20 3 19 4 17 5 18 6 16 7 13 8 14 9 94 10 15 11
REMARK SMILES IDX 12 12 11 13 8 14 9 15 10 17 7 19 1 20 2 21 3 22 4 23 6 24
REMARK SMILES IDX 5 25 23 26 24 27 25 28 26 29 27 30 28 31 29 32 93 33 30 34
REMARK SMILES IDX 92 35 31 36 32 37 33 38 86 39 34 40 91 41 85 42 87 43 35 44
REMARK SMILES IDX 90 45 84 46 83 47 36 49 70 50 49 51 69 52 50 53 53 54 68 55
REMARK SMILES IDX 88 56 51 57 52 58 67 60 89 61 54 62 37 63 38 64 47 65 39 66
REMARK SMILES IDX 40 67 46 68 48 69 41 70 42 71 43 72 44 73 45 74 71 75 72 76
REMARK SMILES IDX 81 77 73 78 74 79 80 80 82 81 75 82 76 83 77 84 78 85 79 86
REMARK SMILES IDX 55 87 56 88 65 89 57 90 58 91 64 92 66 93 59 94 60 95 61 96
REMARK SMILES IDX 62 97 63 98
REMARK H PARENT 8 16 11 18 87 48 53 59
REMARK Flexibility Score: inf
ROOT
ATOM      1  O   UNL     1      -4.283   3.848   4.180  1.00  0.00    -0.374 OA
ENDROOT
BRANCH   1   2
ATOM      2  C   UNL     1      -4.859   2.651   4.678  1.00  0.00     0.202 C 
BRANCH   2   3
ATOM      3  C   UNL     1      -6.287   2.639   4.205  1.00  0.00     0.261 C 
BRANCH   3   4
ATOM      4  O   UNL     1      -6.435   2.546   2.773  1.00  0.00    -0.461 OA
BRANCH   4   5
ATOM      5  C   UNL     1      -5.923   3.514   1.954  1.00  0.00     0.335 C 
ATOM      6  O   UNL     1      -5.854   4.715   2.187  1.00  0.00    -0.249 OA
BRANCH   5   7
ATOM      7  C   UNL     1      -5.397   2.857   0.686  1.00  0.00     0.228 C 
ATOM      8  C   UNL     1      -3.097   2.634   0.375  1.00  0.00     0.138 C 
ATOM      9  C   UNL     1      -3.707   1.249   0.287  1.00  0.00     0.037 C 
ATOM     10  O   UNL     1      -4.216   3.510   0.170  1.00  0.00    -0.361 OA
ATOM     11  C   UNL     1      -5.011   1.416   0.981  1.00  0.00     0.047 C 
BRANCH   8  12
ATOM     12  C   UNL     1      -1.988   2.890  -0.665  1.00  0.00     0.149 C 
BRANCH  12  13
ATOM     13  N   UNL     1      -0.835   3.575  -0.079  1.00  0.00    -0.335 N 
ATOM     14  N   UNL     1       1.044   2.084   0.119  1.00  0.00    -0.308 N 
ATOM     15  C   UNL     1       0.447   3.288   0.166  1.00  0.00     0.319 C 
ATOM     16  H   UNL     1       2.023   2.177   0.085  1.00  0.00     0.171 HD
ATOM     17  O   UNL     1       1.189   4.250   0.410  1.00  0.00    -0.249 OA
ATOM     18  H   UNL     1      -1.065   4.488   0.212  1.00  0.00     0.165 HD
BRANCH  14  19
ATOM     19  C   UNL     1       0.665   0.731   0.104  1.00  0.00     0.045 A 
ATOM     20  C   UNL     1       3.072  -0.090  -0.272  1.00  0.00     0.046 C 
ATOM     21  C   UNL     1       1.584  -0.288  -0.210  1.00  0.00    -0.027 A 
ATOM     22  C   UNL     1       1.127  -1.617  -0.368  1.00  0.00     0.005 A 
ATOM     23  C   UNL     1      -0.206  -1.949  -0.177  1.00  0.00     0.000 A 
ATOM     24  C   UNL     1      -0.605   0.332   0.475  1.00  0.00     0.026 A 
ATOM     25  C   UNL     1      -1.066  -0.976   0.290  1.00  0.00     0.002 A 
ENDBRANCH  14  19
ENDBRANCH  12  13
ENDBRANCH   8  12
ENDBRANCH   5   7
ENDBRANCH   4   5
ENDBRANCH   3   4
ENDBRANCH   2   3
ENDBRANCH   1   2
BRANCH   1  26
ATOM     26  C   UNL     1      -2.927   4.085   4.484  1.00  0.00     0.202 C 
BRANCH  26  27
ATOM     27  C   UNL     1      -2.616   4.073   5.985  1.00  0.00     0.261 C 
BRANCH  27  28
ATOM     28  O   UNL     1      -3.164   5.237   6.640  1.00  0.00    -0.460 OA
BRANCH  28  29
ATOM     29  C   UNL     1      -4.287   5.035   7.393  1.00  0.00     0.338 C 
ATOM     30  O   UNL     1      -4.281   4.522   8.496  1.00  0.00    -0.246 OA
BRANCH  29  31
ATOM     31  C   UNL     1      -5.491   5.541   6.671  1.00  0.00     0.060 A 
ATOM     32  C   UNL     1      -6.794   5.141   7.026  1.00  0.00     0.016 A 
ATOM     33  C   UNL     1      -5.294   6.269   5.506  1.00  0.00     0.016 A 
ATOM     34  C   UNL     1      -7.871   5.338   6.137  1.00  0.00     0.010 A 
ATOM     35  C   UNL     1      -6.327   6.372   4.603  1.00  0.00     0.010 A 
ATOM     36  C   UNL     1      -7.619   5.887   4.884  1.00  0.00    -0.014 A 
BRANCH  36  37
ATOM     37  C   UNL     1      -8.527   5.992   3.729  1.00  0.00     0.031 A 
ATOM     38  C   UNL     1      -8.699   7.351   3.154  1.00  0.00     0.074 A 
ATOM     39  C   UNL     1      -8.804   4.907   2.959  1.00  0.00     0.049 A 
ATOM     40  N   UNL     1      -9.298   7.596   2.046  1.00  0.00    -0.248 NA
ATOM     41  C   UNL     1      -8.203   8.572   3.790  1.00  0.00     0.031 C 
ATOM     42  C   UNL     1      -8.957   4.857   1.499  1.00  0.00     0.029 A 
ATOM     43  N   UNL     1      -8.989   3.571   3.321  1.00  0.00    -0.354 N 
ATOM     44  C   UNL     1      -8.968   8.870   1.650  1.00  0.00     0.074 A 
ATOM     45  C   UNL     1      -8.387   9.473   2.820  1.00  0.00     0.031 C 
ATOM     46  C   UNL     1      -9.454   3.664   1.126  1.00  0.00     0.029 A 
ATOM     47  C   UNL     1      -9.778   2.946   2.343  1.00  0.00     0.049 A 
ATOM     48  H   UNL     1      -8.626   3.140   4.128  1.00  0.00     0.167 HD
ATOM     49  C   UNL     1      -9.144   9.181   0.334  1.00  0.00     0.037 A 
ATOM     50  C   UNL     1     -10.971   2.395   2.689  1.00  0.00     0.037 A 
ATOM     51  C   UNL     1      -9.916   8.111  -0.326  1.00  0.00     0.049 A 
ATOM     52  C   UNL     1     -12.052   3.197   2.017  1.00  0.00     0.074 A 
ATOM     53  C   UNL     1      -9.613   7.121  -1.244  1.00  0.00     0.029 A 
ATOM     54  N   UNL     1     -11.162   7.773   0.209  1.00  0.00    -0.354 N 
ATOM     55  N   UNL     1     -11.870   4.434   1.631  1.00  0.00    -0.248 NA
ATOM     56  C   UNL     1     -13.328   2.656   1.568  1.00  0.00     0.031 C 
ATOM     57  C   UNL     1     -10.652   6.141  -1.183  1.00  0.00     0.029 A 
ATOM     58  C   UNL     1     -11.600   6.548  -0.253  1.00  0.00     0.049 A 
ATOM     59  H   UNL     1     -11.666   8.339   0.838  1.00  0.00     0.167 HD
ATOM     60  C   UNL     1     -12.892   4.818   0.821  1.00  0.00     0.074 A 
ATOM     61  C   UNL     1     -13.805   3.687   0.846  1.00  0.00     0.031 C 
ATOM     62  C   UNL     1     -12.900   6.014   0.162  1.00  0.00     0.037 A 
BRANCH  49  63
ATOM     63  C   UNL     1      -8.533  10.359  -0.412  1.00  0.00     0.058 A 
ATOM     64  C   UNL     1      -8.797  10.537  -1.790  1.00  0.00     0.135 A 
ATOM     65  C   UNL     1      -7.626  11.302   0.123  1.00  0.00     0.135 A 
ATOM     66  F   UNL     1      -9.617   9.711  -2.454  1.00  0.00    -0.206 F 
ATOM     67  C   UNL     1      -8.220  11.555  -2.560  1.00  0.00     0.059 A 
ATOM     68  C   UNL     1      -7.064  12.349  -0.618  1.00  0.00     0.059 A 
ATOM     69  F   UNL     1      -7.191  11.245   1.385  1.00  0.00    -0.206 F 
ATOM     70  C   UNL     1      -7.358  12.464  -1.965  1.00  0.00     0.060 A 
BRANCH  70  71
ATOM     71  S   UNL     1      -6.625  13.775  -2.962  1.00  0.00     0.124 S 
ATOM     72  O   UNL     1      -5.804  13.019  -3.903  1.00  0.00    -0.237 OA
ATOM     73  O   UNL     1      -7.801  14.428  -3.526  1.00  0.00    -0.237 OA
ATOM     74  O   UNL     1      -5.881  14.571  -1.989  1.00  0.00    -0.744 OA
ENDBRANCH  70  71
ENDBRANCH  49  63
BRANCH  50  75
ATOM     75  C   UNL     1     -10.889   1.762   4.049  1.00  0.00     0.058 A 
ATOM     76  C   UNL     1     -10.115   0.577   4.122  1.00  0.00     0.135 A 
ATOM     77  C   UNL     1     -10.958   2.537   5.220  1.00  0.00     0.135 A 
ATOM     78  F   UNL     1     -10.003  -0.213   3.040  1.00  0.00    -0.206 F 
ATOM     79  C   UNL     1      -9.302   0.279   5.220  1.00  0.00     0.059 A 
ATOM     80  C   UNL     1     -10.142   2.258   6.329  1.00  0.00     0.059 A 
ATOM     81  F   UNL     1     -11.666   3.675   5.230  1.00  0.00    -0.206 F 
ATOM     82  C   UNL     1      -9.272   1.164   6.294  1.00  0.00     0.060 A 
BRANCH  82  83
ATOM     83  S   UNL     1      -7.941   0.988   7.524  1.00  0.00     0.124 S 
ATOM     84  O   UNL     1      -8.393  -0.163   8.296  1.00  0.00    -0.237 OA
ATOM     85  O   UNL     1      -6.762   0.758   6.690  1.00  0.00    -0.237 OA
ATOM     86  O   UNL     1      -7.959   2.270   8.218  1.00  0.00    -0.744 OA
ENDBRANCH  82  83
ENDBRANCH  50  75
BRANCH  62  87
ATOM     87  C   UNL     1     -14.166   6.748  -0.208  1.00  0.00     0.058 A 
ATOM     88  C   UNL     1     -15.424   6.446   0.345  1.00  0.00     0.135 A 
ATOM     89  C   UNL     1     -14.124   7.915  -1.009  1.00  0.00     0.135 A 
ATOM     90  F   UNL     1     -15.592   5.466   1.243  1.00  0.00    -0.206 F 
ATOM     91  C   UNL     1     -16.569   7.172   0.039  1.00  0.00     0.059 A 
ATOM     92  C   UNL     1     -15.241   8.704  -1.259  1.00  0.00     0.059 A 
ATOM     93  F   UNL     1     -12.986   8.357  -1.564  1.00  0.00    -0.206 F 
ATOM     94  C   UNL     1     -16.469   8.298  -0.766  1.00  0.00     0.060 A 
BRANCH  94  95
ATOM     95  S   UNL     1     -17.955   9.233  -1.135  1.00  0.00     0.124 S 
ATOM     96  O   UNL     1     -18.550   8.417  -2.188  1.00  0.00    -0.237 OA
ATOM     97  O   UNL     1     -18.659   9.223   0.144  1.00  0.00    -0.237 OA
ATOM     98  O   UNL     1     -17.444  10.534  -1.553  1.00  0.00    -0.744 OA
ENDBRANCH  94  95
ENDBRANCH  62  87
ENDBRANCH  36  37
ENDBRANCH  29  31
ENDBRANCH  28  29
ENDBRANCH  27  28
ENDBRANCH  26  27
ENDBRANCH   1  26
TORSDOF 20
