REMARK SMILES CC(C)C[C@@H](CNC(=O)[C@@H]1CCOC1)C(=O)OCCOCCOC(=O)c1ccc(-c2c3nc(c(-c4c(F)cc(S(=O)(=O)[O-])cc4F)c4ccc([nH]4)c(-c4c(F)cc(S(=O)(=O)[O-])cc4F)c4nc(c(-c5c(F)cc(S(=O)(=O)[O-])cc5F)c5ccc2[nH]5)C=C4)C=C3)cc1
REMARK SMILES IDX 20 1 19 2 18 3 17 4 15 5 16 6 5 7 4 8 2 9 1 10 3 11 6 12
REMARK SMILES IDX 7 13 8 14 9 16 10 17 11 18 14 19 12 20 13 21 21 22 22 23
REMARK SMILES IDX 23 24 24 25 25 26 26 27 27 28 91 29 28 30 90 31 29 32 30 33
REMARK SMILES IDX 31 34 84 35 32 36 89 37 83 38 85 39 33 40 88 41 82 42 81 43
REMARK SMILES IDX 34 45 68 46 47 47 67 48 48 49 51 50 66 51 86 52 49 53 50 54
REMARK SMILES IDX 65 56 87 57 52 58 35 59 36 60 45 61 37 62 38 63 44 64 46 65
REMARK SMILES IDX 39 66 40 67 41 68 42 69 43 70 69 71 70 72 79 73 71 74 72 75
REMARK SMILES IDX 78 76 80 77 73 78 74 79 75 80 76 81 77 82 53 83 54 84 63 85
REMARK SMILES IDX 55 86 56 87 62 88 64 89 57 90 58 91 59 92 60 93 61 94
REMARK H PARENT 7 15 85 44 51 55
REMARK Flexibility Score: inf
ROOT
ATOM      1  O   UNL     1      -5.433  -0.078  -0.647  1.00  0.00    -0.374 OA
ENDROOT
BRANCH   1   2
ATOM      2  C   UNL     1      -5.838   0.392   0.635  1.00  0.00     0.202 C 
BRANCH   2   3
ATOM      3  C   UNL     1      -5.084  -0.146   1.852  1.00  0.00     0.261 C 
BRANCH   3   4
ATOM      4  O   UNL     1      -3.690   0.216   1.889  1.00  0.00    -0.463 OA
BRANCH   4   5
ATOM      5  C   UNL     1      -2.823  -0.796   1.616  1.00  0.00     0.310 C 
ATOM      6  O   UNL     1      -3.146  -1.920   1.250  1.00  0.00    -0.252 OA
BRANCH   5   7
ATOM      7  C   UNL     1      -1.371  -0.401   1.794  1.00  0.00     0.118 C 
BRANCH   7   8
ATOM      8  C   UNL     1      -1.008   0.979   1.212  1.00  0.00     0.020 C 
BRANCH   8   9
ATOM      9  C   UNL     1       0.507   1.206   0.989  1.00  0.00    -0.017 C 
ATOM     10  C   UNL     1       1.130   0.173   0.043  1.00  0.00     0.007 C 
ATOM     11  C   UNL     1       0.751   2.608   0.420  1.00  0.00     0.007 C 
ENDBRANCH   8   9
ENDBRANCH   7   8
BRANCH   7  12
ATOM     12  C   UNL     1      -0.934  -0.642   3.240  1.00  0.00     0.131 C 
BRANCH  12  13
ATOM     13  N   UNL     1      -1.501   0.272   4.214  1.00  0.00    -0.355 N 
ATOM     14  C   UNL     1      -2.224   0.071   5.344  1.00  0.00     0.225 C 
ATOM     15  H   UNL     1      -1.328   1.221   4.016  1.00  0.00     0.163 HD
ATOM     16  O   UNL     1      -2.483   1.083   6.006  1.00  0.00    -0.275 OA
BRANCH  14  17
ATOM     17  C   UNL     1      -2.734  -1.283   5.824  1.00  0.00     0.106 C 
ATOM     18  C   UNL     1      -1.691  -2.356   6.041  1.00  0.00     0.044 C 
ATOM     19  C   UNL     1      -3.748  -1.906   4.897  1.00  0.00     0.173 C 
ATOM     20  C   UNL     1      -2.054  -3.468   5.074  1.00  0.00     0.161 C 
ATOM     21  O   UNL     1      -3.090  -2.979   4.221  1.00  0.00    -0.381 OA
ENDBRANCH  14  17
ENDBRANCH  12  13
ENDBRANCH   7  12
ENDBRANCH   5   7
ENDBRANCH   4   5
ENDBRANCH   3   4
ENDBRANCH   2   3
ENDBRANCH   1   2
BRANCH   1  22
ATOM     22  C   UNL     1      -4.211   0.426  -1.179  1.00  0.00     0.202 C 
BRANCH  22  23
ATOM     23  C   UNL     1      -4.214   1.872  -1.687  1.00  0.00     0.261 C 
BRANCH  23  24
ATOM     24  O   UNL     1      -4.486   2.832  -0.648  1.00  0.00    -0.460 OA
BRANCH  24  25
ATOM     25  C   UNL     1      -5.648   3.510  -0.810  1.00  0.00     0.338 C 
ATOM     26  O   UNL     1      -6.413   3.436  -1.766  1.00  0.00    -0.246 OA
BRANCH  25  27
ATOM     27  C   UNL     1      -6.003   4.268   0.403  1.00  0.00     0.060 A 
ATOM     28  C   UNL     1      -7.280   4.053   0.935  1.00  0.00     0.016 A 
ATOM     29  C   UNL     1      -5.173   5.260   0.932  1.00  0.00     0.016 A 
ATOM     30  C   UNL     1      -7.762   4.878   1.947  1.00  0.00     0.010 A 
ATOM     31  C   UNL     1      -5.663   6.093   1.948  1.00  0.00     0.010 A 
ATOM     32  C   UNL     1      -6.977   5.936   2.425  1.00  0.00    -0.014 A 
BRANCH  32  33
ATOM     33  C   UNL     1      -7.616   6.949   3.303  1.00  0.00     0.031 A 
ATOM     34  C   UNL     1      -8.123   8.233   2.698  1.00  0.00     0.074 A 
ATOM     35  C   UNL     1      -7.833   6.685   4.605  1.00  0.00     0.049 A 
ATOM     36  N   UNL     1      -8.786   9.210   3.261  1.00  0.00    -0.248 NA
ATOM     37  C   UNL     1      -7.851   8.440   1.266  1.00  0.00     0.031 C 
ATOM     38  C   UNL     1      -7.410   5.471   5.301  1.00  0.00     0.029 A 
ATOM     39  N   UNL     1      -8.475   7.421   5.569  1.00  0.00    -0.354 N 
ATOM     40  C   UNL     1      -9.024  10.139   2.253  1.00  0.00     0.074 A 
ATOM     41  C   UNL     1      -8.397   9.629   1.053  1.00  0.00     0.031 C 
ATOM     42  C   UNL     1      -7.803   5.546   6.585  1.00  0.00     0.029 A 
ATOM     43  C   UNL     1      -8.493   6.816   6.803  1.00  0.00     0.049 A 
ATOM     44  H   UNL     1      -8.884   8.299   5.394  1.00  0.00     0.167 HD
ATOM     45  C   UNL     1      -9.718  11.301   2.316  1.00  0.00     0.037 A 
ATOM     46  C   UNL     1      -9.004   7.240   7.975  1.00  0.00     0.037 A 
ATOM     47  C   UNL     1     -10.337  11.812   3.512  1.00  0.00     0.049 A 
ATOM     48  C   UNL     1      -9.738   8.555   8.029  1.00  0.00     0.074 A 
ATOM     49  C   UNL     1     -11.056  12.983   3.678  1.00  0.00     0.029 A 
ATOM     50  N   UNL     1     -10.311  11.182   4.747  1.00  0.00    -0.354 N 
ATOM     51  N   UNL     1      -9.968   9.412   7.062  1.00  0.00    -0.248 NA
ATOM     52  C   UNL     1     -10.294   8.953   9.330  1.00  0.00     0.031 C 
ATOM     53  C   UNL     1     -11.436  13.078   5.022  1.00  0.00     0.029 A 
ATOM     54  C   UNL     1     -10.989  11.946   5.684  1.00  0.00     0.049 A 
ATOM     55  H   UNL     1      -9.875  10.319   4.932  1.00  0.00     0.167 HD
ATOM     56  C   UNL     1     -10.705  10.444   7.636  1.00  0.00     0.074 A 
ATOM     57  C   UNL     1     -10.905  10.089   9.026  1.00  0.00     0.031 C 
ATOM     58  C   UNL     1     -11.171  11.584   7.067  1.00  0.00     0.037 A 
BRANCH  45  59
ATOM     59  C   UNL     1      -9.841  12.106   1.052  1.00  0.00     0.058 A 
ATOM     60  C   UNL     1     -10.688  11.703   0.007  1.00  0.00     0.135 A 
ATOM     61  C   UNL     1      -9.143  13.315   0.900  1.00  0.00     0.135 A 
ATOM     62  F   UNL     1     -11.364  10.546   0.092  1.00  0.00    -0.206 F 
ATOM     63  C   UNL     1     -10.825  12.462  -1.152  1.00  0.00     0.059 A 
ATOM     64  C   UNL     1      -9.283  14.101  -0.240  1.00  0.00     0.059 A 
ATOM     65  F   UNL     1      -8.318  13.744   1.868  1.00  0.00    -0.206 F 
ATOM     66  C   UNL     1     -10.119  13.660  -1.265  1.00  0.00     0.060 A 
BRANCH  66  67
ATOM     67  S   UNL     1     -10.322  14.644  -2.766  1.00  0.00     0.124 S 
ATOM     68  O   UNL     1      -9.565  13.857  -3.735  1.00  0.00    -0.237 OA
ATOM     69  O   UNL     1     -11.770  14.646  -2.946  1.00  0.00    -0.237 OA
ATOM     70  O   UNL     1      -9.736  15.932  -2.411  1.00  0.00    -0.744 OA
ENDBRANCH  66  67
ENDBRANCH  45  59
BRANCH  46  71
ATOM     71  C   UNL     1      -8.830   6.418   9.202  1.00  0.00     0.058 A 
ATOM     72  C   UNL     1      -9.915   5.768   9.808  1.00  0.00     0.135 A 
ATOM     73  C   UNL     1      -7.567   6.280   9.800  1.00  0.00     0.135 A 
ATOM     74  F   UNL     1     -11.143   5.878   9.281  1.00  0.00    -0.206 F 
ATOM     75  C   UNL     1      -9.759   5.026  10.975  1.00  0.00     0.059 A 
ATOM     76  C   UNL     1      -7.382   5.522  10.951  1.00  0.00     0.059 A 
ATOM     77  F   UNL     1      -6.496   6.875   9.252  1.00  0.00    -0.206 F 
ATOM     78  C   UNL     1      -8.487   4.910  11.540  1.00  0.00     0.060 A 
BRANCH  78  79
ATOM     79  S   UNL     1      -8.284   3.914  13.033  1.00  0.00     0.124 S 
ATOM     80  O   UNL     1      -8.815   4.809  14.056  1.00  0.00    -0.237 OA
ATOM     81  O   UNL     1      -9.092   2.737  12.733  1.00  0.00    -0.237 OA
ATOM     82  O   UNL     1      -6.844   3.679  13.085  1.00  0.00    -0.744 OA
ENDBRANCH  78  79
ENDBRANCH  46  71
BRANCH  58  83
ATOM     83  C   UNL     1     -11.950  12.519   7.949  1.00  0.00     0.058 A 
ATOM     84  C   UNL     1     -11.320  13.287   8.942  1.00  0.00     0.135 A 
ATOM     85  C   UNL     1     -13.339  12.657   7.796  1.00  0.00     0.135 A 
ATOM     86  F   UNL     1      -9.995  13.191   9.130  1.00  0.00    -0.206 F 
ATOM     87  C   UNL     1     -12.046  14.127   9.780  1.00  0.00     0.059 A 
ATOM     88  C   UNL     1     -14.081  13.511   8.607  1.00  0.00     0.059 A 
ATOM     89  F   UNL     1     -13.988  11.957   6.852  1.00  0.00    -0.206 F 
ATOM     90  C   UNL     1     -13.428  14.226   9.610  1.00  0.00     0.060 A 
BRANCH  90  91
ATOM     91  S   UNL     1     -14.364  15.310  10.709  1.00  0.00     0.124 S 
ATOM     92  O   UNL     1     -14.437  14.504  11.923  1.00  0.00    -0.237 OA
ATOM     93  O   UNL     1     -13.513  16.494  10.785  1.00  0.00    -0.237 OA
ATOM     94  O   UNL     1     -15.627  15.500  10.003  1.00  0.00    -0.744 OA
ENDBRANCH  90  91
ENDBRANCH  58  83
ENDBRANCH  32  33
ENDBRANCH  25  27
ENDBRANCH  24  25
ENDBRANCH  23  24
ENDBRANCH  22  23
ENDBRANCH   1  22
TORSDOF 22
