REMARK SMILES Cc1cc(O[C@@H](C)C(=O)NCCC(=O)OCCOCCOC(=O)c2ccc(-c3c4nc(c(-c5c(F)cc(S(=O)(=O)[O-])cc5F)c5ccc([nH]5)c(-c5c(F)cc(S(=O)(=O)[O-])cc5F)c5nc(c(-c6c(F)cc(S(=O)(=O)[O-])cc6F)c6ccc3[nH]6)C=C5)C=C4)cc2)c2c3c(c(=O)oc2c1)CCCC3
REMARK SMILES IDX 17 1 16 2 15 3 13 4 14 5 12 6 11 7 10 8 8 9 9 10 6 12 7 13
REMARK SMILES IDX 5 14 4 15 1 16 2 17 3 18 97 19 96 20 90 21 95 22 91 23 93 24
REMARK SMILES IDX 92 25 101 26 94 27 98 28 100 29 99 30 18 31 19 32 20 33
REMARK SMILES IDX 21 34 22 35 23 36 24 37 25 38 89 39 26 40 88 41 27 42 28 43
REMARK SMILES IDX 29 44 82 45 30 46 87 47 81 48 83 49 31 50 86 51 80 52 79 53
REMARK SMILES IDX 32 55 66 56 45 57 65 58 46 59 49 60 64 61 84 62 47 63 48 64
REMARK SMILES IDX 63 66 85 67 50 68 33 69 34 70 43 71 35 72 36 73 42 74 44 75
REMARK SMILES IDX 37 76 38 77 39 78 40 79 41 80 67 81 68 82 77 83 69 84 70 85
REMARK SMILES IDX 76 86 78 87 71 88 72 89 73 90 74 91 75 92 51 93 52 94 61 95
REMARK SMILES IDX 53 96 54 97 60 98 62 99 55 100 56 101 57 102 58 103 59 104
REMARK H PARENT 10 11 83 54 49 65
REMARK Flexibility Score: inf
ROOT
ATOM      1  C   UNL     1       5.474   1.380   0.136  1.00  0.00     0.202 C 
ENDROOT
BRANCH   1   2
ATOM      2  C   UNL     1       5.593   0.679  -1.219  1.00  0.00     0.261 C 
BRANCH   2   3
ATOM      3  O   UNL     1       4.413   0.921  -2.004  1.00  0.00    -0.463 OA
BRANCH   3   4
ATOM      4  C   UNL     1       3.591  -0.139  -2.199  1.00  0.00     0.307 C 
ATOM      5  O   UNL     1       3.831  -1.293  -1.871  1.00  0.00    -0.252 OA
BRANCH   4   6
ATOM      6  C   UNL     1       2.298   0.281  -2.847  1.00  0.00     0.144 C 
BRANCH   6   7
ATOM      7  C   UNL     1       1.731   1.582  -2.287  1.00  0.00     0.127 C 
BRANCH   7   8
ATOM      8  N   UNL     1       1.500   2.585  -3.296  1.00  0.00    -0.352 N 
ATOM      9  C   UNL     1       0.412   2.916  -4.028  1.00  0.00     0.260 C 
ATOM     10  O   UNL     1       0.529   3.938  -4.718  1.00  0.00    -0.271 OA
ATOM     11  H   UNL     1       2.290   3.139  -3.490  1.00  0.00     0.163 HD
BRANCH   9  12
ATOM     12  C   UNL     1      -0.957   2.177  -3.986  1.00  0.00     0.258 C 
ATOM     13  C   UNL     1      -1.907   2.837  -2.989  1.00  0.00     0.064 C 
BRANCH  12  14
ATOM     14  O   UNL     1      -1.124   0.787  -4.199  1.00  0.00    -0.480 OA
BRANCH  14  15
ATOM     15  C   UNL     1      -1.041  -0.242  -3.319  1.00  0.00     0.132 A 
ATOM     16  C   UNL     1      -0.523  -0.840   0.408  1.00  0.00     0.044 C 
ATOM     17  C   UNL     1      -0.734  -1.111  -1.052  1.00  0.00    -0.044 A 
ATOM     18  C   UNL     1      -1.082  -0.075  -1.929  1.00  0.00     0.050 A 
ATOM     19  C   UNL     1      -0.443  -2.361  -1.581  1.00  0.00     0.051 A 
ATOM     20  C   UNL     1      -0.540  -2.564  -2.958  1.00  0.00     0.142 A 
ATOM     21  C   UNL     1      -0.854  -1.541  -3.861  1.00  0.00     0.063 A 
ATOM     22  O   UNL     1      -0.255  -3.875  -3.376  1.00  0.00    -0.422 OA
ATOM     23  C   UNL     1      -0.959  -1.922  -5.298  1.00  0.00    -0.023 A 
ATOM     24  C   UNL     1      -0.336  -4.251  -4.700  1.00  0.00     0.339 A 
ATOM     25  C   UNL     1      -0.722  -3.198  -5.670  1.00  0.00     0.042 A 
ATOM     26  C   UNL     1      -1.403  -0.899  -6.325  1.00  0.00     0.037 C 
ATOM     27  O   UNL     1      -0.128  -5.410  -5.043  1.00  0.00    -0.246 OA
ATOM     28  C   UNL     1      -0.850  -3.697  -7.090  1.00  0.00     0.043 C 
ATOM     29  C   UNL     1      -1.899  -1.495  -7.644  1.00  0.00     0.005 C 
ATOM     30  C   UNL     1      -0.970  -2.591  -8.133  1.00  0.00     0.005 C 
ENDBRANCH  14  15
ENDBRANCH  12  14
ENDBRANCH   9  12
ENDBRANCH   7   8
ENDBRANCH   6   7
ENDBRANCH   4   6
ENDBRANCH   3   4
ENDBRANCH   2   3
ENDBRANCH   1   2
BRANCH   1  31
ATOM     31  O   UNL     1       4.670   0.728   1.117  1.00  0.00    -0.374 OA
BRANCH  31  32
ATOM     32  C   UNL     1       3.258   0.925   1.067  1.00  0.00     0.202 C 
BRANCH  32  33
ATOM     33  C   UNL     1       2.736   2.302   1.515  1.00  0.00     0.261 C 
BRANCH  33  34
ATOM     34  O   UNL     1       2.993   3.327   0.535  1.00  0.00    -0.460 OA
BRANCH  34  35
ATOM     35  C   UNL     1       3.882   4.285   0.901  1.00  0.00     0.338 C 
ATOM     36  O   UNL     1       4.416   4.412   1.991  1.00  0.00    -0.246 OA
BRANCH  35  37
ATOM     37  C   UNL     1       4.311   5.023  -0.305  1.00  0.00     0.060 A 
ATOM     38  C   UNL     1       3.401   5.709  -1.112  1.00  0.00     0.016 A 
ATOM     39  C   UNL     1       5.676   5.021  -0.620  1.00  0.00     0.016 A 
ATOM     40  C   UNL     1       3.869   6.408  -2.232  1.00  0.00     0.010 A 
ATOM     41  C   UNL     1       6.136   5.705  -1.743  1.00  0.00     0.010 A 
ATOM     42  C   UNL     1       5.239   6.418  -2.550  1.00  0.00    -0.014 A 
BRANCH  42  43
ATOM     43  C   UNL     1       5.770   7.258  -3.652  1.00  0.00     0.031 A 
ATOM     44  C   UNL     1       6.219   6.651  -4.949  1.00  0.00     0.074 A 
ATOM     45  C   UNL     1       5.912   8.580  -3.442  1.00  0.00     0.049 A 
ATOM     46  N   UNL     1       6.749   7.236  -5.992  1.00  0.00    -0.248 NA
ATOM     47  C   UNL     1       6.063   5.196  -5.085  1.00  0.00     0.031 C 
ATOM     48  C   UNL     1       5.539   9.278  -2.210  1.00  0.00     0.029 A 
ATOM     49  N   UNL     1       6.417   9.569  -4.247  1.00  0.00    -0.354 N 
ATOM     50  C   UNL     1       6.976   6.228  -6.921  1.00  0.00     0.074 A 
ATOM     51  C   UNL     1       6.569   4.986  -6.294  1.00  0.00     0.031 C 
ATOM     52  C   UNL     1       5.815  10.584  -2.347  1.00  0.00     0.029 A 
ATOM     53  C   UNL     1       6.416  10.810  -3.658  1.00  0.00     0.049 A 
ATOM     54  H   UNL     1       6.749   9.405  -5.159  1.00  0.00     0.167 HD
ATOM     55  C   UNL     1       7.463   6.333  -8.182  1.00  0.00     0.037 A 
ATOM     56  C   UNL     1       6.856  11.998  -4.118  1.00  0.00     0.037 A 
ATOM     57  C   UNL     1       7.891   7.572  -8.788  1.00  0.00     0.049 A 
ATOM     58  C   UNL     1       7.442  12.081  -5.499  1.00  0.00     0.074 A 
ATOM     59  C   UNL     1       8.375   7.783 -10.068  1.00  0.00     0.029 A 
ATOM     60  N   UNL     1       7.901   8.807  -8.154  1.00  0.00    -0.354 N 
ATOM     61  N   UNL     1       7.607  11.126  -6.384  1.00  0.00    -0.248 NA
ATOM     62  C   UNL     1       7.897  13.403  -5.946  1.00  0.00     0.031 C 
ATOM     63  C   UNL     1       8.729   9.133 -10.189  1.00  0.00     0.029 A 
ATOM     64  C   UNL     1       8.412   9.777  -9.005  1.00  0.00     0.049 A 
ATOM     65  H   UNL     1       7.591   8.971  -7.234  1.00  0.00     0.167 HD
ATOM     66  C   UNL     1       8.176  11.734  -7.498  1.00  0.00     0.074 A 
ATOM     67  C   UNL     1       8.299  13.144  -7.182  1.00  0.00     0.031 C 
ATOM     68  C   UNL     1       8.561  11.175  -8.673  1.00  0.00     0.037 A 
BRANCH  55  69
ATOM     69  C   UNL     1       7.570   5.068  -8.994  1.00  0.00     0.058 A 
ATOM     70  C   UNL     1       6.428   4.394  -9.457  1.00  0.00     0.135 A 
ATOM     71  C   UNL     1       8.824   4.540  -9.344  1.00  0.00     0.135 A 
ATOM     72  F   UNL     1       5.203   4.846  -9.146  1.00  0.00    -0.206 F 
ATOM     73  C   UNL     1       6.524   3.225 -10.207  1.00  0.00     0.059 A 
ATOM     74  C   UNL     1       8.944   3.388 -10.118  1.00  0.00     0.059 A 
ATOM     75  F   UNL     1       9.950   5.144  -8.933  1.00  0.00    -0.206 F 
ATOM     76  C   UNL     1       7.788   2.729 -10.530  1.00  0.00     0.060 A 
BRANCH  76  77
ATOM     77  S   UNL     1       7.891   1.201 -11.487  1.00  0.00     0.124 S 
ATOM     78  O   UNL     1       7.408   0.220 -10.521  1.00  0.00    -0.237 OA
ATOM     79  O   UNL     1       7.000   1.477 -12.609  1.00  0.00    -0.237 OA
ATOM     80  O   UNL     1       9.308   1.104 -11.823  1.00  0.00    -0.744 OA
ENDBRANCH  76  77
ENDBRANCH  55  69
BRANCH  56  81
ATOM     81  C   UNL     1       6.720  13.206  -3.262  1.00  0.00     0.058 A 
ATOM     82  C   UNL     1       5.775  14.196  -3.565  1.00  0.00     0.135 A 
ATOM     83  C   UNL     1       7.486  13.365  -2.096  1.00  0.00     0.135 A 
ATOM     84  F   UNL     1       5.028  14.092  -4.675  1.00  0.00    -0.206 F 
ATOM     85  C   UNL     1       5.586  15.298  -2.739  1.00  0.00     0.059 A 
ATOM     86  C   UNL     1       7.298  14.446  -1.241  1.00  0.00     0.059 A 
ATOM     87  F   UNL     1       8.396  12.438  -1.758  1.00  0.00    -0.206 F 
ATOM     88  C   UNL     1       6.343  15.406  -1.571  1.00  0.00     0.060 A 
BRANCH  88  89
ATOM     89  S   UNL     1       6.017  16.793  -0.461  1.00  0.00     0.124 S 
ATOM     90  O   UNL     1       6.500  17.922  -1.247  1.00  0.00    -0.237 OA
ATOM     91  O   UNL     1       4.570  16.707  -0.288  1.00  0.00    -0.237 OA
ATOM     92  O   UNL     1       6.803  16.467   0.725  1.00  0.00    -0.744 OA
ENDBRANCH  88  89
ENDBRANCH  56  81
BRANCH  68  93
ATOM     93  C   UNL     1       9.161  12.095  -9.705  1.00  0.00     0.058 A 
ATOM     94  C   UNL     1      10.428  12.676  -9.525  1.00  0.00     0.135 A 
ATOM     95  C   UNL     1       8.470  12.392 -10.891  1.00  0.00     0.135 A 
ATOM     96  F   UNL     1      11.131  12.430  -8.409  1.00  0.00    -0.206 F 
ATOM     97  C   UNL     1      10.967  13.552 -10.462  1.00  0.00     0.059 A 
ATOM     98  C   UNL     1       9.006  13.241 -11.857  1.00  0.00     0.059 A 
ATOM     99  F   UNL     1       7.262  11.856 -11.124  1.00  0.00    -0.206 F 
ATOM    100  C   UNL     1      10.246  13.832 -11.624  1.00  0.00     0.060 A 
BRANCH 100 101
ATOM    101  S   UNL     1      10.955  14.979 -12.824  1.00  0.00     0.124 S 
ATOM    102  O   UNL     1      10.831  16.253 -12.122  1.00  0.00    -0.237 OA
ATOM    103  O   UNL     1      12.314  14.470 -12.977  1.00  0.00    -0.237 OA
ATOM    104  O   UNL     1      10.097  14.822 -13.995  1.00  0.00    -0.744 OA
ENDBRANCH 100 101
ENDBRANCH  68  93
ENDBRANCH  42  43
ENDBRANCH  35  37
ENDBRANCH  34  35
ENDBRANCH  33  34
ENDBRANCH  32  33
ENDBRANCH  31  32
ENDBRANCH   1  31
TORSDOF 22
