REMARK SMILES CC(C)(C)c1cc2c(cc1Cl)C=C(C(=O)OCCOCCOC(=O)c1ccc(-c3c4nc(c(-c5c(F)cc(S(=O)(=O)[O-])cc5F)c5ccc([nH]5)c(-c5c(F)cc(S(=O)(=O)[O-])cc5F)c5nc(c(-c6c(F)cc(S(=O)(=O)[O-])cc6F)c6ccc3[nH]6)C=C5)C=C4)cc1)[C@H](C(F)(F)F)O2
REMARK SMILES IDX 20 1 19 2 18 3 17 4 16 5 14 6 15 7 13 8 5 9 6 10 10 11 7 12
REMARK SMILES IDX 9 13 11 14 8 15 96 16 12 17 91 18 2 19 1 20 3 21 4 22 92 23
REMARK SMILES IDX 93 24 94 25 95 26 21 27 22 28 23 29 24 30 25 31 26 32 90 33
REMARK SMILES IDX 27 34 89 35 28 36 29 37 30 38 83 39 31 40 88 41 82 42 84 43
REMARK SMILES IDX 32 44 87 45 81 46 80 47 33 49 67 50 46 51 66 52 47 53 50 54
REMARK SMILES IDX 65 55 85 56 48 57 49 58 64 60 86 61 51 62 34 63 35 64 44 65
REMARK SMILES IDX 36 66 37 67 43 68 45 69 38 70 39 71 40 72 41 73 42 74 68 75
REMARK SMILES IDX 69 76 78 77 70 78 71 79 77 80 79 81 72 82 73 83 74 84 75 85
REMARK SMILES IDX 76 86 52 87 53 88 62 89 54 90 55 91 61 92 63 93 56 94 57 95
REMARK SMILES IDX 58 96 59 97 60 98
REMARK H PARENT 84 48 50 59
REMARK Flexibility Score: inf
ROOT
ATOM      1  C   UNL     1       4.322   4.011  -8.078  1.00  0.00     0.202 C 
ENDROOT
BRANCH   1   2
ATOM      2  O   UNL     1       3.876   4.382  -9.385  1.00  0.00    -0.374 OA
BRANCH   2   3
ATOM      3  C   UNL     1       3.101   5.574  -9.504  1.00  0.00     0.202 C 
BRANCH   3   4
ATOM      4  C   UNL     1       1.603   5.456  -9.206  1.00  0.00     0.261 C 
BRANCH   4   5
ATOM      5  O   UNL     1       1.375   4.995  -7.865  1.00  0.00    -0.460 OA
BRANCH   5   6
ATOM      6  C   UNL     1       0.954   3.718  -7.777  1.00  0.00     0.338 C 
ATOM      7  O   UNL     1       0.585   3.010  -8.702  1.00  0.00    -0.246 OA
BRANCH   6   8
ATOM      8  C   UNL     1       1.131   3.214  -6.405  1.00  0.00     0.087 C 
ATOM      9  C   UNL     1       1.051  -0.091  -2.579  1.00  0.00    -0.020 A 
ATOM     10  C   UNL     1       0.741   1.291  -2.747  1.00  0.00     0.053 A 
ATOM     11  C   UNL     1       1.667  -0.724  -3.679  1.00  0.00     0.045 A 
ATOM     12  C   UNL     1       0.953   1.975  -3.945  1.00  0.00     0.128 A 
ATOM     13  C   UNL     1       1.884  -0.028  -4.881  1.00  0.00     0.032 A 
ATOM     14  Cl  UNL     1       2.170  -2.376  -3.747  1.00  0.00    -0.084 Cl
ATOM     15  C   UNL     1       1.494   1.300  -5.026  1.00  0.00     0.019 A 
ATOM     16  O   UNL     1       0.507   3.267  -4.009  1.00  0.00    -0.475 OA
ATOM     17  C   UNL     1       1.493   1.926  -6.332  1.00  0.00     0.027 C 
ATOM     18  C   UNL     1       0.861   4.059  -5.188  1.00  0.00     0.316 C 
BRANCH   9  19
ATOM     19  C   UNL     1       0.582  -0.749  -1.257  1.00  0.00    -0.012 C 
ATOM     20  C   UNL     1       1.117   0.046  -0.040  1.00  0.00     0.016 C 
ATOM     21  C   UNL     1       0.981  -2.216  -0.998  1.00  0.00     0.016 C 
ATOM     22  C   UNL     1      -0.968  -0.718  -1.240  1.00  0.00     0.016 C 
ENDBRANCH   9  19
BRANCH  18  23
ATOM     23  C   UNL     1       2.014   5.019  -4.823  1.00  0.00     0.430 C 
ATOM     24  F   UNL     1       1.876   5.503  -3.564  1.00  0.00    -0.167 F 
ATOM     25  F   UNL     1       3.223   4.409  -4.881  1.00  0.00    -0.167 F 
ATOM     26  F   UNL     1       2.064   6.095  -5.641  1.00  0.00    -0.167 F 
ENDBRANCH  18  23
ENDBRANCH   6   8
ENDBRANCH   5   6
ENDBRANCH   4   5
ENDBRANCH   3   4
ENDBRANCH   2   3
ENDBRANCH   1   2
BRANCH   1  27
ATOM     27  C   UNL     1       5.467   4.826  -7.462  1.00  0.00     0.261 C 
BRANCH  27  28
ATOM     28  O   UNL     1       5.031   6.140  -7.069  1.00  0.00    -0.460 OA
BRANCH  28  29
ATOM     29  C   UNL     1       5.519   7.160  -7.815  1.00  0.00     0.338 C 
ATOM     30  O   UNL     1       6.342   7.083  -8.715  1.00  0.00    -0.246 OA
BRANCH  29  31
ATOM     31  C   UNL     1       4.732   8.381  -7.544  1.00  0.00     0.060 A 
ATOM     32  C   UNL     1       4.502   8.834  -6.244  1.00  0.00     0.016 A 
ATOM     33  C   UNL     1       4.231   9.094  -8.642  1.00  0.00     0.016 A 
ATOM     34  C   UNL     1       3.801  10.028  -6.051  1.00  0.00     0.010 A 
ATOM     35  C   UNL     1       3.532  10.285  -8.447  1.00  0.00     0.010 A 
ATOM     36  C   UNL     1       3.335  10.776  -7.150  1.00  0.00    -0.014 A 
BRANCH  36  37
ATOM     37  C   UNL     1       2.781  12.139  -6.945  1.00  0.00     0.031 A 
ATOM     38  C   UNL     1       1.320  12.434  -7.112  1.00  0.00     0.074 A 
ATOM     39  C   UNL     1       3.637  13.129  -6.621  1.00  0.00     0.049 A 
ATOM     40  N   UNL     1       0.682  13.557  -6.897  1.00  0.00    -0.248 NA
ATOM     41  C   UNL     1       0.465  11.337  -7.587  1.00  0.00     0.031 C 
ATOM     42  C   UNL     1       5.086  12.969  -6.481  1.00  0.00     0.029 A 
ATOM     43  N   UNL     1       3.420  14.454  -6.342  1.00  0.00    -0.354 N 
ATOM     44  C   UNL     1      -0.652  13.300  -7.183  1.00  0.00     0.074 A 
ATOM     45  C   UNL     1      -0.723  11.928  -7.644  1.00  0.00     0.031 C 
ATOM     46  C   UNL     1       5.622  14.138  -6.101  1.00  0.00     0.029 A 
ATOM     47  C   UNL     1       4.564  15.139  -6.003  1.00  0.00     0.049 A 
ATOM     48  H   UNL     1       2.531  14.875  -6.381  1.00  0.00     0.167 HD
ATOM     49  C   UNL     1      -1.718  14.126  -7.050  1.00  0.00     0.037 A 
ATOM     50  C   UNL     1       4.743  16.426  -5.647  1.00  0.00     0.037 A 
ATOM     51  C   UNL     1      -1.632  15.497  -6.609  1.00  0.00     0.049 A 
ATOM     52  C   UNL     1       3.549  17.334  -5.551  1.00  0.00     0.074 A 
ATOM     53  C   UNL     1      -2.661  16.403  -6.415  1.00  0.00     0.029 A 
ATOM     54  N   UNL     1      -0.454  16.167  -6.308  1.00  0.00    -0.354 N 
ATOM     55  N   UNL     1       2.283  17.054  -5.753  1.00  0.00    -0.248 NA
ATOM     56  C   UNL     1       3.803  18.732  -5.176  1.00  0.00     0.031 C 
ATOM     57  C   UNL     1      -2.103  17.632  -6.052  1.00  0.00     0.029 A 
ATOM     58  C   UNL     1      -0.730  17.480  -5.957  1.00  0.00     0.049 A 
ATOM     59  H   UNL     1       0.446  15.768  -6.339  1.00  0.00     0.167 HD
ATOM     60  C   UNL     1       1.588  18.232  -5.502  1.00  0.00     0.074 A 
ATOM     61  C   UNL     1       2.572  19.225  -5.124  1.00  0.00     0.031 C 
ATOM     62  C   UNL     1       0.255  18.464  -5.577  1.00  0.00     0.037 A 
BRANCH  49  63
ATOM     63  C   UNL     1      -3.083  13.575  -7.367  1.00  0.00     0.058 A 
ATOM     64  C   UNL     1      -3.698  12.627  -6.534  1.00  0.00     0.135 A 
ATOM     65  C   UNL     1      -3.820  14.057  -8.461  1.00  0.00     0.135 A 
ATOM     66  F   UNL     1      -3.038  12.124  -5.478  1.00  0.00    -0.206 F 
ATOM     67  C   UNL     1      -4.984  12.161  -6.784  1.00  0.00     0.059 A 
ATOM     68  C   UNL     1      -5.120  13.626  -8.716  1.00  0.00     0.059 A 
ATOM     69  F   UNL     1      -3.284  14.968  -9.289  1.00  0.00    -0.206 F 
ATOM     70  C   UNL     1      -5.689  12.670  -7.876  1.00  0.00     0.060 A 
BRANCH  70  71
ATOM     71  S   UNL     1      -7.361  12.058  -8.176  1.00  0.00     0.124 S 
ATOM     72  O   UNL     1      -7.099  10.673  -8.557  1.00  0.00    -0.237 OA
ATOM     73  O   UNL     1      -7.997  12.247  -6.877  1.00  0.00    -0.237 OA
ATOM     74  O   UNL     1      -7.854  12.918  -9.246  1.00  0.00    -0.744 OA
ENDBRANCH  70  71
ENDBRANCH  49  63
BRANCH  50  75
ATOM     75  C   UNL     1       6.108  16.912  -5.312  1.00  0.00     0.058 A 
ATOM     76  C   UNL     1       6.451  17.241  -3.993  1.00  0.00     0.135 A 
ATOM     77  C   UNL     1       7.105  17.020  -6.294  1.00  0.00     0.135 A 
ATOM     78  F   UNL     1       5.531  17.158  -3.019  1.00  0.00    -0.206 F 
ATOM     79  C   UNL     1       7.731  17.670  -3.659  1.00  0.00     0.059 A 
ATOM     80  C   UNL     1       8.400  17.419  -5.980  1.00  0.00     0.059 A 
ATOM     81  F   UNL     1       6.832  16.701  -7.569  1.00  0.00    -0.206 F 
ATOM     82  C   UNL     1       8.702  17.748  -4.659  1.00  0.00     0.060 A 
BRANCH  82  83
ATOM     83  S   UNL     1      10.373  18.253  -4.200  1.00  0.00     0.124 S 
ATOM     84  O   UNL     1      10.171  19.654  -3.849  1.00  0.00    -0.237 OA
ATOM     85  O   UNL     1      10.668  17.352  -3.091  1.00  0.00    -0.237 OA
ATOM     86  O   UNL     1      11.144  18.014  -5.417  1.00  0.00    -0.744 OA
ENDBRANCH  82  83
ENDBRANCH  50  75
BRANCH  62  87
ATOM     87  C   UNL     1      -0.241  19.841  -5.223  1.00  0.00     0.058 A 
ATOM     88  C   UNL     1      -0.032  20.941  -6.069  1.00  0.00     0.135 A 
ATOM     89  C   UNL     1      -1.011  20.044  -4.065  1.00  0.00     0.135 A 
ATOM     90  F   UNL     1       0.704  20.807  -7.184  1.00  0.00    -0.206 F 
ATOM     91  C   UNL     1      -0.562  22.194  -5.777  1.00  0.00     0.059 A 
ATOM     92  C   UNL     1      -1.575  21.281  -3.768  1.00  0.00     0.059 A 
ATOM     93  F   UNL     1      -1.247  19.025  -3.223  1.00  0.00    -0.206 F 
ATOM     94  C   UNL     1      -1.342  22.352  -4.629  1.00  0.00     0.060 A 
BRANCH  94  95
ATOM     95  S   UNL     1      -2.074  23.969  -4.300  1.00  0.00     0.124 S 
ATOM     96  O   UNL     1      -0.896  24.768  -3.980  1.00  0.00    -0.237 OA
ATOM     97  O   UNL     1      -2.724  24.279  -5.570  1.00  0.00    -0.237 OA
ATOM     98  O   UNL     1      -2.981  23.714  -3.185  1.00  0.00    -0.744 OA
ENDBRANCH  94  95
ENDBRANCH  62  87
ENDBRANCH  36  37
ENDBRANCH  29  31
ENDBRANCH  28  29
ENDBRANCH  27  28
ENDBRANCH   1  27
TORSDOF 19
