REMARK SMILES C[C@@H]1CN(S(=O)(=O)[C@@H](C)C(=O)OCCOCCOC(=O)c2ccc(-c3c4nc(c(-c5c(F)cc(S(=O)(=O)[O-])cc5F)c5ccc([nH]5)c(-c5c(F)cc(S(=O)(=O)[O-])cc5F)c5nc(c(-c6c(F)cc(S(=O)(=O)[O-])cc6F)c6ccc3[nH]6)C=C5)C=C4)cc2)CC[C@@H]1[NH3+]
REMARK SMILES IDX 15 1 14 2 13 3 12 4 10 5 11 6 8 7 9 8 5 9 6 10 7 11 4 12
REMARK SMILES IDX 1 13 2 14 3 15 89 16 88 17 87 18 90 19 16 23 17 24 18 25
REMARK SMILES IDX 19 26 20 27 21 28 22 29 86 30 23 31 85 32 24 33 25 34 26 35
REMARK SMILES IDX 79 36 27 37 84 38 78 39 80 40 28 41 83 42 77 43 76 44 29 46
REMARK SMILES IDX 63 47 42 48 62 49 43 50 46 51 61 52 81 53 44 54 45 55 60 57
REMARK SMILES IDX 82 58 47 59 30 60 31 61 40 62 32 63 33 64 39 65 41 66 34 67
REMARK SMILES IDX 35 68 36 69 37 70 38 71 64 72 65 73 74 74 66 75 67 76 73 77
REMARK SMILES IDX 75 78 68 79 69 80 70 81 71 82 72 83 48 84 49 85 58 86 50 87
REMARK SMILES IDX 51 88 57 89 59 90 52 91 53 92 54 93 55 94 56 95
REMARK H PARENT 90 20 90 21 90 22 80 45 46 56
REMARK Flexibility Score: inf
ROOT
ATOM      1  O   UNL     1      -4.391  -1.490   1.332  1.00  0.00    -0.374 OA
ENDROOT
BRANCH   1   2
ATOM      2  C   UNL     1      -3.501  -0.456   0.908  1.00  0.00     0.202 C 
BRANCH   2   3
ATOM      3  C   UNL     1      -2.840   0.335   2.049  1.00  0.00     0.261 C 
BRANCH   3   4
ATOM      4  O   UNL     1      -1.667  -0.326   2.587  1.00  0.00    -0.462 OA
BRANCH   4   5
ATOM      5  C   UNL     1      -1.825  -1.123   3.671  1.00  0.00     0.325 C 
ATOM      6  O   UNL     1      -2.894  -1.269   4.256  1.00  0.00    -0.251 OA
BRANCH   5   7
ATOM      7  C   UNL     1      -0.550  -1.743   4.154  1.00  0.00     0.230 C 
ATOM      8  C   UNL     1       0.525  -0.733   4.502  1.00  0.00     0.039 C 
BRANCH   7   9
ATOM      9  S   UNL     1       0.026  -3.149   3.212  1.00  0.00     0.227 S 
ATOM     10  O   UNL     1      -1.094  -3.930   2.731  1.00  0.00    -0.211 OA
ATOM     11  O   UNL     1       1.005  -3.802   4.064  1.00  0.00    -0.211 OA
BRANCH   9  12
ATOM     12  N   UNL     1       0.886  -2.595   1.842  1.00  0.00    -0.200 NA
ATOM     13  C   UNL     1       1.559  -0.083   0.326  1.00  0.00     0.015 C 
ATOM     14  C   UNL     1       0.936  -1.341  -0.295  1.00  0.00     0.059 C 
ATOM     15  C   UNL     1       0.064  -2.109   0.701  1.00  0.00     0.111 C 
ATOM     16  C   UNL     1       1.948  -2.334  -0.891  1.00  0.00     0.186 C 
ATOM     17  C   UNL     1       2.755  -3.019   0.218  1.00  0.00     0.082 C 
ATOM     18  C   UNL     1       1.860  -3.617   1.310  1.00  0.00     0.108 C 
BRANCH  16  19
ATOM     19  N   UNL     1       2.839  -1.697  -1.855  1.00  0.00    -0.355 N 
ATOM     20  H   UNL     1       3.391  -0.980  -1.384  1.00  0.00     0.344 HD
ATOM     21  H   UNL     1       2.287  -1.269  -2.597  1.00  0.00     0.344 HD
ATOM     22  H   UNL     1       3.463  -2.398  -2.256  1.00  0.00     0.344 HD
ENDBRANCH  16  19
ENDBRANCH   9  12
ENDBRANCH   7   9
ENDBRANCH   5   7
ENDBRANCH   4   5
ENDBRANCH   3   4
ENDBRANCH   2   3
ENDBRANCH   1   2
BRANCH   1  23
ATOM     23  C   UNL     1      -3.776  -2.756   1.575  1.00  0.00     0.202 C 
BRANCH  23  24
ATOM     24  C   UNL     1      -3.743  -3.701   0.370  1.00  0.00     0.261 C 
BRANCH  24  25
ATOM     25  O   UNL     1      -2.852  -3.214  -0.653  1.00  0.00    -0.460 OA
BRANCH  25  26
ATOM     26  C   UNL     1      -3.440  -2.551  -1.676  1.00  0.00     0.338 C 
ATOM     27  O   UNL     1      -4.634  -2.386  -1.862  1.00  0.00    -0.246 OA
BRANCH  26  28
ATOM     28  C   UNL     1      -2.392  -1.870  -2.466  1.00  0.00     0.060 A 
ATOM     29  C   UNL     1      -2.563  -0.513  -2.763  1.00  0.00     0.016 A 
ATOM     30  C   UNL     1      -1.254  -2.545  -2.911  1.00  0.00     0.016 A 
ATOM     31  C   UNL     1      -1.608   0.171  -3.522  1.00  0.00     0.010 A 
ATOM     32  C   UNL     1      -0.293  -1.852  -3.660  1.00  0.00     0.010 A 
ATOM     33  C   UNL     1      -0.467  -0.492  -3.994  1.00  0.00    -0.014 A 
BRANCH  33  34
ATOM     34  C   UNL     1       0.467   0.168  -4.957  1.00  0.00     0.031 A 
ATOM     35  C   UNL     1       0.568  -0.392  -6.356  1.00  0.00     0.074 A 
ATOM     36  C   UNL     1       1.227   1.231  -4.618  1.00  0.00     0.049 A 
ATOM     37  N   UNL     1       1.391  -0.072  -7.320  1.00  0.00    -0.248 NA
ATOM     38  C   UNL     1      -0.366  -1.476  -6.703  1.00  0.00     0.031 C 
ATOM     39  C   UNL     1       1.237   1.894  -3.314  1.00  0.00     0.029 A 
ATOM     40  N   UNL     1       2.159   1.935  -5.349  1.00  0.00    -0.354 N 
ATOM     41  C   UNL     1       1.105  -0.943  -8.365  1.00  0.00     0.074 A 
ATOM     42  C   UNL     1       0.061  -1.830  -7.905  1.00  0.00     0.031 C 
ATOM     43  C   UNL     1       2.133   2.898  -3.335  1.00  0.00     0.029 A 
ATOM     44  C   UNL     1       2.787   2.938  -4.642  1.00  0.00     0.049 A 
ATOM     45  H   UNL     1       2.358   1.740  -6.293  1.00  0.00     0.167 HD
ATOM     46  C   UNL     1       1.642  -0.990  -9.605  1.00  0.00     0.037 A 
ATOM     47  C   UNL     1       3.785   3.778  -4.997  1.00  0.00     0.037 A 
ATOM     48  C   UNL     1       2.618  -0.061 -10.104  1.00  0.00     0.049 A 
ATOM     49  C   UNL     1       4.369   3.700  -6.391  1.00  0.00     0.074 A 
ATOM     50  C   UNL     1       3.148   0.015 -11.381  1.00  0.00     0.029 A 
ATOM     51  N   UNL     1       3.201   0.954  -9.365  1.00  0.00    -0.354 N 
ATOM     52  N   UNL     1       4.040   2.907  -7.382  1.00  0.00    -0.248 NA
ATOM     53  C   UNL     1       5.459   4.636  -6.718  1.00  0.00     0.031 C 
ATOM     54  C   UNL     1       4.095   1.042 -11.399  1.00  0.00     0.029 A 
ATOM     55  C   UNL     1       4.107   1.644 -10.152  1.00  0.00     0.049 A 
ATOM     56  H   UNL     1       3.002   1.154  -8.422  1.00  0.00     0.167 HD
ATOM     57  C   UNL     1       4.848   3.280  -8.455  1.00  0.00     0.074 A 
ATOM     58  C   UNL     1       5.677   4.372  -7.998  1.00  0.00     0.031 C 
ATOM     59  C   UNL     1       4.896   2.763  -9.707  1.00  0.00     0.037 A 
BRANCH  46  60
ATOM     60  C   UNL     1       1.190  -2.084 -10.530  1.00  0.00     0.058 A 
ATOM     61  C   UNL     1      -0.083  -2.078 -11.120  1.00  0.00     0.135 A 
ATOM     62  C   UNL     1       2.081  -3.106 -10.895  1.00  0.00     0.135 A 
ATOM     63  F   UNL     1      -0.980  -1.136 -10.787  1.00  0.00    -0.206 F 
ATOM     64  C   UNL     1      -0.461  -3.054 -12.035  1.00  0.00     0.059 A 
ATOM     65  C   UNL     1       1.736  -4.074 -11.831  1.00  0.00     0.059 A 
ATOM     66  F   UNL     1       3.308  -3.158 -10.354  1.00  0.00    -0.206 F 
ATOM     67  C   UNL     1       0.460  -4.041 -12.392  1.00  0.00     0.060 A 
BRANCH  67  68
ATOM     68  S   UNL     1      -0.029  -5.266 -13.623  1.00  0.00     0.124 S 
ATOM     69  O   UNL     1      -0.986  -6.069 -12.869  1.00  0.00    -0.237 OA
ATOM     70  O   UNL     1      -0.593  -4.434 -14.680  1.00  0.00    -0.237 OA
ATOM     71  O   UNL     1       1.225  -5.934 -13.956  1.00  0.00    -0.744 OA
ENDBRANCH  67  68
ENDBRANCH  46  60
BRANCH  47  72
ATOM     72  C   UNL     1       4.337   4.769  -4.026  1.00  0.00     0.058 A 
ATOM     73  C   UNL     1       4.207   6.151  -4.242  1.00  0.00     0.135 A 
ATOM     74  C   UNL     1       5.081   4.356  -2.909  1.00  0.00     0.135 A 
ATOM     75  F   UNL     1       3.518   6.601  -5.302  1.00  0.00    -0.206 F 
ATOM     76  C   UNL     1       4.833   7.084  -3.419  1.00  0.00     0.059 A 
ATOM     77  C   UNL     1       5.689   5.271  -2.053  1.00  0.00     0.059 A 
ATOM     78  F   UNL     1       5.230   3.049  -2.647  1.00  0.00    -0.206 F 
ATOM     79  C   UNL     1       5.579   6.633  -2.330  1.00  0.00     0.060 A 
BRANCH  79  80
ATOM     80  S   UNL     1       6.397   7.849  -1.274  1.00  0.00     0.124 S 
ATOM     81  O   UNL     1       7.493   8.289  -2.129  1.00  0.00    -0.237 OA
ATOM     82  O   UNL     1       5.334   8.822  -1.047  1.00  0.00    -0.237 OA
ATOM     83  O   UNL     1       6.784   7.069  -0.102  1.00  0.00    -0.744 OA
ENDBRANCH  79  80
ENDBRANCH  47  72
BRANCH  59  84
ATOM     84  C   UNL     1       5.816   3.401 -10.713  1.00  0.00     0.058 A 
ATOM     85  C   UNL     1       7.208   3.241 -10.657  1.00  0.00     0.135 A 
ATOM     86  C   UNL     1       5.282   4.097 -11.812  1.00  0.00     0.135 A 
ATOM     87  F   UNL     1       7.772   2.588  -9.629  1.00  0.00    -0.206 F 
ATOM     88  C   UNL     1       8.040   3.754 -11.649  1.00  0.00     0.059 A 
ATOM     89  C   UNL     1       6.091   4.593 -12.830  1.00  0.00     0.059 A 
ATOM     90  F   UNL     1       3.955   4.269 -11.922  1.00  0.00    -0.206 F 
ATOM     91  C   UNL     1       7.471   4.420 -12.736  1.00  0.00     0.060 A 
BRANCH  91  92
ATOM     92  S   UNL     1       8.556   5.020 -14.050  1.00  0.00     0.124 S 
ATOM     93  O   UNL     1       9.210   6.151 -13.399  1.00  0.00    -0.237 OA
ATOM     94  O   UNL     1       9.403   3.860 -14.308  1.00  0.00    -0.237 OA
ATOM     95  O   UNL     1       7.631   5.365 -15.125  1.00  0.00    -0.744 OA
ENDBRANCH  91  92
ENDBRANCH  59  84
ENDBRANCH  33  34
ENDBRANCH  26  28
ENDBRANCH  25  26
ENDBRANCH  24  25
ENDBRANCH  23  24
ENDBRANCH   1  23
TORSDOF 20
