REMARK SMILES O=C(OCCOCCOC(=O)[C@H](F)[C@H](O)C1CCOCC1)c1ccc(-c2c3nc(c(-c4c(F)cc(S(=O)(=O)[O-])cc4F)c4ccc([nH]4)c(-c4c(F)cc(S(=O)(=O)[O-])cc4F)c4nc(c(-c5c(F)cc(S(=O)(=O)[O-])cc5F)c5ccc2[nH]5)C=C4)C=C3)cc1
REMARK SMILES IDX 5 1 4 2 3 3 2 4 1 5 22 6 23 7 87 8 24 9 86 10 25 11 26 12
REMARK SMILES IDX 27 13 80 14 28 15 85 16 79 17 81 18 29 19 84 20 78 21 77 22
REMARK SMILES IDX 30 24 64 25 43 26 63 27 44 28 47 29 62 30 82 31 45 32 46 33
REMARK SMILES IDX 61 35 83 36 48 37 31 38 32 39 41 40 33 41 34 42 40 43 42 44
REMARK SMILES IDX 35 45 36 46 37 47 38 48 39 49 65 50 66 51 75 52 67 53 68 54
REMARK SMILES IDX 74 55 76 56 69 57 70 58 71 59 72 60 73 61 49 62 50 63 59 64
REMARK SMILES IDX 51 65 52 66 58 67 60 68 53 69 54 70 55 71 56 72 57 73 6 74
REMARK SMILES IDX 7 75 8 76 9 77 10 78 11 79 12 80 13 81 14 82 16 83 17 84
REMARK SMILES IDX 21 85 18 86 20 87 19 88 15 89
REMARK H PARENT 81 23 47 34 15 90
REMARK Flexibility Score: inf
ROOT
ATOM      1  C   UNL     1       7.407  -4.661   1.473  1.00  0.00     0.202 C 
ENDROOT
BRANCH   1   2
ATOM      2  C   UNL     1       8.535  -3.918   0.758  1.00  0.00     0.261 C 
BRANCH   2   3
ATOM      3  O   UNL     1       9.552  -4.845   0.347  1.00  0.00    -0.460 OA
BRANCH   3   4
ATOM      4  C   UNL     1      10.540  -5.312   1.154  1.00  0.00     0.338 C 
ATOM      5  O   UNL     1      11.116  -6.358   0.864  1.00  0.00    -0.246 OA
BRANCH   4   6
ATOM      6  C   UNL     1      11.049  -4.518   2.307  1.00  0.00     0.060 A 
ATOM      7  C   UNL     1      10.256  -3.995   3.334  1.00  0.00     0.016 A 
ATOM      8  C   UNL     1      12.441  -4.383   2.399  1.00  0.00     0.016 A 
ATOM      9  C   UNL     1      10.813  -3.302   4.393  1.00  0.00     0.010 A 
ATOM     10  C   UNL     1      13.014  -3.724   3.487  1.00  0.00     0.010 A 
ATOM     11  C   UNL     1      12.194  -3.172   4.479  1.00  0.00    -0.014 A 
BRANCH  11  12
ATOM     12  C   UNL     1      12.741  -2.348   5.567  1.00  0.00     0.031 A 
ATOM     13  C   UNL     1      13.301  -1.008   5.213  1.00  0.00     0.074 A 
ATOM     14  C   UNL     1      12.628  -2.768   6.840  1.00  0.00     0.049 A 
ATOM     15  N   UNL     1      13.944  -0.158   5.960  1.00  0.00    -0.248 NA
ATOM     16  C   UNL     1      13.107  -0.565   3.820  1.00  0.00     0.031 C 
ATOM     17  C   UNL     1      11.966  -4.006   7.265  1.00  0.00     0.029 A 
ATOM     18  N   UNL     1      13.041  -2.196   8.011  1.00  0.00    -0.354 N 
ATOM     19  C   UNL     1      14.274   0.898   5.121  1.00  0.00     0.074 A 
ATOM     20  C   UNL     1      13.765   0.584   3.807  1.00  0.00     0.031 C 
ATOM     21  C   UNL     1      12.004  -4.088   8.604  1.00  0.00     0.029 A 
ATOM     22  C   UNL     1      12.765  -2.959   9.121  1.00  0.00     0.049 A 
ATOM     23  H   UNL     1      13.492  -1.321   8.055  1.00  0.00     0.167 HD
ATOM     24  C   UNL     1      14.955   2.022   5.438  1.00  0.00     0.037 A 
ATOM     25  C   UNL     1      13.137  -2.779  10.401  1.00  0.00     0.037 A 
ATOM     26  C   UNL     1      15.427   2.290   6.769  1.00  0.00     0.049 A 
ATOM     27  C   UNL     1      13.971  -1.564  10.711  1.00  0.00     0.074 A 
ATOM     28  C   UNL     1      16.174   3.359   7.225  1.00  0.00     0.029 A 
ATOM     29  N   UNL     1      15.187   1.468   7.865  1.00  0.00    -0.354 N 
ATOM     30  N   UNL     1      14.359  -0.604   9.901  1.00  0.00    -0.248 NA
ATOM     31  C   UNL     1      14.436  -1.412  12.093  1.00  0.00     0.031 C 
ATOM     32  C   UNL     1      16.427   3.156   8.586  1.00  0.00     0.029 A 
ATOM     33  C   UNL     1      15.785   1.994   8.994  1.00  0.00     0.049 A 
ATOM     34  H   UNL     1      14.666   0.632   7.840  1.00  0.00     0.167 HD
ATOM     35  C   UNL     1      15.096   0.279  10.679  1.00  0.00     0.074 A 
ATOM     36  C   UNL     1      15.084  -0.257  12.028  1.00  0.00     0.031 C 
ATOM     37  C   UNL     1      15.729   1.423  10.319  1.00  0.00     0.037 A 
BRANCH  24  38
ATOM     38  C   UNL     1      15.280   2.971   4.319  1.00  0.00     0.058 A 
ATOM     39  C   UNL     1      14.297   3.738   3.674  1.00  0.00     0.135 A 
ATOM     40  C   UNL     1      16.602   3.087   3.860  1.00  0.00     0.135 A 
ATOM     41  F   UNL     1      13.010   3.641   4.046  1.00  0.00    -0.206 F 
ATOM     42  C   UNL     1      14.607   4.563   2.596  1.00  0.00     0.059 A 
ATOM     43  C   UNL     1      16.941   3.926   2.803  1.00  0.00     0.059 A 
ATOM     44  F   UNL     1      17.581   2.363   4.426  1.00  0.00    -0.206 F 
ATOM     45  C   UNL     1      15.933   4.649   2.167  1.00  0.00     0.060 A 
BRANCH  45  46
ATOM     46  S   UNL     1      16.320   5.719   0.765  1.00  0.00     0.124 S 
ATOM     47  O   UNL     1      15.731   4.973  -0.343  1.00  0.00    -0.237 OA
ATOM     48  O   UNL     1      15.640   6.959   1.125  1.00  0.00    -0.237 OA
ATOM     49  O   UNL     1      17.778   5.780   0.775  1.00  0.00    -0.744 OA
ENDBRANCH  45  46
ENDBRANCH  24  38
BRANCH  25  50
ATOM     50  C   UNL     1      12.783  -3.782  11.444  1.00  0.00     0.058 A 
ATOM     51  C   UNL     1      11.938  -3.457  12.515  1.00  0.00     0.135 A 
ATOM     52  C   UNL     1      13.279  -5.096  11.389  1.00  0.00     0.135 A 
ATOM     53  F   UNL     1      11.440  -2.215  12.623  1.00  0.00    -0.206 F 
ATOM     54  C   UNL     1      11.612  -4.387  13.499  1.00  0.00     0.059 A 
ATOM     55  C   UNL     1      12.943  -6.053  12.342  1.00  0.00     0.059 A 
ATOM     56  F   UNL     1      14.086  -5.470  10.383  1.00  0.00    -0.206 F 
ATOM     57  C   UNL     1      12.118  -5.684  13.403  1.00  0.00     0.060 A 
BRANCH  57  58
ATOM     58  S   UNL     1      11.669  -6.890  14.671  1.00  0.00     0.124 S 
ATOM     59  O   UNL     1      12.414  -6.396  15.823  1.00  0.00    -0.237 OA
ATOM     60  O   UNL     1      10.219  -6.740  14.736  1.00  0.00    -0.237 OA
ATOM     61  O   UNL     1      12.136  -8.156  14.114  1.00  0.00    -0.744 OA
ENDBRANCH  57  58
ENDBRANCH  25  50
BRANCH  37  62
ATOM     62  C   UNL     1      16.416   2.188  11.412  1.00  0.00     0.058 A 
ATOM     63  C   UNL     1      17.614   1.739  11.986  1.00  0.00     0.135 A 
ATOM     64  C   UNL     1      15.897   3.421  11.838  1.00  0.00     0.135 A 
ATOM     65  F   UNL     1      18.143   0.562  11.616  1.00  0.00    -0.206 F 
ATOM     66  C   UNL     1      18.266   2.480  12.964  1.00  0.00     0.059 A 
ATOM     67  C   UNL     1      16.550   4.193  12.789  1.00  0.00     0.059 A 
ATOM     68  F   UNL     1      14.758   3.896  11.308  1.00  0.00    -0.206 F 
ATOM     69  C   UNL     1      17.729   3.709  13.354  1.00  0.00     0.060 A 
BRANCH  69  70
ATOM     70  S   UNL     1      18.611   4.682  14.589  1.00  0.00     0.124 S 
ATOM     71  O   UNL     1      18.343   3.923  15.806  1.00  0.00    -0.237 OA
ATOM     72  O   UNL     1      19.985   4.633  14.100  1.00  0.00    -0.237 OA
ATOM     73  O   UNL     1      17.970   5.992  14.511  1.00  0.00    -0.744 OA
ENDBRANCH  69  70
ENDBRANCH  37  62
ENDBRANCH  11  12
ENDBRANCH   4   6
ENDBRANCH   3   4
ENDBRANCH   2   3
ENDBRANCH   1   2
BRANCH   1  74
ATOM     74  O   UNL     1       7.923  -5.482   2.513  1.00  0.00    -0.374 OA
BRANCH  74  75
ATOM     75  C   UNL     1       7.982  -6.885   2.287  1.00  0.00     0.202 C 
BRANCH  75  76
ATOM     76  C   UNL     1       7.056  -7.585   3.279  1.00  0.00     0.261 C 
BRANCH  76  77
ATOM     77  O   UNL     1       5.721  -7.064   3.145  1.00  0.00    -0.461 OA
BRANCH  77  78
ATOM     78  C   UNL     1       5.525  -5.890   3.826  1.00  0.00     0.343 C 
ATOM     79  O   UNL     1       6.329  -5.399   4.596  1.00  0.00    -0.249 OA
BRANCH  78  80
ATOM     80  C   UNL     1       4.158  -5.325   3.520  1.00  0.00     0.304 C 
ATOM     81  F   UNL     1       3.953  -5.235   2.165  1.00  0.00    -0.232 F 
BRANCH  80  82
ATOM     82  C   UNL     1       3.813  -3.959   4.163  1.00  0.00     0.163 C 
BRANCH  82  83
ATOM     83  C   UNL     1       4.321  -3.584   5.594  1.00  0.00     0.026 C 
ATOM     84  C   UNL     1       5.513  -2.608   5.571  1.00  0.00     0.035 C 
ATOM     85  C   UNL     1       4.460  -4.757   6.591  1.00  0.00     0.035 C 
ATOM     86  C   UNL     1       6.219  -2.555   6.908  1.00  0.00     0.160 C 
ATOM     87  C   UNL     1       5.703  -4.780   7.495  1.00  0.00     0.160 C 
ATOM     88  O   UNL     1       6.724  -3.850   7.173  1.00  0.00    -0.381 OA
ENDBRANCH  82  83
BRANCH  82  89
ATOM     89  O   UNL     1       4.059  -2.869   3.254  1.00  0.00    -0.389 OA
ATOM     90  H   UNL     1       5.014  -2.769   3.121  1.00  0.00     0.211 HD
ENDBRANCH  82  89
ENDBRANCH  80  82
ENDBRANCH  78  80
ENDBRANCH  77  78
ENDBRANCH  76  77
ENDBRANCH  75  76
ENDBRANCH  74  75
ENDBRANCH   1  74
TORSDOF 20
