REMARK SMILES Cc1ccc(C)n1-c1ccccc1S[C@H](C)C(=O)OCCOCCOC(=O)c1ccc(-c2c3nc(c(-c4c(F)cc(S(=O)(=O)[O-])cc4F)c4ccc([nH]4)c(-c4c(F)cc(S(=O)(=O)[O-])cc4F)c4nc(c(-c5c(F)cc(S(=O)(=O)[O-])cc5F)c5ccc2[nH]5)C=C4)C=C3)cc1
REMARK SMILES IDX 22 1 21 2 20 3 19 4 17 5 18 6 15 7 16 8 14 9 13 10 8 11 9 12
REMARK SMILES IDX 10 13 12 14 11 15 7 16 1 17 2 18 3 19 4 20 5 21 6 22 23 23
REMARK SMILES IDX 24 24 25 25 26 26 27 27 28 28 29 29 93 30 30 31 92 32 31 33
REMARK SMILES IDX 32 34 33 35 86 36 34 37 91 38 85 39 87 40 35 41 90 42 84 43
REMARK SMILES IDX 83 44 36 46 70 47 49 48 69 49 50 50 53 51 68 52 88 53 51 54
REMARK SMILES IDX 52 55 67 57 89 58 54 59 37 60 38 61 47 62 39 63 40 64 46 65
REMARK SMILES IDX 48 66 41 67 42 68 43 69 44 70 45 71 71 72 72 73 81 74 73 75
REMARK SMILES IDX 74 76 80 77 82 78 75 79 76 80 77 81 78 82 79 83 55 84 56 85
REMARK SMILES IDX 65 86 57 87 58 88 64 89 66 90 59 91 60 92 61 93 62 94 63 95
REMARK H PARENT 87 45 53 56
REMARK Flexibility Score: inf
ROOT
ATOM      1  O   UNL     1      -2.064   5.567  -0.172  1.00  0.00    -0.374 OA
ENDROOT
BRANCH   1   2
ATOM      2  C   UNL     1      -0.927   5.661   0.683  1.00  0.00     0.202 C 
BRANCH   2   3
ATOM      3  C   UNL     1      -0.636   4.419   1.546  1.00  0.00     0.261 C 
BRANCH   3   4
ATOM      4  O   UNL     1      -0.250   3.325   0.703  1.00  0.00    -0.462 OA
BRANCH   4   5
ATOM      5  C   UNL     1      -0.950   2.164   0.818  1.00  0.00     0.319 C 
ATOM      6  O   UNL     1      -1.707   1.895   1.745  1.00  0.00    -0.251 OA
BRANCH   5   7
ATOM      7  C   UNL     1      -0.750   1.273  -0.415  1.00  0.00     0.158 C 
ATOM      8  C   UNL     1      -0.022   1.951  -1.576  1.00  0.00     0.032 C 
BRANCH   7   9
ATOM      9  S   UNL     1      -0.083  -0.365   0.121  1.00  0.00    -0.109 SA
BRANCH   9  10
ATOM     10  C   UNL     1       1.254  -0.749  -1.023  1.00  0.00     0.032 A 
ATOM     11  C   UNL     1       2.579  -1.002  -0.607  1.00  0.00     0.059 A 
ATOM     12  C   UNL     1       3.618  -1.046  -1.555  1.00  0.00     0.028 A 
ATOM     13  C   UNL     1       3.349  -0.852  -2.910  1.00  0.00     0.002 A 
ATOM     14  C   UNL     1       0.996  -0.688  -2.403  1.00  0.00     0.017 A 
ATOM     15  C   UNL     1       2.036  -0.689  -3.335  1.00  0.00     0.001 A 
BRANCH  11  16
ATOM     16  N   UNL     1       2.913  -1.228   0.761  1.00  0.00    -0.317 N 
ATOM     17  C   UNL     1       1.396  -3.255   1.138  1.00  0.00     0.065 C 
ATOM     18  C   UNL     1       2.348  -2.199   1.591  1.00  0.00     0.020 A 
ATOM     19  C   UNL     1       2.881  -2.046   2.856  1.00  0.00     0.023 A 
ATOM     20  C   UNL     1       3.884  -1.065   2.781  1.00  0.00     0.023 A 
ATOM     21  C   UNL     1       3.929  -0.597   1.481  1.00  0.00     0.020 A 
ATOM     22  C   UNL     1       4.839   0.462   0.954  1.00  0.00     0.065 C 
ENDBRANCH  11  16
ENDBRANCH   9  10
ENDBRANCH   7   9
ENDBRANCH   5   7
ENDBRANCH   4   5
ENDBRANCH   3   4
ENDBRANCH   2   3
ENDBRANCH   1   2
BRANCH   1  23
ATOM     23  C   UNL     1      -1.904   4.921  -1.444  1.00  0.00     0.202 C 
BRANCH  23  24
ATOM     24  C   UNL     1      -1.112   5.654  -2.601  1.00  0.00     0.261 C 
BRANCH  24  25
ATOM     25  O   UNL     1       0.273   5.282  -3.041  1.00  0.00    -0.460 OA
BRANCH  25  26
ATOM     26  C   UNL     1       1.187   6.325  -3.170  1.00  0.00     0.338 C 
ATOM     27  O   UNL     1       1.036   7.355  -2.515  1.00  0.00    -0.246 OA
BRANCH  26  28
ATOM     28  C   UNL     1       2.496   6.181  -4.042  1.00  0.00     0.060 A 
ATOM     29  C   UNL     1       3.695   6.577  -3.454  1.00  0.00     0.016 A 
ATOM     30  C   UNL     1       2.642   5.968  -5.437  1.00  0.00     0.016 A 
ATOM     31  C   UNL     1       4.946   6.699  -4.192  1.00  0.00     0.010 A 
ATOM     32  C   UNL     1       3.934   6.174  -6.212  1.00  0.00     0.010 A 
ATOM     33  C   UNL     1       5.157   6.563  -5.621  1.00  0.00    -0.014 A 
BRANCH  33  34
ATOM     34  C   UNL     1       6.589   7.240  -6.269  1.00  0.00     0.031 A 
ATOM     35  C   UNL     1       6.783   8.406  -5.356  1.00  0.00     0.074 A 
ATOM     36  C   UNL     1       7.567   7.251  -7.307  1.00  0.00     0.049 A 
ATOM     37  N   UNL     1       5.814   9.266  -5.211  1.00  0.00    -0.248 NA
ATOM     38  C   UNL     1       7.801   8.454  -4.304  1.00  0.00     0.031 C 
ATOM     39  C   UNL     1       7.622   6.439  -8.542  1.00  0.00     0.029 A 
ATOM     40  N   UNL     1       8.792   8.030  -7.532  1.00  0.00    -0.354 N 
ATOM     41  C   UNL     1       6.230  10.163  -4.268  1.00  0.00     0.074 A 
ATOM     42  C   UNL     1       7.335   9.490  -3.594  1.00  0.00     0.031 C 
ATOM     43  C   UNL     1       8.782   6.619  -9.255  1.00  0.00     0.029 A 
ATOM     44  C   UNL     1       9.658   7.634  -8.656  1.00  0.00     0.049 A 
ATOM     45  H   UNL     1       9.026   8.791  -6.952  1.00  0.00     0.167 HD
ATOM     46  C   UNL     1       6.111  11.474  -4.622  1.00  0.00     0.037 A 
ATOM     47  C   UNL     1      10.895   8.131  -9.144  1.00  0.00     0.037 A 
ATOM     48  C   UNL     1       7.371  12.035  -5.024  1.00  0.00     0.049 A 
ATOM     49  C   UNL     1      10.896   9.559  -8.799  1.00  0.00     0.074 A 
ATOM     50  C   UNL     1       8.654  11.922  -4.527  1.00  0.00     0.029 A 
ATOM     51  N   UNL     1       7.488  12.418  -6.345  1.00  0.00    -0.354 N 
ATOM     52  N   UNL     1      10.164  10.416  -9.442  1.00  0.00    -0.248 NA
ATOM     53  C   UNL     1      11.829  10.130  -7.830  1.00  0.00     0.031 C 
ATOM     54  C   UNL     1       9.447  11.685  -5.669  1.00  0.00     0.029 A 
ATOM     55  C   UNL     1       8.730  12.048  -6.803  1.00  0.00     0.049 A 
ATOM     56  H   UNL     1       6.796  12.880  -6.872  1.00  0.00     0.167 HD
ATOM     57  C   UNL     1      10.161  11.495  -8.618  1.00  0.00     0.074 A 
ATOM     58  C   UNL     1      11.376  11.386  -7.830  1.00  0.00     0.031 C 
ATOM     59  C   UNL     1       8.938  11.926  -8.225  1.00  0.00     0.037 A 
BRANCH  46  60
ATOM     60  C   UNL     1       4.801  11.823  -5.279  1.00  0.00     0.058 A 
ATOM     61  C   UNL     1       3.878  12.601  -4.577  1.00  0.00     0.135 A 
ATOM     62  C   UNL     1       4.410  11.336  -6.548  1.00  0.00     0.135 A 
ATOM     63  F   UNL     1       4.207  13.125  -3.384  1.00  0.00    -0.206 F 
ATOM     64  C   UNL     1       2.606  12.850  -5.085  1.00  0.00     0.059 A 
ATOM     65  C   UNL     1       3.130  11.530  -7.052  1.00  0.00     0.059 A 
ATOM     66  F   UNL     1       5.285  10.674  -7.323  1.00  0.00    -0.206 F 
ATOM     67  C   UNL     1       2.233  12.290  -6.311  1.00  0.00     0.060 A 
BRANCH  67  68
ATOM     68  S   UNL     1       0.547  12.557  -6.895  1.00  0.00     0.124 S 
ATOM     69  O   UNL     1      -0.243  12.291  -5.698  1.00  0.00    -0.237 OA
ATOM     70  O   UNL     1       0.597  13.948  -7.318  1.00  0.00    -0.237 OA
ATOM     71  O   UNL     1       0.391  11.563  -7.961  1.00  0.00    -0.744 OA
ENDBRANCH  67  68
ENDBRANCH  46  60
BRANCH  47  72
ATOM     72  C   UNL     1      12.181   7.899 -10.094  1.00  0.00     0.058 A 
ATOM     73  C   UNL     1      12.907   9.010 -10.685  1.00  0.00     0.135 A 
ATOM     74  C   UNL     1      12.959   6.727 -10.087  1.00  0.00     0.135 A 
ATOM     75  F   UNL     1      12.332  10.211 -10.840  1.00  0.00    -0.206 F 
ATOM     76  C   UNL     1      14.270   8.994 -11.078  1.00  0.00     0.059 A 
ATOM     77  C   UNL     1      14.332   6.680 -10.514  1.00  0.00     0.059 A 
ATOM     78  F   UNL     1      12.445   5.596  -9.587  1.00  0.00    -0.206 F 
ATOM     79  C   UNL     1      14.997   7.827 -10.956  1.00  0.00     0.060 A 
BRANCH  79  80
ATOM     80  S   UNL     1      16.806   7.878 -11.240  1.00  0.00     0.124 S 
ATOM     81  O   UNL     1      16.905   8.160 -12.668  1.00  0.00    -0.237 OA
ATOM     82  O   UNL     1      17.235   8.959 -10.356  1.00  0.00    -0.237 OA
ATOM     83  O   UNL     1      17.250   6.546 -10.837  1.00  0.00    -0.744 OA
ENDBRANCH  79  80
ENDBRANCH  47  72
BRANCH  59  84
ATOM     84  C   UNL     1       7.869  12.038  -9.301  1.00  0.00     0.058 A 
ATOM     85  C   UNL     1       7.471  11.032 -10.213  1.00  0.00     0.135 A 
ATOM     86  C   UNL     1       7.266  13.294  -9.475  1.00  0.00     0.135 A 
ATOM     87  F   UNL     1       7.884   9.762 -10.094  1.00  0.00    -0.206 F 
ATOM     88  C   UNL     1       6.613  11.292 -11.285  1.00  0.00     0.059 A 
ATOM     89  C   UNL     1       6.366  13.563 -10.506  1.00  0.00     0.059 A 
ATOM     90  F   UNL     1       7.556  14.293  -8.625  1.00  0.00    -0.206 F 
ATOM     91  C   UNL     1       6.078  12.567 -11.434  1.00  0.00     0.060 A 
BRANCH  91  92
ATOM     92  S   UNL     1       4.998  12.908 -12.842  1.00  0.00     0.124 S 
ATOM     93  O   UNL     1       5.955  12.983 -13.943  1.00  0.00    -0.237 OA
ATOM     94  O   UNL     1       4.115  11.746 -12.860  1.00  0.00    -0.237 OA
ATOM     95  O   UNL     1       4.368  14.175 -12.485  1.00  0.00    -0.744 OA
ENDBRANCH  91  92
ENDBRANCH  59  84
ENDBRANCH  33  34
ENDBRANCH  26  28
ENDBRANCH  25  26
ENDBRANCH  24  25
ENDBRANCH  23  24
ENDBRANCH   1  23
TORSDOF 20
