REMARK SMILES CC(=O)Nc1ccc2c(C(=O)OCCOCCOC(=O)c3ccc(-c4c5nc(c(-c6c(F)cc(S(=O)(=O)[O-])cc6F)c6ccc([nH]6)c(-c6c(F)cc(S(=O)(=O)[O-])cc6F)c6nc(c(-c7c(F)cc(S(=O)(=O)[O-])cc7F)c7ccc4[nH]7)C=C6)C=C5)cc3)c(C)c(O)nc2n1
REMARK SMILES IDX 16 1 15 2 14 3 13 4 12 5 10 6 11 7 9 8 5 9 6 10 93 11 7 12
REMARK SMILES IDX 92 13 8 14 91 15 89 16 87 17 88 18 4 19 1 20 2 21 3 22 90 24
REMARK SMILES IDX 17 26 18 27 19 28 20 29 21 30 22 31 86 32 23 33 85 34 24 35
REMARK SMILES IDX 25 36 26 37 79 38 27 39 84 40 78 41 80 42 28 43 83 44 77 45
REMARK SMILES IDX 76 46 29 48 63 49 42 50 62 51 43 52 46 53 61 54 81 55 44 56
REMARK SMILES IDX 45 57 60 59 82 60 47 61 30 62 31 63 40 64 32 65 33 66 39 67
REMARK SMILES IDX 41 68 34 69 35 70 36 71 37 72 38 73 64 74 65 75 74 76 66 77
REMARK SMILES IDX 67 78 73 79 75 80 68 81 69 82 70 83 71 84 72 85 48 86 49 87
REMARK SMILES IDX 58 88 50 89 51 90 57 91 59 92 52 93 53 94 54 95 55 96 56 97
REMARK H PARENT 4 23 90 25 80 47 46 58
REMARK Flexibility Score: inf
ROOT
ATOM      1  C   UNL     1       5.623   3.528   1.974  1.00  0.00     0.202 C 
ENDROOT
BRANCH   1   2
ATOM      2  O   UNL     1       6.964   3.128   1.682  1.00  0.00    -0.374 OA
BRANCH   2   3
ATOM      3  C   UNL     1       7.937   4.157   1.499  1.00  0.00     0.202 C 
BRANCH   3   4
ATOM      4  C   UNL     1       7.902   4.881   0.151  1.00  0.00     0.261 C 
BRANCH   4   5
ATOM      5  O   UNL     1       6.614   5.475  -0.066  1.00  0.00    -0.460 OA
BRANCH   5   6
ATOM      6  C   UNL     1       5.998   5.115  -1.212  1.00  0.00     0.339 C 
ATOM      7  O   UNL     1       6.484   4.492  -2.145  1.00  0.00    -0.246 OA
BRANCH   6   8
ATOM      8  C   UNL     1       4.555   5.436  -1.145  1.00  0.00     0.079 A 
ATOM      9  C   UNL     1       1.683   2.458  -1.644  1.00  0.00     0.135 A 
ATOM     10  C   UNL     1       2.975   2.024  -1.432  1.00  0.00     0.048 A 
ATOM     11  N   UNL     1       1.362   3.760  -1.720  1.00  0.00    -0.211 NA
ATOM     12  C   UNL     1       3.967   2.988  -1.311  1.00  0.00     0.017 A 
ATOM     13  C   UNL     1       2.290   4.692  -1.492  1.00  0.00     0.166 A 
ATOM     14  C   UNL     1       3.638   4.364  -1.330  1.00  0.00     0.035 A 
ATOM     15  N   UNL     1       1.873   5.947  -1.394  1.00  0.00    -0.193 NA
ATOM     16  C   UNL     1       2.744   6.927  -1.095  1.00  0.00     0.216 A 
ATOM     17  C   UNL     1       4.108   6.750  -0.946  1.00  0.00     0.026 A 
ATOM     18  C   UNL     1       5.030   7.843  -0.491  1.00  0.00     0.051 C 
BRANCH   9  19
ATOM     19  N   UNL     1       0.630   1.582  -1.889  1.00  0.00    -0.311 N 
ATOM     20  C   UNL     1       1.040  -0.079  -0.106  1.00  0.00     0.114 C 
ATOM     21  C   UNL     1       0.381   0.336  -1.397  1.00  0.00     0.222 C 
ATOM     22  O   UNL     1      -0.444  -0.395  -1.947  1.00  0.00    -0.275 OA
ATOM     23  H   UNL     1      -0.046   1.917  -2.523  1.00  0.00     0.171 HD
ENDBRANCH   9  19
BRANCH  16  24
ATOM     24  O   UNL     1       2.135   8.133  -0.931  1.00  0.00    -0.493 OA
ATOM     25  H   UNL     1       2.645   8.890  -0.720  1.00  0.00     0.295 HD
ENDBRANCH  16  24
ENDBRANCH   6   8
ENDBRANCH   5   6
ENDBRANCH   4   5
ENDBRANCH   3   4
ENDBRANCH   2   3
ENDBRANCH   1   2
BRANCH   1  26
ATOM     26  C   UNL     1       5.348   4.148   3.348  1.00  0.00     0.261 C 
BRANCH  26  27
ATOM     27  O   UNL     1       5.890   5.477   3.462  1.00  0.00    -0.460 OA
BRANCH  27  28
ATOM     28  C   UNL     1       6.853   5.620   4.403  1.00  0.00     0.338 C 
ATOM     29  O   UNL     1       7.276   4.763   5.166  1.00  0.00    -0.246 OA
BRANCH  28  30
ATOM     30  C   UNL     1       7.484   6.941   4.269  1.00  0.00     0.060 A 
ATOM     31  C   UNL     1       8.829   6.993   3.880  1.00  0.00     0.016 A 
ATOM     32  C   UNL     1       6.800   8.101   4.638  1.00  0.00     0.016 A 
ATOM     33  C   UNL     1       9.509   8.207   3.892  1.00  0.00     0.010 A 
ATOM     34  C   UNL     1       7.491   9.315   4.671  1.00  0.00     0.010 A 
ATOM     35  C   UNL     1       8.855   9.364   4.333  1.00  0.00    -0.014 A 
BRANCH  35  36
ATOM     36  C   UNL     1       9.656  10.575   4.627  1.00  0.00     0.031 A 
ATOM     37  C   UNL     1      10.158  10.778   6.031  1.00  0.00     0.074 A 
ATOM     38  C   UNL     1       9.968  11.449   3.654  1.00  0.00     0.049 A 
ATOM     39  N   UNL     1      10.861  11.763   6.522  1.00  0.00    -0.248 NA
ATOM     40  C   UNL     1       9.827   9.727   7.009  1.00  0.00     0.031 C 
ATOM     41  C   UNL     1       9.583  11.322   2.249  1.00  0.00     0.029 A 
ATOM     42  N   UNL     1      10.682  12.619   3.704  1.00  0.00    -0.354 N 
ATOM     43  C   UNL     1      11.068  11.447   7.860  1.00  0.00     0.074 A 
ATOM     44  C   UNL     1      10.386  10.198   8.114  1.00  0.00     0.031 C 
ATOM     45  C   UNL     1      10.059  12.381   1.571  1.00  0.00     0.029 A 
ATOM     46  C   UNL     1      10.758  13.271   2.498  1.00  0.00     0.049 A 
ATOM     47  H   UNL     1      11.102  12.959   4.527  1.00  0.00     0.167 HD
ATOM     48  C   UNL     1      11.776  12.132   8.788  1.00  0.00     0.037 A 
ATOM     49  C   UNL     1      11.312  14.460   2.186  1.00  0.00     0.037 A 
ATOM     50  C   UNL     1      12.444  13.379   8.531  1.00  0.00     0.049 A 
ATOM     51  C   UNL     1      12.003  15.255   3.264  1.00  0.00     0.074 A 
ATOM     52  C   UNL     1      13.190  14.150   9.405  1.00  0.00     0.029 A 
ATOM     53  N   UNL     1      12.443  14.041   7.312  1.00  0.00    -0.354 N 
ATOM     54  N   UNL     1      12.205  14.938   4.521  1.00  0.00    -0.248 NA
ATOM     55  C   UNL     1      12.538  16.571   2.884  1.00  0.00     0.031 C 
ATOM     56  C   UNL     1      13.600  15.302   8.727  1.00  0.00     0.029 A 
ATOM     57  C   UNL     1      13.149  15.226   7.419  1.00  0.00     0.049 A 
ATOM     58  H   UNL     1      12.004  13.716   6.493  1.00  0.00     0.167 HD
ATOM     59  C   UNL     1      12.905  16.005   5.076  1.00  0.00     0.074 A 
ATOM     60  C   UNL     1      13.106  16.969   4.014  1.00  0.00     0.031 C 
ATOM     61  C   UNL     1      13.340  16.174   6.349  1.00  0.00     0.037 A 
BRANCH  48  62
ATOM     62  C   UNL     1      11.861  11.554  10.171  1.00  0.00     0.058 A 
ATOM     63  C   UNL     1      12.670  10.441  10.450  1.00  0.00     0.135 A 
ATOM     64  C   UNL     1      11.183  12.158  11.242  1.00  0.00     0.135 A 
ATOM     65  F   UNL     1      13.321   9.813   9.458  1.00  0.00    -0.206 F 
ATOM     66  C   UNL     1      12.800   9.945  11.742  1.00  0.00     0.059 A 
ATOM     67  C   UNL     1      11.316  11.692  12.546  1.00  0.00     0.059 A 
ATOM     68  F   UNL     1      10.389  13.219  11.026  1.00  0.00    -0.206 F 
ATOM     69  C   UNL     1      12.126  10.582  12.785  1.00  0.00     0.060 A 
BRANCH  69  70
ATOM     70  S   UNL     1      12.340   9.946  14.461  1.00  0.00     0.124 S 
ATOM     71  O   UNL     1      11.637   8.670  14.381  1.00  0.00    -0.237 OA
ATOM     72  O   UNL     1      13.792   9.864  14.577  1.00  0.00    -0.237 OA
ATOM     73  O   UNL     1      11.703  10.961  15.295  1.00  0.00    -0.744 OA
ENDBRANCH  69  70
ENDBRANCH  48  62
BRANCH  49  74
ATOM     74  C   UNL     1      11.226  14.983   0.796  1.00  0.00     0.058 A 
ATOM     75  C   UNL     1      12.369  15.089  -0.009  1.00  0.00     0.135 A 
ATOM     76  C   UNL     1      10.001  15.396   0.249  1.00  0.00     0.135 A 
ATOM     77  F   UNL     1      13.565  14.718   0.474  1.00  0.00    -0.206 F 
ATOM     78  C   UNL     1      12.306  15.598  -1.302  1.00  0.00     0.059 A 
ATOM     79  C   UNL     1       9.908  15.886  -1.050  1.00  0.00     0.059 A 
ATOM     80  F   UNL     1       8.875  15.307   0.974  1.00  0.00    -0.206 F 
ATOM     81  C   UNL     1      11.068  15.992  -1.814  1.00  0.00     0.060 A 
BRANCH  81  82
ATOM     82  S   UNL     1      10.992  16.610  -3.509  1.00  0.00     0.124 S 
ATOM     83  O   UNL     1      11.651  17.904  -3.380  1.00  0.00    -0.237 OA
ATOM     84  O   UNL     1      11.731  15.585  -4.240  1.00  0.00    -0.237 OA
ATOM     85  O   UNL     1       9.559  16.655  -3.785  1.00  0.00    -0.744 OA
ENDBRANCH  81  82
ENDBRANCH  49  74
BRANCH  61  86
ATOM     86  C   UNL     1      14.082  17.440   6.674  1.00  0.00     0.058 A 
ATOM     87  C   UNL     1      13.414  18.667   6.795  1.00  0.00     0.135 A 
ATOM     88  C   UNL     1      15.459  17.410   6.952  1.00  0.00     0.135 A 
ATOM     89  F   UNL     1      12.100  18.750   6.534  1.00  0.00    -0.206 F 
ATOM     90  C   UNL     1      14.086  19.825   7.173  1.00  0.00     0.059 A 
ATOM     91  C   UNL     1      16.146  18.550   7.358  1.00  0.00     0.059 A 
ATOM     92  F   UNL     1      16.142  16.258   6.861  1.00  0.00    -0.206 F 
ATOM     93  C   UNL     1      15.451  19.754   7.460  1.00  0.00     0.060 A 
BRANCH  93  94
ATOM     94  S   UNL     1      16.295  21.255   8.003  1.00  0.00     0.124 S 
ATOM     95  O   UNL     1      16.326  22.037   6.772  1.00  0.00    -0.237 OA
ATOM     96  O   UNL     1      15.405  21.751   9.048  1.00  0.00    -0.237 OA
ATOM     97  O   UNL     1      17.590  20.768   8.470  1.00  0.00    -0.744 OA
ENDBRANCH  93  94
ENDBRANCH  61  86
ENDBRANCH  35  36
ENDBRANCH  28  30
ENDBRANCH  27  28
ENDBRANCH  26  27
ENDBRANCH   1  26
TORSDOF 19
