REMARK SMILES O=C(Cc1ccccc1Nc1c(Cl)cccc1C(F)(F)F)OCCOCCOC(=O)c1ccc(-c2c3nc(c(-c4c(F)cc(S(=O)(=O)[O-])cc4F)c4ccc([nH]4)c(-c4c(F)cc(S(=O)(=O)[O-])cc4F)c4nc(c(-c5c(F)cc(S(=O)(=O)[O-])cc5F)c5ccc2[nH]5)C=C4)C=C3)cc1
REMARK SMILES IDX 24 1 23 2 22 3 2 4 1 5 3 6 4 7 5 8 9 9 6 10 8 11 7 12 10 13
REMARK SMILES IDX 11 15 12 16 17 17 13 18 14 19 16 20 15 21 18 22 19 23 20 24
REMARK SMILES IDX 21 25 25 26 26 27 27 28 28 29 29 30 30 31 31 32 32 33 96 34
REMARK SMILES IDX 33 35 95 36 34 37 35 38 36 39 89 40 37 41 94 42 88 43 90 44
REMARK SMILES IDX 38 45 93 46 87 47 86 48 39 50 73 51 52 52 72 53 53 54 56 55
REMARK SMILES IDX 71 56 91 57 54 58 55 59 70 61 92 62 57 63 40 64 41 65 50 66
REMARK SMILES IDX 42 67 43 68 49 69 51 70 44 71 45 72 46 73 47 74 48 75 74 76
REMARK SMILES IDX 75 77 84 78 76 79 77 80 83 81 85 82 78 83 79 84 80 85 81 86
REMARK SMILES IDX 82 87 58 88 59 89 68 90 60 91 61 92 67 93 69 94 62 95 63 96
REMARK SMILES IDX 64 97 65 98 66 99
REMARK H PARENT 10 14 90 49 56 60
REMARK Flexibility Score: inf
ROOT
ATOM      1  C   UNL     1       4.793  -0.992  -0.581  1.00  0.00     0.202 C 
ENDROOT
BRANCH   1   2
ATOM      2  C   UNL     1       3.950  -1.192   0.687  1.00  0.00     0.261 C 
BRANCH   2   3
ATOM      3  O   UNL     1       2.602  -0.708   0.720  1.00  0.00    -0.463 OA
BRANCH   3   4
ATOM      4  C   UNL     1       2.240   0.589   0.796  1.00  0.00     0.310 C 
ATOM      5  O   UNL     1       1.204   0.899   1.383  1.00  0.00    -0.252 OA
BRANCH   4   6
ATOM      6  C   UNL     1       3.000   1.600  -0.024  1.00  0.00     0.160 C 
BRANCH   6   7
ATOM      7  C   UNL     1       3.812   2.595   0.759  1.00  0.00    -0.013 A 
ATOM      8  C   UNL     1       4.847   2.142   1.597  1.00  0.00     0.006 A 
ATOM      9  C   UNL     1       3.618   3.980   0.616  1.00  0.00     0.042 A 
ATOM     10  C   UNL     1       5.571   3.018   2.397  1.00  0.00     0.000 A 
ATOM     11  C   UNL     1       4.299   4.841   1.488  1.00  0.00     0.026 A 
ATOM     12  C   UNL     1       5.256   4.365   2.385  1.00  0.00     0.002 A 
BRANCH   9  13
ATOM     13  N   UNL     1       2.866   4.485  -0.464  1.00  0.00    -0.354 N 
ATOM     14  H   UNL     1       2.256   3.833  -0.879  1.00  0.00     0.167 HD
BRANCH  13  15
ATOM     15  C   UNL     1       2.842   5.766  -1.048  1.00  0.00     0.070 A 
ATOM     16  C   UNL     1       1.582   6.387  -1.221  1.00  0.00     0.065 A 
ATOM     17  C   UNL     1       4.001   6.489  -1.391  1.00  0.00     0.080 A 
ATOM     18  Cl  UNL     1       0.118   5.506  -0.924  1.00  0.00    -0.082 Cl
ATOM     19  C   UNL     1       1.472   7.713  -1.630  1.00  0.00     0.023 A 
ATOM     20  C   UNL     1       3.870   7.842  -1.775  1.00  0.00     0.015 A 
ATOM     21  C   UNL     1       2.621   8.451  -1.881  1.00  0.00     0.002 A 
BRANCH  17  22
ATOM     22  C   UNL     1       5.387   5.880  -1.443  1.00  0.00     0.418 C 
ATOM     23  F   UNL     1       6.127   6.415  -2.466  1.00  0.00    -0.166 F 
ATOM     24  F   UNL     1       6.122   6.130  -0.324  1.00  0.00    -0.166 F 
ATOM     25  F   UNL     1       5.431   4.539  -1.660  1.00  0.00    -0.166 F 
ENDBRANCH  17  22
ENDBRANCH  13  15
ENDBRANCH   9  13
ENDBRANCH   6   7
ENDBRANCH   4   6
ENDBRANCH   3   4
ENDBRANCH   2   3
ENDBRANCH   1   2
BRANCH   1  26
ATOM     26  O   UNL     1       4.219  -0.622  -1.828  1.00  0.00    -0.374 OA
BRANCH  26  27
ATOM     27  C   UNL     1       2.946  -1.099  -2.231  1.00  0.00     0.202 C 
BRANCH  27  28
ATOM     28  C   UNL     1       2.907  -2.501  -2.818  1.00  0.00     0.261 C 
BRANCH  28  29
ATOM     29  O   UNL     1       3.389  -3.467  -1.882  1.00  0.00    -0.460 OA
BRANCH  29  30
ATOM     30  C   UNL     1       4.661  -3.866  -2.106  1.00  0.00     0.338 C 
ATOM     31  O   UNL     1       5.393  -3.530  -3.027  1.00  0.00    -0.246 OA
BRANCH  30  32
ATOM     32  C   UNL     1       5.130  -4.639  -0.947  1.00  0.00     0.060 A 
ATOM     33  C   UNL     1       6.413  -4.358  -0.461  1.00  0.00     0.016 A 
ATOM     34  C   UNL     1       4.341  -5.634  -0.364  1.00  0.00     0.016 A 
ATOM     35  C   UNL     1       6.934  -5.109   0.581  1.00  0.00     0.010 A 
ATOM     36  C   UNL     1       4.871  -6.399   0.673  1.00  0.00     0.010 A 
ATOM     37  C   UNL     1       6.184  -6.164   1.114  1.00  0.00    -0.014 A 
BRANCH  37  38
ATOM     38  C   UNL     1       6.868  -7.128   1.998  1.00  0.00     0.031 A 
ATOM     39  C   UNL     1       7.371  -8.411   1.399  1.00  0.00     0.074 A 
ATOM     40  C   UNL     1       7.106  -6.813   3.281  1.00  0.00     0.049 A 
ATOM     41  N   UNL     1       8.032  -9.383   1.965  1.00  0.00    -0.248 NA
ATOM     42  C   UNL     1       7.092  -8.625  -0.033  1.00  0.00     0.031 C 
ATOM     43  C   UNL     1       6.682  -5.577   3.939  1.00  0.00     0.029 A 
ATOM     44  N   UNL     1       7.769  -7.506   4.258  1.00  0.00    -0.354 N 
ATOM     45  C   UNL     1       8.259 -10.318   0.961  1.00  0.00     0.074 A 
ATOM     46  C   UNL     1       7.623  -9.821  -0.238  1.00  0.00     0.031 C 
ATOM     47  C   UNL     1       7.091  -5.603   5.219  1.00  0.00     0.029 A 
ATOM     48  C   UNL     1       7.780  -6.866   5.473  1.00  0.00     0.049 A 
ATOM     49  H   UNL     1       8.196  -8.380   4.104  1.00  0.00     0.167 HD
ATOM     50  C   UNL     1       8.954 -11.476   1.033  1.00  0.00     0.037 A 
ATOM     51  C   UNL     1       8.276  -7.271   6.657  1.00  0.00     0.037 A 
ATOM     52  C   UNL     1       9.573 -11.958   2.240  1.00  0.00     0.049 A 
ATOM     53  C   UNL     1       8.994  -8.593   6.724  1.00  0.00     0.074 A 
ATOM     54  C   UNL     1      10.294 -13.123   2.434  1.00  0.00     0.029 A 
ATOM     55  N   UNL     1       9.542 -11.299   3.462  1.00  0.00    -0.354 N 
ATOM     56  N   UNL     1       9.215  -9.463   5.765  1.00  0.00    -0.248 NA
ATOM     57  C   UNL     1       9.543  -8.983   8.028  1.00  0.00     0.031 C 
ATOM     58  C   UNL     1      10.656 -13.191   3.784  1.00  0.00     0.029 A 
ATOM     59  C   UNL     1      10.214 -12.041   4.419  1.00  0.00     0.049 A 
ATOM     60  H   UNL     1       9.106 -10.432   3.624  1.00  0.00     0.167 HD
ATOM     61  C   UNL     1       9.944 -10.495   6.347  1.00  0.00     0.074 A 
ATOM     62  C   UNL     1      10.153 -10.121   7.732  1.00  0.00     0.031 C 
ATOM     63  C   UNL     1      10.398 -11.649   5.794  1.00  0.00     0.037 A 
BRANCH  50  64
ATOM     64  C   UNL     1       9.069 -12.303  -0.218  1.00  0.00     0.058 A 
ATOM     65  C   UNL     1       9.856 -11.890  -1.306  1.00  0.00     0.135 A 
ATOM     66  C   UNL     1       8.418 -13.543  -0.317  1.00  0.00     0.135 A 
ATOM     67  F   UNL     1      10.479 -10.700  -1.277  1.00  0.00    -0.206 F 
ATOM     68  C   UNL     1       9.985 -12.671  -2.450  1.00  0.00     0.059 A 
ATOM     69  C   UNL     1       8.556 -14.354  -1.441  1.00  0.00     0.059 A 
ATOM     70  F   UNL     1       7.643 -13.982   0.687  1.00  0.00    -0.206 F 
ATOM     71  C   UNL     1       9.336 -13.905  -2.505  1.00  0.00     0.060 A 
BRANCH  71  72
ATOM     72  S   UNL     1       9.544 -14.921  -3.983  1.00  0.00     0.124 S 
ATOM     73  O   UNL     1       8.789 -14.158  -4.971  1.00  0.00    -0.237 OA
ATOM     74  O   UNL     1      10.993 -14.923  -4.156  1.00  0.00    -0.237 OA
ATOM     75  O   UNL     1       8.959 -16.203  -3.601  1.00  0.00    -0.744 OA
ENDBRANCH  71  72
ENDBRANCH  50  64
BRANCH  51  76
ATOM     76  C   UNL     1       8.092  -6.429   7.869  1.00  0.00     0.058 A 
ATOM     77  C   UNL     1       9.179  -5.824   8.517  1.00  0.00     0.135 A 
ATOM     78  C   UNL     1       6.813  -6.223   8.412  1.00  0.00     0.135 A 
ATOM     79  F   UNL     1      10.422  -5.994   8.041  1.00  0.00    -0.206 F 
ATOM     80  C   UNL     1       9.010  -5.069   9.673  1.00  0.00     0.059 A 
ATOM     81  C   UNL     1       6.614  -5.445   9.547  1.00  0.00     0.059 A 
ATOM     82  F   UNL     1       5.736  -6.765   7.822  1.00  0.00    -0.206 F 
ATOM     83  C   UNL     1       7.722  -4.885  10.180  1.00  0.00     0.060 A 
BRANCH  83  84
ATOM     84  S   UNL     1       7.510  -3.879  11.664  1.00  0.00     0.124 S 
ATOM     85  O   UNL     1       8.048  -4.759  12.695  1.00  0.00    -0.237 OA
ATOM     86  O   UNL     1       8.309  -2.699  11.349  1.00  0.00    -0.237 OA
ATOM     87  O   UNL     1       6.068  -3.655  11.714  1.00  0.00    -0.744 OA
ENDBRANCH  83  84
ENDBRANCH  51  76
BRANCH  63  88
ATOM     88  C   UNL     1      11.180 -12.571   6.691  1.00  0.00     0.058 A 
ATOM     89  C   UNL     1      10.569 -13.268   7.746  1.00  0.00     0.135 A 
ATOM     90  C   UNL     1      12.556 -12.764   6.487  1.00  0.00     0.135 A 
ATOM     91  F   UNL     1       9.256 -13.119   7.984  1.00  0.00    -0.206 F 
ATOM     92  C   UNL     1      11.306 -14.079   8.602  1.00  0.00     0.059 A 
ATOM     93  C   UNL     1      13.305 -13.600   7.309  1.00  0.00     0.059 A 
ATOM     94  F   UNL     1      13.187 -12.138   5.481  1.00  0.00    -0.206 F 
ATOM     95  C   UNL     1      12.675 -14.233   8.379  1.00  0.00     0.060 A 
BRANCH  95  96
ATOM     96  S   UNL     1      13.622 -15.274   9.508  1.00  0.00     0.124 S 
ATOM     97  O   UNL     1      13.687 -14.432  10.698  1.00  0.00    -0.237 OA
ATOM     98  O   UNL     1      12.782 -16.463   9.617  1.00  0.00    -0.237 OA
ATOM     99  O   UNL     1      14.888 -15.470   8.808  1.00  0.00    -0.744 OA
ENDBRANCH  95  96
ENDBRANCH  63  88
ENDBRANCH  37  38
ENDBRANCH  30  32
ENDBRANCH  29  30
ENDBRANCH  28  29
ENDBRANCH  27  28
ENDBRANCH  26  27
ENDBRANCH   1  26
TORSDOF 21
