REMARK SMILES C[N@H+](CC(C)(C)C(=O)OCCOCCOC(=O)c1ccc(-c2c3nc(c(-c4c(F)cc(S(=O)(=O)[O-])cc4F)c4ccc([nH]4)c(-c4c(F)cc(S(=O)(=O)[O-])cc4F)c4nc(c(-c5c(F)cc(S(=O)(=O)[O-])cc5F)c5ccc2[nH]5)C=C4)C=C3)cc1)[C@@H]1CCCC[C@@H]1C[NH3+]
REMARK SMILES IDX 11 1 10 2 9 3 7 4 8 5 4 6 5 7 6 8 3 9 2 10 1 11 84 13 85 14
REMARK SMILES IDX 89 15 86 16 88 17 87 18 90 19 91 20 12 24 13 25 14 26 15 27
REMARK SMILES IDX 16 28 17 29 18 30 19 31 83 32 20 33 82 34 21 35 22 36 23 37
REMARK SMILES IDX 76 38 24 39 81 40 75 41 77 42 25 43 80 44 74 45 73 46 26 48
REMARK SMILES IDX 60 49 39 50 59 51 40 52 43 53 58 54 78 55 41 56 42 57 57 59
REMARK SMILES IDX 79 60 44 61 27 62 28 63 37 64 29 65 30 66 36 67 38 68 31 69
REMARK SMILES IDX 32 70 33 71 34 72 35 73 61 74 62 75 71 76 63 77 64 78 70 79
REMARK SMILES IDX 72 80 65 81 66 82 67 83 68 84 69 85 45 86 46 87 55 88 47 89
REMARK SMILES IDX 48 90 54 91 56 92 49 93 50 94 51 95 52 96 53 97
REMARK H PARENT 2 12 91 21 91 22 91 23 77 47 43 58
REMARK Flexibility Score: inf
ROOT
ATOM      1  C   UNL     1      -1.136   0.759   3.855  1.00  0.00     0.202 C 
ENDROOT
BRANCH   1   2
ATOM      2  C   UNL     1      -1.070   1.922   2.845  1.00  0.00     0.261 C 
BRANCH   2   3
ATOM      3  O   UNL     1      -1.817   1.788   1.628  1.00  0.00    -0.463 OA
BRANCH   3   4
ATOM      4  C   UNL     1      -1.112   1.112   0.673  1.00  0.00     0.317 C 
ATOM      5  O   UNL     1      -0.108   0.469   0.958  1.00  0.00    -0.251 OA
BRANCH   4   6
ATOM      6  C   UNL     1      -1.774   1.163  -0.712  1.00  0.00     0.111 C 
ATOM      7  C   UNL     1      -2.207   2.605  -1.043  1.00  0.00     0.029 C 
ATOM      8  C   UNL     1      -3.069   0.322  -0.680  1.00  0.00     0.029 C 
BRANCH   6   9
ATOM      9  C   UNL     1      -0.818   0.567  -1.816  1.00  0.00     0.280 C 
BRANCH   9  10
ATOM     10  N   UNL     1       0.632   0.701  -1.621  1.00  0.00    -0.334 N 
ATOM     11  C   UNL     1       1.303  -0.523  -1.201  1.00  0.00     0.333 C 
ATOM     12  H   UNL     1       0.654   1.280  -0.782  1.00  0.00     0.348 HD
BRANCH  10  13
ATOM     13  C   UNL     1       1.389   1.678  -2.408  1.00  0.00     0.192 C 
ATOM     14  C   UNL     1       2.926   1.481  -2.381  1.00  0.00     0.065 C 
ATOM     15  C   UNL     1       1.058   3.128  -1.955  1.00  0.00     0.102 C 
ATOM     16  C   UNL     1       3.667   2.522  -3.220  1.00  0.00     0.006 C 
ATOM     17  C   UNL     1       1.761   4.138  -2.875  1.00  0.00     0.015 C 
ATOM     18  C   UNL     1       3.273   3.957  -2.893  1.00  0.00     0.001 C 
BRANCH  15  19
ATOM     19  C   UNL     1       1.385   3.372  -0.459  1.00  0.00     0.268 C 
BRANCH  19  20
ATOM     20  N   UNL     1       0.736   4.573   0.065  1.00  0.00    -0.357 N 
ATOM     21  H   UNL     1       1.068   5.390  -0.448  1.00  0.00     0.344 HD
ATOM     22  H   UNL     1       0.961   4.677   1.054  1.00  0.00     0.344 HD
ATOM     23  H   UNL     1      -0.274   4.489  -0.047  1.00  0.00     0.344 HD
ENDBRANCH  19  20
ENDBRANCH  15  19
ENDBRANCH  10  13
ENDBRANCH   9  10
ENDBRANCH   6   9
ENDBRANCH   4   6
ENDBRANCH   3   4
ENDBRANCH   2   3
ENDBRANCH   1   2
BRANCH   1  24
ATOM     24  O   UNL     1      -1.119  -0.602   3.448  1.00  0.00    -0.374 OA
BRANCH  24  25
ATOM     25  C   UNL     1      -2.170  -1.120   2.644  1.00  0.00     0.202 C 
BRANCH  25  26
ATOM     26  C   UNL     1      -3.623  -0.996   3.107  1.00  0.00     0.261 C 
BRANCH  26  27
ATOM     27  O   UNL     1      -4.012   0.352   3.406  1.00  0.00    -0.460 OA
BRANCH  27  28
ATOM     28  C   UNL     1      -4.395   0.535   4.691  1.00  0.00     0.338 C 
ATOM     29  O   UNL     1      -4.530  -0.329   5.551  1.00  0.00    -0.246 OA
BRANCH  28  30
ATOM     30  C   UNL     1      -4.442   1.967   5.022  1.00  0.00     0.060 A 
ATOM     31  C   UNL     1      -3.660   2.391   6.104  1.00  0.00     0.016 A 
ATOM     32  C   UNL     1      -5.313   2.848   4.377  1.00  0.00     0.016 A 
ATOM     33  C   UNL     1      -3.801   3.681   6.595  1.00  0.00     0.010 A 
ATOM     34  C   UNL     1      -5.466   4.143   4.886  1.00  0.00     0.010 A 
ATOM     35  C   UNL     1      -4.748   4.541   6.027  1.00  0.00    -0.014 A 
BRANCH  35  36
ATOM     36  C   UNL     1      -5.097   5.767   6.780  1.00  0.00     0.031 A 
ATOM     37  C   UNL     1      -6.259   5.721   7.735  1.00  0.00     0.074 A 
ATOM     38  C   UNL     1      -4.318   6.859   6.700  1.00  0.00     0.049 A 
ATOM     39  N   UNL     1      -6.659   6.618   8.597  1.00  0.00    -0.248 NA
ATOM     40  C   UNL     1      -7.074   4.494   7.721  1.00  0.00     0.031 C 
ATOM     41  C   UNL     1      -3.152   7.000   5.829  1.00  0.00     0.029 A 
ATOM     42  N   UNL     1      -4.380   8.047   7.379  1.00  0.00    -0.354 N 
ATOM     43  C   UNL     1      -7.764   6.064   9.233  1.00  0.00     0.074 A 
ATOM     44  C   UNL     1      -7.994   4.768   8.634  1.00  0.00     0.031 C 
ATOM     45  C   UNL     1      -2.604   8.211   6.030  1.00  0.00     0.029 A 
ATOM     46  C   UNL     1      -3.385   8.928   7.037  1.00  0.00     0.049 A 
ATOM     47  H   UNL     1      -5.073   8.250   8.048  1.00  0.00     0.167 HD
ATOM     48  C   UNL     1      -8.512   6.586  10.235  1.00  0.00     0.037 A 
ATOM     49  C   UNL     1      -3.131  10.171   7.490  1.00  0.00     0.037 A 
ATOM     50  C   UNL     1      -8.278   7.878  10.823  1.00  0.00     0.049 A 
ATOM     51  C   UNL     1      -3.988  10.739   8.590  1.00  0.00     0.074 A 
ATOM     52  C   UNL     1      -8.969   8.497  11.850  1.00  0.00     0.029 A 
ATOM     53  N   UNL     1      -7.277   8.755  10.430  1.00  0.00    -0.354 N 
ATOM     54  N   UNL     1      -5.011  10.191   9.205  1.00  0.00    -0.248 NA
ATOM     55  C   UNL     1      -3.645  12.083   9.070  1.00  0.00     0.031 C 
ATOM     56  C   UNL     1      -8.410   9.765  12.050  1.00  0.00     0.029 A 
ATOM     57  C   UNL     1      -7.342   9.917  11.180  1.00  0.00     0.049 A 
ATOM     58  H   UNL     1      -6.617   8.576   9.722  1.00  0.00     0.167 HD
ATOM     59  C   UNL     1      -5.421  11.117  10.158  1.00  0.00     0.074 A 
ATOM     60  C   UNL     1      -4.525  12.251  10.048  1.00  0.00     0.031 C 
ATOM     61  C   UNL     1      -6.444  11.037  11.047  1.00  0.00     0.037 A 
BRANCH  48  62
ATOM     62  C   UNL     1      -9.668   5.764  10.733  1.00  0.00     0.058 A 
ATOM     63  C   UNL     1      -9.477   4.614  11.515  1.00  0.00     0.135 A 
ATOM     64  C   UNL     1     -10.987   6.139  10.432  1.00  0.00     0.135 A 
ATOM     65  F   UNL     1      -8.236   4.199  11.814  1.00  0.00    -0.206 F 
ATOM     66  C   UNL     1     -10.552   3.849  11.959  1.00  0.00     0.059 A 
ATOM     67  C   UNL     1     -12.078   5.402  10.884  1.00  0.00     0.059 A 
ATOM     68  F   UNL     1     -11.226   7.227   9.683  1.00  0.00    -0.206 F 
ATOM     69  C   UNL     1     -11.849   4.250  11.635  1.00  0.00     0.060 A 
BRANCH  69  70
ATOM     70  S   UNL     1     -13.236   3.248  12.213  1.00  0.00     0.124 S 
ATOM     71  O   UNL     1     -13.166   2.105  11.307  1.00  0.00    -0.237 OA
ATOM     72  O   UNL     1     -12.874   2.980  13.601  1.00  0.00    -0.237 OA
ATOM     73  O   UNL     1     -14.388   4.125  12.027  1.00  0.00    -0.744 OA
ENDBRANCH  69  70
ENDBRANCH  48  62
BRANCH  49  74
ATOM     74  C   UNL     1      -2.007  10.950   6.910  1.00  0.00     0.058 A 
ATOM     75  C   UNL     1      -0.834  11.195   7.639  1.00  0.00     0.135 A 
ATOM     76  C   UNL     1      -2.077  11.441   5.597  1.00  0.00     0.135 A 
ATOM     77  F   UNL     1      -0.723  10.752   8.900  1.00  0.00    -0.206 F 
ATOM     78  C   UNL     1       0.228  11.906   7.089  1.00  0.00     0.059 A 
ATOM     79  C   UNL     1      -1.020  12.134   5.018  1.00  0.00     0.059 A 
ATOM     80  F   UNL     1      -3.174  11.221   4.855  1.00  0.00    -0.206 F 
ATOM     81  C   UNL     1       0.127  12.368   5.775  1.00  0.00     0.060 A 
BRANCH  81  82
ATOM     82  S   UNL     1       1.538  13.226   5.043  1.00  0.00     0.124 S 
ATOM     83  O   UNL     1       1.442  14.538   5.670  1.00  0.00    -0.237 OA
ATOM     84  O   UNL     1       2.659  12.394   5.468  1.00  0.00    -0.237 OA
ATOM     85  O   UNL     1       1.247  13.185   3.612  1.00  0.00    -0.744 OA
ENDBRANCH  81  82
ENDBRANCH  49  74
BRANCH  61  86
ATOM     86  C   UNL     1      -6.630  12.202  11.979  1.00  0.00     0.058 A 
ATOM     87  C   UNL     1      -7.142  13.430  11.531  1.00  0.00     0.135 A 
ATOM     88  C   UNL     1      -6.305  12.083  13.340  1.00  0.00     0.135 A 
ATOM     89  F   UNL     1      -7.467  13.595  10.239  1.00  0.00    -0.206 F 
ATOM     90  C   UNL     1      -7.284  14.514  12.391  1.00  0.00     0.059 A 
ATOM     91  C   UNL     1      -6.464  13.146  14.223  1.00  0.00     0.059 A 
ATOM     92  F   UNL     1      -5.827  10.925  13.822  1.00  0.00    -0.206 F 
ATOM     93  C   UNL     1      -6.934  14.364  13.734  1.00  0.00     0.060 A 
BRANCH  93  94
ATOM     94  S   UNL     1      -7.112  15.778  14.843  1.00  0.00     0.124 S 
ATOM     95  O   UNL     1      -5.933  16.567  14.500  1.00  0.00    -0.237 OA
ATOM     96  O   UNL     1      -8.394  16.343  14.432  1.00  0.00    -0.237 OA
ATOM     97  O   UNL     1      -7.099  15.170  16.170  1.00  0.00    -0.744 OA
ENDBRANCH  93  94
ENDBRANCH  61  86
ENDBRANCH  35  36
ENDBRANCH  28  30
ENDBRANCH  27  28
ENDBRANCH  26  27
ENDBRANCH  25  26
ENDBRANCH  24  25
ENDBRANCH   1  24
TORSDOF 22
