REMARK SMILES C[C@@H](Oc1ccc(-c2ccccc2)cc1)C(=O)N1CCC[C@H](C(=O)OCCOCCOC(=O)c2ccc(-c3c4nc(c(-c5c(F)cc(S(=O)(=O)[O-])cc5F)c5ccc([nH]5)c(-c5c(F)cc(S(=O)(=O)[O-])cc5F)c5nc(c(-c6c(F)cc(S(=O)(=O)[O-])cc6F)c6ccc3[nH]6)C=C5)C=C4)cc2)C1
REMARK SMILES IDX 27 1 26 2 25 3 23 4 24 5 22 6 18 7 19 8 100 9 20 10 21 11
REMARK SMILES IDX 16 12 17 13 2 14 1 15 3 16 4 17 5 18 15 19 6 20 14 21 7 22
REMARK SMILES IDX 8 23 9 24 13 25 10 26 12 27 11 28 28 29 29 30 30 31 31 32
REMARK SMILES IDX 32 33 33 34 34 35 35 36 99 37 36 38 98 39 37 40 38 41 39 42
REMARK SMILES IDX 92 43 40 44 97 45 91 46 93 47 41 48 96 49 90 50 89 51 42 53
REMARK SMILES IDX 76 54 55 55 75 56 56 57 59 58 74 59 94 60 57 61 58 62 73 64
REMARK SMILES IDX 95 65 60 66 43 67 44 68 53 69 45 70 46 71 52 72 54 73 47 74
REMARK SMILES IDX 48 75 49 76 50 77 51 78 77 79 78 80 87 81 79 82 80 83 86 84
REMARK SMILES IDX 88 85 81 86 82 87 83 88 84 89 85 90 61 91 62 92 71 93 63 94
REMARK SMILES IDX 64 95 70 96 72 97 65 98 66 99 67 100 68 101 69 102
REMARK H PARENT 93 52 59 63
REMARK Flexibility Score: inf
ROOT
ATOM      1  C   UNL     1      -3.757   3.363  -0.118  1.00  0.00     0.202 C 
ENDROOT
BRANCH   1   2
ATOM      2  C   UNL     1      -2.463   2.547  -0.130  1.00  0.00     0.261 C 
BRANCH   2   3
ATOM      3  O   UNL     1      -2.678   1.234   0.418  1.00  0.00    -0.463 OA
BRANCH   3   4
ATOM      4  C   UNL     1      -1.950   0.883   1.505  1.00  0.00     0.310 C 
ATOM      5  O   UNL     1      -1.099   1.587   2.039  1.00  0.00    -0.252 OA
BRANCH   4   6
ATOM      6  C   UNL     1      -2.254  -0.526   1.988  1.00  0.00     0.119 C 
ATOM      7  N   UNL     1      -1.677  -1.740  -0.059  1.00  0.00    -0.339 N 
ATOM      8  C   UNL     1      -3.004  -2.328  -0.211  1.00  0.00     0.119 C 
ATOM      9  C   UNL     1      -1.275  -1.492   1.324  1.00  0.00     0.134 C 
ATOM     10  C   UNL     1      -4.075  -1.439   0.409  1.00  0.00     0.022 C 
ATOM     11  C   UNL     1      -3.707  -1.004   1.831  1.00  0.00     0.019 C 
BRANCH   7  12
ATOM     12  C   UNL     1      -0.978  -1.337  -1.193  1.00  0.00     0.263 C 
ATOM     13  O   UNL     1      -1.553  -1.191  -2.276  1.00  0.00    -0.271 OA
BRANCH  12  14
ATOM     14  C   UNL     1       0.537  -1.064  -1.097  1.00  0.00     0.259 C 
ATOM     15  C   UNL     1       0.821   0.363  -0.633  1.00  0.00     0.064 C 
BRANCH  14  16
ATOM     16  O   UNL     1       1.101  -2.051  -0.225  1.00  0.00    -0.481 OA
BRANCH  16  17
ATOM     17  C   UNL     1       2.427  -2.277  -0.431  1.00  0.00     0.120 A 
ATOM     18  C   UNL     1       2.828  -3.338  -1.235  1.00  0.00     0.047 A 
ATOM     19  C   UNL     1       3.355  -1.554   0.307  1.00  0.00     0.047 A 
ATOM     20  C   UNL     1       4.183  -3.681  -1.297  1.00  0.00     0.012 A 
ATOM     21  C   UNL     1       4.704  -1.891   0.234  1.00  0.00     0.012 A 
ATOM     22  C   UNL     1       5.140  -2.975  -0.548  1.00  0.00    -0.018 A 
BRANCH  22  23
ATOM     23  C   UNL     1       6.557  -3.374  -0.527  1.00  0.00    -0.018 A 
ATOM     24  C   UNL     1       7.287  -3.566  -1.708  1.00  0.00     0.009 A 
ATOM     25  C   UNL     1       7.223  -3.559   0.699  1.00  0.00     0.009 A 
ATOM     26  C   UNL     1       8.641  -3.912  -1.665  1.00  0.00     0.001 A 
ATOM     27  C   UNL     1       8.575  -3.904   0.744  1.00  0.00     0.001 A 
ATOM     28  C   UNL     1       9.284  -4.076  -0.440  1.00  0.00     0.000 A 
ENDBRANCH  22  23
ENDBRANCH  16  17
ENDBRANCH  14  16
ENDBRANCH  12  14
ENDBRANCH   7  12
ENDBRANCH   4   6
ENDBRANCH   3   4
ENDBRANCH   2   3
ENDBRANCH   1   2
BRANCH   1  29
ATOM     29  O   UNL     1      -4.223   3.774   1.169  1.00  0.00    -0.374 OA
BRANCH  29  30
ATOM     30  C   UNL     1      -4.826   2.779   1.992  1.00  0.00     0.202 C 
BRANCH  30  31
ATOM     31  C   UNL     1      -6.271   2.389   1.655  1.00  0.00     0.261 C 
BRANCH  31  32
ATOM     32  O   UNL     1      -6.396   1.751   0.371  1.00  0.00    -0.460 OA
BRANCH  32  33
ATOM     33  C   UNL     1      -7.016   2.500  -0.573  1.00  0.00     0.338 C 
ATOM     34  O   UNL     1      -7.504   3.614  -0.423  1.00  0.00    -0.246 OA
BRANCH  33  35
ATOM     35  C   UNL     1      -6.899   1.868  -1.899  1.00  0.00     0.060 A 
ATOM     36  C   UNL     1      -6.391   2.647  -2.946  1.00  0.00     0.016 A 
ATOM     37  C   UNL     1      -7.364   0.574  -2.140  1.00  0.00     0.016 A 
ATOM     38  C   UNL     1      -6.389   2.154  -4.250  1.00  0.00     0.010 A 
ATOM     39  C   UNL     1      -7.371   0.084  -3.451  1.00  0.00     0.010 A 
ATOM     40  C   UNL     1      -6.916   0.884  -4.516  1.00  0.00    -0.014 A 
BRANCH  40  41
ATOM     41  C   UNL     1      -7.128   0.449  -5.919  1.00  0.00     0.031 A 
ATOM     42  C   UNL     1      -8.507   0.554  -6.512  1.00  0.00     0.074 A 
ATOM     43  C   UNL     1      -6.108  -0.024  -6.658  1.00  0.00     0.049 A 
ATOM     44  N   UNL     1      -8.943   0.150  -7.677  1.00  0.00    -0.248 NA
ATOM     45  C   UNL     1      -9.534   1.200  -5.677  1.00  0.00     0.031 C 
ATOM     46  C   UNL     1      -4.720  -0.127  -6.212  1.00  0.00     0.029 A 
ATOM     47  N   UNL     1      -6.089  -0.520  -7.938  1.00  0.00    -0.354 N 
ATOM     48  C   UNL     1     -10.294   0.476  -7.711  1.00  0.00     0.074 A 
ATOM     49  C   UNL     1     -10.611   1.096  -6.442  1.00  0.00     0.031 C 
ATOM     50  C   UNL     1      -3.985  -0.671  -7.197  1.00  0.00     0.029 A 
ATOM     51  C   UNL     1      -4.858  -0.992  -8.326  1.00  0.00     0.049 A 
ATOM     52  H   UNL     1      -6.881  -0.535  -8.522  1.00  0.00     0.167 HD
ATOM     53  C   UNL     1     -11.186   0.280  -8.710  1.00  0.00     0.037 A 
ATOM     54  C   UNL     1      -4.486  -1.639  -9.449  1.00  0.00     0.037 A 
ATOM     55  C   UNL     1     -10.861  -0.331  -9.972  1.00  0.00     0.049 A 
ATOM     56  C   UNL     1      -5.512  -1.913 -10.519  1.00  0.00     0.074 A 
ATOM     57  C   UNL     1     -11.692  -0.562 -11.055  1.00  0.00     0.029 A 
ATOM     58  N   UNL     1      -9.608  -0.814 -10.319  1.00  0.00    -0.354 N 
ATOM     59  N   UNL     1      -6.784  -1.592 -10.544  1.00  0.00    -0.248 NA
ATOM     60  C   UNL     1      -5.056  -2.641 -11.713  1.00  0.00     0.031 C 
ATOM     61  C   UNL     1     -10.953  -1.226 -12.038  1.00  0.00     0.029 A 
ATOM     62  C   UNL     1      -9.648  -1.363 -11.589  1.00  0.00     0.049 A 
ATOM     63  H   UNL     1      -8.808  -0.772  -9.746  1.00  0.00     0.167 HD
ATOM     64  C   UNL     1      -7.271  -2.050 -11.764  1.00  0.00     0.074 A 
ATOM     65  C   UNL     1      -6.158  -2.671 -12.451  1.00  0.00     0.031 C 
ATOM     66  C   UNL     1      -8.525  -1.960 -12.270  1.00  0.00     0.037 A 
BRANCH  53  67
ATOM     67  C   UNL     1     -12.609   0.703  -8.469  1.00  0.00     0.058 A 
ATOM     68  C   UNL     1     -12.985   2.055  -8.442  1.00  0.00     0.135 A 
ATOM     69  C   UNL     1     -13.616  -0.261  -8.300  1.00  0.00     0.135 A 
ATOM     70  F   UNL     1     -12.060   3.017  -8.582  1.00  0.00    -0.206 F 
ATOM     71  C   UNL     1     -14.306   2.437  -8.231  1.00  0.00     0.059 A 
ATOM     72  C   UNL     1     -14.948   0.098  -8.113  1.00  0.00     0.059 A 
ATOM     73  F   UNL     1     -13.311  -1.568  -8.316  1.00  0.00    -0.206 F 
ATOM     74  C   UNL     1     -15.281   1.450  -8.066  1.00  0.00     0.060 A 
BRANCH  74  75
ATOM     75  S   UNL     1     -16.991   1.961  -7.794  1.00  0.00     0.124 S 
ATOM     76  O   UNL     1     -16.933   2.449  -6.419  1.00  0.00    -0.237 OA
ATOM     77  O   UNL     1     -17.180   2.982  -8.820  1.00  0.00    -0.237 OA
ATOM     78  O   UNL     1     -17.750   0.730  -7.991  1.00  0.00    -0.744 OA
ENDBRANCH  74  75
ENDBRANCH  53  67
BRANCH  54  79
ATOM     79  C   UNL     1      -3.079  -2.096  -9.609  1.00  0.00     0.058 A 
ATOM     80  C   UNL     1      -2.225  -1.500 -10.548  1.00  0.00     0.135 A 
ATOM     81  C   UNL     1      -2.560  -3.136  -8.822  1.00  0.00     0.135 A 
ATOM     82  F   UNL     1      -2.678  -0.512 -11.335  1.00  0.00    -0.206 F 
ATOM     83  C   UNL     1      -0.909  -1.924 -10.709  1.00  0.00     0.059 A 
ATOM     84  C   UNL     1      -1.241  -3.561  -8.945  1.00  0.00     0.059 A 
ATOM     85  F   UNL     1      -3.336  -3.737  -7.906  1.00  0.00    -0.206 F 
ATOM     86  C   UNL     1      -0.425  -2.954  -9.899  1.00  0.00     0.060 A 
BRANCH  86  87
ATOM     87  S   UNL     1       1.298  -3.466 -10.083  1.00  0.00     0.124 S 
ATOM     88  O   UNL     1       1.254  -4.196 -11.345  1.00  0.00    -0.237 OA
ATOM     89  O   UNL     1       1.998  -2.185 -10.112  1.00  0.00    -0.237 OA
ATOM     90  O   UNL     1       1.538  -4.276  -8.893  1.00  0.00    -0.744 OA
ENDBRANCH  86  87
ENDBRANCH  54  79
BRANCH  66  91
ATOM     91  C   UNL     1      -8.769  -2.499 -13.652  1.00  0.00     0.058 A 
ATOM     92  C   UNL     1      -8.867  -3.876 -13.901  1.00  0.00     0.135 A 
ATOM     93  C   UNL     1      -9.007  -1.620 -14.722  1.00  0.00     0.135 A 
ATOM     94  F   UNL     1      -8.642  -4.759 -12.916  1.00  0.00    -0.206 F 
ATOM     95  C   UNL     1      -9.193  -4.364 -15.164  1.00  0.00     0.059 A 
ATOM     96  C   UNL     1      -9.357  -2.084 -15.986  1.00  0.00     0.059 A 
ATOM     97  F   UNL     1      -8.934  -0.293 -14.534  1.00  0.00    -0.206 F 
ATOM     98  C   UNL     1      -9.445  -3.459 -16.198  1.00  0.00     0.060 A 
BRANCH  98  99
ATOM     99  S   UNL     1      -9.940  -4.103 -17.811  1.00  0.00     0.124 S 
ATOM    100  O   UNL     1      -8.679  -4.638 -18.315  1.00  0.00    -0.237 OA
ATOM    101  O   UNL     1     -10.951  -5.094 -17.455  1.00  0.00    -0.237 OA
ATOM    102  O   UNL     1     -10.445  -2.924 -18.508  1.00  0.00    -0.744 OA
ENDBRANCH  98  99
ENDBRANCH  66  91
ENDBRANCH  40  41
ENDBRANCH  33  35
ENDBRANCH  32  33
ENDBRANCH  31  32
ENDBRANCH  30  31
ENDBRANCH  29  30
ENDBRANCH   1  29
TORSDOF 22
