REMARK SMILES Cn1c(=O)c(=O)n(C)c2cc(S(=O)(=O)N3CCC[C@H]3C(=O)OCCOCCOC(=O)c3ccc(-c4c5nc(c(-c6c(F)cc(S(=O)(=O)[O-])cc6F)c6ccc([nH]6)c(-c6c(F)cc(S(=O)(=O)[O-])cc6F)c6nc(c(-c7c(F)cc(S(=O)(=O)[O-])cc7F)c7ccc4[nH]7)C=C6)C=C5)cc3)ccc21
REMARK SMILES IDX 26 1 25 2 24 3 23 4 22 5 20 6 21 7 19 8 15 9 16 10 17 11
REMARK SMILES IDX 18 12 12 13 13 14 14 15 11 16 1 17 2 18 3 19 99 20 4 21 5 22
REMARK SMILES IDX 9 23 98 24 6 25 7 26 10 27 97 28 8 29 27 30 28 31 29 32
REMARK SMILES IDX 30 33 31 34 32 35 96 36 33 37 95 38 34 39 35 40 36 41 89 42
REMARK SMILES IDX 37 43 94 44 88 45 90 46 38 47 93 48 87 49 86 50 39 52 73 53
REMARK SMILES IDX 52 54 72 55 53 56 56 57 71 58 91 59 54 60 55 61 70 63 92 64
REMARK SMILES IDX 57 65 40 66 41 67 50 68 42 69 43 70 49 71 51 72 44 73 45 74
REMARK SMILES IDX 46 75 47 76 48 77 74 78 75 79 84 80 76 81 77 82 83 83 85 84
REMARK SMILES IDX 78 85 79 86 80 87 81 88 82 89 58 90 59 91 68 92 60 93 61 94
REMARK SMILES IDX 67 95 69 96 62 97 63 98 64 99 65 100 66 101
REMARK H PARENT 90 51 56 62
REMARK Flexibility Score: inf
ROOT
ATOM      1  C   UNL     1       1.990   7.308   5.574  1.00  0.00     0.202 C 
ENDROOT
BRANCH   1   2
ATOM      2  O   UNL     1       2.595   7.042   6.845  1.00  0.00    -0.374 OA
BRANCH   2   3
ATOM      3  C   UNL     1       3.937   7.481   7.033  1.00  0.00     0.202 C 
BRANCH   3   4
ATOM      4  C   UNL     1       5.052   6.622   6.424  1.00  0.00     0.261 C 
BRANCH   4   5
ATOM      5  O   UNL     1       4.801   6.239   5.063  1.00  0.00    -0.462 OA
BRANCH   5   6
ATOM      6  C   UNL     1       4.324   4.978   4.936  1.00  0.00     0.324 C 
ATOM      7  O   UNL     1       4.193   4.180   5.864  1.00  0.00    -0.250 OA
BRANCH   6   8
ATOM      8  C   UNL     1       3.930   4.585   3.537  1.00  0.00     0.183 C 
ATOM      9  N   UNL     1       3.936   5.519   2.379  1.00  0.00    -0.184 NA
ATOM     10  C   UNL     1       5.117   5.213   1.547  1.00  0.00     0.103 C 
ATOM     11  C   UNL     1       5.282   3.714   1.685  1.00  0.00     0.019 C 
ATOM     12  C   UNL     1       4.848   3.422   3.112  1.00  0.00     0.034 C 
BRANCH   9  13
ATOM     13  S   UNL     1       2.471   5.902   1.601  1.00  0.00     0.243 S 
ATOM     14  O   UNL     1       2.781   6.825   0.530  1.00  0.00    -0.207 OA
ATOM     15  O   UNL     1       1.496   6.239   2.616  1.00  0.00    -0.207 OA
BRANCH  13  16
ATOM     16  C   UNL     1       1.832   4.418   0.812  1.00  0.00     0.084 A 
ATOM     17  C   UNL     1       0.567  -0.373  -0.406  1.00  0.00     0.154 C 
ATOM     18  N   UNL     1       0.287   0.920  -1.015  1.00  0.00    -0.305 N 
ATOM     19  C   UNL     1      -0.400   0.944  -2.222  1.00  0.00     0.316 A 
ATOM     20  C   UNL     1       0.755   2.111  -0.405  1.00  0.00     0.068 A 
ATOM     21  O   UNL     1      -0.797  -0.066  -2.797  1.00  0.00    -0.263 OA
ATOM     22  C   UNL     1      -0.687   2.316  -2.848  1.00  0.00     0.316 A 
ATOM     23  C   UNL     1       0.648   3.354  -1.054  1.00  0.00     0.069 A 
ATOM     24  C   UNL     1       1.318   2.060   0.872  1.00  0.00     0.030 A 
ATOM     25  O   UNL     1      -1.424   2.361  -3.831  1.00  0.00    -0.263 OA
ATOM     26  N   UNL     1      -0.094   3.440  -2.267  1.00  0.00    -0.305 N 
ATOM     27  C   UNL     1       1.237   4.496  -0.458  1.00  0.00     0.050 A 
ATOM     28  C   UNL     1       1.801   3.206   1.487  1.00  0.00     0.024 A 
ATOM     29  C   UNL     1      -0.353   4.732  -2.883  1.00  0.00     0.154 C 
ENDBRANCH  13  16
ENDBRANCH   9  13
ENDBRANCH   6   8
ENDBRANCH   5   6
ENDBRANCH   4   5
ENDBRANCH   3   4
ENDBRANCH   2   3
ENDBRANCH   1   2
BRANCH   1  30
ATOM     30  C   UNL     1       1.710   8.774   5.224  1.00  0.00     0.261 C 
BRANCH  30  31
ATOM     31  O   UNL     1       2.919   9.446   4.819  1.00  0.00    -0.460 OA
BRANCH  31  32
ATOM     32  C   UNL     1       3.290  10.505   5.578  1.00  0.00     0.338 C 
ATOM     33  O   UNL     1       2.675  10.997   6.510  1.00  0.00    -0.246 OA
BRANCH  32  34
ATOM     34  C   UNL     1       4.693  10.841   5.266  1.00  0.00     0.060 A 
ATOM     35  C   UNL     1       5.108  11.105   3.959  1.00  0.00     0.016 A 
ATOM     36  C   UNL     1       5.605  10.905   6.328  1.00  0.00     0.016 A 
ATOM     37  C   UNL     1       6.438  11.467   3.723  1.00  0.00     0.010 A 
ATOM     38  C   UNL     1       6.933  11.255   6.089  1.00  0.00     0.010 A 
ATOM     39  C   UNL     1       7.353  11.558   4.787  1.00  0.00    -0.014 A 
BRANCH  39  40
ATOM     40  C   UNL     1       8.716  12.095   4.561  1.00  0.00     0.031 A 
ATOM     41  C   UNL     1       9.910  11.193   4.488  1.00  0.00     0.074 A 
ATOM     42  C   UNL     1       8.864  13.428   4.444  1.00  0.00     0.049 A 
ATOM     43  N   UNL     1      11.159  11.501   4.252  1.00  0.00    -0.248 NA
ATOM     44  C   UNL     1       9.672   9.759   4.712  1.00  0.00     0.031 C 
ATOM     45  C   UNL     1       7.774  14.402   4.523  1.00  0.00     0.029 A 
ATOM     46  N   UNL     1       9.981  14.192   4.226  1.00  0.00    -0.354 N 
ATOM     47  C   UNL     1      11.857  10.300   4.265  1.00  0.00     0.074 A 
ATOM     48  C   UNL     1      10.897   9.263   4.591  1.00  0.00     0.031 C 
ATOM     49  C   UNL     1       8.271  15.633   4.325  1.00  0.00     0.029 A 
ATOM     50  C   UNL     1       9.715  15.537   4.130  1.00  0.00     0.049 A 
ATOM     51  H   UNL     1      10.886  13.814   4.145  1.00  0.00     0.167 HD
ATOM     52  C   UNL     1      13.170  10.084   4.006  1.00  0.00     0.037 A 
ATOM     53  C   UNL     1      10.540  16.576   3.902  1.00  0.00     0.037 A 
ATOM     54  C   UNL     1      14.123  11.128   3.720  1.00  0.00     0.049 A 
ATOM     55  C   UNL     1      12.004  16.317   3.689  1.00  0.00     0.074 A 
ATOM     56  C   UNL     1      15.475  11.010   3.444  1.00  0.00     0.029 A 
ATOM     57  N   UNL     1      13.829  12.485   3.683  1.00  0.00    -0.354 N 
ATOM     58  N   UNL     1      12.643  15.171   3.663  1.00  0.00    -0.248 NA
ATOM     59  C   UNL     1      12.860  17.490   3.470  1.00  0.00     0.031 C 
ATOM     60  C   UNL     1      16.005  12.295   3.281  1.00  0.00     0.029 A 
ATOM     61  C   UNL     1      14.976  13.214   3.409  1.00  0.00     0.049 A 
ATOM     62  H   UNL     1      12.936  12.873   3.829  1.00  0.00     0.167 HD
ATOM     63  C   UNL     1      13.973  15.484   3.407  1.00  0.00     0.074 A 
ATOM     64  C   UNL     1      14.043  16.925   3.272  1.00  0.00     0.031 C 
ATOM     65  C   UNL     1      15.037  14.651   3.292  1.00  0.00     0.037 A 
BRANCH  52  66
ATOM     66  C   UNL     1      13.650   8.659   4.011  1.00  0.00     0.058 A 
ATOM     67  C   UNL     1      13.291   7.769   2.986  1.00  0.00     0.135 A 
ATOM     68  C   UNL     1      14.505   8.184   5.020  1.00  0.00     0.135 A 
ATOM     69  F   UNL     1      12.467   8.165   2.004  1.00  0.00    -0.206 F 
ATOM     70  C   UNL     1      13.737   6.451   2.976  1.00  0.00     0.059 A 
ATOM     71  C   UNL     1      14.982   6.876   5.017  1.00  0.00     0.059 A 
ATOM     72  F   UNL     1      14.882   8.993   6.022  1.00  0.00    -0.206 F 
ATOM     73  C   UNL     1      14.579   6.013   3.999  1.00  0.00     0.060 A 
BRANCH  73  74
ATOM     74  S   UNL     1      15.128   4.293   3.977  1.00  0.00     0.124 S 
ATOM     75  O   UNL     1      13.890   3.590   4.302  1.00  0.00    -0.237 OA
ATOM     76  O   UNL     1      15.603   4.135   2.606  1.00  0.00    -0.237 OA
ATOM     77  O   UNL     1      16.161   4.251   5.006  1.00  0.00    -0.744 OA
ENDBRANCH  73  74
ENDBRANCH  52  66
BRANCH  53  78
ATOM     78  C   UNL     1       9.981  17.949   3.814  1.00  0.00     0.058 A 
ATOM     79  C   UNL     1       9.886  18.602   2.577  1.00  0.00     0.135 A 
ATOM     80  C   UNL     1       9.488  18.613   4.948  1.00  0.00     0.135 A 
ATOM     81  F   UNL     1      10.350  18.007   1.468  1.00  0.00    -0.206 F 
ATOM     82  C   UNL     1       9.322  19.867   2.465  1.00  0.00     0.059 A 
ATOM     83  C   UNL     1       8.899  19.870   4.857  1.00  0.00     0.059 A 
ATOM     84  F   UNL     1       9.544  18.021   6.151  1.00  0.00    -0.206 F 
ATOM     85  C   UNL     1       8.824  20.490   3.611  1.00  0.00     0.060 A 
BRANCH  85  86
ATOM     86  S   UNL     1       8.030  22.103   3.438  1.00  0.00     0.124 S 
ATOM     87  O   UNL     1       9.171  22.962   3.141  1.00  0.00    -0.237 OA
ATOM     88  O   UNL     1       7.103  21.869   2.335  1.00  0.00    -0.237 OA
ATOM     89  O   UNL     1       7.405  22.312   4.740  1.00  0.00    -0.744 OA
ENDBRANCH  85  86
ENDBRANCH  53  78
BRANCH  65  90
ATOM     90  C   UNL     1      16.372  15.279   2.998  1.00  0.00     0.058 A 
ATOM     91  C   UNL     1      17.074  16.003   3.974  1.00  0.00     0.135 A 
ATOM     92  C   UNL     1      16.973  15.124   1.738  1.00  0.00     0.135 A 
ATOM     93  F   UNL     1      16.541  16.188   5.192  1.00  0.00    -0.206 F 
ATOM     94  C   UNL     1      18.316  16.570   3.705  1.00  0.00     0.059 A 
ATOM     95  C   UNL     1      18.226  15.661   1.455  1.00  0.00     0.059 A 
ATOM     96  F   UNL     1      16.349  14.434   0.771  1.00  0.00    -0.206 F 
ATOM     97  C   UNL     1      18.884  16.393   2.442  1.00  0.00     0.060 A 
BRANCH  97  98
ATOM     98  S   UNL     1      20.508  17.113   2.118  1.00  0.00     0.124 S 
ATOM     99  O   UNL     1      20.188  18.534   2.031  1.00  0.00    -0.237 OA
ATOM    100  O   UNL     1      21.270  16.706   3.294  1.00  0.00    -0.237 OA
ATOM    101  O   UNL     1      20.915  16.483   0.865  1.00  0.00    -0.744 OA
ENDBRANCH  97  98
ENDBRANCH  65  90
ENDBRANCH  39  40
ENDBRANCH  32  34
ENDBRANCH  31  32
ENDBRANCH  30  31
ENDBRANCH   1  30
TORSDOF 19
