REMARK SMILES Cc1ccccc1OCCC(=O)N[C@@](C)(C(=O)OCCOCCOC(=O)c1ccc(-c2c3nc(c(-c4c(F)cc(S(=O)(=O)[O-])cc4F)c4ccc([nH]4)c(-c4c(F)cc(S(=O)(=O)[O-])cc4F)c4nc(c(-c5c(F)cc(S(=O)(=O)[O-])cc5F)c5ccc2[nH]5)C=C4)C=C3)cc1)C1CC1
REMARK SMILES IDX 20 1 19 2 18 3 16 4 17 5 14 6 15 7 13 8 11 9 12 10 10 12
REMARK SMILES IDX 9 13 8 14 7 15 1 16 2 17 3 18 4 19 6 20 5 21 93 22 94 23
REMARK SMILES IDX 95 24 21 25 22 26 23 27 24 28 25 29 26 30 27 31 28 32 92 33
REMARK SMILES IDX 29 34 91 35 30 36 31 37 32 38 85 39 33 40 90 41 84 42 86 43
REMARK SMILES IDX 34 44 89 45 83 46 82 47 35 49 69 50 48 51 68 52 49 53 52 54
REMARK SMILES IDX 67 55 87 56 50 57 51 58 66 60 88 61 53 62 36 63 37 64 46 65
REMARK SMILES IDX 38 66 39 67 45 68 47 69 40 70 41 71 42 72 43 73 44 74 70 75
REMARK SMILES IDX 71 76 80 77 72 78 73 79 79 80 81 81 74 82 75 83 76 84 77 85
REMARK SMILES IDX 78 86 54 87 55 88 64 89 56 90 57 91 63 92 65 93 58 94 59 95
REMARK SMILES IDX 60 96 61 97 62 98
REMARK H PARENT 13 11 86 48 52 59
REMARK Flexibility Score: inf
ROOT
ATOM      1  C   UNL     1       0.142  -1.037   4.069  1.00  0.00     0.202 C 
ENDROOT
BRANCH   1   2
ATOM      2  C   UNL     1      -0.857  -0.832   2.935  1.00  0.00     0.261 C 
BRANCH   2   3
ATOM      3  O   UNL     1      -1.386   0.514   2.871  1.00  0.00    -0.461 OA
BRANCH   3   4
ATOM      4  C   UNL     1      -0.742   1.702   2.738  1.00  0.00     0.331 C 
ATOM      5  O   UNL     1      -1.169   2.691   3.339  1.00  0.00    -0.249 OA
BRANCH   4   6
ATOM      6  C   UNL     1       0.310   1.873   1.609  1.00  0.00     0.138 C 
ATOM      7  C   UNL     1      -0.474   1.559   0.346  1.00  0.00     0.048 C 
BRANCH   6   8
ATOM      8  N   UNL     1       1.438   0.919   1.734  1.00  0.00    -0.340 N 
ATOM      9  C   UNL     1       2.654   0.767   1.160  1.00  0.00     0.224 C 
ATOM     10  O   UNL     1       3.249  -0.291   1.397  1.00  0.00    -0.275 OA
ATOM     11  H   UNL     1       1.256   0.220   2.403  1.00  0.00     0.164 HD
BRANCH   9  12
ATOM     12  C   UNL     1       3.378   1.880   0.442  1.00  0.00     0.141 C 
BRANCH  12  13
ATOM     13  C   UNL     1       3.455   1.964  -1.081  1.00  0.00     0.239 C 
BRANCH  13  14
ATOM     14  O   UNL     1       2.290   1.867  -1.875  1.00  0.00    -0.493 OA
BRANCH  14  15
ATOM     15  C   UNL     1       1.624   0.708  -2.144  1.00  0.00     0.122 A 
ATOM     16  C   UNL     1       3.283  -1.179  -1.479  1.00  0.00     0.048 C 
ATOM     17  C   UNL     1       1.938  -0.617  -1.832  1.00  0.00    -0.009 A 
ATOM     18  C   UNL     1       0.904  -1.580  -1.920  1.00  0.00     0.007 A 
ATOM     19  C   UNL     1      -0.378  -1.259  -2.363  1.00  0.00     0.001 A 
ATOM     20  C   UNL     1       0.365   0.988  -2.726  1.00  0.00     0.047 A 
ATOM     21  C   UNL     1      -0.640   0.025  -2.808  1.00  0.00     0.004 A 
ENDBRANCH  14  15
ENDBRANCH  13  14
ENDBRANCH  12  13
ENDBRANCH   9  12
ENDBRANCH   6   8
BRANCH   6  22
ATOM     22  C   UNL     1       0.863   3.307   1.618  1.00  0.00     0.026 C 
ATOM     23  C   UNL     1       0.854   4.197   0.378  1.00  0.00     0.007 C 
ATOM     24  C   UNL     1       0.011   4.563   1.555  1.00  0.00     0.007 C 
ENDBRANCH   6  22
ENDBRANCH   4   6
ENDBRANCH   3   4
ENDBRANCH   2   3
ENDBRANCH   1   2
BRANCH   1  25
ATOM     25  O   UNL     1       0.471   0.232   4.621  1.00  0.00    -0.374 OA
BRANCH  25  26
ATOM     26  C   UNL     1       1.546   0.271   5.542  1.00  0.00     0.202 C 
BRANCH  26  27
ATOM     27  C   UNL     1       1.393  -0.655   6.755  1.00  0.00     0.261 C 
BRANCH  27  28
ATOM     28  O   UNL     1       0.317  -0.200   7.596  1.00  0.00    -0.460 OA
BRANCH  28  29
ATOM     29  C   UNL     1      -0.806  -0.978   7.570  1.00  0.00     0.338 C 
ATOM     30  O   UNL     1      -0.866  -2.105   8.015  1.00  0.00    -0.246 OA
BRANCH  29  31
ATOM     31  C   UNL     1      -1.902  -0.242   6.873  1.00  0.00     0.060 A 
ATOM     32  C   UNL     1      -3.006  -0.912   6.320  1.00  0.00     0.016 A 
ATOM     33  C   UNL     1      -1.727   1.108   6.610  1.00  0.00     0.016 A 
ATOM     34  C   UNL     1      -3.871  -0.248   5.421  1.00  0.00     0.010 A 
ATOM     35  C   UNL     1      -2.546   1.728   5.689  1.00  0.00     0.010 A 
ATOM     36  C   UNL     1      -3.621   1.078   5.062  1.00  0.00    -0.014 A 
BRANCH  36  37
ATOM     37  C   UNL     1      -4.257   1.838   3.961  1.00  0.00     0.031 A 
ATOM     38  C   UNL     1      -4.724   3.251   4.146  1.00  0.00     0.074 A 
ATOM     39  C   UNL     1      -4.172   1.414   2.674  1.00  0.00     0.049 A 
ATOM     40  N   UNL     1      -5.484   3.870   3.297  1.00  0.00    -0.248 NA
ATOM     41  C   UNL     1      -4.381   4.101   5.286  1.00  0.00     0.031 C 
ATOM     42  C   UNL     1      -4.106   2.280   1.491  1.00  0.00     0.029 A 
ATOM     43  N   UNL     1      -4.032   0.142   2.135  1.00  0.00    -0.354 N 
ATOM     44  C   UNL     1      -5.423   5.216   3.575  1.00  0.00     0.074 A 
ATOM     45  C   UNL     1      -4.769   5.305   4.857  1.00  0.00     0.031 C 
ATOM     46  C   UNL     1      -4.096   1.537   0.378  1.00  0.00     0.029 A 
ATOM     47  C   UNL     1      -4.299   0.156   0.761  1.00  0.00     0.049 A 
ATOM     48  H   UNL     1      -3.780  -0.659   2.648  1.00  0.00     0.167 HD
ATOM     49  C   UNL     1      -5.807   6.135   2.643  1.00  0.00     0.037 A 
ATOM     50  C   UNL     1      -5.213  -0.675   0.182  1.00  0.00     0.037 A 
ATOM     51  C   UNL     1      -6.144   5.503   1.366  1.00  0.00     0.049 A 
ATOM     52  C   UNL     1      -6.407   0.080  -0.341  1.00  0.00     0.074 A 
ATOM     53  C   UNL     1      -5.462   5.406   0.164  1.00  0.00     0.029 A 
ATOM     54  N   UNL     1      -7.204   4.604   1.284  1.00  0.00    -0.354 N 
ATOM     55  N   UNL     1      -6.630   1.324  -0.022  1.00  0.00    -0.248 NA
ATOM     56  C   UNL     1      -7.427  -0.440  -1.246  1.00  0.00     0.031 C 
ATOM     57  C   UNL     1      -6.127   4.458  -0.649  1.00  0.00     0.029 A 
ATOM     58  C   UNL     1      -7.214   3.969   0.056  1.00  0.00     0.049 A 
ATOM     59  H   UNL     1      -7.858   4.443   2.002  1.00  0.00     0.167 HD
ATOM     60  C   UNL     1      -7.790   1.760  -0.584  1.00  0.00     0.074 A 
ATOM     61  C   UNL     1      -8.250   0.623  -1.358  1.00  0.00     0.031 C 
ATOM     62  C   UNL     1      -8.256   3.015  -0.317  1.00  0.00     0.037 A 
BRANCH  49  63
ATOM     63  C   UNL     1      -5.644   7.634   2.820  1.00  0.00     0.058 A 
ATOM     64  C   UNL     1      -5.439   8.497   1.721  1.00  0.00     0.135 A 
ATOM     65  C   UNL     1      -5.716   8.287   4.070  1.00  0.00     0.135 A 
ATOM     66  F   UNL     1      -5.422   8.044   0.461  1.00  0.00    -0.206 F 
ATOM     67  C   UNL     1      -5.244   9.874   1.856  1.00  0.00     0.059 A 
ATOM     68  C   UNL     1      -5.466   9.653   4.237  1.00  0.00     0.059 A 
ATOM     69  F   UNL     1      -6.085   7.626   5.177  1.00  0.00    -0.206 F 
ATOM     70  C   UNL     1      -5.236  10.444   3.121  1.00  0.00     0.060 A 
BRANCH  70  71
ATOM     71  S   UNL     1      -4.945  12.216   3.277  1.00  0.00     0.124 S 
ATOM     72  O   UNL     1      -3.743  12.408   2.472  1.00  0.00    -0.237 OA
ATOM     73  O   UNL     1      -6.174  12.774   2.724  1.00  0.00    -0.237 OA
ATOM     74  O   UNL     1      -4.761  12.405   4.714  1.00  0.00    -0.744 OA
ENDBRANCH  70  71
ENDBRANCH  49  63
BRANCH  50  75
ATOM     75  C   UNL     1      -5.144  -2.069   0.696  1.00  0.00     0.058 A 
ATOM     76  C   UNL     1      -4.091  -2.848   0.179  1.00  0.00     0.135 A 
ATOM     77  C   UNL     1      -5.596  -2.368   1.992  1.00  0.00     0.135 A 
ATOM     78  F   UNL     1      -3.645  -2.628  -1.069  1.00  0.00    -0.206 F 
ATOM     79  C   UNL     1      -3.363  -3.715   0.987  1.00  0.00     0.059 A 
ATOM     80  C   UNL     1      -4.865  -3.217   2.826  1.00  0.00     0.059 A 
ATOM     81  F   UNL     1      -6.614  -1.677   2.527  1.00  0.00    -0.206 F 
ATOM     82  C   UNL     1      -3.707  -3.825   2.332  1.00  0.00     0.060 A 
BRANCH  82  83
ATOM     83  S   UNL     1      -2.468  -4.495   3.477  1.00  0.00     0.124 S 
ATOM     84  O   UNL     1      -2.696  -5.928   3.367  1.00  0.00    -0.237 OA
ATOM     85  O   UNL     1      -1.216  -3.998   2.904  1.00  0.00    -0.237 OA
ATOM     86  O   UNL     1      -2.831  -3.876   4.746  1.00  0.00    -0.744 OA
ENDBRANCH  82  83
ENDBRANCH  50  75
BRANCH  62  87
ATOM     87  C   UNL     1      -9.681   3.481  -0.486  1.00  0.00     0.058 A 
ATOM     88  C   UNL     1     -10.782   2.611  -0.574  1.00  0.00     0.135 A 
ATOM     89  C   UNL     1     -10.007   4.859  -0.409  1.00  0.00     0.135 A 
ATOM     90  F   UNL     1     -10.634   1.280  -0.530  1.00  0.00    -0.206 F 
ATOM     91  C   UNL     1     -12.095   3.068  -0.664  1.00  0.00     0.059 A 
ATOM     92  C   UNL     1     -11.316   5.334  -0.435  1.00  0.00     0.059 A 
ATOM     93  F   UNL     1      -9.062   5.803  -0.283  1.00  0.00    -0.206 F 
ATOM     94  C   UNL     1     -12.353   4.432  -0.598  1.00  0.00     0.060 A 
BRANCH  94  95
ATOM     95  S   UNL     1     -14.055   5.008  -0.684  1.00  0.00     0.124 S 
ATOM     96  O   UNL     1     -14.280   5.024  -2.126  1.00  0.00    -0.237 OA
ATOM     97  O   UNL     1     -14.779   3.979   0.056  1.00  0.00    -0.237 OA
ATOM     98  O   UNL     1     -14.003   6.315  -0.036  1.00  0.00    -0.744 OA
ENDBRANCH  94  95
ENDBRANCH  62  87
ENDBRANCH  36  37
ENDBRANCH  29  31
ENDBRANCH  28  29
ENDBRANCH  27  28
ENDBRANCH  26  27
ENDBRANCH  25  26
ENDBRANCH   1  25
TORSDOF 23
