REMARK SMILES CC1(C)CC[C@@]2(C(=O)OCCOCCOC(=O)c3ccc(-c4c5nc(c(-c6c(F)cc(S(=O)(=O)[O-])cc6F)c6ccc([nH]6)c(-c6c(F)cc(S(=O)(=O)[O-])cc6F)c6nc(c(-c7c(F)cc(S(=O)(=O)[O-])cc7F)c7ccc4[nH]7)C=C6)C=C5)cc3)CC[C@@]3(C)C(=CC[C@H]4[C@@]5(C)CC[C@H](O)C(C)(C)[C@@H]5CC[C@@]43C)[C@@H]2C1
REMARK SMILES IDX 13 1 12 2 11 3 10 4 9 5 7 6 8 7 6 8 1 9 2 10 3 11 4 12
REMARK SMILES IDX 107 13 5 14 106 15 88 16 84 17 86 18 89 19 85 20 87 21
REMARK SMILES IDX 104 22 90 23 91 24 103 25 105 26 92 27 102 28 93 29 94 30
REMARK SMILES IDX 101 31 95 32 98 33 96 34 99 35 100 36 97 37 14 39 15 40
REMARK SMILES IDX 16 41 17 42 18 43 19 44 83 45 20 46 82 47 21 48 22 49 23 50
REMARK SMILES IDX 76 51 24 52 81 53 75 54 77 55 25 56 80 57 74 58 73 59 26 61
REMARK SMILES IDX 60 62 39 63 59 64 40 65 43 66 58 67 78 68 41 69 42 70 57 72
REMARK SMILES IDX 79 73 44 74 27 75 28 76 37 77 29 78 30 79 36 80 38 81 31 82
REMARK SMILES IDX 32 83 33 84 34 85 35 86 61 87 62 88 71 89 63 90 64 91 70 92
REMARK SMILES IDX 72 93 65 94 66 95 67 96 68 97 69 98 45 99 46 100 55 101
REMARK SMILES IDX 47 102 48 103 54 104 56 105 49 106 50 107 51 108 52 109
REMARK SMILES IDX 53 110
REMARK H PARENT 97 38 77 60 43 71
REMARK Flexibility Score: inf
ROOT
ATOM      1  C   UNL     1      -3.417   5.509  -1.769  1.00  0.00     0.202 C 
ENDROOT
BRANCH   1   2
ATOM      2  O   UNL     1      -4.699   4.003  -1.871  1.00  0.00    -0.374 OA
BRANCH   2   3
ATOM      3  C   UNL     1      -3.840   2.263  -1.746  1.00  0.00     0.202 C 
BRANCH   3   4
ATOM      4  C   UNL     1      -2.056   2.192  -0.564  1.00  0.00     0.261 C 
BRANCH   4   5
ATOM      5  O   UNL     1      -1.082   3.241  -0.238  1.00  0.00    -0.463 OA
BRANCH   5   6
ATOM      6  C   UNL     1       0.219   3.411  -0.381  1.00  0.00     0.312 C 
ATOM      7  O   UNL     1       0.737   4.440   0.053  1.00  0.00    -0.252 OA
BRANCH   6   8
ATOM      8  C   UNL     1       0.914   2.473  -1.321  1.00  0.00     0.075 C 
ATOM      9  C   UNL     1       2.500  -0.712   0.241  1.00  0.00     0.011 C 
ATOM     10  C   UNL     1       1.575   0.383   0.749  1.00  0.00    -0.035 C 
ATOM     11  C   UNL     1       1.214   0.109   2.237  1.00  0.00     0.011 C 
ATOM     12  C   UNL     1       2.238   1.768   0.702  1.00  0.00     0.007 C 
ATOM     13  C   UNL     1       0.284   0.322  -0.085  1.00  0.00     0.015 C 
ATOM     14  C   UNL     1       2.324   2.353  -0.710  1.00  0.00     0.020 C 
ATOM     15  C   UNL     1       0.233   1.083  -1.487  1.00  0.00     0.033 C 
ATOM     16  C   UNL     1      -1.275   1.145  -2.263  1.00  0.00    -0.063 C 
ATOM     17  C   UNL     1       0.893   3.249  -2.636  1.00  0.00     0.020 C 
ATOM     18  C   UNL     1      -1.754   2.960  -2.455  1.00  0.00    -0.006 C 
ATOM     19  C   UNL     1      -2.291   0.197  -1.846  1.00  0.00    -0.027 C 
ATOM     20  C   UNL     1      -0.481   3.925  -2.800  1.00  0.00     0.013 C 
ATOM     21  C   UNL     1      -1.855   2.383  -4.127  1.00  0.00     0.017 C 
ATOM     22  C   UNL     1      -3.144   3.777  -1.081  1.00  0.00    -0.020 C 
ATOM     23  C   UNL     1      -3.388   0.449  -0.375  1.00  0.00     0.032 C 
ATOM     24  C   UNL     1      -3.747   2.260   0.279  1.00  0.00     0.006 C 
ATOM     25  C   UNL     1      -4.478   5.274  -0.205  1.00  0.00     0.008 C 
ATOM     26  C   UNL     1      -3.381   3.972  -3.160  1.00  0.00     0.012 C 
ATOM     27  C   UNL     1      -3.231   2.799   2.168  1.00  0.00    -0.025 C 
ATOM     28  C   UNL     1      -4.011   5.713   1.738  1.00  0.00     0.005 C 
ATOM     29  C   UNL     1      -4.447   3.271   3.288  1.00  0.00     0.012 C 
ATOM     30  C   UNL     1      -2.115   1.861   2.703  1.00  0.00     0.010 C 
ATOM     31  C   UNL     1      -2.757   4.502   2.609  1.00  0.00     0.003 C 
ATOM     32  C   UNL     1      -2.017   1.724   4.189  1.00  0.00     0.033 C 
ATOM     33  C   UNL     1      -2.532   4.438   4.441  1.00  0.00    -0.006 C 
ATOM     34  C   UNL     1      -1.850   3.036   4.947  1.00  0.00     0.120 C 
ATOM     35  C   UNL     1      -3.783   4.785   5.429  1.00  0.00     0.014 C 
ATOM     36  C   UNL     1      -1.561   5.531   4.927  1.00  0.00     0.014 C 
BRANCH  34  37
ATOM     37  O   UNL     1      -2.208   2.767   6.317  1.00  0.00    -0.393 OA
ATOM     38  H   UNL     1      -3.152   2.550   6.368  1.00  0.00     0.210 HD
ENDBRANCH  34  37
ENDBRANCH   6   8
ENDBRANCH   5   6
ENDBRANCH   4   5
ENDBRANCH   3   4
ENDBRANCH   2   3
ENDBRANCH   1   2
BRANCH   1  39
ATOM     39  C   UNL     1      -2.647   5.283   0.031  1.00  0.00     0.261 C 
BRANCH  39  40
ATOM     40  O   UNL     1      -3.922   4.024   0.870  1.00  0.00    -0.460 OA
BRANCH  40  41
ATOM     41  C   UNL     1      -5.574   3.415   1.080  1.00  0.00     0.338 C 
ATOM     42  O   UNL     1      -6.570   3.978   0.621  1.00  0.00    -0.246 OA
BRANCH  41  43
ATOM     43  C   UNL     1      -6.014   1.790   1.865  1.00  0.00     0.060 A 
ATOM     44  C   UNL     1      -7.210   1.079   1.996  1.00  0.00     0.016 A 
ATOM     45  C   UNL     1      -5.147   1.055   2.643  1.00  0.00     0.016 A 
ATOM     46  C   UNL     1      -7.433   0.151   3.159  1.00  0.00     0.010 A 
ATOM     47  C   UNL     1      -5.435   0.778   3.978  1.00  0.00     0.010 A 
ATOM     48  C   UNL     1      -6.604   0.202   4.296  1.00  0.00    -0.014 A 
BRANCH  48  49
ATOM     49  C   UNL     1      -6.449  -0.492   5.626  1.00  0.00     0.031 A 
ATOM     50  C   UNL     1      -6.494   0.257   6.962  1.00  0.00     0.074 A 
ATOM     51  C   UNL     1      -5.692  -1.616   5.712  1.00  0.00     0.049 A 
ATOM     52  N   UNL     1      -6.936  -0.176   8.114  1.00  0.00    -0.248 NA
ATOM     53  C   UNL     1      -5.913   1.616   7.054  1.00  0.00     0.031 C 
ATOM     54  C   UNL     1      -4.954  -2.250   4.609  1.00  0.00     0.029 A 
ATOM     55  N   UNL     1      -5.420  -2.433   6.786  1.00  0.00    -0.354 N 
ATOM     56  C   UNL     1      -6.885   0.915   8.985  1.00  0.00     0.074 A 
ATOM     57  C   UNL     1      -6.210   1.982   8.297  1.00  0.00     0.031 C 
ATOM     58  C   UNL     1      -4.487  -3.442   5.017  1.00  0.00     0.029 A 
ATOM     59  C   UNL     1      -4.939  -3.661   6.383  1.00  0.00     0.049 A 
ATOM     60  H   UNL     1      -5.551  -2.172   7.726  1.00  0.00     0.167 HD
ATOM     61  C   UNL     1      -7.388   0.990  10.242  1.00  0.00     0.037 A 
ATOM     62  C   UNL     1      -5.041  -4.854   6.999  1.00  0.00     0.037 A 
ATOM     63  C   UNL     1      -7.729  -0.215  10.949  1.00  0.00     0.049 A 
ATOM     64  C   UNL     1      -5.770  -4.883   8.321  1.00  0.00     0.074 A 
ATOM     65  C   UNL     1      -8.342  -0.408  12.170  1.00  0.00     0.029 A 
ATOM     66  N   UNL     1      -7.365  -1.472  10.477  1.00  0.00    -0.354 N 
ATOM     67  N   UNL     1      -6.231  -3.879   9.037  1.00  0.00    -0.248 NA
ATOM     68  C   UNL     1      -6.047  -6.205   8.887  1.00  0.00     0.031 C 
ATOM     69  C   UNL     1      -8.279  -1.782  12.461  1.00  0.00     0.029 A 
ATOM     70  C   UNL     1      -7.709  -2.446  11.382  1.00  0.00     0.049 A 
ATOM     71  H   UNL     1      -6.922  -1.639   9.614  1.00  0.00     0.167 HD
ATOM     72  C   UNL     1      -6.892  -4.451  10.120  1.00  0.00     0.074 A 
ATOM     73  C   UNL     1      -6.781  -5.889   9.944  1.00  0.00     0.031 C 
ATOM     74  C   UNL     1      -7.539  -3.863  11.163  1.00  0.00     0.037 A 
BRANCH  61  75
ATOM     75  C   UNL     1      -7.594   2.355  10.859  1.00  0.00     0.058 A 
ATOM     76  C   UNL     1      -8.408   3.312  10.216  1.00  0.00     0.135 A 
ATOM     77  C   UNL     1      -7.048   2.723  12.099  1.00  0.00     0.135 A 
ATOM     78  F   UNL     1      -8.986   3.026   9.038  1.00  0.00    -0.206 F 
ATOM     79  C   UNL     1      -8.630   4.580  10.749  1.00  0.00     0.059 A 
ATOM     80  C   UNL     1      -7.279   3.981  12.666  1.00  0.00     0.059 A 
ATOM     81  F   UNL     1      -6.269   1.867  12.779  1.00  0.00    -0.206 F 
ATOM     82  C   UNL     1      -8.059   4.908  11.976  1.00  0.00     0.060 A 
BRANCH  82  83
ATOM     83  S   UNL     1      -8.362   6.558  12.649  1.00  0.00     0.124 S 
ATOM     84  O   UNL     1      -7.640   7.402  11.701  1.00  0.00    -0.237 OA
ATOM     85  O   UNL     1      -9.817   6.653  12.597  1.00  0.00    -0.237 OA
ATOM     86  O   UNL     1      -7.788   6.492  13.989  1.00  0.00    -0.744 OA
ENDBRANCH  82  83
ENDBRANCH  61  75
BRANCH  62  87
ATOM     87  C   UNL     1      -4.707  -6.103   6.253  1.00  0.00     0.058 A 
ATOM     88  C   UNL     1      -5.723  -6.952   5.775  1.00  0.00     0.135 A 
ATOM     89  C   UNL     1      -3.384  -6.448   5.949  1.00  0.00     0.135 A 
ATOM     90  F   UNL     1      -7.011  -6.658   6.013  1.00  0.00    -0.206 F 
ATOM     91  C   UNL     1      -5.438  -8.111   5.058  1.00  0.00     0.059 A 
ATOM     92  C   UNL     1      -3.074  -7.589   5.210  1.00  0.00     0.059 A 
ATOM     93  F   UNL     1      -2.377  -5.652   6.339  1.00  0.00    -0.206 F 
ATOM     94  C   UNL     1      -4.107  -8.420   4.778  1.00  0.00     0.060 A 
BRANCH  94  95
ATOM     95  S   UNL     1      -3.749  -9.903   3.808  1.00  0.00     0.124 S 
ATOM     96  O   UNL     1      -4.165 -10.962   4.720  1.00  0.00    -0.237 OA
ATOM     97  O   UNL     1      -4.588  -9.705   2.631  1.00  0.00    -0.237 OA
ATOM     98  O   UNL     1      -2.312  -9.807   3.569  1.00  0.00    -0.744 OA
ENDBRANCH  94  95
ENDBRANCH  62  87
BRANCH  74  99
ATOM     99  C   UNL     1      -8.187  -4.774  12.162  1.00  0.00     0.058 A 
ATOM    100  C   UNL     1      -7.438  -5.617  12.995  1.00  0.00     0.135 A 
ATOM    101  C   UNL     1      -9.584  -4.764  12.309  1.00  0.00     0.135 A 
ATOM    102  F   UNL     1      -6.099  -5.655  12.897  1.00  0.00    -0.206 F 
ATOM    103  C   UNL     1      -8.057  -6.470  13.897  1.00  0.00     0.059 A 
ATOM    104  C   UNL     1     -10.219  -5.567  13.243  1.00  0.00     0.059 A 
ATOM    105  F   UNL     1     -10.343  -3.957  11.550  1.00  0.00    -0.206 F 
ATOM    106  C   UNL     1      -9.448  -6.436  14.013  1.00  0.00     0.060 A 
BRANCH 106 107
ATOM    107  S   UNL     1     -10.237  -7.548  15.188  1.00  0.00     0.124 S 
ATOM    108  O   UNL     1     -10.028  -8.843  14.548  1.00  0.00    -0.237 OA
ATOM    109  O   UNL     1      -9.466  -7.308  16.404  1.00  0.00    -0.237 OA
ATOM    110  O   UNL     1     -11.620  -7.082  15.225  1.00  0.00    -0.744 OA
ENDBRANCH 106 107
ENDBRANCH  74  99
ENDBRANCH  48  49
ENDBRANCH  41  43
ENDBRANCH  40  41
ENDBRANCH  39  40
ENDBRANCH   1  39
TORSDOF 18
