REMARK SMILES CC(C)CN(C)c1cc2c(cc1Cl)C=C(C(=O)OCCOCCOC(=O)c1ccc(-c3c4nc(c(-c5c(F)cc(S(=O)(=O)[O-])cc5F)c5ccc([nH]5)c(-c5c(F)cc(S(=O)(=O)[O-])cc5F)c5nc(c(-c6c(F)cc(S(=O)(=O)[O-])cc6F)c6ccc3[nH]6)C=C5)C=C4)cc1)[C@@H](C(F)(F)F)O2
REMARK SMILES IDX 21 1 20 2 19 3 18 4 16 5 17 6 15 7 7 8 8 9 12 10 9 11 11 12
REMARK SMILES IDX 13 13 10 14 98 15 14 16 93 17 5 18 6 19 4 20 2 21 1 22 3 23
REMARK SMILES IDX 94 24 95 25 96 26 97 27 22 28 23 29 24 30 25 31 26 32 27 33
REMARK SMILES IDX 28 34 92 35 29 36 91 37 30 38 31 39 32 40 85 41 33 42 90 43
REMARK SMILES IDX 84 44 86 45 34 46 89 47 83 48 82 49 35 51 69 52 48 53 68 54
REMARK SMILES IDX 49 55 52 56 67 57 87 58 50 59 51 60 66 62 88 63 53 64 36 65
REMARK SMILES IDX 37 66 46 67 38 68 39 69 45 70 47 71 40 72 41 73 42 74 43 75
REMARK SMILES IDX 44 76 70 77 71 78 80 79 72 80 73 81 79 82 81 83 74 84 75 85
REMARK SMILES IDX 76 86 77 87 78 88 54 89 55 90 64 91 56 92 57 93 63 94 65 95
REMARK SMILES IDX 58 96 59 97 60 98 61 99 62 100
REMARK H PARENT 86 50 52 61
REMARK Flexibility Score: inf
ROOT
ATOM      1  O   UNL     1       1.203  -8.734  -3.053  1.00  0.00    -0.374 OA
ENDROOT
BRANCH   1   2
ATOM      2  C   UNL     1       0.396  -9.785  -2.533  1.00  0.00     0.202 C 
BRANCH   2   3
ATOM      3  C   UNL     1      -0.137  -9.674  -1.099  1.00  0.00     0.261 C 
BRANCH   3   4
ATOM      4  O   UNL     1      -0.780  -8.419  -0.829  1.00  0.00    -0.460 OA
BRANCH   4   5
ATOM      5  C   UNL     1      -0.062  -7.623  -0.004  1.00  0.00     0.338 C 
ATOM      6  O   UNL     1       0.980  -7.915   0.565  1.00  0.00    -0.246 OA
BRANCH   5   7
ATOM      7  C   UNL     1      -0.612  -6.259   0.030  1.00  0.00     0.087 C 
ATOM      8  C   UNL     1      -0.880  -1.437   1.366  1.00  0.00     0.059 A 
ATOM      9  C   UNL     1      -1.827  -2.353   0.849  1.00  0.00     0.074 A 
ATOM     10  C   UNL     1       0.447  -1.899   1.515  1.00  0.00     0.065 A 
ATOM     11  C   UNL     1      -1.448  -3.648   0.469  1.00  0.00     0.130 A 
ATOM     12  C   UNL     1       0.847  -3.123   0.992  1.00  0.00     0.034 A 
ATOM     13  Cl  UNL     1       1.638  -1.064   2.455  1.00  0.00    -0.082 Cl
ATOM     14  C   UNL     1      -0.101  -3.993   0.470  1.00  0.00     0.019 A 
ATOM     15  O   UNL     1      -2.422  -4.546   0.104  1.00  0.00    -0.475 OA
ATOM     16  C   UNL     1       0.327  -5.309   0.060  1.00  0.00     0.027 C 
ATOM     17  C   UNL     1      -2.078  -5.975   0.204  1.00  0.00     0.316 C 
BRANCH   8  18
ATOM     18  N   UNL     1      -1.243  -0.134   1.735  1.00  0.00    -0.373 N 
ATOM     19  C   UNL     1      -2.336  -0.026   2.696  1.00  0.00     0.143 C 
BRANCH  18  20
ATOM     20  C   UNL     1      -1.102   0.953   0.738  1.00  0.00     0.119 C 
BRANCH  20  21
ATOM     21  C   UNL     1       0.364   1.356   0.462  1.00  0.00     0.002 C 
ATOM     22  C   UNL     1       0.956   0.609  -0.738  1.00  0.00     0.009 C 
ATOM     23  C   UNL     1       0.523   2.861   0.228  1.00  0.00     0.009 C 
ENDBRANCH  20  21
ENDBRANCH  18  20
ENDBRANCH   8  18
BRANCH  17  24
ATOM     24  C   UNL     1      -2.611  -6.577   1.514  1.00  0.00     0.430 C 
ATOM     25  F   UNL     1      -3.924  -6.301   1.687  1.00  0.00    -0.167 F 
ATOM     26  F   UNL     1      -2.486  -7.925   1.515  1.00  0.00    -0.167 F 
ATOM     27  F   UNL     1      -1.947  -6.106   2.594  1.00  0.00    -0.167 F 
ENDBRANCH  17  24
ENDBRANCH   5   7
ENDBRANCH   4   5
ENDBRANCH   3   4
ENDBRANCH   2   3
ENDBRANCH   1   2
BRANCH   1  28
ATOM     28  C   UNL     1       0.610  -7.466  -3.317  1.00  0.00     0.202 C 
BRANCH  28  29
ATOM     29  C   UNL     1      -0.498  -7.347  -4.374  1.00  0.00     0.261 C 
BRANCH  29  30
ATOM     30  O   UNL     1      -1.658  -8.145  -4.095  1.00  0.00    -0.460 OA
BRANCH  30  31
ATOM     31  C   UNL     1      -1.845  -9.189  -4.947  1.00  0.00     0.338 C 
ATOM     32  O   UNL     1      -1.145  -9.503  -5.892  1.00  0.00    -0.246 OA
BRANCH  31  33
ATOM     33  C   UNL     1      -2.943 -10.033  -4.442  1.00  0.00     0.060 A 
ATOM     34  C   UNL     1      -4.234  -9.524  -4.315  1.00  0.00     0.016 A 
ATOM     35  C   UNL     1      -2.670 -11.375  -4.146  1.00  0.00     0.016 A 
ATOM     36  C   UNL     1      -5.262 -10.373  -3.900  1.00  0.00     0.010 A 
ATOM     37  C   UNL     1      -3.698 -12.220  -3.729  1.00  0.00     0.010 A 
ATOM     38  C   UNL     1      -5.005 -11.729  -3.618  1.00  0.00    -0.014 A 
BRANCH  38  39
ATOM     39  C   UNL     1      -6.128 -12.650  -3.314  1.00  0.00     0.031 A 
ATOM     40  C   UNL     1      -6.356 -13.171  -1.926  1.00  0.00     0.074 A 
ATOM     41  C   UNL     1      -6.946 -13.018  -4.320  1.00  0.00     0.049 A 
ATOM     42  N   UNL     1      -7.333 -13.919  -1.482  1.00  0.00    -0.248 NA
ATOM     43  C   UNL     1      -5.359 -12.812  -0.906  1.00  0.00     0.031 C 
ATOM     44  C   UNL     1      -6.793 -12.606  -5.717  1.00  0.00     0.029 A 
ATOM     45  N   UNL     1      -8.067 -13.807  -4.326  1.00  0.00    -0.354 N 
ATOM     46  C   UNL     1      -7.087 -14.102  -0.127  1.00  0.00     0.074 A 
ATOM     47  C   UNL     1      -5.836 -13.434   0.165  1.00  0.00     0.031 C 
ATOM     48  C   UNL     1      -7.806 -13.113  -6.436  1.00  0.00     0.029 A 
ATOM     49  C   UNL     1      -8.660 -13.912  -5.562  1.00  0.00     0.049 A 
ATOM     50  H   UNL     1      -8.415 -14.256  -3.521  1.00  0.00     0.167 HD
ATOM     51  C   UNL     1      -7.849 -14.748   0.788  1.00  0.00     0.037 A 
ATOM     52  C   UNL     1      -9.770 -14.571  -5.948  1.00  0.00     0.037 A 
ATOM     53  C   UNL     1      -9.085 -15.425   0.480  1.00  0.00     0.049 A 
ATOM     54  C   UNL     1     -10.570 -15.324  -4.920  1.00  0.00     0.074 A 
ATOM     55  C   UNL     1      -9.944 -16.080   1.346  1.00  0.00     0.029 A 
ATOM     56  N   UNL     1      -9.633 -15.546  -0.789  1.00  0.00    -0.354 N 
ATOM     57  N   UNL     1     -10.364 -15.424  -3.628  1.00  0.00    -0.248 NA
ATOM     58  C   UNL     1     -11.753 -16.050  -5.399  1.00  0.00     0.031 C 
ATOM     59  C   UNL     1     -10.979 -16.645   0.595  1.00  0.00     0.029 A 
ATOM     60  C   UNL     1     -10.800 -16.293  -0.733  1.00  0.00     0.049 A 
ATOM     61  H   UNL     1      -9.249 -15.159  -1.609  1.00  0.00     0.167 HD
ATOM     62  C   UNL     1     -11.402 -16.209  -3.138  1.00  0.00     0.074 A 
ATOM     63  C   UNL     1     -12.245 -16.540  -4.268  1.00  0.00     0.031 C 
ATOM     64  C   UNL     1     -11.632 -16.621  -1.866  1.00  0.00     0.037 A 
BRANCH  51  65
ATOM     65  C   UNL     1      -7.382 -14.749   2.219  1.00  0.00     0.058 A 
ATOM     66  C   UNL     1      -7.417 -13.582   2.999  1.00  0.00     0.135 A 
ATOM     67  C   UNL     1      -6.969 -15.939   2.841  1.00  0.00     0.135 A 
ATOM     68  F   UNL     1      -7.793 -12.415   2.453  1.00  0.00    -0.206 F 
ATOM     69  C   UNL     1      -7.043 -13.591   4.339  1.00  0.00     0.059 A 
ATOM     70  C   UNL     1      -6.617 -15.976   4.188  1.00  0.00     0.059 A 
ATOM     71  F   UNL     1      -6.918 -17.085   2.144  1.00  0.00    -0.206 F 
ATOM     72  C   UNL     1      -6.649 -14.794   4.926  1.00  0.00     0.060 A 
BRANCH  72  73
ATOM     73  S   UNL     1      -6.185 -14.784   6.671  1.00  0.00     0.124 S 
ATOM     74  O   UNL     1      -4.949 -14.008   6.639  1.00  0.00    -0.237 OA
ATOM     75  O   UNL     1      -7.330 -14.127   7.291  1.00  0.00    -0.237 OA
ATOM     76  O   UNL     1      -6.027 -16.200   6.990  1.00  0.00    -0.744 OA
ENDBRANCH  72  73
ENDBRANCH  51  65
BRANCH  52  77
ATOM     77  C   UNL     1     -10.203 -14.517  -7.369  1.00  0.00     0.058 A 
ATOM     78  C   UNL     1     -11.363 -13.824  -7.744  1.00  0.00     0.135 A 
ATOM     79  C   UNL     1      -9.453 -15.132  -8.384  1.00  0.00     0.135 A 
ATOM     80  F   UNL     1     -12.118 -13.225  -6.810  1.00  0.00    -0.206 F 
ATOM     81  C   UNL     1     -11.771 -13.750  -9.072  1.00  0.00     0.059 A 
ATOM     82  C   UNL     1      -9.824 -15.048  -9.722  1.00  0.00     0.059 A 
ATOM     83  F   UNL     1      -8.326 -15.796  -8.080  1.00  0.00    -0.206 F 
ATOM     84  C   UNL     1     -10.989 -14.359 -10.055  1.00  0.00     0.060 A 
BRANCH  84  85
ATOM     85  S   UNL     1     -11.502 -14.208 -11.780  1.00  0.00     0.124 S 
ATOM     86  O   UNL     1     -12.715 -15.016 -11.799  1.00  0.00    -0.237 OA
ATOM     87  O   UNL     1     -11.691 -12.767 -11.913  1.00  0.00    -0.237 OA
ATOM     88  O   UNL     1     -10.367 -14.755 -12.518  1.00  0.00    -0.744 OA
ENDBRANCH  84  85
ENDBRANCH  52  77
BRANCH  64  89
ATOM     89  C   UNL     1     -12.847 -17.474  -1.617  1.00  0.00     0.058 A 
ATOM     90  C   UNL     1     -12.909 -18.808  -2.049  1.00  0.00     0.135 A 
ATOM     91  C   UNL     1     -13.931 -16.976  -0.875  1.00  0.00     0.135 A 
ATOM     92  F   UNL     1     -11.905 -19.332  -2.769  1.00  0.00    -0.206 F 
ATOM     93  C   UNL     1     -14.007 -19.614  -1.767  1.00  0.00     0.059 A 
ATOM     94  C   UNL     1     -15.026 -17.773  -0.555  1.00  0.00     0.059 A 
ATOM     95  F   UNL     1     -13.921 -15.710  -0.429  1.00  0.00    -0.206 F 
ATOM     96  C   UNL     1     -15.058 -19.089  -1.012  1.00  0.00     0.060 A 
BRANCH  96  97
ATOM     97  S   UNL     1     -16.453 -20.165  -0.615  1.00  0.00     0.124 S 
ATOM     98  O   UNL     1     -17.076 -20.336  -1.924  1.00  0.00    -0.237 OA
ATOM     99  O   UNL     1     -15.789 -21.345  -0.070  1.00  0.00    -0.237 OA
ATOM    100  O   UNL     1     -17.224 -19.384   0.348  1.00  0.00    -0.744 OA
ENDBRANCH  96  97
ENDBRANCH  64  89
ENDBRANCH  38  39
ENDBRANCH  31  33
ENDBRANCH  30  31
ENDBRANCH  29  30
ENDBRANCH  28  29
ENDBRANCH   1  28
TORSDOF 21
