REMARK SMILES Cc1cc(C(=O)N[C@@H]2C(=O)N3C(C(=O)OCCOCCOC(=O)c4ccc(-c5c6nc(c(-c7c(F)cc(S(=O)(=O)[O-])cc7F)c7ccc([nH]7)c(-c7c(F)cc(S(=O)(=O)[O-])cc7F)c7nc(c(-c8c(F)cc(S(=O)(=O)[O-])cc8F)c8ccc5[nH]8)C=C7)C=C6)cc4)=C(CSc4nnc(C)s4)CS[C@H]23)n(C)n1
REMARK SMILES IDX 18 1 17 2 16 3 15 4 13 5 14 6 12 7 8 8 9 9 101 10 10 11
REMARK SMILES IDX 11 12 100 13 99 14 90 15 7 16 5 17 6 18 4 20 1 21 2 22 3 23
REMARK SMILES IDX 104 24 102 25 103 26 91 27 92 28 93 29 94 30 98 31 95 32
REMARK SMILES IDX 96 33 97 34 19 35 20 36 21 37 22 38 23 39 24 40 25 41 89 42
REMARK SMILES IDX 26 43 88 44 27 45 28 46 29 47 82 48 30 49 87 50 81 51 83 52
REMARK SMILES IDX 31 53 86 54 80 55 79 56 32 58 66 59 45 60 65 61 46 62 49 63
REMARK SMILES IDX 64 64 84 65 47 66 48 67 63 69 85 70 50 71 33 72 34 73 43 74
REMARK SMILES IDX 35 75 36 76 42 77 44 78 37 79 38 80 39 81 40 82 41 83 67 84
REMARK SMILES IDX 68 85 77 86 69 87 70 88 76 89 78 90 71 91 72 92 73 93 74 94
REMARK SMILES IDX 75 95 51 96 52 97 61 98 53 99 54 100 60 101 62 102 55 103
REMARK SMILES IDX 56 104 57 105 58 106 59 107
REMARK H PARENT 7 19 83 57 49 68
REMARK Flexibility Score: inf
ROOT
ATOM      1  O   UNL     1      -3.289   1.615  -1.236  1.00  0.00    -0.374 OA
ENDROOT
BRANCH   1   2
ATOM      2  C   UNL     1      -3.761   1.663  -2.581  1.00  0.00     0.202 C 
BRANCH   2   3
ATOM      3  C   UNL     1      -3.031   0.815  -3.621  1.00  0.00     0.261 C 
BRANCH   3   4
ATOM      4  O   UNL     1      -3.284  -0.583  -3.393  1.00  0.00    -0.459 OA
BRANCH   4   5
ATOM      5  C   UNL     1      -2.200  -1.306  -3.051  1.00  0.00     0.355 C 
ATOM      6  O   UNL     1      -1.039  -0.909  -3.063  1.00  0.00    -0.244 OA
BRANCH   5   7
ATOM      7  C   UNL     1      -2.528  -2.697  -2.599  1.00  0.00     0.132 C 
ATOM      8  C   UNL     1      -0.301  -4.112  -0.442  1.00  0.00     0.206 C 
ATOM      9  C   UNL     1      -1.093  -2.771  -0.506  1.00  0.00     0.253 C 
ATOM     10  C   UNL     1      -1.230  -4.535  -1.621  1.00  0.00     0.181 C 
ATOM     11  O   UNL     1      -1.197  -1.778   0.170  1.00  0.00    -0.272 OA
ATOM     12  N   UNL     1      -1.666  -3.175  -1.663  1.00  0.00    -0.289 N 
ATOM     13  S   UNL     1      -2.702  -5.519  -1.274  1.00  0.00    -0.129 SA
ATOM     14  C   UNL     1      -3.471  -5.040  -2.845  1.00  0.00     0.106 C 
ATOM     15  C   UNL     1      -3.450  -3.536  -3.142  1.00  0.00    -0.019 C 
BRANCH   8  16
ATOM     16  N   UNL     1      -0.293  -4.949   0.780  1.00  0.00    -0.336 N 
ATOM     17  C   UNL     1       0.031  -6.294   0.875  1.00  0.00     0.270 C 
ATOM     18  O   UNL     1      -0.006  -6.815   1.988  1.00  0.00    -0.268 OA
ATOM     19  H   UNL     1      -0.547  -4.501   1.619  1.00  0.00     0.164 HD
BRANCH  17  20
ATOM     20  C   UNL     1       0.325  -7.028  -0.342  1.00  0.00     0.126 A 
ATOM     21  C   UNL     1       0.409  -7.388  -3.967  1.00  0.00     0.069 C 
ATOM     22  C   UNL     1       0.460  -7.557  -2.494  1.00  0.00     0.060 A 
ATOM     23  C   UNL     1       0.925  -6.636  -1.532  1.00  0.00     0.059 A 
ATOM     24  N   UNL     1      -0.052  -8.638  -1.907  1.00  0.00    -0.178 NA
ATOM     25  N   UNL     1      -0.014  -8.341  -0.587  1.00  0.00    -0.263 N 
ATOM     26  C   UNL     1      -0.347  -9.393   0.342  1.00  0.00     0.174 C 
ENDBRANCH  17  20
ENDBRANCH   8  16
BRANCH  15  27
ATOM     27  C   UNL     1      -4.496  -3.164  -4.164  1.00  0.00     0.111 C 
BRANCH  27  28
ATOM     28  S   UNL     1      -6.007  -2.394  -3.532  1.00  0.00    -0.089 SA
BRANCH  28  29
ATOM     29  C   UNL     1      -6.498  -3.227  -2.078  1.00  0.00     0.174 A 
ATOM     30  N   UNL     1      -5.748  -4.064  -1.401  1.00  0.00    -0.132 NA
ATOM     31  S   UNL     1      -8.007  -2.925  -1.314  1.00  0.00    -0.091 S 
ATOM     32  N   UNL     1      -6.278  -4.391  -0.167  1.00  0.00    -0.143 NA
ATOM     33  C   UNL     1      -7.415  -3.769   0.052  1.00  0.00     0.115 A 
ATOM     34  C   UNL     1      -8.138  -3.731   1.348  1.00  0.00     0.081 C 
ENDBRANCH  28  29
ENDBRANCH  27  28
ENDBRANCH  15  27
ENDBRANCH   5   7
ENDBRANCH   4   5
ENDBRANCH   3   4
ENDBRANCH   2   3
ENDBRANCH   1   2
BRANCH   1  35
ATOM     35  C   UNL     1      -3.488   0.414  -0.494  1.00  0.00     0.202 C 
BRANCH  35  36
ATOM     36  C   UNL     1      -4.896   0.100   0.031  1.00  0.00     0.261 C 
BRANCH  36  37
ATOM     37  O   UNL     1      -5.925   0.175  -0.964  1.00  0.00    -0.460 OA
BRANCH  37  38
ATOM     38  C   UNL     1      -6.633   1.334  -0.963  1.00  0.00     0.338 C 
ATOM     39  O   UNL     1      -6.520   2.274  -0.197  1.00  0.00    -0.246 OA
BRANCH  38  40
ATOM     40  C   UNL     1      -7.498   1.363  -2.157  1.00  0.00     0.060 A 
ATOM     41  C   UNL     1      -7.311   2.367  -3.112  1.00  0.00     0.016 A 
ATOM     42  C   UNL     1      -8.518   0.429  -2.308  1.00  0.00     0.016 A 
ATOM     43  C   UNL     1      -8.166   2.444  -4.212  1.00  0.00     0.010 A 
ATOM     44  C   UNL     1      -9.338   0.470  -3.434  1.00  0.00     0.010 A 
ATOM     45  C   UNL     1      -9.201   1.511  -4.367  1.00  0.00    -0.014 A 
BRANCH  45  46
ATOM     46  C   UNL     1     -10.254   1.714  -5.395  1.00  0.00     0.031 A 
ATOM     47  C   UNL     1     -11.646   2.081  -4.945  1.00  0.00     0.074 A 
ATOM     48  C   UNL     1      -9.979   1.575  -6.705  1.00  0.00     0.049 A 
ATOM     49  N   UNL     1     -12.732   2.246  -5.654  1.00  0.00    -0.248 NA
ATOM     50  C   UNL     1     -11.844   2.263  -3.496  1.00  0.00     0.031 C 
ATOM     51  C   UNL     1      -8.672   1.227  -7.263  1.00  0.00     0.029 A 
ATOM     52  N   UNL     1     -10.789   1.704  -7.805  1.00  0.00    -0.354 N 
ATOM     53  C   UNL     1     -13.740   2.532  -4.739  1.00  0.00     0.074 A 
ATOM     54  C   UNL     1     -13.151   2.462  -3.422  1.00  0.00     0.031 C 
ATOM     55  C   UNL     1      -8.768   1.177  -8.603  1.00  0.00     0.029 A 
ATOM     56  C   UNL     1     -10.149   1.450  -8.995  1.00  0.00     0.049 A 
ATOM     57  H   UNL     1     -11.739   1.954  -7.747  1.00  0.00     0.167 HD
ATOM     58  C   UNL     1     -15.035   2.849  -4.976  1.00  0.00     0.037 A 
ATOM     59  C   UNL     1     -10.629   1.426 -10.255  1.00  0.00     0.037 A 
ATOM     60  C   UNL     1     -15.608   2.940  -6.293  1.00  0.00     0.049 A 
ATOM     61  C   UNL     1     -12.083   1.742 -10.494  1.00  0.00     0.074 A 
ATOM     62  C   UNL     1     -16.897   3.294  -6.647  1.00  0.00     0.029 A 
ATOM     63  N   UNL     1     -14.929   2.669  -7.472  1.00  0.00    -0.354 N 
ATOM     64  N   UNL     1     -13.014   2.051  -9.623  1.00  0.00    -0.248 NA
ATOM     65  C   UNL     1     -12.550   1.712 -11.887  1.00  0.00     0.031 C 
ATOM     66  C   UNL     1     -17.015   3.179  -8.035  1.00  0.00     0.029 A 
ATOM     67  C   UNL     1     -15.780   2.820  -8.553  1.00  0.00     0.049 A 
ATOM     68  H   UNL     1     -13.981   2.409  -7.531  1.00  0.00     0.167 HD
ATOM     69  C   UNL     1     -14.169   2.283 -10.364  1.00  0.00     0.074 A 
ATOM     70  C   UNL     1     -13.815   2.089 -11.755  1.00  0.00     0.031 C 
ATOM     71  C   UNL     1     -15.409   2.628  -9.934  1.00  0.00     0.037 A 
BRANCH  58  72
ATOM     72  C   UNL     1     -15.921   3.107  -3.785  1.00  0.00     0.058 A 
ATOM     73  C   UNL     1     -15.751   4.231  -2.960  1.00  0.00     0.135 A 
ATOM     74  C   UNL     1     -16.972   2.227  -3.478  1.00  0.00     0.135 A 
ATOM     75  F   UNL     1     -14.752   5.098  -3.194  1.00  0.00    -0.206 F 
ATOM     76  C   UNL     1     -16.567   4.455  -1.855  1.00  0.00     0.059 A 
ATOM     77  C   UNL     1     -17.822   2.449  -2.398  1.00  0.00     0.059 A 
ATOM     78  F   UNL     1     -17.181   1.134  -4.229  1.00  0.00    -0.206 F 
ATOM     79  C   UNL     1     -17.601   3.558  -1.583  1.00  0.00     0.060 A 
BRANCH  79  80
ATOM     80  S   UNL     1     -18.650   3.864  -0.147  1.00  0.00     0.124 S 
ATOM     81  O   UNL     1     -17.735   3.566   0.951  1.00  0.00    -0.237 OA
ATOM     82  O   UNL     1     -19.003   5.270  -0.314  1.00  0.00    -0.237 OA
ATOM     83  O   UNL     1     -19.749   2.919  -0.320  1.00  0.00    -0.744 OA
ENDBRANCH  79  80
ENDBRANCH  58  72
BRANCH  59  84
ATOM     84  C   UNL     1      -9.721   1.097 -11.388  1.00  0.00     0.058 A 
ATOM     85  C   UNL     1      -9.361   2.067 -12.334  1.00  0.00     0.135 A 
ATOM     86  C   UNL     1      -9.182  -0.192 -11.538  1.00  0.00     0.135 A 
ATOM     87  F   UNL     1      -9.857   3.311 -12.241  1.00  0.00    -0.206 F 
ATOM     88  C   UNL     1      -8.509   1.773 -13.394  1.00  0.00     0.059 A 
ATOM     89  C   UNL     1      -8.306  -0.503 -12.573  1.00  0.00     0.059 A 
ATOM     90  F   UNL     1      -9.484  -1.155 -10.654  1.00  0.00    -0.206 F 
ATOM     91  C   UNL     1      -7.981   0.485 -13.500  1.00  0.00     0.060 A 
BRANCH  91  92
ATOM     92  S   UNL     1      -6.825   0.132 -14.842  1.00  0.00     0.124 S 
ATOM     93  O   UNL     1      -7.706   0.152 -16.004  1.00  0.00    -0.237 OA
ATOM     94  O   UNL     1      -5.885   1.244 -14.734  1.00  0.00    -0.237 OA
ATOM     95  O   UNL     1      -6.282  -1.175 -14.483  1.00  0.00    -0.744 OA
ENDBRANCH  91  92
ENDBRANCH  59  84
BRANCH  71  96
ATOM     96  C   UNL     1     -16.470   2.860 -10.977  1.00  0.00     0.058 A 
ATOM     97  C   UNL     1     -17.029   1.804 -11.714  1.00  0.00     0.135 A 
ATOM     98  C   UNL     1     -16.977   4.152 -11.197  1.00  0.00     0.135 A 
ATOM     99  F   UNL     1     -16.579   0.550 -11.548  1.00  0.00    -0.206 F 
ATOM    100  C   UNL     1     -18.036   2.025 -12.649  1.00  0.00     0.059 A 
ATOM    101  C   UNL     1     -18.006   4.390 -12.102  1.00  0.00     0.059 A 
ATOM    102  F   UNL     1     -16.487   5.197 -10.510  1.00  0.00    -0.206 F 
ATOM    103  C   UNL     1     -18.521   3.321 -12.832  1.00  0.00     0.060 A 
BRANCH 103 104
ATOM    104  S   UNL     1     -19.852   3.585 -14.023  1.00  0.00     0.124 S 
ATOM    105  O   UNL     1     -19.155   3.393 -15.290  1.00  0.00    -0.237 OA
ATOM    106  O   UNL     1     -20.805   2.542 -13.659  1.00  0.00    -0.237 OA
ATOM    107  O   UNL     1     -20.289   4.951 -13.748  1.00  0.00    -0.744 OA
ENDBRANCH 103 104
ENDBRANCH  71  96
ENDBRANCH  45  46
ENDBRANCH  38  40
ENDBRANCH  37  38
ENDBRANCH  36  37
ENDBRANCH  35  36
ENDBRANCH   1  35
TORSDOF 22
