REMARK SMILES O=C(OCCOCCOC(=O)c1ccc([C@@H]2CC(O)=Nc3c2c(=O)[nH]n3C2CCCCCCC2)cc1)c1ccc(-c2c3nc(c(-c4c(F)cc(S(=O)(=O)[O-])cc4F)c4ccc([nH]4)c(-c4c(F)cc(S(=O)(=O)[O-])cc4F)c4nc(c(-c5c(F)cc(S(=O)(=O)[O-])cc5F)c5ccc2[nH]5)C=C4)C=C3)cc1
REMARK SMILES IDX 7 1 6 2 5 3 4 4 3 5 2 6 1 7 37 8 38 9 102 10 39 11 101 12
REMARK SMILES IDX 40 13 41 14 42 15 95 16 43 17 100 18 94 19 96 20 44 21 99 22
REMARK SMILES IDX 93 23 92 24 45 26 79 27 58 28 78 29 59 30 62 31 77 32 97 33
REMARK SMILES IDX 60 34 61 35 76 37 98 38 63 39 46 40 47 41 56 42 48 43 49 44
REMARK SMILES IDX 55 45 57 46 50 47 51 48 52 49 53 50 54 51 80 52 81 53 90 54
REMARK SMILES IDX 82 55 83 56 89 57 91 58 84 59 85 60 86 61 87 62 88 63 64 64
REMARK SMILES IDX 65 65 74 66 66 67 67 68 73 69 75 70 68 71 69 72 70 73 71 74
REMARK SMILES IDX 72 75 8 76 9 77 10 78 11 79 12 80 13 81 36 82 14 83 35 84
REMARK SMILES IDX 15 85 16 86 17 87 22 88 18 89 21 90 23 91 20 92 26 93 24 94
REMARK SMILES IDX 25 95 19 97 27 99 28 100 29 101 30 102 31 103 34 105 33 106
REMARK SMILES IDX 32 107
REMARK H PARENT 96 25 62 36 25 96 19 98
REMARK Flexibility Score: 80.00
ROOT
ATOM      1  C   UNL     1       2.958   1.245  -1.677  1.00  0.00     0.202 C 
ENDROOT
BRANCH   1   2
ATOM      2  O   UNL     1       4.122   1.011  -0.873  1.00  0.00    -0.374 OA
BRANCH   2   3
ATOM      3  C   UNL     1       4.658  -0.308  -0.882  1.00  0.00     0.202 C 
BRANCH   3   4
ATOM      4  C   UNL     1       4.389  -1.217   0.316  1.00  0.00     0.261 C 
BRANCH   4   5
ATOM      5  O   UNL     1       3.013  -1.612   0.447  1.00  0.00    -0.460 OA
BRANCH   5   6
ATOM      6  C   UNL     1       1.976  -0.754   0.565  1.00  0.00     0.338 C 
ATOM      7  O   UNL     1       0.953  -0.919  -0.096  1.00  0.00    -0.246 OA
BRANCH   6   8
ATOM      8  C   UNL     1       1.974   0.201   1.699  1.00  0.00     0.060 A 
ATOM      9  C   UNL     1       3.115   0.666   2.351  1.00  0.00     0.016 A 
ATOM     10  C   UNL     1       0.709   0.541   2.201  1.00  0.00     0.016 A 
ATOM     11  C   UNL     1       3.014   1.182   3.623  1.00  0.00     0.010 A 
ATOM     12  C   UNL     1       0.596   1.139   3.440  1.00  0.00     0.010 A 
ATOM     13  C   UNL     1       1.752   1.351   4.184  1.00  0.00    -0.014 A 
BRANCH  13  14
ATOM     14  C   UNL     1       1.697   1.895   5.527  1.00  0.00     0.031 A 
ATOM     15  C   UNL     1       2.277   3.259   5.622  1.00  0.00     0.074 A 
ATOM     16  C   UNL     1       1.077   1.238   6.525  1.00  0.00     0.049 A 
ATOM     17  N   UNL     1       3.303   3.649   6.304  1.00  0.00    -0.248 NA
ATOM     18  C   UNL     1       1.771   4.271   4.676  1.00  0.00     0.031 C 
ATOM     19  C   UNL     1       0.284   0.010   6.418  1.00  0.00     0.029 A 
ATOM     20  N   UNL     1       0.907   1.592   7.826  1.00  0.00    -0.354 N 
ATOM     21  C   UNL     1       3.394   5.020   6.075  1.00  0.00     0.074 A 
ATOM     22  C   UNL     1       2.603   5.286   4.907  1.00  0.00     0.031 C 
ATOM     23  C   UNL     1      -0.487  -0.115   7.519  1.00  0.00     0.029 A 
ATOM     24  C   UNL     1      -0.160   0.954   8.447  1.00  0.00     0.049 A 
ATOM     25  H   UNL     1       1.486   2.241   8.286  1.00  0.00     0.167 HD
ATOM     26  C   UNL     1       3.828   5.856   7.058  1.00  0.00     0.037 A 
ATOM     27  C   UNL     1      -0.791   1.353   9.582  1.00  0.00     0.037 A 
ATOM     28  C   UNL     1       4.629   5.139   8.024  1.00  0.00     0.049 A 
ATOM     29  C   UNL     1       0.127   2.291  10.286  1.00  0.00     0.074 A 
ATOM     30  C   UNL     1       5.760   4.348   7.953  1.00  0.00     0.029 A 
ATOM     31  N   UNL     1       4.071   4.879   9.253  1.00  0.00    -0.354 N 
ATOM     32  N   UNL     1       1.266   1.933  10.815  1.00  0.00    -0.248 NA
ATOM     33  C   UNL     1      -0.000   3.713   9.998  1.00  0.00     0.031 C 
ATOM     34  C   UNL     1       5.561   3.322   8.924  1.00  0.00     0.029 A 
ATOM     35  C   UNL     1       4.355   3.580   9.577  1.00  0.00     0.049 A 
ATOM     36  H   UNL     1       3.558   5.515   9.802  1.00  0.00     0.167 HD
ATOM     37  C   UNL     1       2.138   2.973  10.521  1.00  0.00     0.074 A 
ATOM     38  C   UNL     1       1.280   4.079  10.104  1.00  0.00     0.031 C 
ATOM     39  C   UNL     1       3.476   2.745  10.364  1.00  0.00     0.037 A 
BRANCH  26  40
ATOM     40  C   UNL     1       3.128   7.165   7.396  1.00  0.00     0.058 A 
ATOM     41  C   UNL     1       3.632   7.936   8.466  1.00  0.00     0.135 A 
ATOM     42  C   UNL     1       1.828   7.519   6.963  1.00  0.00     0.135 A 
ATOM     43  F   UNL     1       4.870   7.722   8.938  1.00  0.00    -0.206 F 
ATOM     44  C   UNL     1       2.851   8.866   9.150  1.00  0.00     0.059 A 
ATOM     45  C   UNL     1       1.050   8.476   7.602  1.00  0.00     0.059 A 
ATOM     46  F   UNL     1       1.197   6.911   5.955  1.00  0.00    -0.206 F 
ATOM     47  C   UNL     1       1.548   9.103   8.728  1.00  0.00     0.060 A 
BRANCH  47  48
ATOM     48  S   UNL     1       0.484  10.190   9.688  1.00  0.00     0.124 S 
ATOM     49  O   UNL     1       0.278   9.395  10.892  1.00  0.00    -0.237 OA
ATOM     50  O   UNL     1       1.323  11.374   9.835  1.00  0.00    -0.237 OA
ATOM     51  O   UNL     1      -0.684  10.357   8.829  1.00  0.00    -0.744 OA
ENDBRANCH  47  48
ENDBRANCH  26  40
BRANCH  27  52
ATOM     52  C   UNL     1      -2.248   1.264   9.889  1.00  0.00     0.058 A 
ATOM     53  C   UNL     1      -2.739   1.546  11.177  1.00  0.00     0.135 A 
ATOM     54  C   UNL     1      -3.220   1.156   8.872  1.00  0.00     0.135 A 
ATOM     55  F   UNL     1      -1.890   1.689  12.206  1.00  0.00    -0.206 F 
ATOM     56  C   UNL     1      -4.101   1.753  11.431  1.00  0.00     0.059 A 
ATOM     57  C   UNL     1      -4.582   1.338   9.104  1.00  0.00     0.059 A 
ATOM     58  F   UNL     1      -2.875   0.959   7.592  1.00  0.00    -0.206 F 
ATOM     59  C   UNL     1      -5.015   1.664  10.381  1.00  0.00     0.060 A 
BRANCH  59  60
ATOM     60  S   UNL     1      -6.750   2.092  10.660  1.00  0.00     0.124 S 
ATOM     61  O   UNL     1      -7.205   0.984  11.492  1.00  0.00    -0.237 OA
ATOM     62  O   UNL     1      -6.647   3.388  11.322  1.00  0.00    -0.237 OA
ATOM     63  O   UNL     1      -7.311   2.129   9.311  1.00  0.00    -0.744 OA
ENDBRANCH  59  60
ENDBRANCH  27  52
BRANCH  39  64
ATOM     64  C   UNL     1       4.039   1.438  10.852  1.00  0.00     0.058 A 
ATOM     65  C   UNL     1       3.681   0.173  10.354  1.00  0.00     0.135 A 
ATOM     66  C   UNL     1       5.088   1.486  11.783  1.00  0.00     0.135 A 
ATOM     67  F   UNL     1       2.770   0.048   9.379  1.00  0.00    -0.206 F 
ATOM     68  C   UNL     1       4.298  -0.995  10.807  1.00  0.00     0.059 A 
ATOM     69  C   UNL     1       5.740   0.339  12.222  1.00  0.00     0.059 A 
ATOM     70  F   UNL     1       5.524   2.670  12.246  1.00  0.00    -0.206 F 
ATOM     71  C   UNL     1       5.326  -0.901  11.744  1.00  0.00     0.060 A 
BRANCH  71  72
ATOM     72  S   UNL     1       6.159  -2.406  12.292  1.00  0.00     0.124 S 
ATOM     73  O   UNL     1       5.133  -3.046  13.108  1.00  0.00    -0.237 OA
ATOM     74  O   UNL     1       6.475  -3.072  11.032  1.00  0.00    -0.237 OA
ATOM     75  O   UNL     1       7.318  -1.906  13.029  1.00  0.00    -0.744 OA
ENDBRANCH  71  72
ENDBRANCH  39  64
ENDBRANCH  13  14
ENDBRANCH   6   8
ENDBRANCH   5   6
ENDBRANCH   4   5
ENDBRANCH   3   4
ENDBRANCH   2   3
ENDBRANCH   1   2
BRANCH   1  76
ATOM     76  C   UNL     1       3.059   1.170  -3.211  1.00  0.00     0.261 C 
BRANCH  76  77
ATOM     77  O   UNL     1       3.490  -0.112  -3.697  1.00  0.00    -0.460 OA
BRANCH  77  78
ATOM     78  C   UNL     1       4.786  -0.165  -4.112  1.00  0.00     0.338 C 
ATOM     79  O   UNL     1       5.560   0.750  -4.236  1.00  0.00    -0.246 OA
BRANCH  78  80
ATOM     80  C   UNL     1       5.193  -1.586  -4.174  1.00  0.00     0.060 A 
ATOM     81  C   UNL     1       6.271  -1.990  -3.377  1.00  0.00     0.016 A 
ATOM     82  C   UNL     1       4.505  -2.508  -4.956  1.00  0.00     0.016 A 
ATOM     83  C   UNL     1       6.633  -3.333  -3.318  1.00  0.00     0.005 A 
ATOM     84  C   UNL     1       4.906  -3.844  -4.939  1.00  0.00     0.005 A 
ATOM     85  C   UNL     1       5.953  -4.276  -4.098  1.00  0.00    -0.040 A 
BRANCH  85  86
ATOM     86  C   UNL     1       6.328  -5.746  -3.978  1.00  0.00     0.068 C 
ATOM     87  C   UNL     1       7.091  -6.237  -5.217  1.00  0.00     0.110 C 
ATOM     88  C   UNL     1       5.132  -6.579  -3.765  1.00  0.00     0.071 A 
ATOM     89  C   UNL     1       6.167  -6.875  -6.223  1.00  0.00     0.188 C 
ATOM     90  C   UNL     1       4.522  -7.306  -4.714  1.00  0.00     0.160 A 
ATOM     91  C   UNL     1       4.344  -6.717  -2.531  1.00  0.00     0.270 A 
ATOM     92  N   UNL     1       4.989  -7.351  -6.000  1.00  0.00    -0.198 NA
ATOM     93  N   UNL     1       3.405  -7.925  -4.179  1.00  0.00    -0.264 N 
ATOM     94  O   UNL     1       4.588  -6.177  -1.470  1.00  0.00    -0.268 OA
ATOM     95  N   UNL     1       3.296  -7.559  -2.845  1.00  0.00    -0.262 N 
ATOM     96  H   UNL     1       2.588  -7.850  -2.225  1.00  0.00     0.191 HD
BRANCH  89  97
ATOM     97  O   UNL     1       6.691  -7.013  -7.456  1.00  0.00    -0.496 OA
ATOM     98  H   UNL     1       7.545  -6.676  -7.643  1.00  0.00     0.294 HD
ENDBRANCH  89  97
BRANCH  93  99
ATOM     99  C   UNL     1       2.619  -9.043  -4.707  1.00  0.00     0.107 C 
BRANCH  99 100
ATOM    100  C   UNL     1       1.989  -8.637  -6.044  1.00  0.00     0.027 C 
BRANCH 100 101
ATOM    101  C   UNL     1       1.058  -9.658  -6.694  1.00  0.00     0.002 C 
BRANCH 101 102
ATOM    102  C   UNL     1       1.677 -10.951  -7.223  1.00  0.00     0.000 C 
BRANCH 102 103
ATOM    103  C   UNL     1       3.072 -10.826  -7.832  1.00  0.00     0.000 CG0
ATOM    104  G   UNL     1       4.175 -11.385  -6.936  1.00  0.00     0.000 G0
ENDBRANCH 102 103
ENDBRANCH 101 102
ENDBRANCH 100 101
ENDBRANCH  99 100
BRANCH  99 105
ATOM    105  C   UNL     1       3.436 -10.352  -4.653  1.00  0.00     0.027 C 
BRANCH 105 106
ATOM    106  C   UNL     1       4.535 -10.569  -5.697  1.00  0.00     0.002 C 
BRANCH 106 107
ATOM    107  C   UNL     1       4.175 -11.385  -6.936  1.00  0.00     0.000 CG0
ATOM    108  G   UNL     1       3.072 -10.826  -7.832  1.00  0.00     0.000 G0
ENDBRANCH 106 107
ENDBRANCH 105 106
ENDBRANCH  99 105
ENDBRANCH  93  99
ENDBRANCH  85  86
ENDBRANCH  78  80
ENDBRANCH  77  78
ENDBRANCH  76  77
ENDBRANCH   1  76
TORSDOF 20
