REMARK SMILES CCOc1ccc2c(c1)=N[C@H](SCC(=O)OCCOCCOC(=O)c1ccc(-c3c4nc(c(-c5c(F)cc(S(=O)(=O)[O-])cc5F)c5ccc([nH]5)c(-c5c(F)cc(S(=O)(=O)[O-])cc5F)c5nc(c(-c6c(F)cc(S(=O)(=O)[O-])cc6F)c6ccc3[nH]6)C=C5)C=C4)cc1)N=2
REMARK SMILES IDX 18 1 17 2 16 3 14 4 15 5 13 6 12 7 11 8 4 9 5 10 9 11 6 12
REMARK SMILES IDX 8 13 7 14 10 15 91 16 3 17 2 18 1 19 19 20 20 21 21 22 22 23
REMARK SMILES IDX 23 24 24 25 25 26 26 27 90 28 27 29 89 30 28 31 29 32 30 33
REMARK SMILES IDX 83 34 31 35 88 36 82 37 84 38 32 39 87 40 81 41 80 42 33 44
REMARK SMILES IDX 67 45 46 46 66 47 47 48 50 49 65 50 85 51 48 52 49 53 64 55
REMARK SMILES IDX 86 56 51 57 34 58 35 59 44 60 36 61 37 62 43 63 45 64 38 65
REMARK SMILES IDX 39 66 40 67 41 68 42 69 68 70 69 71 78 72 70 73 71 74 77 75
REMARK SMILES IDX 79 76 72 77 73 78 74 79 75 80 76 81 52 82 53 83 62 84 54 85
REMARK SMILES IDX 55 86 61 87 63 88 56 89 57 90 58 91 59 92 60 93
REMARK H PARENT 84 43 50 54
REMARK Flexibility Score: inf
ROOT
ATOM      1  C   UNL     1       9.685  -3.220   8.155  1.00  0.00     0.202 C 
ENDROOT
BRANCH   1   2
ATOM      2  C   UNL     1       9.710  -1.759   8.621  1.00  0.00     0.261 C 
BRANCH   2   3
ATOM      3  O   UNL     1       8.759  -0.946   7.905  1.00  0.00    -0.463 OA
BRANCH   3   4
ATOM      4  C   UNL     1       9.213   0.268   7.484  1.00  0.00     0.316 C 
ATOM      5  O   UNL     1      10.346   0.693   7.700  1.00  0.00    -0.251 OA
BRANCH   4   6
ATOM      6  C   UNL     1       8.264   0.993   6.554  1.00  0.00     0.196 C 
BRANCH   6   7
ATOM      7  S   UNL     1       6.503   0.848   6.968  1.00  0.00    -0.100 SA
BRANCH   7   8
ATOM      8  C   UNL     1       5.936  -0.084   5.501  1.00  0.00     0.282 C 
ATOM      9  C   UNL     1       2.405   0.170   2.694  1.00  0.00     0.121 A 
ATOM     10  C   UNL     1       3.416   0.803   1.866  1.00  0.00     0.049 A 
ATOM     11  C   UNL     1       2.658  -0.280   3.933  1.00  0.00     0.076 A 
ATOM     12  C   UNL     1       4.685   0.986   2.261  1.00  0.00     0.034 A 
ATOM     13  C   UNL     1       4.029  -0.142   4.440  1.00  0.00     0.090 A 
ATOM     14  C   UNL     1       5.051   0.516   3.602  1.00  0.00     0.087 A 
ATOM     15  N   UNL     1       4.510  -0.512   5.573  1.00  0.00    -0.246 NA
ATOM     16  N   UNL     1       6.192   0.590   4.192  1.00  0.00    -0.246 NA
BRANCH   9  17
ATOM     17  O   UNL     1       1.116   0.237   2.215  1.00  0.00    -0.494 OA
BRANCH  17  18
ATOM     18  C   UNL     1       0.765  -0.782   1.273  1.00  0.00     0.226 C 
ATOM     19  C   UNL     1       0.765  -0.217  -0.138  1.00  0.00     0.049 C 
ENDBRANCH  17  18
ENDBRANCH   9  17
ENDBRANCH   7   8
ENDBRANCH   6   7
ENDBRANCH   4   6
ENDBRANCH   3   4
ENDBRANCH   2   3
ENDBRANCH   1   2
BRANCH   1  20
ATOM     20  O   UNL     1      10.101  -3.466   6.810  1.00  0.00    -0.374 OA
BRANCH  20  21
ATOM     21  C   UNL     1       9.316  -2.900   5.762  1.00  0.00     0.202 C 
BRANCH  21  22
ATOM     22  C   UNL     1       7.908  -3.477   5.567  1.00  0.00     0.261 C 
BRANCH  22  23
ATOM     23  O   UNL     1       7.071  -3.317   6.728  1.00  0.00    -0.460 OA
BRANCH  23  24
ATOM     24  C   UNL     1       6.513  -4.465   7.184  1.00  0.00     0.338 C 
ATOM     25  O   UNL     1       6.557  -5.564   6.642  1.00  0.00    -0.246 OA
BRANCH  24  26
ATOM     26  C   UNL     1       5.977  -4.293   8.549  1.00  0.00     0.060 A 
ATOM     27  C   UNL     1       4.903  -3.446   8.823  1.00  0.00     0.016 A 
ATOM     28  C   UNL     1       6.511  -5.107   9.557  1.00  0.00     0.016 A 
ATOM     29  C   UNL     1       4.333  -3.454  10.107  1.00  0.00     0.010 A 
ATOM     30  C   UNL     1       5.947  -5.106  10.834  1.00  0.00     0.010 A 
ATOM     31  C   UNL     1       4.835  -4.300  11.115  1.00  0.00    -0.014 A 
BRANCH  31  32
ATOM     32  C   UNL     1       4.133  -4.452  12.419  1.00  0.00     0.031 A 
ATOM     33  C   UNL     1       4.693  -3.875  13.687  1.00  0.00     0.074 A 
ATOM     34  C   UNL     1       3.011  -5.198  12.470  1.00  0.00     0.049 A 
ATOM     35  N   UNL     1       4.194  -3.909  14.897  1.00  0.00    -0.248 NA
ATOM     36  C   UNL     1       5.988  -3.188  13.587  1.00  0.00     0.031 C 
ATOM     37  C   UNL     1       2.402  -5.874  11.324  1.00  0.00     0.029 A 
ATOM     38  N   UNL     1       2.193  -5.524  13.524  1.00  0.00    -0.354 N 
ATOM     39  C   UNL     1       5.104  -3.237  15.705  1.00  0.00     0.074 A 
ATOM     40  C   UNL     1       6.209  -2.849  14.852  1.00  0.00     0.031 C 
ATOM     41  C   UNL     1       1.301  -6.523  11.733  1.00  0.00     0.029 A 
ATOM     42  C   UNL     1       1.134  -6.327  13.171  1.00  0.00     0.049 A 
ATOM     43  H   UNL     1       2.350  -5.213  14.444  1.00  0.00     0.167 HD
ATOM     44  C   UNL     1       5.017  -2.958  17.029  1.00  0.00     0.037 A 
ATOM     45  C   UNL     1       0.137  -6.848  13.915  1.00  0.00     0.037 A 
ATOM     46  C   UNL     1       3.920  -3.358  17.877  1.00  0.00     0.049 A 
ATOM     47  C   UNL     1       0.063  -6.536  15.384  1.00  0.00     0.074 A 
ATOM     48  C   UNL     1       3.708  -3.051  19.210  1.00  0.00     0.029 A 
ATOM     49  N   UNL     1       2.865  -4.170  17.485  1.00  0.00    -0.354 N 
ATOM     50  N   UNL     1       0.873  -5.805  16.110  1.00  0.00    -0.248 NA
ATOM     51  C   UNL     1      -1.062  -7.112  16.133  1.00  0.00     0.031 C 
ATOM     52  C   UNL     1       2.558  -3.723  19.640  1.00  0.00     0.029 A 
ATOM     53  C   UNL     1       2.021  -4.406  18.561  1.00  0.00     0.049 A 
ATOM     54  H   UNL     1       2.734  -4.527  16.577  1.00  0.00     0.167 HD
ATOM     55  C   UNL     1       0.351  -5.821  17.399  1.00  0.00     0.074 A 
ATOM     56  C   UNL     1      -0.854  -6.624  17.350  1.00  0.00     0.031 C 
ATOM     57  C   UNL     1       0.830  -5.221  18.517  1.00  0.00     0.037 A 
BRANCH  44  58
ATOM     58  C   UNL     1       6.141  -2.174  17.652  1.00  0.00     0.058 A 
ATOM     59  C   UNL     1       6.336  -0.814  17.364  1.00  0.00     0.135 A 
ATOM     60  C   UNL     1       7.004  -2.774  18.585  1.00  0.00     0.135 A 
ATOM     61  F   UNL     1       5.544  -0.191  16.477  1.00  0.00    -0.206 F 
ATOM     62  C   UNL     1       7.367  -0.086  17.949  1.00  0.00     0.059 A 
ATOM     63  C   UNL     1       8.025  -2.057  19.203  1.00  0.00     0.059 A 
ATOM     64  F   UNL     1       6.859  -4.069  18.906  1.00  0.00    -0.206 F 
ATOM     65  C   UNL     1       8.209  -0.717  18.865  1.00  0.00     0.060 A 
BRANCH  65  66
ATOM     66  S   UNL     1       9.550   0.241  19.603  1.00  0.00     0.124 S 
ATOM     67  O   UNL     1      10.452   0.402  18.466  1.00  0.00    -0.237 OA
ATOM     68  O   UNL     1       8.864   1.451  20.043  1.00  0.00    -0.237 OA
ATOM     69  O   UNL     1      10.040  -0.623  20.672  1.00  0.00    -0.744 OA
ENDBRANCH  65  66
ENDBRANCH  44  58
BRANCH  45  70
ATOM     70  C   UNL     1      -0.896  -7.685  13.251  1.00  0.00     0.058 A 
ATOM     71  C   UNL     1      -2.177  -7.175  12.997  1.00  0.00     0.135 A 
ATOM     72  C   UNL     1      -0.597  -8.973  12.781  1.00  0.00     0.135 A 
ATOM     73  F   UNL     1      -2.512  -5.953  13.437  1.00  0.00    -0.206 F 
ATOM     74  C   UNL     1      -3.123  -7.906  12.286  1.00  0.00     0.059 A 
ATOM     75  C   UNL     1      -1.519  -9.715  12.049  1.00  0.00     0.059 A 
ATOM     76  F   UNL     1       0.620  -9.499  12.990  1.00  0.00    -0.206 F 
ATOM     77  C   UNL     1      -2.779  -9.170  11.802  1.00  0.00     0.060 A 
BRANCH  77  78
ATOM     78  S   UNL     1      -3.978 -10.058  10.784  1.00  0.00     0.124 S 
ATOM     79  O   UNL     1      -4.998 -10.407  11.765  1.00  0.00    -0.237 OA
ATOM     80  O   UNL     1      -4.355  -9.043   9.804  1.00  0.00    -0.237 OA
ATOM     81  O   UNL     1      -3.205 -11.175  10.250  1.00  0.00    -0.744 OA
ENDBRANCH  77  78
ENDBRANCH  45  70
BRANCH  57  82
ATOM     82  C   UNL     1       0.060  -5.406  19.797  1.00  0.00     0.058 A 
ATOM     83  C   UNL     1       0.080  -6.623  20.496  1.00  0.00     0.135 A 
ATOM     84  C   UNL     1      -0.640  -4.333  20.374  1.00  0.00     0.135 A 
ATOM     85  F   UNL     1       0.726  -7.684  19.986  1.00  0.00    -0.206 F 
ATOM     86  C   UNL     1      -0.571  -6.773  21.717  1.00  0.00     0.059 A 
ATOM     87  C   UNL     1      -1.277  -4.453  21.606  1.00  0.00     0.059 A 
ATOM     88  F   UNL     1      -0.687  -3.144  19.752  1.00  0.00    -0.206 F 
ATOM     89  C   UNL     1      -1.241  -5.679  22.268  1.00  0.00     0.060 A 
BRANCH  89  90
ATOM     90  S   UNL     1      -2.034  -5.875  23.880  1.00  0.00     0.124 S 
ATOM     91  O   UNL     1      -3.164  -6.737  23.551  1.00  0.00    -0.237 OA
ATOM     92  O   UNL     1      -0.976  -6.492  24.674  1.00  0.00    -0.237 OA
ATOM     93  O   UNL     1      -2.378  -4.508  24.259  1.00  0.00    -0.744 OA
ENDBRANCH  89  90
ENDBRANCH  57  82
ENDBRANCH  31  32
ENDBRANCH  24  26
ENDBRANCH  23  24
ENDBRANCH  22  23
ENDBRANCH  21  22
ENDBRANCH  20  21
ENDBRANCH   1  20
TORSDOF 21
