REMARK SMILES CCN(CC)c1ccc(NS(=O)(=O)c2ccc(Cl)s2)cc1C(=O)OCCOCCOC(=O)c1ccc(-c2c3nc(c(-c4c(F)cc(S(=O)(=O)[O-])cc4F)c4ccc([nH]4)c(-c4c(F)cc(S(=O)(=O)[O-])cc4F)c4nc(c(-c5c(F)cc(S(=O)(=O)[O-])cc5F)c5ccc2[nH]5)C=C4)C=C3)cc1
REMARK SMILES IDX 27 1 26 2 25 3 24 4 22 5 23 6 21 7 6 8 7 9 8 10 20 11 9 12
REMARK SMILES IDX 3 13 2 14 1 15 4 16 5 17 10 18 11 20 12 21 13 22 14 23 15 24
REMARK SMILES IDX 19 25 16 26 17 27 18 28 28 29 29 30 30 31 31 32 32 33 33 34
REMARK SMILES IDX 34 35 98 36 35 37 97 38 36 39 37 40 38 41 91 42 39 43 96 44
REMARK SMILES IDX 90 45 92 46 40 47 95 48 89 49 88 50 41 52 75 53 54 54 74 55
REMARK SMILES IDX 55 56 58 57 73 58 93 59 56 60 57 61 72 63 94 64 59 65 42 66
REMARK SMILES IDX 43 67 52 68 44 69 45 70 51 71 53 72 46 73 47 74 48 75 49 76
REMARK SMILES IDX 50 77 76 78 77 79 86 80 78 81 79 82 85 83 87 84 80 85 81 86
REMARK SMILES IDX 82 87 83 88 84 89 60 90 61 91 70 92 62 93 63 94 69 95 71 96
REMARK SMILES IDX 64 97 65 98 66 99 67 100 68 101
REMARK H PARENT 10 19 92 51 58 62
REMARK Flexibility Score: inf
ROOT
ATOM      1  O   UNL     1       2.549   3.167  -1.668  1.00  0.00    -0.374 OA
ENDROOT
BRANCH   1   2
ATOM      2  C   UNL     1       1.633   2.145  -2.061  1.00  0.00     0.202 C 
BRANCH   2   3
ATOM      3  C   UNL     1       2.030   0.710  -1.713  1.00  0.00     0.261 C 
BRANCH   3   4
ATOM      4  O   UNL     1       2.044   0.496  -0.289  1.00  0.00    -0.460 OA
BRANCH   4   5
ATOM      5  C   UNL     1       3.014  -0.348   0.137  1.00  0.00     0.340 C 
ATOM      6  O   UNL     1       3.805  -0.954  -0.573  1.00  0.00    -0.246 OA
BRANCH   5   7
ATOM      7  C   UNL     1       3.179  -0.334   1.604  1.00  0.00     0.085 A 
ATOM      8  C   UNL     1       2.173  -0.685   2.520  1.00  0.00     0.051 A 
ATOM      9  C   UNL     1       2.588  -0.868   3.842  1.00  0.00     0.029 A 
ATOM     10  C   UNL     1       3.869  -0.534   4.278  1.00  0.00     0.029 A 
ATOM     11  C   UNL     1       4.485   0.004   2.046  1.00  0.00     0.044 A 
ATOM     12  C   UNL     1       4.825  -0.062   3.396  1.00  0.00     0.050 A 
BRANCH   8  13
ATOM     13  N   UNL     1       0.824  -0.800   2.232  1.00  0.00    -0.371 N 
BRANCH  13  14
ATOM     14  C   UNL     1       0.299  -2.013   1.606  1.00  0.00     0.113 C 
ATOM     15  C   UNL     1      -0.205  -1.734   0.200  1.00  0.00     0.027 C 
ENDBRANCH  13  14
BRANCH  13  16
ATOM     16  C   UNL     1      -0.126   0.102   2.913  1.00  0.00     0.113 C 
ATOM     17  C   UNL     1      -0.553  -0.380   4.298  1.00  0.00     0.027 C 
ENDBRANCH  13  16
ENDBRANCH   8  13
BRANCH  12  18
ATOM     18  N   UNL     1       6.047   0.534   3.856  1.00  0.00    -0.279 N 
ATOM     19  H   UNL     1       6.271   1.453   3.582  1.00  0.00     0.180 HD
BRANCH  18  20
ATOM     20  S   UNL     1       7.112  -0.316   4.864  1.00  0.00     0.271 S 
ATOM     21  O   UNL     1       7.483  -1.537   4.183  1.00  0.00    -0.200 OA
ATOM     22  O   UNL     1       8.126   0.625   5.293  1.00  0.00    -0.200 OA
BRANCH  20  23
ATOM     23  C   UNL     1       6.296  -0.856   6.346  1.00  0.00     0.141 A 
ATOM     24  C   UNL     1       5.961  -2.124   6.794  1.00  0.00     0.036 A 
ATOM     25  S   UNL     1       5.706   0.360   7.405  1.00  0.00    -0.110 S 
ATOM     26  C   UNL     1       5.089  -2.083   7.922  1.00  0.00     0.034 A 
ATOM     27  C   UNL     1       4.854  -0.790   8.312  1.00  0.00     0.094 A 
ATOM     28  Cl  UNL     1       3.796  -0.280   9.565  1.00  0.00    -0.072 Cl
ENDBRANCH  20  23
ENDBRANCH  18  20
ENDBRANCH  12  18
ENDBRANCH   5   7
ENDBRANCH   4   5
ENDBRANCH   3   4
ENDBRANCH   2   3
ENDBRANCH   1   2
BRANCH   1  29
ATOM     29  C   UNL     1       2.808   3.317  -0.275  1.00  0.00     0.202 C 
BRANCH  29  30
ATOM     30  C   UNL     1       1.691   3.915   0.593  1.00  0.00     0.261 C 
BRANCH  30  31
ATOM     31  O   UNL     1       0.440   3.205   0.553  1.00  0.00    -0.460 OA
BRANCH  31  32
ATOM     32  C   UNL     1      -0.557   3.862  -0.092  1.00  0.00     0.338 C 
ATOM     33  O   UNL     1      -0.485   4.941  -0.656  1.00  0.00    -0.246 OA
BRANCH  32  34
ATOM     34  C   UNL     1      -1.791   3.056  -0.114  1.00  0.00     0.060 A 
ATOM     35  C   UNL     1      -2.288   2.633  -1.352  1.00  0.00     0.016 A 
ATOM     36  C   UNL     1      -2.542   2.881   1.049  1.00  0.00     0.016 A 
ATOM     37  C   UNL     1      -3.562   2.067  -1.436  1.00  0.00     0.010 A 
ATOM     38  C   UNL     1      -3.821   2.318   0.962  1.00  0.00     0.010 A 
ATOM     39  C   UNL     1      -4.353   1.941  -0.285  1.00  0.00    -0.014 A 
BRANCH  39  40
ATOM     40  C   UNL     1      -5.775   1.528  -0.401  1.00  0.00     0.031 A 
ATOM     41  C   UNL     1      -6.860   2.571  -0.344  1.00  0.00     0.074 A 
ATOM     42  C   UNL     1      -6.100   0.232  -0.562  1.00  0.00     0.049 A 
ATOM     43  N   UNL     1      -8.159   2.417  -0.371  1.00  0.00    -0.248 NA
ATOM     44  C   UNL     1      -6.423   3.972  -0.241  1.00  0.00     0.031 C 
ATOM     45  C   UNL     1      -5.146  -0.871  -0.661  1.00  0.00     0.029 A 
ATOM     46  N   UNL     1      -7.328  -0.374  -0.661  1.00  0.00    -0.354 N 
ATOM     47  C   UNL     1      -8.696   3.696  -0.279  1.00  0.00     0.074 A 
ATOM     48  C   UNL     1      -7.581   4.614  -0.173  1.00  0.00     0.031 C 
ATOM     49  C   UNL     1      -5.825  -2.023  -0.791  1.00  0.00     0.029 A 
ATOM     50  C   UNL     1      -7.260  -1.743  -0.757  1.00  0.00     0.049 A 
ATOM     51  H   UNL     1      -8.176   0.125  -0.663  1.00  0.00     0.167 HD
ATOM     52  C   UNL     1      -9.998   4.074  -0.289  1.00  0.00     0.037 A 
ATOM     53  C   UNL     1      -8.241  -2.667  -0.791  1.00  0.00     0.037 A 
ATOM     54  C   UNL     1     -11.108   3.164  -0.405  1.00  0.00     0.049 A 
ATOM     55  C   UNL     1      -9.681  -2.228  -0.754  1.00  0.00     0.074 A 
ATOM     56  C   UNL     1     -12.460   3.458  -0.454  1.00  0.00     0.029 A 
ATOM     57  N   UNL     1     -10.998   1.784  -0.485  1.00  0.00    -0.354 N 
ATOM     58  N   UNL     1     -10.171  -1.014  -0.688  1.00  0.00    -0.248 NA
ATOM     59  C   UNL     1     -10.700  -3.286  -0.797  1.00  0.00     0.031 C 
ATOM     60  C   UNL     1     -13.169   2.253  -0.525  1.00  0.00     0.029 A 
ATOM     61  C   UNL     1     -12.257   1.211  -0.561  1.00  0.00     0.049 A 
ATOM     62  H   UNL     1     -10.149   1.285  -0.488  1.00  0.00     0.167 HD
ATOM     63  C   UNL     1     -11.554  -1.160  -0.705  1.00  0.00     0.074 A 
ATOM     64  C   UNL     1     -11.823  -2.580  -0.795  1.00  0.00     0.031 C 
ATOM     65  C   UNL     1     -12.514  -0.204  -0.653  1.00  0.00     0.037 A 
BRANCH  52  66
ATOM     66  C   UNL     1     -10.298   5.540  -0.153  1.00  0.00     0.058 A 
ATOM     67  C   UNL     1     -10.089   6.437  -1.212  1.00  0.00     0.135 A 
ATOM     68  C   UNL     1     -10.840   6.047   1.039  1.00  0.00     0.135 A 
ATOM     69  F   UNL     1      -9.560   6.005  -2.368  1.00  0.00    -0.206 F 
ATOM     70  C   UNL     1     -10.387   7.790  -1.088  1.00  0.00     0.059 A 
ATOM     71  C   UNL     1     -11.166   7.393   1.178  1.00  0.00     0.059 A 
ATOM     72  F   UNL     1     -11.059   5.232   2.082  1.00  0.00    -0.206 F 
ATOM     73  C   UNL     1     -10.923   8.259   0.113  1.00  0.00     0.060 A 
BRANCH  73  74
ATOM     74  S   UNL     1     -11.308  10.017   0.261  1.00  0.00     0.124 S 
ATOM     75  O   UNL     1      -9.977  10.593   0.423  1.00  0.00    -0.237 OA
ATOM     76  O   UNL     1     -11.972  10.302  -1.007  1.00  0.00    -0.237 OA
ATOM     77  O   UNL     1     -12.166  10.078   1.441  1.00  0.00    -0.744 OA
ENDBRANCH  73  74
ENDBRANCH  52  66
BRANCH  53  78
ATOM     78  C   UNL     1      -7.890  -4.109  -0.849  1.00  0.00     0.058 A 
ATOM     79  C   UNL     1      -8.093  -4.857  -2.017  1.00  0.00     0.135 A 
ATOM     80  C   UNL     1      -7.335  -4.763   0.262  1.00  0.00     0.135 A 
ATOM     81  F   UNL     1      -8.632  -4.277  -3.100  1.00  0.00    -0.206 F 
ATOM     82  C   UNL     1      -7.765  -6.207  -2.082  1.00  0.00     0.059 A 
ATOM     83  C   UNL     1      -6.979  -6.106   0.215  1.00  0.00     0.059 A 
ATOM     84  F   UNL     1      -7.112  -4.086   1.399  1.00  0.00    -0.206 F 
ATOM     85  C   UNL     1      -7.205  -6.822  -0.960  1.00  0.00     0.060 A 
BRANCH  85  86
ATOM     86  S   UNL     1      -6.721  -8.559  -1.070  1.00  0.00     0.124 S 
ATOM     87  O   UNL     1      -8.011  -9.229  -0.967  1.00  0.00    -0.237 OA
ATOM     88  O   UNL     1      -6.072  -8.616  -2.376  1.00  0.00    -0.237 OA
ATOM     89  O   UNL     1      -5.826  -8.727   0.072  1.00  0.00    -0.744 OA
ENDBRANCH  85  86
ENDBRANCH  53  78
BRANCH  65  90
ATOM     90  C   UNL     1     -13.947  -0.654  -0.720  1.00  0.00     0.058 A 
ATOM     91  C   UNL     1     -14.582  -1.252   0.379  1.00  0.00     0.135 A 
ATOM     92  C   UNL     1     -14.709  -0.437  -1.880  1.00  0.00     0.135 A 
ATOM     93  F   UNL     1     -13.897  -1.487   1.509  1.00  0.00    -0.206 F 
ATOM     94  C   UNL     1     -15.918  -1.639   0.324  1.00  0.00     0.059 A 
ATOM     95  C   UNL     1     -16.052  -0.795  -1.950  1.00  0.00     0.059 A 
ATOM     96  F   UNL     1     -14.151   0.141  -2.956  1.00  0.00    -0.206 F 
ATOM     97  C   UNL     1     -16.645  -1.407  -0.845  1.00  0.00     0.060 A 
BRANCH  97  98
ATOM     98  S   UNL     1     -18.386  -1.882  -0.896  1.00  0.00     0.124 S 
ATOM     99  O   UNL     1     -18.291  -3.327  -1.074  1.00  0.00    -0.237 OA
ATOM    100  O   UNL     1     -18.873  -1.435   0.406  1.00  0.00    -0.237 OA
ATOM    101  O   UNL     1     -18.907  -1.141  -2.041  1.00  0.00    -0.744 OA
ENDBRANCH  97  98
ENDBRANCH  65  90
ENDBRANCH  39  40
ENDBRANCH  32  34
ENDBRANCH  31  32
ENDBRANCH  30  31
ENDBRANCH  29  30
ENDBRANCH   1  29
TORSDOF 23
