REMARK SMILES CSCC[NH2+]CC(C)(C)C(=O)OCCOCCOC(=O)c1ccc(-c2c3nc(c(-c4c(F)cc(S(=O)(=O)[O-])cc4F)c4ccc([nH]4)c(-c4c(F)cc(S(=O)(=O)[O-])cc4F)c4nc(c(-c5c(F)cc(S(=O)(=O)[O-])cc5F)c5ccc2[nH]5)C=C4)C=C3)cc1
REMARK SMILES IDX 14 1 13 2 12 3 10 4 11 5 7 6 8 7 9 8 6 9 5 10 4 13 3 14 2 15
REMARK SMILES IDX 1 16 15 17 16 18 17 19 18 20 19 21 20 22 21 23 22 24 86 25
REMARK SMILES IDX 23 26 85 27 24 28 25 29 26 30 79 31 27 32 84 33 78 34 80 35
REMARK SMILES IDX 28 36 83 37 77 38 76 39 29 41 63 42 42 43 62 44 43 45 46 46
REMARK SMILES IDX 61 47 81 48 44 49 45 50 60 52 82 53 47 54 30 55 31 56 40 57
REMARK SMILES IDX 32 58 33 59 39 60 41 61 34 62 35 63 36 64 37 65 38 66 64 67
REMARK SMILES IDX 65 68 74 69 66 70 67 71 73 72 75 73 68 74 69 75 70 76 71 77
REMARK SMILES IDX 72 78 48 79 49 80 58 81 50 82 51 83 57 84 59 85 52 86 53 87
REMARK SMILES IDX 54 88 55 89 56 90
REMARK H PARENT 5 11 5 12 80 40 46 51
REMARK Flexibility Score: inf
ROOT
ATOM      1  C   UNL     1      -2.776  -5.686   2.464  1.00  0.00     0.202 C 
ENDROOT
BRANCH   1   2
ATOM      2  C   UNL     1      -3.449  -4.602   1.603  1.00  0.00     0.261 C 
BRANCH   2   3
ATOM      3  O   UNL     1      -2.865  -4.436   0.304  1.00  0.00    -0.463 OA
BRANCH   3   4
ATOM      4  C   UNL     1      -1.901  -3.476   0.274  1.00  0.00     0.317 C 
ATOM      5  O   UNL     1      -1.658  -2.781   1.251  1.00  0.00    -0.251 OA
BRANCH   4   6
ATOM      6  C   UNL     1      -1.197  -3.330  -1.091  1.00  0.00     0.111 C 
ATOM      7  C   UNL     1      -1.548  -1.936  -1.622  1.00  0.00     0.029 C 
ATOM      8  C   UNL     1      -1.737  -4.366  -2.113  1.00  0.00     0.029 C 
BRANCH   6   9
ATOM      9  C   UNL     1       0.357  -3.546  -1.007  1.00  0.00     0.278 C 
BRANCH   9  10
ATOM     10  N   UNL     1       1.275  -2.546  -0.425  1.00  0.00    -0.345 N 
ATOM     11  H   UNL     1       2.233  -2.873  -0.552  1.00  0.00     0.346 HD
ATOM     12  H   UNL     1       1.107  -1.662  -0.906  1.00  0.00     0.346 HD
BRANCH  10  13
ATOM     13  C   UNL     1       1.045  -2.316   1.007  1.00  0.00     0.271 C 
BRANCH  13  14
ATOM     14  C   UNL     1       2.125  -1.530   1.761  1.00  0.00     0.130 C 
BRANCH  14  15
ATOM     15  S   UNL     1       1.795   0.268   1.942  1.00  0.00    -0.160 SA
ATOM     16  C   UNL     1       1.442   0.720   0.231  1.00  0.00     0.085 C 
ENDBRANCH  14  15
ENDBRANCH  13  14
ENDBRANCH  10  13
ENDBRANCH   9  10
ENDBRANCH   6   9
ENDBRANCH   4   6
ENDBRANCH   3   4
ENDBRANCH   2   3
ENDBRANCH   1   2
BRANCH   1  17
ATOM     17  O   UNL     1      -1.409  -6.018   2.251  1.00  0.00    -0.374 OA
BRANCH  17  18
ATOM     18  C   UNL     1      -1.008  -6.576   1.004  1.00  0.00     0.202 C 
BRANCH  18  19
ATOM     19  C   UNL     1      -1.717  -7.809   0.434  1.00  0.00     0.261 C 
BRANCH  19  20
ATOM     20  O   UNL     1      -3.114  -7.586   0.191  1.00  0.00    -0.460 OA
BRANCH  20  21
ATOM     21  C   UNL     1      -3.938  -8.391   0.907  1.00  0.00     0.338 C 
ATOM     22  O   UNL     1      -3.616  -9.292   1.661  1.00  0.00    -0.246 OA
BRANCH  21  23
ATOM     23  C   UNL     1      -5.316  -7.881   0.829  1.00  0.00     0.060 A 
ATOM     24  C   UNL     1      -5.938  -7.517   2.031  1.00  0.00     0.016 A 
ATOM     25  C   UNL     1      -6.013  -7.846  -0.379  1.00  0.00     0.016 A 
ATOM     26  C   UNL     1      -7.279  -7.155   2.037  1.00  0.00     0.010 A 
ATOM     27  C   UNL     1      -7.367  -7.505  -0.368  1.00  0.00     0.010 A 
ATOM     28  C   UNL     1      -8.011  -7.198   0.845  1.00  0.00    -0.014 A 
BRANCH  28  29
ATOM     29  C   UNL     1      -9.486  -7.110   0.910  1.00  0.00     0.031 A 
ATOM     30  C   UNL     1     -10.282  -8.386   0.878  1.00  0.00     0.074 A 
ATOM     31  C   UNL     1     -10.097  -5.921   1.049  1.00  0.00     0.049 A 
ATOM     32  N   UNL     1     -11.577  -8.555   0.880  1.00  0.00    -0.248 NA
ATOM     33  C   UNL     1      -9.510  -9.640   0.838  1.00  0.00     0.031 C 
ATOM     34  C   UNL     1      -9.417  -4.630   1.148  1.00  0.00     0.029 A 
ATOM     35  N   UNL     1     -11.429  -5.609   1.125  1.00  0.00    -0.354 N 
ATOM     36  C   UNL     1     -11.777  -9.930   0.838  1.00  0.00     0.074 A 
ATOM     37  C   UNL     1     -10.472 -10.548   0.774  1.00  0.00     0.031 C 
ATOM     38  C   UNL     1     -10.341  -3.660   1.254  1.00  0.00     0.029 A 
ATOM     39  C   UNL     1     -11.673  -4.260   1.196  1.00  0.00     0.049 A 
ATOM     40  H   UNL     1     -12.143  -6.288   1.129  1.00  0.00     0.167 HD
ATOM     41  C   UNL     1     -12.946 -10.612   0.860  1.00  0.00     0.037 A 
ATOM     42  C   UNL     1     -12.841  -3.587   1.185  1.00  0.00     0.037 A 
ATOM     43  C   UNL     1     -14.239  -9.981   0.919  1.00  0.00     0.049 A 
ATOM     44  C   UNL     1     -14.131  -4.364   1.131  1.00  0.00     0.074 A 
ATOM     45  C   UNL     1     -15.487 -10.577   0.943  1.00  0.00     0.029 A 
ATOM     46  N   UNL     1     -14.448  -8.610   0.959  1.00  0.00    -0.354 N 
ATOM     47  N   UNL     1     -14.310  -5.664   1.091  1.00  0.00    -0.248 NA
ATOM     48  C   UNL     1     -15.376  -3.585   1.128  1.00  0.00     0.031 C 
ATOM     49  C   UNL     1     -16.452  -9.565   0.944  1.00  0.00     0.029 A 
ATOM     50  C   UNL     1     -15.806  -8.339   0.984  1.00  0.00     0.049 A 
ATOM     51  H   UNL     1     -13.737  -7.929   0.967  1.00  0.00     0.167 HD
ATOM     52  C   UNL     1     -15.688  -5.859   1.084  1.00  0.00     0.074 A 
ATOM     53  C   UNL     1     -16.293  -4.544   1.137  1.00  0.00     0.031 C 
ATOM     54  C   UNL     1     -16.389  -7.020   1.042  1.00  0.00     0.037 A 
BRANCH  41  55
ATOM     55  C   UNL     1     -12.878 -12.113   0.793  1.00  0.00     0.058 A 
ATOM     56  C   UNL     1     -12.399 -12.882   1.866  1.00  0.00     0.135 A 
ATOM     57  C   UNL     1     -13.323 -12.795  -0.352  1.00  0.00     0.135 A 
ATOM     58  F   UNL     1     -11.941 -12.283   2.976  1.00  0.00    -0.206 F 
ATOM     59  C   UNL     1     -12.341 -14.271   1.797  1.00  0.00     0.059 A 
ATOM     60  C   UNL     1     -13.301 -14.184  -0.431  1.00  0.00     0.059 A 
ATOM     61  F   UNL     1     -13.784 -12.110  -1.410  1.00  0.00    -0.206 F 
ATOM     62  C   UNL     1     -12.796 -14.913   0.644  1.00  0.00     0.060 A 
BRANCH  62  63
ATOM     63  S   UNL     1     -12.721 -16.715   0.575  1.00  0.00     0.124 S 
ATOM     64  O   UNL     1     -11.284 -16.943   0.454  1.00  0.00    -0.237 OA
ATOM     65  O   UNL     1     -13.319 -17.101   1.849  1.00  0.00    -0.237 OA
ATOM     66  O   UNL     1     -13.509 -17.044  -0.609  1.00  0.00    -0.744 OA
ENDBRANCH  62  63
ENDBRANCH  41  55
BRANCH  42  67
ATOM     67  C   UNL     1     -12.837  -2.100   1.205  1.00  0.00     0.058 A 
ATOM     68  C   UNL     1     -13.297  -1.385   2.319  1.00  0.00     0.135 A 
ATOM     69  C   UNL     1     -12.358  -1.365   0.109  1.00  0.00     0.135 A 
ATOM     70  F   UNL     1     -13.775  -2.042   3.387  1.00  0.00    -0.206 F 
ATOM     71  C   UNL     1     -13.292   0.006   2.345  1.00  0.00     0.059 A 
ATOM     72  C   UNL     1     -12.316   0.025   0.121  1.00  0.00     0.059 A 
ATOM     73  F   UNL     1     -11.896  -2.001  -0.979  1.00  0.00    -0.206 F 
ATOM     74  C   UNL     1     -12.794   0.703   1.242  1.00  0.00     0.060 A 
BRANCH  74  75
ATOM     75  S   UNL     1     -12.739   2.506   1.308  1.00  0.00     0.124 S 
ATOM     76  O   UNL     1     -14.152   2.848   1.196  1.00  0.00    -0.237 OA
ATOM     77  O   UNL     1     -12.125   2.744   2.611  1.00  0.00    -0.237 OA
ATOM     78  O   UNL     1     -11.910   2.859   0.160  1.00  0.00    -0.744 OA
ENDBRANCH  74  75
ENDBRANCH  42  67
BRANCH  54  79
ATOM     79  C   UNL     1     -17.890  -6.926   1.088  1.00  0.00     0.058 A 
ATOM     80  C   UNL     1     -18.637  -6.457  -0.003  1.00  0.00     0.135 A 
ATOM     81  C   UNL     1     -18.593  -7.369   2.222  1.00  0.00     0.135 A 
ATOM     82  F   UNL     1     -18.016  -6.018  -1.109  1.00  0.00    -0.206 F 
ATOM     83  C   UNL     1     -20.027  -6.406   0.037  1.00  0.00     0.059 A 
ATOM     84  C   UNL     1     -19.983  -7.356   2.272  1.00  0.00     0.059 A 
ATOM     85  F   UNL     1     -17.927  -7.839   3.289  1.00  0.00    -0.206 F 
ATOM     86  C   UNL     1     -20.691  -6.861   1.179  1.00  0.00     0.060 A 
BRANCH  86  87
ATOM     87  S   UNL     1     -22.495  -6.819   1.203  1.00  0.00     0.124 S 
ATOM     88  O   UNL     1     -22.755  -5.390   1.337  1.00  0.00    -0.237 OA
ATOM     89  O   UNL     1     -22.838  -7.408  -0.088  1.00  0.00    -0.237 OA
ATOM     90  O   UNL     1     -22.839  -7.631   2.367  1.00  0.00    -0.744 OA
ENDBRANCH  86  87
ENDBRANCH  54  79
ENDBRANCH  28  29
ENDBRANCH  21  23
ENDBRANCH  20  21
ENDBRANCH  19  20
ENDBRANCH  18  19
ENDBRANCH  17  18
ENDBRANCH   1  17
TORSDOF 22
