REMARK SMILES [NH3+]CC[C@@H](C(=O)OCCOCCOC(=O)c1ccc(-c2c3nc(c(-c4c(F)cc(S(=O)(=O)[O-])cc4F)c4ccc([nH]4)c(-c4c(F)cc(S(=O)(=O)[O-])cc4F)c4nc(c(-c5c(F)cc(S(=O)(=O)[O-])cc5F)c5ccc2[nH]5)C=C4)C=C3)cc1)c1ccc(F)cc1
REMARK SMILES IDX 10 1 9 2 8 3 7 4 5 5 6 6 4 7 3 8 2 9 1 10 82 14 83 15 88 16
REMARK SMILES IDX 84 17 87 18 85 19 86 20 11 21 12 22 13 23 14 24 15 25 16 26
REMARK SMILES IDX 17 27 81 28 18 29 80 30 19 31 20 32 21 33 74 34 22 35 79 36
REMARK SMILES IDX 73 37 75 38 23 39 78 40 72 41 71 42 24 44 58 45 37 46 57 47
REMARK SMILES IDX 38 48 41 49 56 50 76 51 39 52 40 53 55 55 77 56 42 57 25 58
REMARK SMILES IDX 26 59 35 60 27 61 28 62 34 63 36 64 29 65 30 66 31 67 32 68
REMARK SMILES IDX 33 69 59 70 60 71 69 72 61 73 62 74 68 75 70 76 63 77 64 78
REMARK SMILES IDX 65 79 66 80 67 81 43 82 44 83 53 84 45 85 46 86 52 87 54 88
REMARK SMILES IDX 47 89 48 90 49 91 50 92 51 93
REMARK H PARENT 1 11 1 12 1 13 75 43 41 54
REMARK Flexibility Score: inf
ROOT
ATOM      1  O   UNL     1      -3.300   3.117   2.639  1.00  0.00    -0.374 OA
ENDROOT
BRANCH   1   2
ATOM      2  C   UNL     1      -3.647   2.237   1.567  1.00  0.00     0.202 C 
BRANCH   2   3
ATOM      3  C   UNL     1      -2.791   2.343   0.304  1.00  0.00     0.261 C 
BRANCH   3   4
ATOM      4  O   UNL     1      -1.421   2.064   0.627  1.00  0.00    -0.463 OA
BRANCH   4   5
ATOM      5  C   UNL     1      -0.492   2.848   0.029  1.00  0.00     0.313 C 
ATOM      6  O   UNL     1      -0.734   3.605  -0.906  1.00  0.00    -0.252 OA
BRANCH   5   7
ATOM      7  C   UNL     1       0.889   2.754   0.703  1.00  0.00     0.135 C 
BRANCH   7   8
ATOM      8  C   UNL     1       1.127   1.464   1.532  1.00  0.00     0.081 C 
BRANCH   8   9
ATOM      9  C   UNL     1       0.764   0.112   0.911  1.00  0.00     0.260 C 
BRANCH   9  10
ATOM     10  N   UNL     1       1.322  -0.105  -0.408  1.00  0.00    -0.358 N 
ATOM     11  H   UNL     1       1.037  -1.022  -0.751  1.00  0.00     0.344 HD
ATOM     12  H   UNL     1       2.340  -0.063  -0.357  1.00  0.00     0.344 HD
ATOM     13  H   UNL     1       0.984   0.617  -1.044  1.00  0.00     0.344 HD
ENDBRANCH   9  10
ENDBRANCH   8   9
ENDBRANCH   7   8
BRANCH   7  14
ATOM     14  C   UNL     1       1.215   4.051   1.486  1.00  0.00    -0.033 A 
ATOM     15  C   UNL     1       1.650   4.052   2.826  1.00  0.00     0.007 A 
ATOM     16  C   UNL     1       1.097   5.302   0.846  1.00  0.00     0.007 A 
ATOM     17  C   UNL     1       1.914   5.248   3.505  1.00  0.00     0.039 A 
ATOM     18  C   UNL     1       1.350   6.498   1.527  1.00  0.00     0.039 A 
ATOM     19  C   UNL     1       1.752   6.460   2.853  1.00  0.00     0.123 A 
ATOM     20  F   UNL     1       1.992   7.603   3.509  1.00  0.00    -0.207 F 
ENDBRANCH   7  14
ENDBRANCH   5   7
ENDBRANCH   4   5
ENDBRANCH   3   4
ENDBRANCH   2   3
ENDBRANCH   1   2
BRANCH   1  21
ATOM     21  C   UNL     1      -2.100   2.845   3.364  1.00  0.00     0.202 C 
BRANCH  21  22
ATOM     22  C   UNL     1      -2.111   1.643   4.318  1.00  0.00     0.261 C 
BRANCH  22  23
ATOM     23  O   UNL     1      -2.246   0.382   3.637  1.00  0.00    -0.460 OA
BRANCH  23  24
ATOM     24  C   UNL     1      -3.427  -0.249   3.848  1.00  0.00     0.338 C 
ATOM     25  O   UNL     1      -4.340   0.125   4.578  1.00  0.00    -0.246 OA
BRANCH  24  26
ATOM     26  C   UNL     1      -3.579  -1.388   2.926  1.00  0.00     0.060 A 
ATOM     27  C   UNL     1      -4.741  -1.442   2.144  1.00  0.00     0.016 A 
ATOM     28  C   UNL     1      -2.653  -2.432   2.895  1.00  0.00     0.016 A 
ATOM     29  C   UNL     1      -5.010  -2.566   1.365  1.00  0.00     0.010 A 
ATOM     30  C   UNL     1      -2.931  -3.564   2.122  1.00  0.00     0.010 A 
ATOM     31  C   UNL     1      -4.128  -3.653   1.388  1.00  0.00    -0.014 A 
BRANCH  31  32
ATOM     32  C   UNL     1      -4.538  -4.952   0.801  1.00  0.00     0.031 A 
ATOM     33  C   UNL     1      -5.062  -6.021   1.719  1.00  0.00     0.074 A 
ATOM     34  C   UNL     1      -4.443  -5.180  -0.521  1.00  0.00     0.049 A 
ATOM     35  N   UNL     1      -5.367  -7.265   1.459  1.00  0.00    -0.248 NA
ATOM     36  C   UNL     1      -5.260  -5.633   3.125  1.00  0.00     0.031 C 
ATOM     37  C   UNL     1      -4.002  -4.206  -1.516  1.00  0.00     0.029 A 
ATOM     38  N   UNL     1      -4.696  -6.317  -1.247  1.00  0.00    -0.354 N 
ATOM     39  C   UNL     1      -5.771  -7.816   2.670  1.00  0.00     0.074 A 
ATOM     40  C   UNL     1      -5.654  -6.774   3.668  1.00  0.00     0.031 C 
ATOM     41  C   UNL     1      -3.989  -4.796  -2.724  1.00  0.00     0.029 A 
ATOM     42  C   UNL     1      -4.382  -6.197  -2.579  1.00  0.00     0.049 A 
ATOM     43  H   UNL     1      -5.067  -7.139  -0.852  1.00  0.00     0.167 HD
ATOM     44  C   UNL     1      -6.199  -9.075   2.925  1.00  0.00     0.037 A 
ATOM     45  C   UNL     1      -4.378  -7.122  -3.560  1.00  0.00     0.037 A 
ATOM     46  C   UNL     1      -6.311 -10.103   1.925  1.00  0.00     0.049 A 
ATOM     47  C   UNL     1      -4.800  -8.534  -3.247  1.00  0.00     0.074 A 
ATOM     48  C   UNL     1      -6.746 -11.408   2.076  1.00  0.00     0.029 A 
ATOM     49  N   UNL     1      -5.979  -9.944   0.587  1.00  0.00    -0.354 N 
ATOM     50  N   UNL     1      -5.183  -9.044  -2.101  1.00  0.00    -0.248 NA
ATOM     51  C   UNL     1      -4.790  -9.496  -4.358  1.00  0.00     0.031 C 
ATOM     52  C   UNL     1      -6.631 -12.051   0.839  1.00  0.00     0.029 A 
ATOM     53  C   UNL     1      -6.179 -11.132  -0.095  1.00  0.00     0.049 A 
ATOM     54  H   UNL     1      -5.649  -9.109   0.182  1.00  0.00     0.167 HD
ATOM     55  C   UNL     1      -5.492 -10.376  -2.359  1.00  0.00     0.074 A 
ATOM     56  C   UNL     1      -5.248 -10.594  -3.770  1.00  0.00     0.031 C 
ATOM     57  C   UNL     1      -5.946 -11.329  -1.506  1.00  0.00     0.037 A 
BRANCH  44  58
ATOM     58  C   UNL     1      -6.531  -9.415   4.352  1.00  0.00     0.058 A 
ATOM     59  C   UNL     1      -7.663  -8.893   4.998  1.00  0.00     0.135 A 
ATOM     60  C   UNL     1      -5.698 -10.275   5.087  1.00  0.00     0.135 A 
ATOM     61  F   UNL     1      -8.484  -8.052   4.348  1.00  0.00    -0.206 F 
ATOM     62  C   UNL     1      -7.935  -9.178   6.332  1.00  0.00     0.059 A 
ATOM     63  C   UNL     1      -5.967 -10.597   6.414  1.00  0.00     0.059 A 
ATOM     64  F   UNL     1      -4.602 -10.803   4.519  1.00  0.00    -0.206 F 
ATOM     65  C   UNL     1      -7.076 -10.025   7.034  1.00  0.00     0.060 A 
BRANCH  65  66
ATOM     66  S   UNL     1      -7.423 -10.363   8.773  1.00  0.00     0.124 S 
ATOM     67  O   UNL     1      -7.026  -9.104   9.397  1.00  0.00    -0.237 OA
ATOM     68  O   UNL     1      -8.856 -10.638   8.759  1.00  0.00    -0.237 OA
ATOM     69  O   UNL     1      -6.571 -11.509   9.074  1.00  0.00    -0.744 OA
ENDBRANCH  65  66
ENDBRANCH  44  58
BRANCH  45  70
ATOM     70  C   UNL     1      -3.943  -6.735  -4.928  1.00  0.00     0.058 A 
ATOM     71  C   UNL     1      -4.866  -6.629  -5.979  1.00  0.00     0.135 A 
ATOM     72  C   UNL     1      -2.602  -6.423  -5.202  1.00  0.00     0.135 A 
ATOM     73  F   UNL     1      -6.157  -6.929  -5.770  1.00  0.00    -0.206 F 
ATOM     74  C   UNL     1      -4.476  -6.223  -7.251  1.00  0.00     0.059 A 
ATOM     75  C   UNL     1      -2.192  -5.992  -6.459  1.00  0.00     0.059 A 
ATOM     76  F   UNL     1      -1.681  -6.502  -4.228  1.00  0.00    -0.206 F 
ATOM     77  C   UNL     1      -3.138  -5.897  -7.479  1.00  0.00     0.060 A 
BRANCH  77  78
ATOM     78  S   UNL     1      -2.660  -5.290  -9.112  1.00  0.00     0.124 S 
ATOM     79  O   UNL     1      -2.733  -6.506  -9.912  1.00  0.00    -0.237 OA
ATOM     80  O   UNL     1      -3.689  -4.288  -9.377  1.00  0.00    -0.237 OA
ATOM     81  O   UNL     1      -1.319  -4.756  -8.893  1.00  0.00    -0.744 OA
ENDBRANCH  77  78
ENDBRANCH  45  70
BRANCH  57  82
ATOM     82  C   UNL     1      -6.264 -12.685  -2.072  1.00  0.00     0.058 A 
ATOM     83  C   UNL     1      -5.258 -13.596  -2.430  1.00  0.00     0.135 A 
ATOM     84  C   UNL     1      -7.599 -13.110  -2.173  1.00  0.00     0.135 A 
ATOM     85  F   UNL     1      -3.966 -13.238  -2.358  1.00  0.00    -0.206 F 
ATOM     86  C   UNL     1      -5.565 -14.878  -2.875  1.00  0.00     0.059 A 
ATOM     87  C   UNL     1      -7.928 -14.395  -2.592  1.00  0.00     0.059 A 
ATOM     88  F   UNL     1      -8.600 -12.281  -1.835  1.00  0.00    -0.206 F 
ATOM     89  C   UNL     1      -6.904 -15.271  -2.947  1.00  0.00     0.060 A 
BRANCH  89  90
ATOM     90  S   UNL     1      -7.287 -16.957  -3.468  1.00  0.00     0.124 S 
ATOM     91  O   UNL     1      -7.022 -16.890  -4.901  1.00  0.00    -0.237 OA
ATOM     92  O   UNL     1      -6.343 -17.748  -2.685  1.00  0.00    -0.237 OA
ATOM     93  O   UNL     1      -8.689 -17.118  -3.095  1.00  0.00    -0.744 OA
ENDBRANCH  89  90
ENDBRANCH  57  82
ENDBRANCH  31  32
ENDBRANCH  24  26
ENDBRANCH  23  24
ENDBRANCH  22  23
ENDBRANCH  21  22
ENDBRANCH   1  21
TORSDOF 21
