REMARK SMILES CC(C)CCn1nc(C(=O)OCCOCCOC(=O)c2ccc(-c3c4nc(c(-c5c(F)cc(S(=O)(=O)[O-])cc5F)c5ccc([nH]5)c(-c5c(F)cc(S(=O)(=O)[O-])cc5F)c5nc(c(-c6c(F)cc(S(=O)(=O)[O-])cc6F)c6ccc3[nH]6)C=C5)C=C4)cc2)c2c1CCN(C(=O)[C@@H]1CCc3nn(C)c(=O)n3C1)C2
REMARK SMILES IDX 14 1 13 2 12 3 11 4 9 5 10 6 8 7 6 8 7 9 87 10 86 11 88 12
REMARK SMILES IDX 104 13 89 14 90 15 5 16 4 17 2 18 1 19 3 20 91 21 92 22
REMARK SMILES IDX 93 23 94 24 103 25 95 26 102 27 96 28 100 29 97 30 98 31
REMARK SMILES IDX 101 32 99 33 15 34 16 35 17 36 18 37 19 38 20 39 21 40 85 41
REMARK SMILES IDX 22 42 84 43 23 44 24 45 25 46 78 47 26 48 83 49 77 50 79 51
REMARK SMILES IDX 27 52 82 53 76 54 75 55 28 57 62 58 41 59 61 60 42 61 45 62
REMARK SMILES IDX 60 63 80 64 43 65 44 66 59 68 81 69 46 70 29 71 30 72 39 73
REMARK SMILES IDX 31 74 32 75 38 76 40 77 33 78 34 79 35 80 36 81 37 82 63 83
REMARK SMILES IDX 64 84 73 85 65 86 66 87 72 88 74 89 67 90 68 91 69 92 70 93
REMARK SMILES IDX 71 94 47 95 48 96 57 97 49 98 50 99 56 100 58 101 51 102
REMARK SMILES IDX 52 103 53 104 54 105 55 106
REMARK H PARENT 79 56 45 67
REMARK Flexibility Score: inf
ROOT
ATOM      1  O   UNL     1       0.663   4.894   6.894  1.00  0.00    -0.374 OA
ENDROOT
BRANCH   1   2
ATOM      2  C   UNL     1       0.644   4.074   8.063  1.00  0.00     0.202 C 
BRANCH   2   3
ATOM      3  C   UNL     1      -0.572   3.175   8.271  1.00  0.00     0.261 C 
BRANCH   3   4
ATOM      4  O   UNL     1      -0.567   2.080   7.342  1.00  0.00    -0.458 OA
BRANCH   4   5
ATOM      5  C   UNL     1      -1.449   2.178   6.305  1.00  0.00     0.359 C 
ATOM      6  O   UNL     1      -2.317   3.047   6.221  1.00  0.00    -0.244 OA
BRANCH   5   7
ATOM      7  C   UNL     1      -1.185   1.176   5.261  1.00  0.00     0.175 A 
ATOM      8  N   UNL     1      -1.237   0.238   3.332  1.00  0.00    -0.268 N 
ATOM      9  N   UNL     1      -1.627   1.345   3.994  1.00  0.00    -0.165 NA
ATOM     10  C   UNL     1      -0.687  -0.683   4.168  1.00  0.00     0.046 A 
ATOM     11  C   UNL     1      -0.481  -0.055   5.381  1.00  0.00     0.028 A 
ATOM     12  C   UNL     1      -0.389  -2.116   3.915  1.00  0.00     0.078 C 
ATOM     13  C   UNL     1       0.207  -0.692   6.549  1.00  0.00     0.159 C 
ATOM     14  C   UNL     1      -0.243  -2.797   5.299  1.00  0.00     0.126 C 
ATOM     15  N   UNL     1       0.674  -2.045   6.164  1.00  0.00    -0.338 N 
BRANCH   8  16
ATOM     16  C   UNL     1      -1.583   0.090   1.930  1.00  0.00     0.145 C 
BRANCH  16  17
ATOM     17  C   UNL     1      -1.042   1.181   0.992  1.00  0.00     0.027 C 
BRANCH  17  18
ATOM     18  C   UNL     1       0.486   1.208   0.784  1.00  0.00    -0.016 C 
ATOM     19  C   UNL     1       1.023  -0.088   0.174  1.00  0.00     0.007 C 
ATOM     20  C   UNL     1       0.862   2.381  -0.132  1.00  0.00     0.007 C 
ENDBRANCH  17  18
ENDBRANCH  16  17
ENDBRANCH   8  16
BRANCH  15  21
ATOM     21  C   UNL     1       1.828  -2.515   6.750  1.00  0.00     0.227 C 
ATOM     22  O   UNL     1       2.277  -1.941   7.751  1.00  0.00    -0.274 OA
BRANCH  21  23
ATOM     23  C   UNL     1       2.617  -3.724   6.213  1.00  0.00     0.099 C 
ATOM     24  C   UNL     1       2.836  -3.859   4.700  1.00  0.00     0.023 C 
ATOM     25  C   UNL     1       2.300  -5.028   6.934  1.00  0.00     0.142 C 
ATOM     26  C   UNL     1       1.985  -4.883   3.952  1.00  0.00     0.078 C 
ATOM     27  N   UNL     1       1.568  -5.973   6.130  1.00  0.00    -0.278 N 
ATOM     28  C   UNL     1       1.454  -5.998   4.794  1.00  0.00     0.133 A 
ATOM     29  C   UNL     1       0.994  -7.135   6.581  1.00  0.00     0.345 A 
ATOM     30  N   UNL     1       0.797  -7.015   4.316  1.00  0.00    -0.155 NA
ATOM     31  N   UNL     1       0.484  -7.750   5.435  1.00  0.00    -0.216 N 
ATOM     32  O   UNL     1       0.952  -7.548   7.728  1.00  0.00    -0.246 OA
ATOM     33  C   UNL     1      -0.159  -9.031   5.371  1.00  0.00     0.179 C 
ENDBRANCH  21  23
ENDBRANCH  15  21
ENDBRANCH   5   7
ENDBRANCH   4   5
ENDBRANCH   3   4
ENDBRANCH   2   3
ENDBRANCH   1   2
BRANCH   1  34
ATOM     34  C   UNL     1       0.934   4.319   5.617  1.00  0.00     0.202 C 
BRANCH  34  35
ATOM     35  C   UNL     1       2.368   3.920   5.295  1.00  0.00     0.261 C 
BRANCH  35  36
ATOM     36  O   UNL     1       2.836   2.942   6.207  1.00  0.00    -0.460 OA
BRANCH  36  37
ATOM     37  C   UNL     1       3.553   3.440   7.237  1.00  0.00     0.338 C 
ATOM     38  O   UNL     1       3.710   4.621   7.528  1.00  0.00    -0.246 OA
BRANCH  37  39
ATOM     39  C   UNL     1       4.235   2.328   7.901  1.00  0.00     0.060 A 
ATOM     40  C   UNL     1       5.299   2.710   8.717  1.00  0.00     0.016 A 
ATOM     41  C   UNL     1       4.140   1.052   7.327  1.00  0.00     0.016 A 
ATOM     42  C   UNL     1       6.443   1.963   8.638  1.00  0.00     0.010 A 
ATOM     43  C   UNL     1       5.289   0.321   7.227  1.00  0.00     0.010 A 
ATOM     44  C   UNL     1       6.445   0.856   7.786  1.00  0.00    -0.014 A 
BRANCH  44  45
ATOM     45  C   UNL     1       7.705   0.218   7.514  1.00  0.00     0.031 A 
ATOM     46  C   UNL     1       8.135  -0.648   8.626  1.00  0.00     0.074 A 
ATOM     47  C   UNL     1       8.315   0.365   6.324  1.00  0.00     0.049 A 
ATOM     48  N   UNL     1       9.145  -0.474   9.409  1.00  0.00    -0.248 NA
ATOM     49  C   UNL     1       7.202  -1.699   9.067  1.00  0.00     0.031 C 
ATOM     50  C   UNL     1       7.820   1.021   5.110  1.00  0.00     0.029 A 
ATOM     51  N   UNL     1       9.499  -0.166   5.926  1.00  0.00    -0.354 N 
ATOM     52  C   UNL     1       9.095  -1.531  10.308  1.00  0.00     0.074 A 
ATOM     53  C   UNL     1       7.782  -2.104  10.195  1.00  0.00     0.031 C 
ATOM     54  C   UNL     1       8.587   0.646   4.061  1.00  0.00     0.029 A 
ATOM     55  C   UNL     1       9.678  -0.179   4.546  1.00  0.00     0.049 A 
ATOM     56  H   UNL     1      10.171  -0.512   6.557  1.00  0.00     0.167 HD
ATOM     57  C   UNL     1      10.222  -2.010  10.896  1.00  0.00     0.037 A 
ATOM     58  C   UNL     1      10.584  -0.962   3.903  1.00  0.00     0.037 A 
ATOM     59  C   UNL     1      11.303  -1.062  10.794  1.00  0.00     0.049 A 
ATOM     60  C   UNL     1      11.632  -1.303   4.918  1.00  0.00     0.074 A 
ATOM     61  C   UNL     1      11.490   0.224  11.263  1.00  0.00     0.029 A 
ATOM     62  N   UNL     1      12.214  -1.231   9.777  1.00  0.00    -0.354 N 
ATOM     63  N   UNL     1      12.418  -0.408   5.463  1.00  0.00    -0.248 NA
ATOM     64  C   UNL     1      11.449  -2.519   5.701  1.00  0.00     0.031 C 
ATOM     65  C   UNL     1      12.153   0.911  10.207  1.00  0.00     0.029 A 
ATOM     66  C   UNL     1      12.404  -0.005   9.184  1.00  0.00     0.049 A 
ATOM     67  H   UNL     1      12.650  -2.075   9.520  1.00  0.00     0.167 HD
ATOM     68  C   UNL     1      12.487  -0.755   6.809  1.00  0.00     0.074 A 
ATOM     69  C   UNL     1      11.914  -2.099   6.882  1.00  0.00     0.031 C 
ATOM     70  C   UNL     1      12.720   0.178   7.781  1.00  0.00     0.037 A 
BRANCH  57  71
ATOM     71  C   UNL     1      10.425  -3.459  11.248  1.00  0.00     0.058 A 
ATOM     72  C   UNL     1      11.544  -3.829  12.016  1.00  0.00     0.135 A 
ATOM     73  C   UNL     1       9.714  -4.526  10.650  1.00  0.00     0.135 A 
ATOM     74  F   UNL     1      12.295  -2.897  12.624  1.00  0.00    -0.206 F 
ATOM     75  C   UNL     1      11.967  -5.153  12.123  1.00  0.00     0.059 A 
ATOM     76  C   UNL     1      10.082  -5.856  10.794  1.00  0.00     0.059 A 
ATOM     77  F   UNL     1       8.688  -4.332   9.813  1.00  0.00    -0.206 F 
ATOM     78  C   UNL     1      11.236  -6.157  11.494  1.00  0.00     0.060 A 
BRANCH  78  79
ATOM     79  S   UNL     1      11.843  -7.850  11.528  1.00  0.00     0.124 S 
ATOM     80  O   UNL     1      13.043  -7.744  10.706  1.00  0.00    -0.237 OA
ATOM     81  O   UNL     1      12.059  -8.064  12.954  1.00  0.00    -0.237 OA
ATOM     82  O   UNL     1      10.743  -8.613  10.944  1.00  0.00    -0.744 OA
ENDBRANCH  78  79
ENDBRANCH  57  71
BRANCH  58  83
ATOM     83  C   UNL     1      10.320  -1.778   2.681  1.00  0.00     0.058 A 
ATOM     84  C   UNL     1      11.354  -2.469   2.021  1.00  0.00     0.135 A 
ATOM     85  C   UNL     1       9.009  -2.114   2.280  1.00  0.00     0.135 A 
ATOM     86  F   UNL     1      12.634  -2.233   2.345  1.00  0.00    -0.206 F 
ATOM     87  C   UNL     1      11.100  -3.464   1.065  1.00  0.00     0.059 A 
ATOM     88  C   UNL     1       8.733  -3.086   1.322  1.00  0.00     0.059 A 
ATOM     89  F   UNL     1       7.933  -1.578   2.874  1.00  0.00    -0.206 F 
ATOM     90  C   UNL     1       9.781  -3.781   0.739  1.00  0.00     0.060 A 
BRANCH  90  91
ATOM     91  S   UNL     1       9.422  -5.191  -0.336  1.00  0.00     0.124 S 
ATOM     92  O   UNL     1       9.858  -4.698  -1.638  1.00  0.00    -0.237 OA
ATOM     93  O   UNL     1      10.238  -6.245   0.256  1.00  0.00    -0.237 OA
ATOM     94  O   UNL     1       7.979  -5.369  -0.188  1.00  0.00    -0.744 OA
ENDBRANCH  90  91
ENDBRANCH  58  83
BRANCH  70  95
ATOM     95  C   UNL     1      13.112   1.576   7.361  1.00  0.00     0.058 A 
ATOM     96  C   UNL     1      12.280   2.444   6.630  1.00  0.00     0.135 A 
ATOM     97  C   UNL     1      14.295   2.121   7.880  1.00  0.00     0.135 A 
ATOM     98  F   UNL     1      11.079   2.041   6.196  1.00  0.00    -0.206 F 
ATOM     99  C   UNL     1      12.627   3.776   6.388  1.00  0.00     0.059 A 
ATOM    100  C   UNL     1      14.647   3.454   7.681  1.00  0.00     0.059 A 
ATOM    101  F   UNL     1      15.101   1.369   8.647  1.00  0.00    -0.206 F 
ATOM    102  C   UNL     1      13.816   4.273   6.920  1.00  0.00     0.060 A 
BRANCH 102 103
ATOM    103  S   UNL     1      14.235   6.012   6.667  1.00  0.00     0.124 S 
ATOM    104  O   UNL     1      14.576   6.040   5.249  1.00  0.00    -0.237 OA
ATOM    105  O   UNL     1      12.997   6.694   7.035  1.00  0.00    -0.237 OA
ATOM    106  O   UNL     1      15.352   6.230   7.583  1.00  0.00    -0.744 OA
ENDBRANCH 102 103
ENDBRANCH  70  95
ENDBRANCH  44  45
ENDBRANCH  37  39
ENDBRANCH  36  37
ENDBRANCH  35  36
ENDBRANCH  34  35
ENDBRANCH   1  34
TORSDOF 22
