REMARK SMILES O=C(OCCOCCOC(=O)[C@H]1Cc2ccc(Cl)cc2C[N@@H+]1Cc1ccccc1Cl)c1ccc(-c2c3nc(c(-c4c(F)cc(S(=O)(=O)[O-])cc4F)c4ccc([nH]4)c(-c4c(F)cc(S(=O)(=O)[O-])cc4F)c4nc(c(-c5c(F)cc(S(=O)(=O)[O-])cc5F)c5ccc2[nH]5)C=C4)C=C3)cc1
REMARK SMILES IDX 5 1 4 2 3 3 2 4 1 5 31 6 32 7 96 8 33 9 95 10 34 11 35 12
REMARK SMILES IDX 36 13 89 14 37 15 94 16 88 17 90 18 38 19 93 20 87 21 86 22
REMARK SMILES IDX 39 24 73 25 52 26 72 27 53 28 56 29 71 30 91 31 54 32 55 33
REMARK SMILES IDX 70 35 92 36 57 37 40 38 41 39 50 40 42 41 43 42 49 43 51 44
REMARK SMILES IDX 44 45 45 46 46 47 47 48 48 49 74 50 75 51 84 52 76 53 77 54
REMARK SMILES IDX 83 55 85 56 78 57 79 58 80 59 81 60 82 61 58 62 59 63 68 64
REMARK SMILES IDX 60 65 61 66 67 67 69 68 62 69 63 70 64 71 65 72 66 73 6 74
REMARK SMILES IDX 7 75 8 76 9 77 10 78 11 79 12 80 13 81 22 82 14 83 21 84
REMARK SMILES IDX 15 86 20 87 16 88 19 89 17 90 18 91 23 92 24 93 25 94 29 95
REMARK SMILES IDX 26 96 28 97 30 98 27 99
REMARK H PARENT 90 23 56 34 22 85
REMARK Flexibility Score: inf
ROOT
ATOM      1  C   UNL     1       3.840   1.445   0.343  1.00  0.00     0.202 C 
ENDROOT
BRANCH   1   2
ATOM      2  C   UNL     1       4.010   0.922  -1.083  1.00  0.00     0.261 C 
BRANCH   2   3
ATOM      3  O   UNL     1       2.830   0.310  -1.613  1.00  0.00    -0.460 OA
BRANCH   3   4
ATOM      4  C   UNL     1       2.167  -0.729  -1.056  1.00  0.00     0.338 C 
ATOM      5  O   UNL     1       0.937  -0.726  -1.097  1.00  0.00    -0.246 OA
BRANCH   4   6
ATOM      6  C   UNL     1       2.864  -1.941  -0.511  1.00  0.00     0.060 A 
ATOM      7  C   UNL     1       2.095  -3.115  -0.463  1.00  0.00     0.016 A 
ATOM      8  C   UNL     1       4.156  -1.988   0.024  1.00  0.00     0.016 A 
ATOM      9  C   UNL     1       2.595  -4.280   0.120  1.00  0.00     0.010 A 
ATOM     10  C   UNL     1       4.656  -3.135   0.631  1.00  0.00     0.010 A 
ATOM     11  C   UNL     1       3.879  -4.287   0.673  1.00  0.00    -0.014 A 
BRANCH  11  12
ATOM     12  C   UNL     1       4.505  -5.541   1.117  1.00  0.00     0.031 A 
ATOM     13  C   UNL     1       4.620  -5.886   2.566  1.00  0.00     0.074 A 
ATOM     14  C   UNL     1       5.031  -6.313   0.150  1.00  0.00     0.049 A 
ATOM     15  N   UNL     1       5.049  -6.995   3.104  1.00  0.00    -0.248 NA
ATOM     16  C   UNL     1       4.221  -4.856   3.539  1.00  0.00     0.031 C 
ATOM     17  C   UNL     1       5.045  -5.968  -1.277  1.00  0.00     0.029 A 
ATOM     18  N   UNL     1       5.654  -7.526   0.206  1.00  0.00    -0.354 N 
ATOM     19  C   UNL     1       4.942  -6.816   4.477  1.00  0.00     0.074 A 
ATOM     20  C   UNL     1       4.461  -5.468   4.693  1.00  0.00     0.031 C 
ATOM     21  C   UNL     1       5.622  -6.963  -1.964  1.00  0.00     0.029 A 
ATOM     22  C   UNL     1       6.019  -8.007  -1.028  1.00  0.00     0.049 A 
ATOM     23  H   UNL     1       5.824  -8.009   1.047  1.00  0.00     0.167 HD
ATOM     24  C   UNL     1       5.207  -7.718   5.451  1.00  0.00     0.037 A 
ATOM     25  C   UNL     1       6.587  -9.178  -1.363  1.00  0.00     0.037 A 
ATOM     26  C   UNL     1       5.713  -9.041   5.178  1.00  0.00     0.049 A 
ATOM     27  C   UNL     1       6.841 -10.170  -0.268  1.00  0.00     0.074 A 
ATOM     28  C   UNL     1       5.969 -10.068   6.068  1.00  0.00     0.029 A 
ATOM     29  N   UNL     1       6.052  -9.513   3.915  1.00  0.00    -0.354 N 
ATOM     30  N   UNL     1       6.622 -10.040   1.020  1.00  0.00    -0.248 NA
ATOM     31  C   UNL     1       7.392 -11.470  -0.662  1.00  0.00     0.031 C 
ATOM     32  C   UNL     1       6.505 -11.142   5.350  1.00  0.00     0.029 A 
ATOM     33  C   UNL     1       6.533 -10.807   4.004  1.00  0.00     0.049 A 
ATOM     34  H   UNL     1       5.962  -9.001   3.079  1.00  0.00     0.167 HD
ATOM     35  C   UNL     1       6.990 -11.249   1.592  1.00  0.00     0.074 A 
ATOM     36  C   UNL     1       7.431 -12.102   0.503  1.00  0.00     0.031 C 
ATOM     37  C   UNL     1       6.966 -11.623   2.895  1.00  0.00     0.037 A 
BRANCH  24  38
ATOM     38  C   UNL     1       4.930  -7.339   6.882  1.00  0.00     0.058 A 
ATOM     39  C   UNL     1       3.615  -7.200   7.356  1.00  0.00     0.135 A 
ATOM     40  C   UNL     1       5.973  -7.223   7.817  1.00  0.00     0.135 A 
ATOM     41  F   UNL     1       2.578  -7.289   6.508  1.00  0.00    -0.206 F 
ATOM     42  C   UNL     1       3.344  -6.962   8.700  1.00  0.00     0.059 A 
ATOM     43  C   UNL     1       5.723  -7.008   9.172  1.00  0.00     0.059 A 
ATOM     44  F   UNL     1       7.250  -7.345   7.423  1.00  0.00    -0.206 F 
ATOM     45  C   UNL     1       4.404  -6.880   9.604  1.00  0.00     0.060 A 
BRANCH  45  46
ATOM     46  S   UNL     1       4.024  -6.633  11.352  1.00  0.00     0.124 S 
ATOM     47  O   UNL     1       3.490  -5.274  11.349  1.00  0.00    -0.237 OA
ATOM     48  O   UNL     1       3.054  -7.692  11.611  1.00  0.00    -0.237 OA
ATOM     49  O   UNL     1       5.316  -6.795  12.011  1.00  0.00    -0.744 OA
ENDBRANCH  45  46
ENDBRANCH  24  38
BRANCH  25  50
ATOM     50  C   UNL     1       6.856  -9.475  -2.792  1.00  0.00     0.058 A 
ATOM     51  C   UNL     1       6.071 -10.401  -3.494  1.00  0.00     0.135 A 
ATOM     52  C   UNL     1       7.843  -8.777  -3.508  1.00  0.00     0.135 A 
ATOM     53  F   UNL     1       5.106 -11.081  -2.857  1.00  0.00    -0.206 F 
ATOM     54  C   UNL     1       6.262 -10.636  -4.851  1.00  0.00     0.059 A 
ATOM     55  C   UNL     1       8.037  -8.978  -4.871  1.00  0.00     0.059 A 
ATOM     56  F   UNL     1       8.596  -7.854  -2.890  1.00  0.00    -0.206 F 
ATOM     57  C   UNL     1       7.245  -9.916  -5.532  1.00  0.00     0.060 A 
BRANCH  57  58
ATOM     58  S   UNL     1       7.447 -10.195  -7.305  1.00  0.00     0.124 S 
ATOM     59  O   UNL     1       8.022 -11.535  -7.327  1.00  0.00    -0.237 OA
ATOM     60  O   UNL     1       6.076 -10.080  -7.790  1.00  0.00    -0.237 OA
ATOM     61  O   UNL     1       8.342  -9.118  -7.715  1.00  0.00    -0.744 OA
ENDBRANCH  57  58
ENDBRANCH  25  50
BRANCH  37  62
ATOM     62  C   UNL     1       7.426 -13.016   3.211  1.00  0.00     0.058 A 
ATOM     63  C   UNL     1       8.786 -13.359   3.180  1.00  0.00     0.135 A 
ATOM     64  C   UNL     1       6.505 -13.990   3.627  1.00  0.00     0.135 A 
ATOM     65  F   UNL     1       9.701 -12.463   2.779  1.00  0.00    -0.206 F 
ATOM     66  C   UNL     1       9.217 -14.629   3.542  1.00  0.00     0.059 A 
ATOM     67  C   UNL     1       6.918 -15.257   4.021  1.00  0.00     0.059 A 
ATOM     68  F   UNL     1       5.195 -13.704   3.679  1.00  0.00    -0.206 F 
ATOM     69  C   UNL     1       8.276 -15.568   3.970  1.00  0.00     0.060 A 
BRANCH  69  70
ATOM     70  S   UNL     1       8.862 -17.192   4.492  1.00  0.00     0.124 S 
ATOM     71  O   UNL     1       9.272 -17.780   3.221  1.00  0.00    -0.237 OA
ATOM     72  O   UNL     1       9.944 -16.851   5.410  1.00  0.00    -0.237 OA
ATOM     73  O   UNL     1       7.687 -17.796   5.113  1.00  0.00    -0.744 OA
ENDBRANCH  69  70
ENDBRANCH  37  62
ENDBRANCH  11  12
ENDBRANCH   4   6
ENDBRANCH   3   4
ENDBRANCH   2   3
ENDBRANCH   1   2
BRANCH   1  74
ATOM     74  O   UNL     1       3.637   0.417   1.308  1.00  0.00    -0.374 OA
BRANCH  74  75
ATOM     75  C   UNL     1       2.371   0.416   1.976  1.00  0.00     0.202 C 
BRANCH  75  76
ATOM     76  C   UNL     1       2.532   0.916   3.408  1.00  0.00     0.261 C 
BRANCH  76  77
ATOM     77  O   UNL     1       3.117   2.222   3.330  1.00  0.00    -0.459 OA
BRANCH  77  78
ATOM     78  C   UNL     1       4.463   2.309   3.585  1.00  0.00     0.365 C 
ATOM     79  O   UNL     1       5.101   1.463   4.195  1.00  0.00    -0.245 OA
BRANCH  78  80
ATOM     80  C   UNL     1       5.016   3.577   2.888  1.00  0.00     0.300 C 
ATOM     81  C   UNL     1       3.964   4.685   3.153  1.00  0.00     0.113 C 
ATOM     82  N   UNL     1       6.406   3.933   3.280  1.00  0.00    -0.315 N 
ATOM     83  C   UNL     1       4.428   6.090   2.932  1.00  0.00    -0.033 A 
ATOM     84  C   UNL     1       6.793   5.246   2.757  1.00  0.00     0.300 C 
ATOM     85  H   UNL     1       6.378   3.971   4.299  1.00  0.00     0.349 HD
ATOM     86  C   UNL     1       3.495   7.128   2.811  1.00  0.00     0.006 A 
ATOM     87  C   UNL     1       5.794   6.364   2.894  1.00  0.00     0.011 A 
ATOM     88  C   UNL     1       3.927   8.443   2.653  1.00  0.00     0.021 A 
ATOM     89  C   UNL     1       6.222   7.692   2.757  1.00  0.00     0.030 A 
ATOM     90  C   UNL     1       5.291   8.721   2.643  1.00  0.00     0.041 A 
ATOM     91  Cl  UNL     1       5.833  10.341   2.444  1.00  0.00    -0.084 Cl
BRANCH  82  92
ATOM     92  C   UNL     1       7.448   2.898   2.957  1.00  0.00     0.301 C 
BRANCH  92  93
ATOM     93  C   UNL     1       7.761   2.565   1.492  1.00  0.00     0.025 A 
ATOM     94  C   UNL     1       8.382   3.525   0.664  1.00  0.00     0.011 A 
ATOM     95  C   UNL     1       7.547   1.298   0.918  1.00  0.00     0.049 A 
ATOM     96  C   UNL     1       8.598   3.309  -0.700  1.00  0.00     0.001 A 
ATOM     97  C   UNL     1       7.796   1.067  -0.447  1.00  0.00     0.021 A 
ATOM     98  Cl  UNL     1       7.032  -0.066   1.840  1.00  0.00    -0.084 Cl
ATOM     99  C   UNL     1       8.283   2.083  -1.265  1.00  0.00     0.002 A 
ENDBRANCH  92  93
ENDBRANCH  82  92
ENDBRANCH  78  80
ENDBRANCH  77  78
ENDBRANCH  76  77
ENDBRANCH  75  76
ENDBRANCH  74  75
ENDBRANCH   1  74
TORSDOF 19
