REMARK SMILES O=C(CCc1cc2ccccc2s1)OCCOCCOC(=O)c1ccc(-c2c3nc(c(-c4c(F)cc(S(=O)(=O)[O-])cc4F)c4ccc([nH]4)c(-c4c(F)cc(S(=O)(=O)[O-])cc4F)c4nc(c(-c5c(F)cc(S(=O)(=O)[O-])cc5F)c5ccc2[nH]5)C=C4)C=C3)cc1
REMARK SMILES IDX 18 1 17 2 16 3 15 4 14 5 2 6 1 7 3 8 4 9 5 10 6 11 13 12
REMARK SMILES IDX 7 13 12 14 8 15 11 16 9 17 10 18 19 19 20 20 21 21 22 22
REMARK SMILES IDX 23 23 24 24 88 25 25 26 87 27 26 28 27 29 28 30 81 31 29 32
REMARK SMILES IDX 86 33 80 34 82 35 30 36 85 37 79 38 78 39 31 41 65 42 44 43
REMARK SMILES IDX 64 44 45 45 48 46 63 47 83 48 46 49 47 50 62 52 84 53 49 54
REMARK SMILES IDX 32 55 33 56 42 57 34 58 35 59 41 60 43 61 36 62 37 63 38 64
REMARK SMILES IDX 39 65 40 66 66 67 67 68 76 69 68 70 69 71 75 72 77 73 70 74
REMARK SMILES IDX 71 75 72 76 73 77 74 78 50 79 51 80 60 81 52 82 53 83 59 84
REMARK SMILES IDX 61 85 54 86 55 87 56 88 57 89 58 90
REMARK H PARENT 82 40 48 51
REMARK Flexibility Score: inf
ROOT
ATOM      1  C   UNL     1       2.579   0.974   2.455  1.00  0.00     0.202 C 
ENDROOT
BRANCH   1   2
ATOM      2  O   UNL     1       3.598   0.883   1.450  1.00  0.00    -0.374 OA
BRANCH   2   3
ATOM      3  C   UNL     1       3.303   1.670   0.290  1.00  0.00     0.202 C 
BRANCH   3   4
ATOM      4  C   UNL     1       2.722   0.860  -0.868  1.00  0.00     0.261 C 
BRANCH   4   5
ATOM      5  O   UNL     1       1.817  -0.154  -0.419  1.00  0.00    -0.463 OA
BRANCH   5   6
ATOM      6  C   UNL     1       2.102  -1.412  -0.846  1.00  0.00     0.306 C 
ATOM      7  O   UNL     1       1.338  -2.026  -1.582  1.00  0.00    -0.252 OA
BRANCH   6   8
ATOM      8  C   UNL     1       3.293  -2.069  -0.178  1.00  0.00     0.128 C 
BRANCH   8   9
ATOM      9  C   UNL     1       4.316  -2.639  -1.166  1.00  0.00     0.058 C 
BRANCH   9  10
ATOM     10  C   UNL     1       5.412  -1.687  -1.575  1.00  0.00     0.006 A 
ATOM     11  C   UNL     1       5.804  -0.487  -1.022  1.00  0.00     0.024 A 
ATOM     12  S   UNL     1       6.436  -2.077  -2.897  1.00  0.00    -0.140 S 
ATOM     13  C   UNL     1       6.598   0.297  -1.918  1.00  0.00    -0.007 A 
ATOM     14  C   UNL     1       7.113  -0.491  -2.945  1.00  0.00     0.035 A 
ATOM     15  C   UNL     1       6.908   1.676  -1.903  1.00  0.00     0.009 A 
ATOM     16  C   UNL     1       8.034   0.033  -3.872  1.00  0.00     0.019 A 
ATOM     17  C   UNL     1       7.742   2.223  -2.879  1.00  0.00     0.001 A 
ATOM     18  C   UNL     1       8.329   1.400  -3.829  1.00  0.00     0.001 A 
ENDBRANCH   9  10
ENDBRANCH   8   9
ENDBRANCH   6   8
ENDBRANCH   5   6
ENDBRANCH   4   5
ENDBRANCH   3   4
ENDBRANCH   2   3
ENDBRANCH   1   2
BRANCH   1  19
ATOM     19  C   UNL     1       2.789   2.132   3.444  1.00  0.00     0.261 C 
BRANCH  19  20
ATOM     20  O   UNL     1       3.156   3.342   2.766  1.00  0.00    -0.460 OA
BRANCH  20  21
ATOM     21  C   UNL     1       4.499   3.548   2.669  1.00  0.00     0.338 C 
ATOM     22  O   UNL     1       5.370   2.958   3.273  1.00  0.00    -0.246 OA
BRANCH  21  23
ATOM     23  C   UNL     1       4.771   4.501   1.561  1.00  0.00     0.060 A 
ATOM     24  C   UNL     1       5.990   4.381   0.877  1.00  0.00     0.016 A 
ATOM     25  C   UNL     1       3.843   5.471   1.169  1.00  0.00     0.016 A 
ATOM     26  C   UNL     1       6.299   5.247  -0.176  1.00  0.00     0.010 A 
ATOM     27  C   UNL     1       4.154   6.341   0.122  1.00  0.00     0.010 A 
ATOM     28  C   UNL     1       5.396   6.254  -0.532  1.00  0.00    -0.014 A 
BRANCH  28  29
ATOM     29  C   UNL     1       5.815   7.384  -1.395  1.00  0.00     0.031 A 
ATOM     30  C   UNL     1       6.342   8.615  -0.712  1.00  0.00     0.074 A 
ATOM     31  C   UNL     1       5.658   7.362  -2.729  1.00  0.00     0.049 A 
ATOM     32  N   UNL     1       6.598   9.796  -1.206  1.00  0.00    -0.248 NA
ATOM     33  C   UNL     1       6.594   8.494   0.734  1.00  0.00     0.031 C 
ATOM     34  C   UNL     1       5.190   6.220  -3.510  1.00  0.00     0.029 A 
ATOM     35  N   UNL     1       5.843   8.356  -3.658  1.00  0.00    -0.354 N 
ATOM     36  C   UNL     1       7.018  10.567  -0.129  1.00  0.00     0.074 A 
ATOM     37  C   UNL     1       6.966   9.724   1.046  1.00  0.00     0.031 C 
ATOM     38  C   UNL     1       5.087   6.590  -4.800  1.00  0.00     0.029 A 
ATOM     39  C   UNL     1       5.443   8.005  -4.925  1.00  0.00     0.049 A 
ATOM     40  H   UNL     1       6.225   9.236  -3.437  1.00  0.00     0.167 HD
ATOM     41  C   UNL     1       7.404  11.864  -0.115  1.00  0.00     0.037 A 
ATOM     42  C   UNL     1       5.338   8.751  -6.044  1.00  0.00     0.037 A 
ATOM     43  C   UNL     1       7.428  12.705  -1.280  1.00  0.00     0.049 A 
ATOM     44  C   UNL     1       5.717  10.212  -6.004  1.00  0.00     0.074 A 
ATOM     45  C   UNL     1       7.811  14.030  -1.377  1.00  0.00     0.029 A 
ATOM     46  N   UNL     1       7.035  12.306  -2.549  1.00  0.00    -0.354 N 
ATOM     47  N   UNL     1       6.138  10.927  -4.987  1.00  0.00    -0.248 NA
ATOM     48  C   UNL     1       5.604  10.968  -7.260  1.00  0.00     0.031 C 
ATOM     49  C   UNL     1       7.602  14.447  -2.696  1.00  0.00     0.029 A 
ATOM     50  C   UNL     1       7.145  13.365  -3.433  1.00  0.00     0.049 A 
ATOM     51  H   UNL     1       6.723  11.402  -2.786  1.00  0.00     0.167 HD
ATOM     52  C   UNL     1       6.372  12.205  -5.488  1.00  0.00     0.074 A 
ATOM     53  C   UNL     1       6.041  12.168  -6.897  1.00  0.00     0.031 C 
ATOM     54  C   UNL     1       6.829  13.306  -4.840  1.00  0.00     0.037 A 
BRANCH  41  55
ATOM     55  C   UNL     1       7.773  12.450   1.218  1.00  0.00     0.058 A 
ATOM     56  C   UNL     1       8.940  12.066   1.898  1.00  0.00     0.135 A 
ATOM     57  C   UNL     1       6.925  13.378   1.842  1.00  0.00     0.135 A 
ATOM     58  F   UNL     1       9.773  11.163   1.355  1.00  0.00    -0.206 F 
ATOM     59  C   UNL     1       9.228  12.543   3.172  1.00  0.00     0.059 A 
ATOM     60  C   UNL     1       7.209  13.892   3.103  1.00  0.00     0.059 A 
ATOM     61  F   UNL     1       5.795  13.776   1.237  1.00  0.00    -0.206 F 
ATOM     62  C   UNL     1       8.350  13.447   3.770  1.00  0.00     0.060 A 
BRANCH  62  63
ATOM     63  S   UNL     1       8.707  14.021   5.444  1.00  0.00     0.124 S 
ATOM     64  O   UNL     1       8.347  12.847   6.234  1.00  0.00    -0.237 OA
ATOM     65  O   UNL     1      10.133  14.324   5.374  1.00  0.00    -0.237 OA
ATOM     66  O   UNL     1       7.830  15.177   5.601  1.00  0.00    -0.744 OA
ENDBRANCH  62  63
ENDBRANCH  41  55
BRANCH  42  67
ATOM     67  C   UNL     1       4.838   8.128  -7.298  1.00  0.00     0.058 A 
ATOM     68  C   UNL     1       5.701   7.870  -8.373  1.00  0.00     0.135 A 
ATOM     69  C   UNL     1       3.493   7.746  -7.434  1.00  0.00     0.135 A 
ATOM     70  F   UNL     1       6.991   8.232  -8.297  1.00  0.00    -0.206 F 
ATOM     71  C   UNL     1       5.254   7.250  -9.535  1.00  0.00     0.059 A 
ATOM     72  C   UNL     1       3.027   7.104  -8.578  1.00  0.00     0.059 A 
ATOM     73  F   UNL     1       2.627   7.966  -6.433  1.00  0.00    -0.206 F 
ATOM     74  C   UNL     1       3.916   6.860  -9.623  1.00  0.00     0.060 A 
BRANCH  74  75
ATOM     75  S   UNL     1       3.370   5.973 -11.099  1.00  0.00     0.124 S 
ATOM     76  O   UNL     1       3.367   7.035 -12.098  1.00  0.00    -0.237 OA
ATOM     77  O   UNL     1       4.410   4.960 -11.248  1.00  0.00    -0.237 OA
ATOM     78  O   UNL     1       2.057   5.461 -10.716  1.00  0.00    -0.744 OA
ENDBRANCH  74  75
ENDBRANCH  42  67
BRANCH  54  79
ATOM     79  C   UNL     1       7.059  14.558  -5.642  1.00  0.00     0.058 A 
ATOM     80  C   UNL     1       6.000  15.370  -6.075  1.00  0.00     0.135 A 
ATOM     81  C   UNL     1       8.369  15.007  -5.882  1.00  0.00     0.135 A 
ATOM     82  F   UNL     1       4.729  14.986  -5.875  1.00  0.00    -0.206 F 
ATOM     83  C   UNL     1       6.231  16.582  -6.720  1.00  0.00     0.059 A 
ATOM     84  C   UNL     1       8.623  16.225  -6.503  1.00  0.00     0.059 A 
ATOM     85  F   UNL     1       9.419  14.273  -5.479  1.00  0.00    -0.206 F 
ATOM     86  C   UNL     1       7.547  17.006  -6.921  1.00  0.00     0.060 A 
BRANCH  86  87
ATOM     87  S   UNL     1       7.834  18.614  -7.692  1.00  0.00     0.124 S 
ATOM     88  O   UNL     1       7.498  18.337  -9.085  1.00  0.00    -0.237 OA
ATOM     89  O   UNL     1       6.900  19.476  -6.974  1.00  0.00    -0.237 OA
ATOM     90  O   UNL     1       9.246  18.871  -7.426  1.00  0.00    -0.744 OA
ENDBRANCH  86  87
ENDBRANCH  54  79
ENDBRANCH  28  29
ENDBRANCH  21  23
ENDBRANCH  20  21
ENDBRANCH  19  20
ENDBRANCH   1  19
TORSDOF 19
