REMARK SMILES Cc1cc(C)c(C#N)c(NC[C@H](CC(C)C)C(=O)OCCOCCOC(=O)c2ccc(-c3c4nc(c(-c5c(F)cc(S(=O)(=O)[O-])cc5F)c5ccc([nH]5)c(-c5c(F)cc(S(=O)(=O)[O-])cc5F)c5nc(c(-c6c(F)cc(S(=O)(=O)[O-])cc6F)c6ccc3[nH]6)C=C5)C=C4)cc2)n1
REMARK SMILES IDX 21 1 20 2 19 3 17 4 18 5 12 6 11 7 10 8 9 10 1 11 2 12 3 13
REMARK SMILES IDX 94 14 4 15 5 16 6 17 7 18 8 19 13 20 14 21 15 22 16 23 22 24
REMARK SMILES IDX 23 25 24 26 25 27 26 28 27 29 28 30 29 31 93 32 30 33 92 34
REMARK SMILES IDX 31 35 32 36 33 37 86 38 34 39 91 40 85 41 87 42 35 43 90 44
REMARK SMILES IDX 84 45 83 46 36 48 70 49 49 50 69 51 50 52 53 53 68 54 88 55
REMARK SMILES IDX 51 56 52 57 67 59 89 60 54 61 37 62 38 63 47 64 39 65 40 66
REMARK SMILES IDX 46 67 48 68 41 69 42 70 43 71 44 72 45 73 71 74 72 75 81 76
REMARK SMILES IDX 73 77 74 78 80 79 82 80 75 81 76 82 77 83 78 84 79 85 55 86
REMARK SMILES IDX 56 87 65 88 57 89 58 90 64 91 66 92 59 93 60 94 61 95 62 96
REMARK SMILES IDX 63 97
REMARK H PARENT 10 9 87 47 53 58
REMARK Flexibility Score: inf
ROOT
ATOM      1  C   UNL     1       6.580   3.664  -0.911  1.00  0.00     0.202 C 
ENDROOT
BRANCH   1   2
ATOM      2  C   UNL     1       5.733   4.874  -1.312  1.00  0.00     0.261 C 
BRANCH   2   3
ATOM      3  O   UNL     1       4.380   4.686  -0.860  1.00  0.00    -0.463 OA
BRANCH   3   4
ATOM      4  C   UNL     1       3.444   4.464  -1.810  1.00  0.00     0.310 C 
ATOM      5  O   UNL     1       3.635   4.582  -3.015  1.00  0.00    -0.252 OA
BRANCH   4   6
ATOM      6  C   UNL     1       2.120   3.981  -1.236  1.00  0.00     0.118 C 
BRANCH   6   7
ATOM      7  C   UNL     1       1.024   5.036  -1.362  1.00  0.00     0.129 C 
BRANCH   7   8
ATOM      8  N   UNL     1       1.472   6.358  -1.019  1.00  0.00    -0.368 N 
ATOM      9  H   UNL     1       1.893   6.430  -0.132  1.00  0.00     0.162 HD
BRANCH   8  10
ATOM     10  C   UNL     1       1.411   7.527  -1.712  1.00  0.00     0.144 A 
ATOM     11  C   UNL     1       1.781  10.925  -0.334  1.00  0.00     0.067 C 
ATOM     12  C   UNL     1       1.548   9.835  -1.336  1.00  0.00     0.040 A 
ATOM     13  C   UNL     1       1.300  10.118  -2.667  1.00  0.00     0.028 A 
ATOM     14  N   UNL     1       1.594   8.569  -0.869  1.00  0.00    -0.235 NA
ATOM     15  C   UNL     1       1.114   9.058  -3.558  1.00  0.00    -0.028 A 
ATOM     16  C   UNL     1       0.818   9.348  -5.005  1.00  0.00     0.046 C 
ATOM     17  C   UNL     1       1.198   7.732  -3.076  1.00  0.00     0.097 A 
BRANCH  17  18
ATOM     18  C   UNL     1       1.052   6.659  -4.017  1.00  0.00     0.103 C 
ATOM     19  N   UNL     1       0.877   5.840  -4.819  1.00  0.00    -0.192 NA
ENDBRANCH  17  18
ENDBRANCH   8  10
ENDBRANCH   7   8
ENDBRANCH   6   7
BRANCH   6  20
ATOM     20  C   UNL     1       2.069   3.175   0.085  1.00  0.00     0.020 C 
BRANCH  20  21
ATOM     21  C   UNL     1       2.841   3.586   1.352  1.00  0.00    -0.017 C 
ATOM     22  C   UNL     1       2.602   5.012   1.823  1.00  0.00     0.007 C 
ATOM     23  C   UNL     1       2.478   2.610   2.481  1.00  0.00     0.007 C 
ENDBRANCH  20  21
ENDBRANCH   6  20
ENDBRANCH   4   6
ENDBRANCH   3   4
ENDBRANCH   2   3
ENDBRANCH   1   2
BRANCH   1  24
ATOM     24  O   UNL     1       6.342   2.447  -1.623  1.00  0.00    -0.374 OA
BRANCH  24  25
ATOM     25  C   UNL     1       5.205   1.676  -1.243  1.00  0.00     0.202 C 
BRANCH  25  26
ATOM     26  C   UNL     1       5.328   0.794   0.009  1.00  0.00     0.261 C 
BRANCH  26  27
ATOM     27  O   UNL     1       5.530   1.555   1.212  1.00  0.00    -0.460 OA
BRANCH  27  28
ATOM     28  C   UNL     1       6.819   1.618   1.623  1.00  0.00     0.338 C 
ATOM     29  O   UNL     1       7.767   1.028   1.131  1.00  0.00    -0.246 OA
BRANCH  28  30
ATOM     30  C   UNL     1       6.989   2.673   2.647  1.00  0.00     0.060 A 
ATOM     31  C   UNL     1       8.087   3.527   2.496  1.00  0.00     0.016 A 
ATOM     32  C   UNL     1       6.162   2.782   3.767  1.00  0.00     0.016 A 
ATOM     33  C   UNL     1       8.433   4.409   3.514  1.00  0.00     0.010 A 
ATOM     34  C   UNL     1       6.500   3.686   4.784  1.00  0.00     0.010 A 
ATOM     35  C   UNL     1       7.680   4.447   4.695  1.00  0.00    -0.014 A 
BRANCH  35  36
ATOM     36  C   UNL     1       8.262   5.120   5.889  1.00  0.00     0.031 A 
ATOM     37  C   UNL     1       8.816   4.270   7.008  1.00  0.00     0.074 A 
ATOM     38  C   UNL     1       8.390   6.459   5.939  1.00  0.00     0.049 A 
ATOM     39  N   UNL     1       9.435   4.635   8.103  1.00  0.00    -0.248 NA
ATOM     40  C   UNL     1       8.647   2.814   6.877  1.00  0.00     0.031 C 
ATOM     41  C   UNL     1       7.938   7.389   4.906  1.00  0.00     0.029 A 
ATOM     42  N   UNL     1       8.958   7.267   6.893  1.00  0.00    -0.354 N 
ATOM     43  C   UNL     1       9.715   3.459   8.793  1.00  0.00     0.074 A 
ATOM     44  C   UNL     1       9.155   2.374   8.018  1.00  0.00     0.031 C 
ATOM     45  C   UNL     1       8.268   8.639   5.269  1.00  0.00     0.029 A 
ATOM     46  C   UNL     1       8.922   8.604   6.577  1.00  0.00     0.049 A 
ATOM     47  H   UNL     1       9.353   6.921   7.726  1.00  0.00     0.167 HD
ATOM     48  C   UNL     1      10.389   3.292   9.957  1.00  0.00     0.037 A 
ATOM     49  C   UNL     1       9.364   9.677   7.263  1.00  0.00     0.037 A 
ATOM     50  C   UNL     1      10.950   4.376  10.723  1.00  0.00     0.049 A 
ATOM     51  C   UNL     1      10.049   9.474   8.590  1.00  0.00     0.074 A 
ATOM     52  C   UNL     1      11.674   4.312  11.900  1.00  0.00     0.029 A 
ATOM     53  N   UNL     1      10.836   5.721  10.398  1.00  0.00    -0.354 N 
ATOM     54  N   UNL     1      10.334   8.355   9.214  1.00  0.00    -0.248 NA
ATOM     55  C   UNL     1      10.482  10.684   9.302  1.00  0.00     0.031 C 
ATOM     56  C   UNL     1      11.930   5.619  12.328  1.00  0.00     0.029 A 
ATOM     57  C   UNL     1      11.444   6.497  11.373  1.00  0.00     0.049 A 
ATOM     58  H   UNL     1      10.390   6.072   9.594  1.00  0.00     0.167 HD
ATOM     59  C   UNL     1      11.019   8.724  10.369  1.00  0.00     0.074 A 
ATOM     60  C   UNL     1      11.111  10.170  10.350  1.00  0.00     0.031 C 
ATOM     61  C   UNL     1      11.534   7.938  11.348  1.00  0.00     0.037 A 
BRANCH  48  62
ATOM     62  C   UNL     1      10.515   1.889  10.496  1.00  0.00     0.058 A 
ATOM     63  C   UNL     1      11.272   0.898   9.848  1.00  0.00     0.135 A 
ATOM     64  C   UNL     1       9.868   1.531  11.691  1.00  0.00     0.135 A 
ATOM     65  F   UNL     1      11.903   1.173   8.695  1.00  0.00    -0.206 F 
ATOM     66  C   UNL     1      11.341  -0.405  10.335  1.00  0.00     0.059 A 
ATOM     67  C   UNL     1       9.956   0.246  12.219  1.00  0.00     0.059 A 
ATOM     68  F   UNL     1       9.133   2.434  12.359  1.00  0.00    -0.206 F 
ATOM     69  C   UNL     1      10.676  -0.721  11.521  1.00  0.00     0.060 A 
BRANCH  69  70
ATOM     70  S   UNL     1      10.753  -2.420  12.128  1.00  0.00     0.124 S 
ATOM     71  O   UNL     1       9.937  -3.119  11.139  1.00  0.00    -0.237 OA
ATOM     72  O   UNL     1      12.184  -2.701  12.082  1.00  0.00    -0.237 OA
ATOM     73  O   UNL     1      10.175  -2.331  13.465  1.00  0.00    -0.744 OA
ENDBRANCH  69  70
ENDBRANCH  48  62
BRANCH  49  74
ATOM     74  C   UNL     1       9.195  11.044   6.697  1.00  0.00     0.058 A 
ATOM     75  C   UNL     1      10.305  11.804   6.297  1.00  0.00     0.135 A 
ATOM     76  C   UNL     1       7.924  11.618   6.544  1.00  0.00     0.135 A 
ATOM     77  F   UNL     1      11.544  11.307   6.435  1.00  0.00    -0.206 F 
ATOM     78  C   UNL     1      10.163  13.086   5.776  1.00  0.00     0.059 A 
ATOM     79  C   UNL     1       7.753  12.886   5.996  1.00  0.00     0.059 A 
ATOM     80  F   UNL     1       6.828  10.933   6.905  1.00  0.00    -0.206 F 
ATOM     81  C   UNL     1       8.880  13.615   5.622  1.00  0.00     0.060 A 
BRANCH  81  82
ATOM     82  S   UNL     1       8.705  15.255   4.886  1.00  0.00     0.124 S 
ATOM     83  O   UNL     1       9.256  16.109   5.931  1.00  0.00    -0.237 OA
ATOM     84  O   UNL     1       9.507  15.129   3.673  1.00  0.00    -0.237 OA
ATOM     85  O   UNL     1       7.266  15.374   4.667  1.00  0.00    -0.744 OA
ENDBRANCH  81  82
ENDBRANCH  49  74
BRANCH  61  86
ATOM     86  C   UNL     1      12.298   8.617  12.458  1.00  0.00     0.058 A 
ATOM     87  C   UNL     1      11.675   9.454  13.398  1.00  0.00     0.135 A 
ATOM     88  C   UNL     1      13.681   8.402  12.595  1.00  0.00     0.135 A 
ATOM     89  F   UNL     1      10.357   9.698  13.318  1.00  0.00    -0.206 F 
ATOM     90  C   UNL     1      12.401  10.091  14.401  1.00  0.00     0.059 A 
ATOM     91  C   UNL     1      14.418   8.995  13.615  1.00  0.00     0.059 A 
ATOM     92  F   UNL     1      14.330   7.599  11.738  1.00  0.00    -0.206 F 
ATOM     93  C   UNL     1      13.773   9.855  14.501  1.00  0.00     0.060 A 
BRANCH  93  94
ATOM     94  S   UNL     1      14.702  10.685  15.808  1.00  0.00     0.124 S 
ATOM     95  O   UNL     1      14.700  12.067  15.339  1.00  0.00    -0.237 OA
ATOM     96  O   UNL     1      13.886  10.414  16.988  1.00  0.00    -0.237 OA
ATOM     97  O   UNL     1      15.999  10.016  15.782  1.00  0.00    -0.744 OA
ENDBRANCH  93  94
ENDBRANCH  61  86
ENDBRANCH  35  36
ENDBRANCH  28  30
ENDBRANCH  27  28
ENDBRANCH  26  27
ENDBRANCH  25  26
ENDBRANCH  24  25
ENDBRANCH   1  24
TORSDOF 23
