REMARK SMILES O=C(OCCOCCOC(=O)[C@H]1CCCC[C@H]1C(=O)N1CCN(S(=O)(=O)c2ccc(F)cc2)CC1)c1ccc(-c2c3nc(c(-c4c(F)cc(S(=O)(=O)[O-])cc4F)c4ccc([nH]4)c(-c4c(F)cc(S(=O)(=O)[O-])cc4F)c4nc(c(-c5c(F)cc(S(=O)(=O)[O-])cc5F)c5ccc2[nH]5)C=C4)C=C3)cc1
REMARK SMILES IDX 6 1 5 2 4 3 3 4 2 5 1 6 36 7 37 8 101 9 38 10 100 11 39 12
REMARK SMILES IDX 40 13 41 14 94 15 42 16 99 17 93 18 95 19 43 20 98 21 92 22
REMARK SMILES IDX 91 23 44 25 78 26 57 27 77 28 58 29 61 30 76 31 96 32 59 33
REMARK SMILES IDX 60 34 75 36 97 37 62 38 45 39 46 40 55 41 47 42 48 43 54 44
REMARK SMILES IDX 56 45 49 46 50 47 51 48 52 49 53 50 79 51 80 52 89 53 81 54
REMARK SMILES IDX 82 55 88 56 90 57 83 58 84 59 85 60 86 61 87 62 63 63 64 64
REMARK SMILES IDX 73 65 65 66 66 67 72 68 74 69 67 70 68 71 69 72 70 73 71 74
REMARK SMILES IDX 7 75 8 76 9 77 10 78 11 79 12 80 13 81 17 82 14 83 16 84
REMARK SMILES IDX 15 85 18 86 19 87 20 88 21 89 35 90 22 91 34 92 23 93 24 94
REMARK SMILES IDX 25 95 26 96 27 97 28 98 33 99 29 100 32 101 30 102 31 103
REMARK H PARENT 95 24 61 35
REMARK Flexibility Score: inf
ROOT
ATOM      1  O   UNL     1       7.469  -5.089  -1.212  1.00  0.00    -0.374 OA
ENDROOT
BRANCH   1   2
ATOM      2  C   UNL     1       7.725  -5.186   0.293  1.00  0.00     0.202 C 
BRANCH   2   3
ATOM      3  C   UNL     1       7.145  -3.923   1.574  1.00  0.00     0.261 C 
BRANCH   3   4
ATOM      4  O   UNL     1       7.659  -1.990   1.567  1.00  0.00    -0.460 OA
BRANCH   4   5
ATOM      5  C   UNL     1       9.206  -1.546   0.712  1.00  0.00     0.338 C 
ATOM      6  O   UNL     1       9.035  -0.623  -0.087  1.00  0.00    -0.246 OA
BRANCH   5   7
ATOM      7  C   UNL     1      10.557  -2.888   0.684  1.00  0.00     0.060 A 
ATOM      8  C   UNL     1      10.691  -3.842  -0.297  1.00  0.00     0.016 A 
ATOM      9  C   UNL     1      11.288  -3.380   1.843  1.00  0.00     0.016 A 
ATOM     10  C   UNL     1      10.981  -5.214   0.002  1.00  0.00     0.010 A 
ATOM     11  C   UNL     1      11.959  -4.580   2.030  1.00  0.00     0.010 A 
ATOM     12  C   UNL     1      11.720  -5.570   1.138  1.00  0.00    -0.014 A 
BRANCH  12  13
ATOM     13  C   UNL     1      12.563  -6.776   1.246  1.00  0.00     0.031 A 
ATOM     14  C   UNL     1      12.697  -7.554   2.535  1.00  0.00     0.074 A 
ATOM     15  C   UNL     1      13.390  -6.947   0.195  1.00  0.00     0.049 A 
ATOM     16  N   UNL     1      13.591  -8.453   2.854  1.00  0.00    -0.248 NA
ATOM     17  C   UNL     1      11.761  -7.245   3.636  1.00  0.00     0.031 C 
ATOM     18  C   UNL     1      13.400  -6.094  -1.004  1.00  0.00     0.029 A 
ATOM     19  N   UNL     1      14.378  -7.844  -0.061  1.00  0.00    -0.354 N 
ATOM     20  C   UNL     1      13.344  -8.800   4.181  1.00  0.00     0.074 A 
ATOM     21  C   UNL     1      12.241  -7.982   4.632  1.00  0.00     0.031 C 
ATOM     22  C   UNL     1      14.225  -6.586  -1.918  1.00  0.00     0.029 A 
ATOM     23  C   UNL     1      14.955  -7.661  -1.296  1.00  0.00     0.049 A 
ATOM     24  H   UNL     1      14.651  -8.549   0.570  1.00  0.00     0.167 HD
ATOM     25  C   UNL     1      13.997  -9.724   4.928  1.00  0.00     0.037 A 
ATOM     26  C   UNL     1      16.020  -8.245  -1.856  1.00  0.00     0.037 A 
ATOM     27  C   UNL     1      15.104 -10.483   4.393  1.00  0.00     0.049 A 
ATOM     28  C   UNL     1      16.698  -9.268  -1.022  1.00  0.00     0.074 A 
ATOM     29  C   UNL     1      15.845 -11.484   4.990  1.00  0.00     0.029 A 
ATOM     30  N   UNL     1      15.627 -10.306   3.112  1.00  0.00    -0.354 N 
ATOM     31  N   UNL     1      16.420  -9.619   0.213  1.00  0.00    -0.248 NA
ATOM     32  C   UNL     1      17.819  -9.972  -1.632  1.00  0.00     0.031 C 
ATOM     33  C   UNL     1      16.847 -11.869   4.093  1.00  0.00     0.029 A 
ATOM     34  C   UNL     1      16.690 -11.164   2.905  1.00  0.00     0.049 A 
ATOM     35  H   UNL     1      15.287  -9.661   2.450  1.00  0.00     0.167 HD
ATOM     36  C   UNL     1      17.323 -10.611   0.532  1.00  0.00     0.074 A 
ATOM     37  C   UNL     1      18.146 -10.806  -0.654  1.00  0.00     0.031 C 
ATOM     38  C   UNL     1      17.464 -11.300   1.690  1.00  0.00     0.037 A 
BRANCH  25  39
ATOM     39  C   UNL     1      13.554  -9.961   6.356  1.00  0.00     0.058 A 
ATOM     40  C   UNL     1      14.414  -9.700   7.438  1.00  0.00     0.135 A 
ATOM     41  C   UNL     1      12.287 -10.489   6.664  1.00  0.00     0.135 A 
ATOM     42  F   UNL     1      15.638  -9.192   7.223  1.00  0.00    -0.206 F 
ATOM     43  C   UNL     1      14.040  -9.953   8.759  1.00  0.00     0.059 A 
ATOM     44  C   UNL     1      11.879 -10.722   7.978  1.00  0.00     0.059 A 
ATOM     45  F   UNL     1      11.410 -10.753   5.682  1.00  0.00    -0.206 F 
ATOM     46  C   UNL     1      12.767 -10.461   9.020  1.00  0.00     0.060 A 
BRANCH  46  47
ATOM     47  S   UNL     1      12.280 -10.742  10.738  1.00  0.00     0.124 S 
ATOM     48  O   UNL     1      13.168 -11.831  11.130  1.00  0.00    -0.237 OA
ATOM     49  O   UNL     1      12.555  -9.445  11.349  1.00  0.00    -0.237 OA
ATOM     50  O   UNL     1      10.865 -11.090  10.637  1.00  0.00    -0.744 OA
ENDBRANCH  46  47
ENDBRANCH  25  39
BRANCH  26  51
ATOM     51  C   UNL     1      16.399  -7.868  -3.240  1.00  0.00     0.058 A 
ATOM     52  C   UNL     1      16.855  -6.574  -3.555  1.00  0.00     0.135 A 
ATOM     53  C   UNL     1      16.114  -8.735  -4.302  1.00  0.00     0.135 A 
ATOM     54  F   UNL     1      17.071  -5.678  -2.578  1.00  0.00    -0.206 F 
ATOM     55  C   UNL     1      16.989  -6.148  -4.872  1.00  0.00     0.059 A 
ATOM     56  C   UNL     1      16.274  -8.343  -5.627  1.00  0.00     0.059 A 
ATOM     57  F   UNL     1      15.636  -9.963  -4.051  1.00  0.00    -0.206 F 
ATOM     58  C   UNL     1      16.698  -7.043  -5.901  1.00  0.00     0.060 A 
BRANCH  58  59
ATOM     59  S   UNL     1      16.882  -6.474  -7.604  1.00  0.00     0.124 S 
ATOM     60  O   UNL     1      15.840  -5.455  -7.690  1.00  0.00    -0.237 OA
ATOM     61  O   UNL     1      18.255  -5.981  -7.609  1.00  0.00    -0.237 OA
ATOM     62  O   UNL     1      16.647  -7.681  -8.390  1.00  0.00    -0.744 OA
ENDBRANCH  58  59
ENDBRANCH  26  51
BRANCH  38  63
ATOM     63  C   UNL     1      18.533 -12.342   1.699  1.00  0.00     0.058 A 
ATOM     64  C   UNL     1      18.181 -13.699   1.737  1.00  0.00     0.135 A 
ATOM     65  C   UNL     1      19.890 -11.996   1.758  1.00  0.00     0.135 A 
ATOM     66  F   UNL     1      16.891 -14.068   1.680  1.00  0.00    -0.206 F 
ATOM     67  C   UNL     1      19.144 -14.683   1.876  1.00  0.00     0.059 A 
ATOM     68  C   UNL     1      20.874 -12.967   1.857  1.00  0.00     0.059 A 
ATOM     69  F   UNL     1      20.264 -10.707   1.698  1.00  0.00    -0.206 F 
ATOM     70  C   UNL     1      20.487 -14.306   1.940  1.00  0.00     0.060 A 
BRANCH  70  71
ATOM     71  S   UNL     1      21.721 -15.600   2.142  1.00  0.00     0.124 S 
ATOM     72  O   UNL     1      21.434 -16.075   3.491  1.00  0.00    -0.237 OA
ATOM     73  O   UNL     1      21.380 -16.516   1.058  1.00  0.00    -0.237 OA
ATOM     74  O   UNL     1      22.986 -14.890   1.981  1.00  0.00    -0.744 OA
ENDBRANCH  70  71
ENDBRANCH  38  63
ENDBRANCH  12  13
ENDBRANCH   5   7
ENDBRANCH   4   5
ENDBRANCH   3   4
ENDBRANCH   2   3
ENDBRANCH   1   2
BRANCH   1  75
ATOM     75  C   UNL     1       8.250  -4.359  -2.235  1.00  0.00     0.202 C 
BRANCH  75  76
ATOM     76  C   UNL     1       7.661  -3.053  -2.916  1.00  0.00     0.261 C 
BRANCH  76  77
ATOM     77  O   UNL     1       6.387  -2.729  -2.378  1.00  0.00    -0.463 OA
BRANCH  77  78
ATOM     78  C   UNL     1       5.535  -3.741  -2.606  1.00  0.00     0.309 C 
ATOM     79  O   UNL     1       5.785  -4.563  -3.486  1.00  0.00    -0.252 OA
BRANCH  78  80
ATOM     80  C   UNL     1       4.214  -3.662  -1.821  1.00  0.00     0.111 C 
ATOM     81  C   UNL     1       3.448  -4.831  -2.524  1.00  0.00     0.016 C 
ATOM     82  C   UNL     1       3.954  -3.817  -0.267  1.00  0.00     0.093 C 
ATOM     83  C   UNL     1       4.006  -6.188  -2.058  1.00  0.00     0.001 C 
ATOM     84  C   UNL     1       4.055  -5.275   0.286  1.00  0.00     0.014 C 
ATOM     85  C   UNL     1       3.601  -6.413  -0.625  1.00  0.00     0.001 C 
BRANCH  82  86
ATOM     86  C   UNL     1       4.167  -2.816   0.986  1.00  0.00     0.226 C 
ATOM     87  O   UNL     1       3.276  -2.814   1.852  1.00  0.00    -0.275 OA
ATOM     88  N   UNL     1       5.374  -2.182   1.292  1.00  0.00    -0.340 N 
ATOM     89  C   UNL     1       5.887  -2.106   2.878  1.00  0.00     0.136 C 
ATOM     90  C   UNL     1       6.338  -1.739   0.179  1.00  0.00     0.136 C 
ATOM     91  C   UNL     1       7.519  -2.700   3.443  1.00  0.00     0.124 C 
ATOM     92  C   UNL     1       7.928  -2.861   0.139  1.00  0.00     0.124 C 
ATOM     93  N   UNL     1       8.875  -3.034   2.057  1.00  0.00    -0.194 NA
BRANCH  93  94
ATOM     94  S   UNL     1       9.871  -1.171   2.937  1.00  0.00     0.243 S 
ATOM     95  O   UNL     1       8.936  -0.065   2.872  1.00  0.00    -0.207 OA
ATOM     96  O   UNL     1      10.434  -1.595   4.204  1.00  0.00    -0.207 OA
BRANCH  94  97
ATOM     97  C   UNL     1      11.530  -0.544   1.776  1.00  0.00     0.082 A 
ATOM     98  C   UNL     1      11.348   0.134   0.550  1.00  0.00     0.025 A 
ATOM     99  C   UNL     1      12.806  -1.097   2.013  1.00  0.00     0.025 A 
ATOM    100  C   UNL     1      12.190  -0.148  -0.552  1.00  0.00     0.040 A 
ATOM    101  C   UNL     1      13.695  -1.295   0.922  1.00  0.00     0.040 A 
ATOM    102  C   UNL     1      13.338  -0.898  -0.364  1.00  0.00     0.123 A 
ATOM    103  F   UNL     1      14.092  -1.246  -1.418  1.00  0.00    -0.207 F 
ENDBRANCH  94  97
ENDBRANCH  93  94
ENDBRANCH  82  86
ENDBRANCH  78  80
ENDBRANCH  77  78
ENDBRANCH  76  77
ENDBRANCH  75  76
ENDBRANCH   1  75
TORSDOF 20
