REMARK SMILES O=C(OCCOCCOC(=O)[C@H]1CCC[N@@H+]1Cc1ccccc1[N+](=O)[O-])c1ccc(-c2c3nc(c(-c4c(F)cc(S(=O)(=O)[O-])cc4F)c4ccc([nH]4)c(-c4c(F)cc(S(=O)(=O)[O-])cc4F)c4nc(c(-c5c(F)cc(S(=O)(=O)[O-])cc5F)c5ccc2[nH]5)C=C4)C=C3)cc1
REMARK SMILES IDX 6 1 5 2 4 3 3 4 2 5 1 6 27 7 28 8 92 9 29 10 91 11 30 12
REMARK SMILES IDX 31 13 32 14 85 15 33 16 90 17 84 18 86 19 34 20 89 21 83 22
REMARK SMILES IDX 82 23 35 25 69 26 48 27 68 28 49 29 52 30 67 31 87 32 50 33
REMARK SMILES IDX 51 34 66 36 88 37 53 38 36 39 37 40 46 41 38 42 39 43 45 44
REMARK SMILES IDX 47 45 40 46 41 47 42 48 43 49 44 50 70 51 71 52 80 53 72 54
REMARK SMILES IDX 73 55 79 56 81 57 74 58 75 59 76 60 77 61 78 62 54 63 55 64
REMARK SMILES IDX 64 65 56 66 57 67 63 68 65 69 58 70 59 71 60 72 61 73 62 74
REMARK SMILES IDX 7 75 8 76 9 77 10 78 11 79 12 80 13 81 16 82 14 83 15 84
REMARK SMILES IDX 17 86 18 87 19 88 23 89 20 90 22 91 21 92 24 93 25 94 26 95
REMARK H PARENT 86 24 52 35 16 85
REMARK Flexibility Score: inf
ROOT
ATOM      1  O   UNL     1       7.921  -2.700  -0.040  1.00  0.00    -0.374 OA
ENDROOT
BRANCH   1   2
ATOM      2  C   UNL     1       6.789  -3.170   0.692  1.00  0.00     0.202 C 
BRANCH   2   3
ATOM      3  C   UNL     1       6.992  -3.196   2.208  1.00  0.00     0.261 C 
BRANCH   3   4
ATOM      4  O   UNL     1       7.554  -1.960   2.659  1.00  0.00    -0.460 OA
BRANCH   4   5
ATOM      5  C   UNL     1       8.869  -1.629   2.601  1.00  0.00     0.338 C 
ATOM      6  O   UNL     1       9.189  -0.451   2.752  1.00  0.00    -0.246 OA
BRANCH   5   7
ATOM      7  C   UNL     1       9.957  -2.649   2.475  1.00  0.00     0.060 A 
ATOM      8  C   UNL     1       9.894  -3.811   1.700  1.00  0.00     0.016 A 
ATOM      9  C   UNL     1      11.159  -2.366   3.142  1.00  0.00     0.016 A 
ATOM     10  C   UNL     1      10.956  -4.688   1.611  1.00  0.00     0.010 A 
ATOM     11  C   UNL     1      12.250  -3.232   3.040  1.00  0.00     0.010 A 
ATOM     12  C   UNL     1      12.137  -4.397   2.276  1.00  0.00    -0.014 A 
BRANCH  12  13
ATOM     13  C   UNL     1      13.185  -5.420   2.240  1.00  0.00     0.031 A 
ATOM     14  C   UNL     1      13.333  -6.299   3.436  1.00  0.00     0.074 A 
ATOM     15  C   UNL     1      13.859  -5.626   1.097  1.00  0.00     0.049 A 
ATOM     16  N   UNL     1      14.241  -7.196   3.693  1.00  0.00    -0.248 NA
ATOM     17  C   UNL     1      12.306  -6.155   4.485  1.00  0.00     0.031 C 
ATOM     18  C   UNL     1      13.625  -4.907  -0.161  1.00  0.00     0.029 A 
ATOM     19  N   UNL     1      14.853  -6.512   0.794  1.00  0.00    -0.354 N 
ATOM     20  C   UNL     1      13.928  -7.688   4.952  1.00  0.00     0.074 A 
ATOM     21  C   UNL     1      12.736  -7.008   5.402  1.00  0.00     0.031 C 
ATOM     22  C   UNL     1      14.454  -5.388  -1.101  1.00  0.00     0.029 A 
ATOM     23  C   UNL     1      15.327  -6.380  -0.489  1.00  0.00     0.049 A 
ATOM     24  H   UNL     1      15.195  -7.179   1.432  1.00  0.00     0.167 HD
ATOM     25  C   UNL     1      14.608  -8.613   5.665  1.00  0.00     0.037 A 
ATOM     26  C   UNL     1      16.391  -6.964  -1.070  1.00  0.00     0.037 A 
ATOM     27  C   UNL     1      15.795  -9.249   5.160  1.00  0.00     0.049 A 
ATOM     28  C   UNL     1      17.192  -7.919  -0.228  1.00  0.00     0.074 A 
ATOM     29  C   UNL     1      16.643 -10.134   5.792  1.00  0.00     0.029 A 
ATOM     30  N   UNL     1      16.295  -9.053   3.876  1.00  0.00    -0.354 N 
ATOM     31  N   UNL     1      16.971  -8.304   1.010  1.00  0.00    -0.248 NA
ATOM     32  C   UNL     1      18.390  -8.502  -0.837  1.00  0.00     0.031 C 
ATOM     33  C   UNL     1      17.680 -10.442   4.902  1.00  0.00     0.029 A 
ATOM     34  C   UNL     1      17.448  -9.792   3.697  1.00  0.00     0.049 A 
ATOM     35  H   UNL     1      15.886  -8.472   3.194  1.00  0.00     0.167 HD
ATOM     36  C   UNL     1      17.992  -9.188   1.325  1.00  0.00     0.074 A 
ATOM     37  C   UNL     1      18.827  -9.286   0.140  1.00  0.00     0.031 C 
ATOM     38  C   UNL     1      18.228  -9.858   2.482  1.00  0.00     0.037 A 
BRANCH  25  39
ATOM     39  C   UNL     1      14.137  -8.874   7.067  1.00  0.00     0.058 A 
ATOM     40  C   UNL     1      12.936  -9.547   7.345  1.00  0.00     0.135 A 
ATOM     41  C   UNL     1      14.866  -8.366   8.156  1.00  0.00     0.135 A 
ATOM     42  F   UNL     1      12.179 -10.020   6.341  1.00  0.00    -0.206 F 
ATOM     43  C   UNL     1      12.454  -9.670   8.645  1.00  0.00     0.059 A 
ATOM     44  C   UNL     1      14.416  -8.500   9.466  1.00  0.00     0.059 A 
ATOM     45  F   UNL     1      16.012  -7.699   7.949  1.00  0.00    -0.206 F 
ATOM     46  C   UNL     1      13.197  -9.133   9.699  1.00  0.00     0.060 A 
BRANCH  46  47
ATOM     47  S   UNL     1      12.539  -9.255  11.376  1.00  0.00     0.124 S 
ATOM     48  O   UNL     1      11.468  -8.263  11.341  1.00  0.00    -0.237 OA
ATOM     49  O   UNL     1      12.109 -10.648  11.444  1.00  0.00    -0.237 OA
ATOM     50  O   UNL     1      13.683  -8.914  12.216  1.00  0.00    -0.744 OA
ENDBRANCH  46  47
ENDBRANCH  25  39
BRANCH  26  51
ATOM     51  C   UNL     1      16.774  -6.604  -2.462  1.00  0.00     0.058 A 
ATOM     52  C   UNL     1      16.687  -7.530  -3.510  1.00  0.00     0.135 A 
ATOM     53  C   UNL     1      17.195  -5.301  -2.782  1.00  0.00     0.135 A 
ATOM     54  F   UNL     1      16.297  -8.789  -3.260  1.00  0.00    -0.206 F 
ATOM     55  C   UNL     1      17.003  -7.182  -4.822  1.00  0.00     0.059 A 
ATOM     56  C   UNL     1      17.490  -4.921  -4.088  1.00  0.00     0.059 A 
ATOM     57  F   UNL     1      17.288  -4.368  -1.821  1.00  0.00    -0.206 F 
ATOM     58  C   UNL     1      17.398  -5.872  -5.102  1.00  0.00     0.060 A 
BRANCH  58  59
ATOM     59  S   UNL     1      17.751  -5.415  -6.814  1.00  0.00     0.124 S 
ATOM     60  O   UNL     1      19.019  -6.098  -7.045  1.00  0.00    -0.237 OA
ATOM     61  O   UNL     1      16.595  -5.957  -7.522  1.00  0.00    -0.237 OA
ATOM     62  O   UNL     1      17.820  -3.958  -6.767  1.00  0.00    -0.744 OA
ENDBRANCH  58  59
ENDBRANCH  26  51
BRANCH  38  63
ATOM     63  C   UNL     1      19.404 -10.787   2.496  1.00  0.00     0.058 A 
ATOM     64  C   UNL     1      20.717 -10.309   2.600  1.00  0.00     0.135 A 
ATOM     65  C   UNL     1      19.197 -12.175   2.494  1.00  0.00     0.135 A 
ATOM     66  F   UNL     1      20.960  -8.988   2.596  1.00  0.00    -0.206 F 
ATOM     67  C   UNL     1      21.794 -11.181   2.694  1.00  0.00     0.059 A 
ATOM     68  C   UNL     1      20.256 -13.064   2.614  1.00  0.00     0.059 A 
ATOM     69  F   UNL     1      17.953 -12.674   2.406  1.00  0.00    -0.206 F 
ATOM     70  C   UNL     1      21.551 -12.557   2.708  1.00  0.00     0.060 A 
BRANCH  70  71
ATOM     71  S   UNL     1      22.951 -13.678   2.898  1.00  0.00     0.124 S 
ATOM     72  O   UNL     1      23.559 -13.614   1.573  1.00  0.00    -0.237 OA
ATOM     73  O   UNL     1      23.710 -13.051   3.976  1.00  0.00    -0.237 OA
ATOM     74  O   UNL     1      22.322 -14.950   3.241  1.00  0.00    -0.744 OA
ENDBRANCH  70  71
ENDBRANCH  38  63
ENDBRANCH  12  13
ENDBRANCH   5   7
ENDBRANCH   4   5
ENDBRANCH   3   4
ENDBRANCH   2   3
ENDBRANCH   1   2
BRANCH   1  75
ATOM     75  C   UNL     1       7.789  -1.391  -0.579  1.00  0.00     0.202 C 
BRANCH  75  76
ATOM     76  C   UNL     1       7.262  -1.442  -2.012  1.00  0.00     0.261 C 
BRANCH  76  77
ATOM     77  O   UNL     1       5.961  -2.059  -2.050  1.00  0.00    -0.459 OA
BRANCH  77  78
ATOM     78  C   UNL     1       5.953  -3.387  -2.383  1.00  0.00     0.365 C 
ATOM     79  O   UNL     1       6.931  -4.022  -2.761  1.00  0.00    -0.245 OA
BRANCH  78  80
ATOM     80  C   UNL     1       4.537  -3.968  -2.238  1.00  0.00     0.295 C 
ATOM     81  C   UNL     1       4.442  -5.321  -2.935  1.00  0.00     0.083 C 
ATOM     82  N   UNL     1       4.210  -4.257  -0.815  1.00  0.00    -0.319 N 
ATOM     83  C   UNL     1       4.900  -6.309  -1.880  1.00  0.00     0.068 C 
ATOM     84  C   UNL     1       4.567  -5.657  -0.550  1.00  0.00     0.263 C 
ATOM     85  H   UNL     1       4.772  -3.643  -0.226  1.00  0.00     0.349 HD
BRANCH  82  86
ATOM     86  C   UNL     1       2.854  -3.871  -0.377  1.00  0.00     0.307 C 
BRANCH  86  87
ATOM     87  C   UNL     1       1.719  -4.435  -1.213  1.00  0.00     0.084 A 
ATOM     88  C   UNL     1       1.298  -3.696  -2.336  1.00  0.00     0.017 A 
ATOM     89  C   UNL     1       1.186  -5.729  -1.057  1.00  0.00     0.278 A 
ATOM     90  C   UNL     1       0.525  -4.285  -3.338  1.00  0.00     0.001 A 
ATOM     91  C   UNL     1       0.434  -6.335  -2.074  1.00  0.00     0.086 A 
ATOM     92  C   UNL     1       0.134  -5.617  -3.229  1.00  0.00     0.007 A 
BRANCH  89  93
ATOM     93  N   UNL     1       1.358  -6.489   0.177  1.00  0.00     0.063 N 
ATOM     94  O   UNL     1       1.634  -7.692   0.071  1.00  0.00    -0.258 OA
ATOM     95  O   UNL     1       1.181  -5.888   1.246  1.00  0.00    -0.258 OA
ENDBRANCH  89  93
ENDBRANCH  86  87
ENDBRANCH  82  86
ENDBRANCH  78  80
ENDBRANCH  77  78
ENDBRANCH  76  77
ENDBRANCH  75  76
ENDBRANCH   1  75
TORSDOF 20
