REMARK SMILES O=C(OCCOCCOC(=O)c1ccc(-c2c3nc(c(-c4c(F)cc(S(=O)(=O)[O-])cc4F)c4ccc([nH]4)c(-c4c(F)cc(S(=O)(=O)[O-])cc4F)c4nc(c(-c5c(F)cc(S(=O)(=O)[O-])cc5F)c5ccc2[nH]5)C=C4)C=C3)cc1)C1=Cc2c(ccc(Cl)c2Cl)O[C@H]1C(F)(F)F
REMARK SMILES IDX 7 1 6 2 5 3 4 4 3 5 2 6 1 7 78 8 79 9 89 10 80 11 88 12
REMARK SMILES IDX 81 13 86 14 82 15 84 16 87 17 83 18 85 19 90 20 91 21 92 22
REMARK SMILES IDX 93 23 8 24 9 25 10 26 11 27 12 28 13 29 77 30 14 31 76 32
REMARK SMILES IDX 15 33 16 34 17 35 70 36 18 37 75 38 69 39 71 40 19 41 74 42
REMARK SMILES IDX 68 43 67 44 20 46 54 47 33 48 53 49 34 50 37 51 52 52 72 53
REMARK SMILES IDX 35 54 36 55 51 57 73 58 38 59 21 60 22 61 31 62 23 63 24 64
REMARK SMILES IDX 30 65 32 66 25 67 26 68 27 69 28 70 29 71 55 72 56 73 65 74
REMARK SMILES IDX 57 75 58 76 64 77 66 78 59 79 60 80 61 81 62 82 63 83 39 84
REMARK SMILES IDX 40 85 49 86 41 87 42 88 48 89 50 90 43 91 44 92 45 93 46 94
REMARK SMILES IDX 47 95
REMARK H PARENT 71 45 37 56
REMARK Flexibility Score: inf
ROOT
ATOM      1  C   UNL     1       1.596   3.428   0.547  1.00  0.00     0.202 C 
ENDROOT
BRANCH   1   2
ATOM      2  O   UNL     1       2.305   2.210   0.351  1.00  0.00    -0.374 OA
BRANCH   2   3
ATOM      3  C   UNL     1       2.295   1.763  -1.007  1.00  0.00     0.202 C 
BRANCH   3   4
ATOM      4  C   UNL     1       1.881   0.293  -1.109  1.00  0.00     0.261 C 
BRANCH   4   5
ATOM      5  O   UNL     1       1.480  -0.268   0.160  1.00  0.00    -0.460 OA
BRANCH   5   6
ATOM      6  C   UNL     1       2.289  -0.712   1.151  1.00  0.00     0.338 C 
ATOM      7  O   UNL     1       1.795  -1.273   2.127  1.00  0.00    -0.246 OA
BRANCH   6   8
ATOM      8  C   UNL     1       3.762  -0.747   0.995  1.00  0.00     0.087 C 
ATOM      9  C   UNL     1       4.494  -0.017   0.153  1.00  0.00     0.029 C 
ATOM     10  C   UNL     1       4.509  -1.568   2.029  1.00  0.00     0.316 C 
ATOM     11  C   UNL     1       5.680  -0.646  -0.387  1.00  0.00     0.037 A 
ATOM     12  O   UNL     1       5.933  -1.780   1.734  1.00  0.00    -0.475 OA
ATOM     13  C   UNL     1       6.359  -1.516   0.459  1.00  0.00     0.129 A 
ATOM     14  C   UNL     1       6.071  -0.510  -1.737  1.00  0.00     0.070 A 
ATOM     15  C   UNL     1       7.505  -2.158   0.008  1.00  0.00     0.049 A 
ATOM     16  C   UNL     1       7.208  -1.180  -2.194  1.00  0.00     0.060 A 
ATOM     17  Cl  UNL     1       5.090   0.377  -2.859  1.00  0.00    -0.082 Cl
ATOM     18  C   UNL     1       7.930  -1.989  -1.315  1.00  0.00     0.026 A 
ATOM     19  Cl  UNL     1       7.758  -1.068  -3.829  1.00  0.00    -0.083 Cl
BRANCH  10  20
ATOM     20  C   UNL     1       4.377  -0.914   3.441  1.00  0.00     0.430 C 
ATOM     21  F   UNL     1       3.660   0.237   3.443  1.00  0.00    -0.167 F 
ATOM     22  F   UNL     1       3.788  -1.758   4.323  1.00  0.00    -0.167 F 
ATOM     23  F   UNL     1       5.587  -0.593   3.967  1.00  0.00    -0.167 F 
ENDBRANCH  10  20
ENDBRANCH   6   8
ENDBRANCH   5   6
ENDBRANCH   4   5
ENDBRANCH   3   4
ENDBRANCH   2   3
ENDBRANCH   1   2
BRANCH   1  24
ATOM     24  C   UNL     1       2.446   4.669   0.259  1.00  0.00     0.261 C 
BRANCH  24  25
ATOM     25  O   UNL     1       3.037   4.623  -1.054  1.00  0.00    -0.460 OA
BRANCH  25  26
ATOM     26  C   UNL     1       4.371   4.371  -1.105  1.00  0.00     0.338 C 
ATOM     27  O   UNL     1       5.117   4.234  -0.140  1.00  0.00    -0.246 OA
BRANCH  26  28
ATOM     28  C   UNL     1       4.823   4.176  -2.512  1.00  0.00     0.060 A 
ATOM     29  C   UNL     1       6.100   3.640  -2.741  1.00  0.00     0.016 A 
ATOM     30  C   UNL     1       4.008   4.487  -3.607  1.00  0.00     0.016 A 
ATOM     31  C   UNL     1       6.559   3.418  -4.048  1.00  0.00     0.010 A 
ATOM     32  C   UNL     1       4.468   4.267  -4.911  1.00  0.00     0.010 A 
ATOM     33  C   UNL     1       5.752   3.746  -5.144  1.00  0.00    -0.014 A 
BRANCH  33  34
ATOM     34  C   UNL     1       6.294   3.740  -6.530  1.00  0.00     0.031 A 
ATOM     35  C   UNL     1       6.843   5.030  -7.079  1.00  0.00     0.074 A 
ATOM     36  C   UNL     1       6.259   2.645  -7.314  1.00  0.00     0.049 A 
ATOM     37  N   UNL     1       7.293   5.303  -8.276  1.00  0.00    -0.248 NA
ATOM     38  C   UNL     1       6.875   6.170  -6.147  1.00  0.00     0.031 C 
ATOM     39  C   UNL     1       5.768   1.330  -6.912  1.00  0.00     0.029 A 
ATOM     40  N   UNL     1       6.630   2.477  -8.629  1.00  0.00    -0.354 N 
ATOM     41  C   UNL     1       7.658   6.643  -8.245  1.00  0.00     0.074 A 
ATOM     42  C   UNL     1       7.345   7.136  -6.920  1.00  0.00     0.031 C 
ATOM     43  C   UNL     1       5.852   0.493  -7.963  1.00  0.00     0.029 A 
ATOM     44  C   UNL     1       6.375   1.217  -9.122  1.00  0.00     0.049 A 
ATOM     45  H   UNL     1       7.041   3.191  -9.167  1.00  0.00     0.167 HD
ATOM     46  C   UNL     1       8.207   7.398  -9.226  1.00  0.00     0.037 A 
ATOM     47  C   UNL     1       6.525   0.715 -10.367  1.00  0.00     0.037 A 
ATOM     48  C   UNL     1       8.492   6.921 -10.553  1.00  0.00     0.049 A 
ATOM     49  C   UNL     1       7.076   1.594 -11.468  1.00  0.00     0.074 A 
ATOM     50  C   UNL     1       9.059   7.611 -11.609  1.00  0.00     0.029 A 
ATOM     51  N   UNL     1       8.212   5.643 -11.014  1.00  0.00    -0.354 N 
ATOM     52  N   UNL     1       7.466   2.846 -11.410  1.00  0.00    -0.248 NA
ATOM     53  C   UNL     1       7.208   0.993 -12.805  1.00  0.00     0.031 C 
ATOM     54  C   UNL     1       9.064   6.771 -12.727  1.00  0.00     0.029 A 
ATOM     55  C   UNL     1       8.566   5.535 -12.349  1.00  0.00     0.049 A 
ATOM     56  H   UNL     1       7.820   4.920 -10.473  1.00  0.00     0.167 HD
ATOM     57  C   UNL     1       7.917   3.168 -12.689  1.00  0.00     0.074 A 
ATOM     58  C   UNL     1       7.761   1.979 -13.498  1.00  0.00     0.031 C 
ATOM     59  C   UNL     1       8.419   4.342 -13.149  1.00  0.00     0.037 A 
BRANCH  46  60
ATOM     60  C   UNL     1       8.498   8.837  -8.903  1.00  0.00     0.058 A 
ATOM     61  C   UNL     1       9.519   9.202  -8.009  1.00  0.00     0.135 A 
ATOM     62  C   UNL     1       7.750   9.865  -9.498  1.00  0.00     0.135 A 
ATOM     63  F   UNL     1      10.252   8.259  -7.396  1.00  0.00    -0.206 F 
ATOM     64  C   UNL     1       9.761  10.534  -7.689  1.00  0.00     0.059 A 
ATOM     65  C   UNL     1       7.997  11.205  -9.217  1.00  0.00     0.059 A 
ATOM     66  F   UNL     1       6.761   9.572 -10.357  1.00  0.00    -0.206 F 
ATOM     67  C   UNL     1       8.993  11.528  -8.297  1.00  0.00     0.060 A 
BRANCH  67  68
ATOM     68  S   UNL     1       9.310  13.249  -7.857  1.00  0.00     0.124 S 
ATOM     69  O   UNL     1       8.790  13.301  -6.494  1.00  0.00    -0.237 OA
ATOM     70  O   UNL     1      10.761  13.340  -7.985  1.00  0.00    -0.237 OA
ATOM     71  O   UNL     1       8.546  14.000  -8.848  1.00  0.00    -0.744 OA
ENDBRANCH  67  68
ENDBRANCH  46  60
BRANCH  47  72
ATOM     72  C   UNL     1       6.135  -0.695 -10.662  1.00  0.00     0.058 A 
ATOM     73  C   UNL     1       7.095  -1.662 -11.002  1.00  0.00     0.135 A 
ATOM     74  C   UNL     1       4.790  -1.100 -10.637  1.00  0.00     0.135 A 
ATOM     75  F   UNL     1       8.392  -1.325 -11.065  1.00  0.00    -0.206 F 
ATOM     76  C   UNL     1       6.738  -2.970 -11.319  1.00  0.00     0.059 A 
ATOM     77  C   UNL     1       4.411  -2.409 -10.920  1.00  0.00     0.059 A 
ATOM     78  F   UNL     1       3.829  -0.219 -10.319  1.00  0.00    -0.206 F 
ATOM     79  C   UNL     1       5.392  -3.336 -11.268  1.00  0.00     0.060 A 
BRANCH  79  80
ATOM     80  S   UNL     1       4.946  -5.050 -11.626  1.00  0.00     0.124 S 
ATOM     81  O   UNL     1       5.183  -5.125 -13.063  1.00  0.00    -0.237 OA
ATOM     82  O   UNL     1       5.881  -5.791 -10.785  1.00  0.00    -0.237 OA
ATOM     83  O   UNL     1       3.547  -5.127 -11.213  1.00  0.00    -0.744 OA
ENDBRANCH  79  80
ENDBRANCH  47  72
BRANCH  59  84
ATOM     84  C   UNL     1       8.883   4.406 -14.582  1.00  0.00     0.058 A 
ATOM     85  C   UNL     1       7.983   4.403 -15.659  1.00  0.00     0.135 A 
ATOM     86  C   UNL     1      10.250   4.556 -14.877  1.00  0.00     0.135 A 
ATOM     87  F   UNL     1       6.667   4.258 -15.439  1.00  0.00    -0.206 F 
ATOM     88  C   UNL     1       8.421   4.530 -16.975  1.00  0.00     0.059 A 
ATOM     89  C   UNL     1      10.707   4.716 -16.182  1.00  0.00     0.059 A 
ATOM     90  F   UNL     1      11.156   4.578 -13.886  1.00  0.00    -0.206 F 
ATOM     91  C   UNL     1       9.785   4.694 -17.226  1.00  0.00     0.060 A 
BRANCH  91  92
ATOM     92  S   UNL     1      10.333   4.908 -18.934  1.00  0.00     0.124 S 
ATOM     93  O   UNL     1      10.139   3.568 -19.477  1.00  0.00    -0.237 OA
ATOM     94  O   UNL     1       9.417   5.932 -19.428  1.00  0.00    -0.237 OA
ATOM     95  O   UNL     1      11.723   5.333 -18.795  1.00  0.00    -0.744 OA
ENDBRANCH  91  92
ENDBRANCH  59  84
ENDBRANCH  33  34
ENDBRANCH  26  28
ENDBRANCH  25  26
ENDBRANCH  24  25
ENDBRANCH   1  24
TORSDOF 18
