REMARK SMILES C[C@]1(C(=O)N2CCC(CC(=O)OCCOCCOC(=O)c3ccc(-c4c5nc(c(-c6c(F)cc(S(=O)(=O)[O-])cc6F)c6ccc([nH]6)c(-c6c(F)cc(S(=O)(=O)[O-])cc6F)c6nc(c(-c7c(F)cc(S(=O)(=O)[O-])cc7F)c7ccc4[nH]7)C=C6)C=C5)cc3)CC2)CCC[NH2+]C1
REMARK SMILES IDX 16 1 15 2 14 3 13 4 12 5 10 6 11 7 9 8 8 9 3 10 4 11 5 12
REMARK SMILES IDX 6 13 88 14 7 15 87 16 2 17 1 18 89 19 93 20 90 21 92 22
REMARK SMILES IDX 91 23 17 26 18 27 19 28 20 29 21 30 22 31 86 32 23 33 85 34
REMARK SMILES IDX 24 35 25 36 26 37 79 38 27 39 84 40 78 41 80 42 28 43 83 44
REMARK SMILES IDX 77 45 76 46 29 48 63 49 42 50 62 51 43 52 46 53 61 54 81 55
REMARK SMILES IDX 44 56 45 57 60 59 82 60 47 61 30 62 31 63 40 64 32 65 33 66
REMARK SMILES IDX 39 67 41 68 34 69 35 70 36 71 37 72 38 73 64 74 65 75 74 76
REMARK SMILES IDX 66 77 67 78 73 79 75 80 68 81 69 82 70 83 71 84 72 85 48 86
REMARK SMILES IDX 49 87 58 88 50 89 51 90 57 91 59 92 52 93 53 94 54 95 55 96
REMARK SMILES IDX 56 97
REMARK H PARENT 92 24 92 25 80 47 46 58
REMARK Flexibility Score: inf
ROOT
ATOM      1  C   UNL     1       8.385  -0.642   0.178  1.00  0.00     0.202 C 
ENDROOT
BRANCH   1   2
ATOM      2  O   UNL     1       9.408  -0.006  -0.583  1.00  0.00    -0.374 OA
BRANCH   2   3
ATOM      3  C   UNL     1       8.999   1.043  -1.463  1.00  0.00     0.202 C 
BRANCH   3   4
ATOM      4  C   UNL     1       8.386   0.602  -2.796  1.00  0.00     0.261 C 
BRANCH   4   5
ATOM      5  O   UNL     1       7.072   0.044  -2.607  1.00  0.00    -0.463 OA
BRANCH   5   6
ATOM      6  C   UNL     1       6.939  -1.288  -2.820  1.00  0.00     0.306 C 
ATOM      7  O   UNL     1       7.822  -2.029  -3.232  1.00  0.00    -0.252 OA
BRANCH   6   8
ATOM      8  C   UNL     1       5.534  -1.774  -2.540  1.00  0.00     0.126 C 
BRANCH   8   9
ATOM      9  C   UNL     1       4.881  -1.393  -1.192  1.00  0.00     0.003 C 
ATOM     10  C   UNL     1       1.084   0.025  -0.048  1.00  0.00     0.234 C 
ATOM     11  O   UNL     1       0.354  -0.425   0.844  1.00  0.00    -0.274 OA
ATOM     12  N   UNL     1       2.383  -0.425  -0.158  1.00  0.00    -0.342 N 
ATOM     13  C   UNL     1       2.691  -1.815   0.097  1.00  0.00     0.120 C 
ATOM     14  C   UNL     1       3.530   0.453  -0.036  1.00  0.00     0.120 C 
ATOM     15  C   UNL     1       3.632  -2.293  -1.001  1.00  0.00     0.026 C 
ATOM     16  C   UNL     1       4.552   0.117  -1.114  1.00  0.00     0.026 C 
BRANCH  10  17
ATOM     17  C   UNL     1       0.467   0.813  -1.242  1.00  0.00     0.095 C 
ATOM     18  C   UNL     1      -0.261  -0.269  -2.079  1.00  0.00     0.028 C 
ATOM     19  C   UNL     1      -0.571   1.819  -0.701  1.00  0.00     0.028 C 
ATOM     20  C   UNL     1       1.407   1.563  -2.207  1.00  0.00     0.277 C 
ATOM     21  C   UNL     1       0.125   3.041  -0.100  1.00  0.00     0.063 C 
ATOM     22  N   UNL     1       2.038   2.762  -1.652  1.00  0.00    -0.345 N 
ATOM     23  C   UNL     1       1.058   3.703  -1.113  1.00  0.00     0.260 C 
ATOM     24  H   UNL     1       2.671   2.482  -0.902  1.00  0.00     0.346 HD
ATOM     25  H   UNL     1       2.539   3.230  -2.406  1.00  0.00     0.346 HD
ENDBRANCH  10  17
ENDBRANCH   8   9
ENDBRANCH   6   8
ENDBRANCH   5   6
ENDBRANCH   4   5
ENDBRANCH   3   4
ENDBRANCH   2   3
ENDBRANCH   1   2
BRANCH   1  26
ATOM     26  C   UNL     1       7.926   0.085   1.449  1.00  0.00     0.261 C 
BRANCH  26  27
ATOM     27  O   UNL     1       7.276   1.335   1.157  1.00  0.00    -0.460 OA
BRANCH  27  28
ATOM     28  C   UNL     1       8.012   2.432   1.456  1.00  0.00     0.338 C 
ATOM     29  O   UNL     1       9.104   2.453   2.013  1.00  0.00    -0.246 OA
BRANCH  28  30
ATOM     30  C   UNL     1       7.415   3.639   0.852  1.00  0.00     0.060 A 
ATOM     31  C   UNL     1       8.266   4.469   0.111  1.00  0.00     0.016 A 
ATOM     32  C   UNL     1       6.081   3.998   1.059  1.00  0.00     0.016 A 
ATOM     33  C   UNL     1       7.804   5.690  -0.375  1.00  0.00     0.010 A 
ATOM     34  C   UNL     1       5.621   5.230   0.574  1.00  0.00     0.010 A 
ATOM     35  C   UNL     1       6.490   6.099  -0.111  1.00  0.00    -0.014 A 
BRANCH  35  36
ATOM     36  C   UNL     1       6.089   7.494  -0.422  1.00  0.00     0.031 A 
ATOM     37  C   UNL     1       6.055   8.510   0.691  1.00  0.00     0.074 A 
ATOM     38  C   UNL     1       5.819   7.870  -1.686  1.00  0.00     0.049 A 
ATOM     39  N   UNL     1       5.710   9.771   0.652  1.00  0.00    -0.248 NA
ATOM     40  C   UNL     1       6.470   8.041   2.023  1.00  0.00     0.031 C 
ATOM     41  C   UNL     1       5.866   6.995  -2.857  1.00  0.00     0.029 A 
ATOM     42  N   UNL     1       5.448   9.090  -2.196  1.00  0.00    -0.354 N 
ATOM     43  C   UNL     1       5.875  10.249   1.947  1.00  0.00     0.074 A 
ATOM     44  C   UNL     1       6.310   9.133   2.758  1.00  0.00     0.031 C 
ATOM     45  C   UNL     1       5.523   7.704  -3.947  1.00  0.00     0.029 A 
ATOM     46  C   UNL     1       5.202   9.073  -3.548  1.00  0.00     0.049 A 
ATOM     47  H   UNL     1       5.366   9.902  -1.644  1.00  0.00     0.167 HD
ATOM     48  C   UNL     1       5.697  11.508   2.416  1.00  0.00     0.037 A 
ATOM     49  C   UNL     1       4.745  10.044  -4.365  1.00  0.00     0.037 A 
ATOM     50  C   UNL     1       5.260  12.617   1.609  1.00  0.00     0.049 A 
ATOM     51  C   UNL     1       4.471  11.416  -3.800  1.00  0.00     0.074 A 
ATOM     52  C   UNL     1       5.028  13.926   1.998  1.00  0.00     0.029 A 
ATOM     53  N   UNL     1       4.994  12.553   0.250  1.00  0.00    -0.354 N 
ATOM     54  N   UNL     1       4.627  11.851  -2.572  1.00  0.00    -0.248 NA
ATOM     55  C   UNL     1       3.961  12.432  -4.734  1.00  0.00     0.031 C 
ATOM     56  C   UNL     1       4.585  14.643   0.882  1.00  0.00     0.029 A 
ATOM     57  C   UNL     1       4.589  13.794  -0.212  1.00  0.00     0.049 A 
ATOM     58  H   UNL     1       5.080  11.744  -0.305  1.00  0.00     0.167 HD
ATOM     59  C   UNL     1       4.268  13.196  -2.596  1.00  0.00     0.074 A 
ATOM     60  C   UNL     1       3.899  13.506  -3.960  1.00  0.00     0.031 C 
ATOM     61  C   UNL     1       4.245  14.093  -1.579  1.00  0.00     0.037 A 
BRANCH  48  62
ATOM     62  C   UNL     1       5.975  11.758   3.872  1.00  0.00     0.058 A 
ATOM     63  C   UNL     1       7.286  11.790   4.372  1.00  0.00     0.135 A 
ATOM     64  C   UNL     1       4.926  12.033   4.765  1.00  0.00     0.135 A 
ATOM     65  F   UNL     1       8.324  11.516   3.566  1.00  0.00    -0.206 F 
ATOM     66  C   UNL     1       7.548  12.074   5.709  1.00  0.00     0.059 A 
ATOM     67  C   UNL     1       5.166  12.344   6.100  1.00  0.00     0.059 A 
ATOM     68  F   UNL     1       3.653  12.012   4.339  1.00  0.00    -0.206 F 
ATOM     69  C   UNL     1       6.481  12.355   6.564  1.00  0.00     0.060 A 
BRANCH  69  70
ATOM     70  S   UNL     1       6.842  12.753   8.288  1.00  0.00     0.124 S 
ATOM     71  O   UNL     1       7.257  11.453   8.806  1.00  0.00    -0.237 OA
ATOM     72  O   UNL     1       7.899  13.751   8.162  1.00  0.00    -0.237 OA
ATOM     73  O   UNL     1       5.569  13.252   8.796  1.00  0.00    -0.744 OA
ENDBRANCH  69  70
ENDBRANCH  48  62
BRANCH  49  74
ATOM     74  C   UNL     1       4.478   9.756  -5.801  1.00  0.00     0.058 A 
ATOM     75  C   UNL     1       5.226  10.363  -6.820  1.00  0.00     0.135 A 
ATOM     76  C   UNL     1       3.430   8.902  -6.181  1.00  0.00     0.135 A 
ATOM     77  F   UNL     1       6.233  11.195  -6.509  1.00  0.00    -0.206 F 
ATOM     78  C   UNL     1       4.924  10.166  -8.164  1.00  0.00     0.059 A 
ATOM     79  C   UNL     1       3.128   8.665  -7.518  1.00  0.00     0.059 A 
ATOM     80  F   UNL     1       2.692   8.283  -5.247  1.00  0.00    -0.206 F 
ATOM     81  C   UNL     1       3.867   9.318  -8.502  1.00  0.00     0.060 A 
BRANCH  81  82
ATOM     82  S   UNL     1       3.480   9.062 -10.247  1.00  0.00     0.124 S 
ATOM     83  O   UNL     1       2.825  10.320 -10.589  1.00  0.00    -0.237 OA
ATOM     84  O   UNL     1       4.801   8.850 -10.828  1.00  0.00    -0.237 OA
ATOM     85  O   UNL     1       2.616   7.885 -10.227  1.00  0.00    -0.744 OA
ENDBRANCH  81  82
ENDBRANCH  49  74
BRANCH  61  86
ATOM     86  C   UNL     1       3.855  15.509  -1.908  1.00  0.00     0.058 A 
ATOM     87  C   UNL     1       2.530  15.862  -2.207  1.00  0.00     0.135 A 
ATOM     88  C   UNL     1       4.814  16.536  -1.870  1.00  0.00     0.135 A 
ATOM     89  F   UNL     1       1.576  14.919  -2.261  1.00  0.00    -0.206 F 
ATOM     90  C   UNL     1       2.173  17.178  -2.484  1.00  0.00     0.059 A 
ATOM     91  C   UNL     1       4.474  17.863  -2.115  1.00  0.00     0.059 A 
ATOM     92  F   UNL     1       6.093  16.255  -1.577  1.00  0.00    -0.206 F 
ATOM     93  C   UNL     1       3.153  18.172  -2.434  1.00  0.00     0.060 A 
BRANCH  93  94
ATOM     94  S   UNL     1       2.670  19.881  -2.763  1.00  0.00     0.124 S 
ATOM     95  O   UNL     1       2.474  19.857  -4.209  1.00  0.00    -0.237 OA
ATOM     96  O   UNL     1       1.458  20.023  -1.962  1.00  0.00    -0.237 OA
ATOM     97  O   UNL     1       3.817  20.654  -2.297  1.00  0.00    -0.744 OA
ENDBRANCH  93  94
ENDBRANCH  61  86
ENDBRANCH  35  36
ENDBRANCH  28  30
ENDBRANCH  27  28
ENDBRANCH  26  27
ENDBRANCH   1  26
TORSDOF 19
