REMARK SMILES COc1ccc([C@@H]2[C@H](C(=O)OCCOCCOC(=O)c3ccc(-c4c5nc(c(-c6c(F)cc(S(=O)(=O)[O-])cc6F)c6ccc([nH]6)c(-c6c(F)cc(S(=O)(=O)[O-])cc6F)c6nc(c(-c7c(F)cc(S(=O)(=O)[O-])cc7F)c7ccc4[nH]7)C=C6)C=C5)cc3)c3ccccc3C(=O)N2C2CC2)cc1
REMARK SMILES IDX 15 1 14 2 13 3 12 4 11 5 9 6 10 7 8 8 7 9 94 10 86 11 92 12
REMARK SMILES IDX 87 13 91 14 93 15 88 16 90 17 89 18 6 19 3 20 4 21 99 22
REMARK SMILES IDX 5 23 98 24 2 25 1 26 95 27 96 28 97 29 16 30 17 31 18 32
REMARK SMILES IDX 19 33 20 34 21 35 85 36 22 37 84 38 23 39 24 40 25 41 78 42
REMARK SMILES IDX 26 43 83 44 77 45 79 46 27 47 82 48 76 49 75 50 28 52 62 53
REMARK SMILES IDX 41 54 61 55 42 56 45 57 60 58 80 59 43 60 44 61 59 63 81 64
REMARK SMILES IDX 46 65 29 66 30 67 39 68 31 69 32 70 38 71 40 72 33 73 34 74
REMARK SMILES IDX 35 75 36 76 37 77 63 78 64 79 73 80 65 81 66 82 72 83 74 84
REMARK SMILES IDX 67 85 68 86 69 87 70 88 71 89 47 90 48 91 57 92 49 93 50 94
REMARK SMILES IDX 56 95 58 96 51 97 52 98 53 99 54 100 55 101
REMARK H PARENT 79 51 45 62
REMARK Flexibility Score: inf
ROOT
ATOM      1  C   UNL     1      -3.164  -8.859  -0.704  1.00  0.00     0.202 C 
ENDROOT
BRANCH   1   2
ATOM      2  O   UNL     1      -4.449  -8.337  -1.023  1.00  0.00    -0.374 OA
BRANCH   2   3
ATOM      3  C   UNL     1      -4.543  -7.590  -2.244  1.00  0.00     0.202 C 
BRANCH   3   4
ATOM      4  C   UNL     1      -3.716  -6.298  -2.311  1.00  0.00     0.261 C 
BRANCH   4   5
ATOM      5  O   UNL     1      -2.312  -6.582  -2.521  1.00  0.00    -0.463 OA
BRANCH   5   6
ATOM      6  C   UNL     1      -1.483  -5.511  -2.388  1.00  0.00     0.316 C 
ATOM      7  O   UNL     1      -1.889  -4.393  -2.089  1.00  0.00    -0.251 OA
BRANCH   6   8
ATOM      8  C   UNL     1      -0.024  -5.794  -2.729  1.00  0.00     0.157 C 
ATOM      9  C   UNL     1       1.000  -5.564  -1.577  1.00  0.00     0.135 C 
ATOM     10  N   UNL     1       1.349  -6.797  -0.882  1.00  0.00    -0.327 N 
ATOM     11  C   UNL     1       0.274  -7.134  -3.431  1.00  0.00    -0.019 A 
ATOM     12  C   UNL     1       1.950  -7.792  -1.642  1.00  0.00     0.254 C 
ATOM     13  C   UNL     1      -0.427  -7.507  -4.590  1.00  0.00     0.005 A 
ATOM     14  C   UNL     1       1.282  -8.009  -2.960  1.00  0.00     0.044 A 
ATOM     15  O   UNL     1       2.801  -8.563  -1.216  1.00  0.00    -0.269 OA
ATOM     16  C   UNL     1      -0.172  -8.730  -5.220  1.00  0.00     0.000 A 
ATOM     17  C   UNL     1       1.558  -9.215  -3.619  1.00  0.00     0.014 A 
ATOM     18  C   UNL     1       0.821  -9.580  -4.740  1.00  0.00     0.001 A 
BRANCH   9  19
ATOM     19  C   UNL     1       1.036  -4.313  -0.706  1.00  0.00    -0.024 A 
ATOM     20  C   UNL     1       1.182  -1.887   0.710  1.00  0.00     0.118 A 
ATOM     21  C   UNL     1       0.057  -2.691   0.831  1.00  0.00     0.047 A 
ATOM     22  C   UNL     1       2.290  -2.333   0.001  1.00  0.00     0.047 A 
ATOM     23  C   UNL     1      -0.016  -3.892   0.119  1.00  0.00     0.010 A 
ATOM     24  C   UNL     1       2.216  -3.537  -0.698  1.00  0.00     0.010 A 
BRANCH  20  25
ATOM     25  O   UNL     1       1.149  -0.639   1.269  1.00  0.00    -0.497 OA
ATOM     26  C   UNL     1       1.191   0.346   0.230  1.00  0.00     0.278 C 
ENDBRANCH  20  25
ENDBRANCH   9  19
BRANCH  10  27
ATOM     27  C   UNL     1       0.813  -7.181   0.397  1.00  0.00     0.086 C 
ATOM     28  C   UNL     1      -0.636  -7.082   0.792  1.00  0.00     0.027 C 
ATOM     29  C   UNL     1      -0.083  -8.406   0.388  1.00  0.00     0.027 C 
ENDBRANCH  10  27
ENDBRANCH   6   8
ENDBRANCH   5   6
ENDBRANCH   4   5
ENDBRANCH   3   4
ENDBRANCH   2   3
ENDBRANCH   1   2
BRANCH   1  30
ATOM     30  C   UNL     1      -2.751 -10.195  -1.334  1.00  0.00     0.261 C 
BRANCH  30  31
ATOM     31  O   UNL     1      -3.264 -10.362  -2.649  1.00  0.00    -0.460 OA
BRANCH  31  32
ATOM     32  C   UNL     1      -4.442 -11.029  -2.655  1.00  0.00     0.338 C 
ATOM     33  O   UNL     1      -4.978 -11.607  -1.732  1.00  0.00    -0.246 OA
BRANCH  32  34
ATOM     34  C   UNL     1      -5.091 -10.793  -3.947  1.00  0.00     0.060 A 
ATOM     35  C   UNL     1      -6.407 -10.325  -3.907  1.00  0.00     0.016 A 
ATOM     36  C   UNL     1      -4.443 -11.064  -5.154  1.00  0.00     0.016 A 
ATOM     37  C   UNL     1      -7.120 -10.207  -5.088  1.00  0.00     0.010 A 
ATOM     38  C   UNL     1      -5.161 -10.941  -6.340  1.00  0.00     0.010 A 
ATOM     39  C   UNL     1      -6.514 -10.565  -6.299  1.00  0.00    -0.014 A 
BRANCH  39  40
ATOM     40  C   UNL     1      -7.364 -10.720  -7.494  1.00  0.00     0.031 A 
ATOM     41  C   UNL     1      -7.781 -12.105  -7.896  1.00  0.00     0.074 A 
ATOM     42  C   UNL     1      -7.794  -9.634  -8.156  1.00  0.00     0.049 A 
ATOM     43  N   UNL     1      -8.511 -12.487  -8.909  1.00  0.00    -0.248 NA
ATOM     44  C   UNL     1      -7.308 -13.211  -7.045  1.00  0.00     0.031 C 
ATOM     45  C   UNL     1      -7.475  -8.250  -7.800  1.00  0.00     0.029 A 
ATOM     46  N   UNL     1      -8.591  -9.524  -9.261  1.00  0.00    -0.354 N 
ATOM     47  C   UNL     1      -8.579 -13.873  -8.822  1.00  0.00     0.074 A 
ATOM     48  C   UNL     1      -7.787 -14.270  -7.681  1.00  0.00     0.031 C 
ATOM     49  C   UNL     1      -8.072  -7.428  -8.678  1.00  0.00     0.029 A 
ATOM     50  C   UNL     1      -8.779  -8.229  -9.675  1.00  0.00     0.049 A 
ATOM     51  H   UNL     1      -8.992 -10.300  -9.717  1.00  0.00     0.167 HD
ATOM     52  C   UNL     1      -9.252 -14.730  -9.623  1.00  0.00     0.037 A 
ATOM     53  C   UNL     1      -9.430  -7.753 -10.752  1.00  0.00     0.037 A 
ATOM     54  C   UNL     1     -10.037 -14.305 -10.752  1.00  0.00     0.049 A 
ATOM     55  C   UNL     1     -10.117  -8.732 -11.667  1.00  0.00     0.074 A 
ATOM     56  C   UNL     1     -10.776 -15.078 -11.628  1.00  0.00     0.029 A 
ATOM     57  N   UNL     1     -10.178 -12.986 -11.163  1.00  0.00    -0.354 N 
ATOM     58  N   UNL     1     -10.190 -10.040 -11.568  1.00  0.00    -0.248 NA
ATOM     59  C   UNL     1     -10.811  -8.177 -12.834  1.00  0.00     0.031 C 
ATOM     60  C   UNL     1     -11.312 -14.234 -12.605  1.00  0.00     0.029 A 
ATOM     61  C   UNL     1     -10.966 -12.926 -12.299  1.00  0.00     0.049 A 
ATOM     62  H   UNL     1      -9.776 -12.208 -10.713  1.00  0.00     0.167 HD
ATOM     63  C   UNL     1     -10.964 -10.461 -12.644  1.00  0.00     0.074 A 
ATOM     64  C   UNL     1     -11.343  -9.266 -13.372  1.00  0.00     0.031 C 
ATOM     65  C   UNL     1     -11.331 -11.718 -12.999  1.00  0.00     0.037 A 
BRANCH  52  66
ATOM     66  C   UNL     1      -9.141 -16.201  -9.329  1.00  0.00     0.058 A 
ATOM     67  C   UNL     1      -9.726 -16.782  -8.193  1.00  0.00     0.135 A 
ATOM     68  C   UNL     1      -8.457 -17.049 -10.216  1.00  0.00     0.135 A 
ATOM     69  F   UNL     1     -10.371 -16.017  -7.298  1.00  0.00    -0.206 F 
ATOM     70  C   UNL     1      -9.618 -18.146  -7.934  1.00  0.00     0.059 A 
ATOM     71  C   UNL     1      -8.364 -18.420  -9.994  1.00  0.00     0.059 A 
ATOM     72  F   UNL     1      -7.871 -16.548 -11.314  1.00  0.00    -0.206 F 
ATOM     73  C   UNL     1      -8.937 -18.957  -8.844  1.00  0.00     0.060 A 
BRANCH  73  74
ATOM     74  S   UNL     1      -8.819 -20.726  -8.501  1.00  0.00     0.124 S 
ATOM     75  O   UNL     1      -7.896 -20.743  -7.370  1.00  0.00    -0.237 OA
ATOM     76  O   UNL     1     -10.202 -21.077  -8.196  1.00  0.00    -0.237 OA
ATOM     77  O   UNL     1      -8.294 -21.280  -9.745  1.00  0.00    -0.744 OA
ENDBRANCH  73  74
ENDBRANCH  52  66
BRANCH  53  78
ATOM     78  C   UNL     1      -9.450  -6.292 -11.022  1.00  0.00     0.058 A 
ATOM     79  C   UNL     1     -10.636  -5.550 -10.929  1.00  0.00     0.135 A 
ATOM     80  C   UNL     1      -8.274  -5.603 -11.362  1.00  0.00     0.135 A 
ATOM     81  F   UNL     1     -11.786  -6.162 -10.612  1.00  0.00    -0.206 F 
ATOM     82  C   UNL     1     -10.660  -4.181 -11.179  1.00  0.00     0.059 A 
ATOM     83  C   UNL     1      -8.267  -4.231 -11.587  1.00  0.00     0.059 A 
ATOM     84  F   UNL     1      -7.107  -6.262 -11.448  1.00  0.00    -0.206 F 
ATOM     85  C   UNL     1      -9.469  -3.530 -11.504  1.00  0.00     0.060 A 
BRANCH  85  86
ATOM     86  S   UNL     1      -9.505  -1.746 -11.781  1.00  0.00     0.124 S 
ATOM     87  O   UNL     1     -10.208  -1.661 -13.055  1.00  0.00    -0.237 OA
ATOM     88  O   UNL     1     -10.238  -1.272 -10.612  1.00  0.00    -0.237 OA
ATOM     89  O   UNL     1      -8.091  -1.383 -11.814  1.00  0.00    -0.744 OA
ENDBRANCH  85  86
ENDBRANCH  53  78
BRANCH  65  90
ATOM     90  C   UNL     1     -12.219 -11.863 -14.204  1.00  0.00     0.058 A 
ATOM     91  C   UNL     1     -11.741 -11.649 -15.505  1.00  0.00     0.135 A 
ATOM     92  C   UNL     1     -13.551 -12.283 -14.053  1.00  0.00     0.135 A 
ATOM     93  F   UNL     1     -10.477 -11.241 -15.703  1.00  0.00    -0.206 F 
ATOM     94  C   UNL     1     -12.559 -11.825 -16.616  1.00  0.00     0.059 A 
ATOM     95  C   UNL     1     -14.377 -12.498 -15.151  1.00  0.00     0.059 A 
ATOM     96  F   UNL     1     -14.054 -12.512 -12.830  1.00  0.00    -0.206 F 
ATOM     97  C   UNL     1     -13.874 -12.255 -16.428  1.00  0.00     0.060 A 
BRANCH  97  98
ATOM     98  S   UNL     1     -14.911 -12.518 -17.881  1.00  0.00     0.124 S 
ATOM     99  O   UNL     1     -15.158 -11.148 -18.318  1.00  0.00    -0.237 OA
ATOM    100  O   UNL     1     -14.041 -13.312 -18.744  1.00  0.00    -0.237 OA
ATOM    101  O   UNL     1     -16.071 -13.226 -17.348  1.00  0.00    -0.744 OA
ENDBRANCH  97  98
ENDBRANCH  65  90
ENDBRANCH  39  40
ENDBRANCH  32  34
ENDBRANCH  31  32
ENDBRANCH  30  31
ENDBRANCH   1  30
TORSDOF 20
