REMARK SMILES C[C@H](C(=O)OCCOCCOC(=O)c1ccc(-c2c3nc(c(-c4c(F)cc(S(=O)(=O)[O-])cc4F)c4ccc([nH]4)c(-c4c(F)cc(S(=O)(=O)[O-])cc4F)c4nc(c(-c5c(F)cc(S(=O)(=O)[O-])cc5F)c5ccc2[nH]5)C=C4)C=C3)cc1)[C@H](C)c1ccoc1
REMARK SMILES IDX 9 1 8 2 7 3 6 4 5 5 3 6 4 7 2 8 1 9 80 10 81 11 82 12 83 13
REMARK SMILES IDX 86 14 84 15 85 16 10 17 11 18 12 19 13 20 14 21 15 22 79 23
REMARK SMILES IDX 16 24 78 25 17 26 18 27 19 28 72 29 20 30 77 31 71 32 73 33
REMARK SMILES IDX 21 34 76 35 70 36 69 37 22 39 56 40 35 41 55 42 36 43 39 44
REMARK SMILES IDX 54 45 74 46 37 47 38 48 53 50 75 51 40 52 23 53 24 54 33 55
REMARK SMILES IDX 25 56 26 57 32 58 34 59 27 60 28 61 29 62 30 63 31 64 57 65
REMARK SMILES IDX 58 66 67 67 59 68 60 69 66 70 68 71 61 72 62 73 63 74 64 75
REMARK SMILES IDX 65 76 41 77 42 78 51 79 43 80 44 81 50 82 52 83 45 84 46 85
REMARK SMILES IDX 47 86 48 87 49 88
REMARK H PARENT 73 38 39 49
REMARK Flexibility Score: inf
ROOT
ATOM      1  C   UNL     1       2.296  -0.846  -0.495  1.00  0.00     0.202 C 
ENDROOT
BRANCH   1   2
ATOM      2  O   UNL     1       2.915  -1.897  -1.226  1.00  0.00    -0.374 OA
BRANCH   2   3
ATOM      3  C   UNL     1       2.120  -2.527  -2.239  1.00  0.00     0.202 C 
BRANCH   3   4
ATOM      4  C   UNL     1       0.963  -3.410  -1.753  1.00  0.00     0.261 C 
BRANCH   4   5
ATOM      5  O   UNL     1      -0.152  -2.608  -1.311  1.00  0.00    -0.463 OA
BRANCH   5   6
ATOM      6  C   UNL     1      -0.534  -2.736  -0.005  1.00  0.00     0.309 C 
ATOM      7  O   UNL     1      -0.039  -3.519   0.790  1.00  0.00    -0.252 OA
BRANCH   6   8
ATOM      8  C   UNL     1      -1.652  -1.747   0.303  1.00  0.00     0.103 C 
ATOM      9  C   UNL     1      -2.993  -2.465   0.179  1.00  0.00     0.020 C 
BRANCH   8  10
ATOM     10  C   UNL     1      -1.502  -0.930   1.615  1.00  0.00     0.033 C 
ATOM     11  C   UNL     1      -0.136  -0.253   1.766  1.00  0.00     0.014 C 
BRANCH  10  12
ATOM     12  C   UNL     1      -1.865  -1.596   2.915  1.00  0.00    -0.006 A 
ATOM     13  C   UNL     1      -1.556  -2.896   3.401  1.00  0.00     0.046 A 
ATOM     14  C   UNL     1      -2.521  -0.974   3.963  1.00  0.00     0.198 A 
ATOM     15  C   UNL     1      -2.042  -2.966   4.684  1.00  0.00     0.195 A 
ATOM     16  O   UNL     1      -2.632  -1.798   5.033  1.00  0.00    -0.472 OA
ENDBRANCH  10  12
ENDBRANCH   8  10
ENDBRANCH   6   8
ENDBRANCH   5   6
ENDBRANCH   4   5
ENDBRANCH   3   4
ENDBRANCH   2   3
ENDBRANCH   1   2
BRANCH   1  17
ATOM     17  C   UNL     1       2.340   0.565  -1.094  1.00  0.00     0.261 C 
BRANCH  17  18
ATOM     18  O   UNL     1       1.944   0.587  -2.465  1.00  0.00    -0.460 OA
BRANCH  18  19
ATOM     19  C   UNL     1       2.993   0.551  -3.318  1.00  0.00     0.338 C 
ATOM     20  O   UNL     1       4.181   0.619  -3.040  1.00  0.00    -0.246 OA
BRANCH  19  21
ATOM     21  C   UNL     1       2.504   0.238  -4.665  1.00  0.00     0.060 A 
ATOM     22  C   UNL     1       3.116  -0.829  -5.332  1.00  0.00     0.016 A 
ATOM     23  C   UNL     1       1.505   0.999  -5.277  1.00  0.00     0.016 A 
ATOM     24  C   UNL     1       2.774  -1.101  -6.649  1.00  0.00     0.010 A 
ATOM     25  C   UNL     1       1.166   0.727  -6.601  1.00  0.00     0.010 A 
ATOM     26  C   UNL     1       1.833  -0.294  -7.301  1.00  0.00    -0.014 A 
BRANCH  26  27
ATOM     27  C   UNL     1       1.686  -0.412  -8.765  1.00  0.00     0.031 A 
ATOM     28  C   UNL     1       2.391   0.588  -9.637  1.00  0.00     0.074 A 
ATOM     29  C   UNL     1       0.976  -1.422  -9.294  1.00  0.00     0.049 A 
ATOM     30  N   UNL     1       2.404   0.688 -10.939  1.00  0.00    -0.248 NA
ATOM     31  C   UNL     1       3.188   1.618  -8.947  1.00  0.00     0.031 C 
ATOM     32  C   UNL     1       0.290  -2.462  -8.527  1.00  0.00     0.029 A 
ATOM     33  N   UNL     1       0.715  -1.739 -10.601  1.00  0.00    -0.354 N 
ATOM     34  C   UNL     1       3.199   1.792 -11.224  1.00  0.00     0.074 A 
ATOM     35  C   UNL     1       3.624   2.350  -9.961  1.00  0.00     0.031 C 
ATOM     36  C   UNL     1      -0.317  -3.304  -9.380  1.00  0.00     0.029 A 
ATOM     37  C   UNL     1      -0.090  -2.842 -10.748  1.00  0.00     0.049 A 
ATOM     38  H   UNL     1       1.071  -1.226 -11.361  1.00  0.00     0.167 HD
ATOM     39  C   UNL     1       3.547   2.285 -12.435  1.00  0.00     0.037 A 
ATOM     40  C   UNL     1      -0.598  -3.399 -11.864  1.00  0.00     0.037 A 
ATOM     41  C   UNL     1       3.116   1.708 -13.681  1.00  0.00     0.049 A 
ATOM     42  C   UNL     1      -0.242  -2.795 -13.198  1.00  0.00     0.074 A 
ATOM     43  C   UNL     1       3.423   2.110 -14.968  1.00  0.00     0.029 A 
ATOM     44  N   UNL     1       2.275   0.609 -13.793  1.00  0.00    -0.354 N 
ATOM     45  N   UNL     1       0.531  -1.767 -13.458  1.00  0.00    -0.248 NA
ATOM     46  C   UNL     1      -0.823  -3.428 -14.389  1.00  0.00     0.031 C 
ATOM     47  C   UNL     1       2.722   1.289 -15.857  1.00  0.00     0.029 A 
ATOM     48  C   UNL     1       2.028   0.336 -15.127  1.00  0.00     0.049 A 
ATOM     49  H   UNL     1       1.908   0.099 -13.035  1.00  0.00     0.167 HD
ATOM     50  C   UNL     1       0.554  -1.648 -14.844  1.00  0.00     0.074 A 
ATOM     51  C   UNL     1      -0.274  -2.717 -15.364  1.00  0.00     0.031 C 
ATOM     52  C   UNL     1       1.203  -0.741 -15.617  1.00  0.00     0.037 A 
BRANCH  39  53
ATOM     53  C   UNL     1       4.406   3.520 -12.469  1.00  0.00     0.058 A 
ATOM     54  C   UNL     1       5.756   3.501 -12.084  1.00  0.00     0.135 A 
ATOM     55  C   UNL     1       3.875   4.739 -12.923  1.00  0.00     0.135 A 
ATOM     56  F   UNL     1       6.311   2.369 -11.620  1.00  0.00    -0.206 F 
ATOM     57  C   UNL     1       6.542   4.648 -12.126  1.00  0.00     0.059 A 
ATOM     58  C   UNL     1       4.650   5.892 -13.001  1.00  0.00     0.059 A 
ATOM     59  F   UNL     1       2.588   4.818 -13.296  1.00  0.00    -0.206 F 
ATOM     60  C   UNL     1       5.980   5.839 -12.588  1.00  0.00     0.060 A 
BRANCH  60  61
ATOM     61  S   UNL     1       7.017   7.316 -12.650  1.00  0.00     0.124 S 
ATOM     62  O   UNL     1       7.165   7.628 -11.232  1.00  0.00    -0.237 OA
ATOM     63  O   UNL     1       8.217   6.826 -13.320  1.00  0.00    -0.237 OA
ATOM     64  O   UNL     1       6.216   8.263 -13.420  1.00  0.00    -0.744 OA
ENDBRANCH  60  61
ENDBRANCH  39  53
BRANCH  40  65
ATOM     65  C   UNL     1      -1.493  -4.582 -11.765  1.00  0.00     0.058 A 
ATOM     66  C   UNL     1      -1.090  -5.840 -12.235  1.00  0.00     0.135 A 
ATOM     67  C   UNL     1      -2.770  -4.479 -11.190  1.00  0.00     0.135 A 
ATOM     68  F   UNL     1       0.119  -5.990 -12.798  1.00  0.00    -0.206 F 
ATOM     69  C   UNL     1      -1.924  -6.951 -12.154  1.00  0.00     0.059 A 
ATOM     70  C   UNL     1      -3.612  -5.580 -11.073  1.00  0.00     0.059 A 
ATOM     71  F   UNL     1      -3.201  -3.301 -10.712  1.00  0.00    -0.206 F 
ATOM     72  C   UNL     1      -3.183  -6.811 -11.568  1.00  0.00     0.060 A 
BRANCH  72  73
ATOM     73  S   UNL     1      -4.240  -8.268 -11.428  1.00  0.00     0.124 S 
ATOM     74  O   UNL     1      -4.634  -8.480 -12.816  1.00  0.00    -0.237 OA
ATOM     75  O   UNL     1      -3.325  -9.256 -10.865  1.00  0.00    -0.237 OA
ATOM     76  O   UNL     1      -5.304  -7.826 -10.531  1.00  0.00    -0.744 OA
ENDBRANCH  72  73
ENDBRANCH  40  65
BRANCH  52  77
ATOM     77  C   UNL     1       1.074  -0.888 -17.108  1.00  0.00     0.058 A 
ATOM     78  C   UNL     1      -0.120  -0.586 -17.781  1.00  0.00     0.135 A 
ATOM     79  C   UNL     1       2.180  -1.283 -17.878  1.00  0.00     0.135 A 
ATOM     80  F   UNL     1      -1.209  -0.210 -17.092  1.00  0.00    -0.206 F 
ATOM     81  C   UNL     1      -0.220  -0.696 -19.164  1.00  0.00     0.059 A 
ATOM     82  C   UNL     1       2.112  -1.368 -19.264  1.00  0.00     0.059 A 
ATOM     83  F   UNL     1       3.350  -1.571 -17.285  1.00  0.00    -0.206 F 
ATOM     84  C   UNL     1       0.903  -1.084 -19.897  1.00  0.00     0.060 A 
BRANCH  84  85
ATOM     85  S   UNL     1       0.768  -1.190 -21.694  1.00  0.00     0.124 S 
ATOM     86  O   UNL     1      -0.040  -2.393 -21.857  1.00  0.00    -0.237 OA
ATOM     87  O   UNL     1       0.108   0.068 -22.031  1.00  0.00    -0.237 OA
ATOM     88  O   UNL     1       2.155  -1.300 -22.134  1.00  0.00    -0.744 OA
ENDBRANCH  84  85
ENDBRANCH  52  77
ENDBRANCH  26  27
ENDBRANCH  19  21
ENDBRANCH  18  19
ENDBRANCH  17  18
ENDBRANCH   1  17
TORSDOF 19
