REMARK SMILES O=C(CCCc1nc(-c2ccc(Cl)c(Cl)c2)c(-c2ccccc2)o1)OCCOCCOC(=O)c1ccc(-c2c3nc(c(-c4c(F)cc(S(=O)(=O)[O-])cc4F)c4ccc([nH]4)c(-c4c(F)cc(S(=O)(=O)[O-])cc4F)c4nc(c(-c5c(F)cc(S(=O)(=O)[O-])cc5F)c5ccc2[nH]5)C=C4)C=C3)cc1
REMARK SMILES IDX 27 1 26 2 25 3 2 4 1 5 3 6 4 7 5 8 6 9 7 10 24 11 8 12 17 13
REMARK SMILES IDX 9 14 10 15 16 16 11 17 14 18 12 19 15 20 13 21 18 22 19 23
REMARK SMILES IDX 23 24 20 25 22 26 21 27 28 28 29 29 30 30 31 31 32 32 33 33
REMARK SMILES IDX 34 34 35 35 99 36 36 37 98 38 37 39 38 40 39 41 92 42 40 43
REMARK SMILES IDX 97 44 91 45 93 46 41 47 96 48 90 49 89 50 42 52 76 53 55 54
REMARK SMILES IDX 75 55 56 56 59 57 74 58 94 59 57 60 58 61 73 63 95 64 60 65
REMARK SMILES IDX 43 66 44 67 53 68 45 69 46 70 52 71 54 72 47 73 48 74 49 75
REMARK SMILES IDX 50 76 51 77 77 78 78 79 87 80 79 81 80 82 86 83 88 84 81 85
REMARK SMILES IDX 82 86 83 87 84 88 85 89 61 90 62 91 71 92 63 93 64 94 70 95
REMARK SMILES IDX 72 96 65 97 66 98 67 99 68 100 69 101
REMARK H PARENT 93 51 59 62
REMARK Flexibility Score: inf
ROOT
ATOM      1  C   UNL     1       3.344  -0.458  -1.483  1.00  0.00     0.202 C 
ENDROOT
BRANCH   1   2
ATOM      2  C   UNL     1       3.832  -1.376  -0.367  1.00  0.00     0.261 C 
BRANCH   2   3
ATOM      3  O   UNL     1       3.158  -1.331   0.898  1.00  0.00    -0.463 OA
BRANCH   3   4
ATOM      4  C   UNL     1       2.577  -0.177   1.280  1.00  0.00     0.305 C 
ATOM      5  O   UNL     1       1.358  -0.035   1.246  1.00  0.00    -0.252 OA
BRANCH   4   6
ATOM      6  C   UNL     1       3.507   0.902   1.801  1.00  0.00     0.123 C 
BRANCH   6   7
ATOM      7  C   UNL     1       4.718   0.494   2.635  1.00  0.00     0.021 C 
BRANCH   7   8
ATOM      8  C   UNL     1       5.953  -0.098   1.949  1.00  0.00     0.098 C 
BRANCH   8   9
ATOM      9  C   UNL     1       6.545   0.614   0.771  1.00  0.00     0.195 A 
ATOM     10  N   UNL     1       7.380   0.104  -0.122  1.00  0.00    -0.213 NA
ATOM     11  O   UNL     1       6.273   1.947   0.591  1.00  0.00    -0.440 OA
ATOM     12  C   UNL     1       7.699   1.171  -0.928  1.00  0.00     0.117 A 
ATOM     13  C   UNL     1       6.985   2.284  -0.535  1.00  0.00     0.162 A 
BRANCH  12  14
ATOM     14  C   UNL     1       8.677   1.143  -2.001  1.00  0.00     0.006 A 
ATOM     15  C   UNL     1       8.359   0.577  -3.235  1.00  0.00     0.012 A 
ATOM     16  C   UNL     1       9.925   1.752  -1.854  1.00  0.00     0.032 A 
ATOM     17  C   UNL     1       9.254   0.591  -4.306  1.00  0.00     0.023 A 
ATOM     18  C   UNL     1      10.827   1.790  -2.928  1.00  0.00     0.060 A 
ATOM     19  C   UNL     1      10.493   1.205  -4.156  1.00  0.00     0.059 A 
ATOM     20  Cl  UNL     1      12.332   2.603  -2.680  1.00  0.00    -0.083 Cl
ATOM     21  Cl  UNL     1      11.545   1.233  -5.524  1.00  0.00    -0.083 Cl
ENDBRANCH  12  14
BRANCH  13  22
ATOM     22  C   UNL     1       6.867   3.639  -1.039  1.00  0.00     0.020 A 
ATOM     23  C   UNL     1       7.027   4.741  -0.195  1.00  0.00     0.012 A 
ATOM     24  C   UNL     1       6.671   3.860  -2.411  1.00  0.00     0.012 A 
ATOM     25  C   UNL     1       7.019   6.037  -0.720  1.00  0.00     0.001 A 
ATOM     26  C   UNL     1       6.654   5.152  -2.934  1.00  0.00     0.001 A 
ATOM     27  C   UNL     1       6.837   6.241  -2.088  1.00  0.00     0.000 A 
ENDBRANCH  13  22
ENDBRANCH   8   9
ENDBRANCH   7   8
ENDBRANCH   6   7
ENDBRANCH   4   6
ENDBRANCH   3   4
ENDBRANCH   2   3
ENDBRANCH   1   2
BRANCH   1  28
ATOM     28  O   UNL     1       3.197   0.911  -1.129  1.00  0.00    -0.374 OA
BRANCH  28  29
ATOM     29  C   UNL     1       2.153   1.563  -1.864  1.00  0.00     0.202 C 
BRANCH  29  30
ATOM     30  C   UNL     1       2.542   1.939  -3.300  1.00  0.00     0.261 C 
BRANCH  30  31
ATOM     31  O   UNL     1       2.872   0.771  -4.080  1.00  0.00    -0.460 OA
BRANCH  31  32
ATOM     32  C   UNL     1       4.151   0.708  -4.506  1.00  0.00     0.338 C 
ATOM     33  O   UNL     1       5.013   1.581  -4.413  1.00  0.00    -0.246 OA
BRANCH  32  34
ATOM     34  C   UNL     1       4.489  -0.659  -4.925  1.00  0.00     0.060 A 
ATOM     35  C   UNL     1       5.462  -1.337  -4.181  1.00  0.00     0.016 A 
ATOM     36  C   UNL     1       3.948  -1.243  -6.066  1.00  0.00     0.016 A 
ATOM     37  C   UNL     1       5.978  -2.545  -4.611  1.00  0.00     0.010 A 
ATOM     38  C   UNL     1       4.428  -2.492  -6.474  1.00  0.00     0.010 A 
ATOM     39  C   UNL     1       5.464  -3.132  -5.764  1.00  0.00    -0.014 A 
BRANCH  39  40
ATOM     40  C   UNL     1       6.055  -4.395  -6.250  1.00  0.00     0.031 A 
ATOM     41  C   UNL     1       6.835  -4.386  -7.530  1.00  0.00     0.074 A 
ATOM     42  C   UNL     1       5.909  -5.523  -5.531  1.00  0.00     0.049 A 
ATOM     43  N   UNL     1       7.235  -5.392  -8.256  1.00  0.00    -0.248 NA
ATOM     44  C   UNL     1       7.212  -3.066  -8.066  1.00  0.00     0.031 C 
ATOM     45  C   UNL     1       5.258  -5.615  -4.220  1.00  0.00     0.029 A 
ATOM     46  N   UNL     1       6.282  -6.813  -5.807  1.00  0.00    -0.354 N 
ATOM     47  C   UNL     1       7.860  -4.832  -9.362  1.00  0.00     0.074 A 
ATOM     48  C   UNL     1       7.807  -3.396  -9.204  1.00  0.00     0.031 C 
ATOM     49  C   UNL     1       5.256  -6.896  -3.819  1.00  0.00     0.029 A 
ATOM     50  C   UNL     1       5.825  -7.719  -4.879  1.00  0.00     0.049 A 
ATOM     51  H   UNL     1       6.823  -7.065  -6.590  1.00  0.00     0.167 HD
ATOM     52  C   UNL     1       8.410  -5.474 -10.417  1.00  0.00     0.037 A 
ATOM     53  C   UNL     1       5.797  -9.065  -4.920  1.00  0.00     0.037 A 
ATOM     54  C   UNL     1       8.483  -6.908 -10.521  1.00  0.00     0.049 A 
ATOM     55  C   UNL     1       6.344  -9.753  -6.140  1.00  0.00     0.074 A 
ATOM     56  C   UNL     1       9.043  -7.671 -11.529  1.00  0.00     0.029 A 
ATOM     57  N   UNL     1       7.982  -7.793  -9.577  1.00  0.00    -0.354 N 
ATOM     58  N   UNL     1       6.897  -9.222  -7.205  1.00  0.00    -0.248 NA
ATOM     59  C   UNL     1       6.241 -11.217  -6.180  1.00  0.00     0.031 C 
ATOM     60  C   UNL     1       8.837  -9.019 -11.217  1.00  0.00     0.029 A 
ATOM     61  C   UNL     1       8.188  -9.095  -9.994  1.00  0.00     0.049 A 
ATOM     62  H   UNL     1       7.543  -7.532  -8.735  1.00  0.00     0.167 HD
ATOM     63  C   UNL     1       7.212 -10.286  -8.040  1.00  0.00     0.074 A 
ATOM     64  C   UNL     1       6.811 -11.493  -7.345  1.00  0.00     0.031 C 
ATOM     65  C   UNL     1       7.774 -10.272  -9.274  1.00  0.00     0.037 A 
BRANCH  52  66
ATOM     66  C   UNL     1       8.926  -4.652 -11.561  1.00  0.00     0.058 A 
ATOM     67  C   UNL     1      10.140  -3.954 -11.494  1.00  0.00     0.135 A 
ATOM     68  C   UNL     1       8.220  -4.625 -12.776  1.00  0.00     0.135 A 
ATOM     69  F   UNL     1      10.841  -3.925 -10.349  1.00  0.00    -0.206 F 
ATOM     70  C   UNL     1      10.640  -3.260 -12.593  1.00  0.00     0.059 A 
ATOM     71  C   UNL     1       8.709  -3.956 -13.892  1.00  0.00     0.059 A 
ATOM     72  F   UNL     1       7.045  -5.265 -12.887  1.00  0.00    -0.206 F 
ATOM     73  C   UNL     1       9.921  -3.274 -13.791  1.00  0.00     0.060 A 
BRANCH  73  74
ATOM     74  S   UNL     1      10.607  -2.415 -15.223  1.00  0.00     0.124 S 
ATOM     75  O   UNL     1      10.406  -1.018 -14.850  1.00  0.00    -0.237 OA
ATOM     76  O   UNL     1      11.991  -2.877 -15.230  1.00  0.00    -0.237 OA
ATOM     77  O   UNL     1       9.784  -2.891 -16.332  1.00  0.00    -0.744 OA
ENDBRANCH  73  74
ENDBRANCH  52  66
BRANCH  53  78
ATOM     78  C   UNL     1       5.138  -9.835  -3.832  1.00  0.00     0.058 A 
ATOM     79  C   UNL     1       5.873 -10.675  -2.985  1.00  0.00     0.135 A 
ATOM     80  C   UNL     1       3.750  -9.751  -3.625  1.00  0.00     0.135 A 
ATOM     81  F   UNL     1       7.199 -10.797  -3.147  1.00  0.00    -0.206 F 
ATOM     82  C   UNL     1       5.255 -11.422  -1.986  1.00  0.00     0.059 A 
ATOM     83  C   UNL     1       3.115 -10.464  -2.615  1.00  0.00     0.059 A 
ATOM     84  F   UNL     1       3.001  -8.950  -4.399  1.00  0.00    -0.206 F 
ATOM     85  C   UNL     1       3.874 -11.311  -1.810  1.00  0.00     0.060 A 
BRANCH  85  86
ATOM     86  S   UNL     1       3.082 -12.265  -0.498  1.00  0.00     0.124 S 
ATOM     87  O   UNL     1       3.058 -13.601  -1.082  1.00  0.00    -0.237 OA
ATOM     88  O   UNL     1       4.000 -12.073   0.621  1.00  0.00    -0.237 OA
ATOM     89  O   UNL     1       1.783 -11.614  -0.350  1.00  0.00    -0.744 OA
ENDBRANCH  85  86
ENDBRANCH  53  78
BRANCH  65  90
ATOM     90  C   UNL     1       7.994 -11.599  -9.937  1.00  0.00     0.058 A 
ATOM     91  C   UNL     1       6.929 -12.316 -10.502  1.00  0.00     0.135 A 
ATOM     92  C   UNL     1       9.289 -12.128 -10.060  1.00  0.00     0.135 A 
ATOM     93  F   UNL     1       5.673 -11.854 -10.399  1.00  0.00    -0.206 F 
ATOM     94  C   UNL     1       7.139 -13.524 -11.155  1.00  0.00     0.059 A 
ATOM     95  C   UNL     1       9.524 -13.321 -10.732  1.00  0.00     0.059 A 
ATOM     96  F   UNL     1      10.339 -11.471  -9.543  1.00  0.00    -0.206 F 
ATOM     97  C   UNL     1       8.441 -14.017 -11.268  1.00  0.00     0.060 A 
BRANCH  97  98
ATOM     98  S   UNL     1       8.705 -15.564 -12.159  1.00  0.00     0.124 S 
ATOM     99  O   UNL     1       8.221 -16.544 -11.192  1.00  0.00    -0.237 OA
ATOM    100  O   UNL     1       7.878 -15.385 -13.349  1.00  0.00    -0.237 OA
ATOM    101  O   UNL     1      10.145 -15.575 -12.399  1.00  0.00    -0.744 OA
ENDBRANCH  97  98
ENDBRANCH  65  90
ENDBRANCH  39  40
ENDBRANCH  32  34
ENDBRANCH  31  32
ENDBRANCH  30  31
ENDBRANCH  29  30
ENDBRANCH  28  29
ENDBRANCH   1  28
TORSDOF 22
