REMARK SMILES Cc1cc(C[N@H+]2CCN(C)C(=O)C2(C)C)oc1C(=O)OCCOCCOC(=O)c1ccc(-c2c3nc(c(-c4c(F)cc(S(=O)(=O)[O-])cc4F)c4ccc([nH]4)c(-c4c(F)cc(S(=O)(=O)[O-])cc4F)c4nc(c(-c5c(F)cc(S(=O)(=O)[O-])cc5F)c5ccc2[nH]5)C=C4)C=C3)cc1
REMARK SMILES IDX 24 1 23 2 22 3 21 4 20 5 18 6 19 7 17 8 1 9 2 10 3 11 4 12
REMARK SMILES IDX 16 13 5 14 6 15 7 16 13 17 8 19 11 20 14 21 15 22 9 23 12 24
REMARK SMILES IDX 10 25 25 26 26 27 27 28 28 29 29 30 30 31 94 32 31 33 93 34
REMARK SMILES IDX 32 35 33 36 34 37 87 38 35 39 92 40 86 41 88 42 36 43 91 44
REMARK SMILES IDX 85 45 84 46 37 48 71 49 50 50 70 51 51 52 54 53 69 54 89 55
REMARK SMILES IDX 52 56 53 57 68 59 90 60 55 61 38 62 39 63 48 64 40 65 41 66
REMARK SMILES IDX 47 67 49 68 42 69 43 70 44 71 45 72 46 73 72 74 73 75 82 76
REMARK SMILES IDX 74 77 75 78 81 79 83 80 76 81 77 82 78 83 79 84 80 85 56 86
REMARK SMILES IDX 57 87 66 88 58 89 59 90 65 91 67 92 60 93 61 94 62 95 63 96
REMARK SMILES IDX 64 97
REMARK H PARENT 6 18 88 47 54 58
REMARK Flexibility Score: inf
ROOT
ATOM      1  C   UNL     1       0.153  -3.375  -1.942  1.00  0.00     0.202 C 
ENDROOT
BRANCH   1   2
ATOM      2  O   UNL     1      -0.014  -4.644  -1.305  1.00  0.00    -0.374 OA
BRANCH   2   3
ATOM      3  C   UNL     1      -1.247  -4.829  -0.605  1.00  0.00     0.202 C 
BRANCH   3   4
ATOM      4  C   UNL     1      -1.164  -4.440   0.873  1.00  0.00     0.261 C 
BRANCH   4   5
ATOM      5  O   UNL     1      -1.135  -3.009   0.994  1.00  0.00    -0.457 OA
BRANCH   5   6
ATOM      6  C   UNL     1       0.080  -2.441   1.224  1.00  0.00     0.374 C 
ATOM      7  O   UNL     1       1.093  -3.062   1.526  1.00  0.00    -0.242 OA
BRANCH   6   8
ATOM      8  C   UNL     1       0.020  -1.020   0.948  1.00  0.00     0.215 A 
ATOM      9  C   UNL     1      -2.484  -0.292   0.734  1.00  0.00     0.049 C 
ATOM     10  C   UNL     1      -1.009  -0.104   0.751  1.00  0.00     0.003 A 
ATOM     11  C   UNL     1      -0.373   1.155   0.565  1.00  0.00     0.056 A 
ATOM     12  C   UNL     1       0.981   0.927   0.482  1.00  0.00     0.159 A 
ATOM     13  O   UNL     1       1.224  -0.385   0.757  1.00  0.00    -0.448 OA
BRANCH  12  14
ATOM     14  C   UNL     1       2.180   1.776   0.214  1.00  0.00     0.339 C 
BRANCH  14  15
ATOM     15  N   UNL     1       2.265   2.466  -1.088  1.00  0.00    -0.315 N 
ATOM     16  C   UNL     1       2.489   1.559  -2.219  1.00  0.00     0.285 C 
ATOM     17  C   UNL     1       1.244   3.506  -1.398  1.00  0.00     0.172 C 
ATOM     18  H   UNL     1       3.109   3.021  -0.950  1.00  0.00     0.349 HD
ATOM     19  C   UNL     1       1.219   0.920  -2.784  1.00  0.00     0.180 C 
ATOM     20  C   UNL     1      -0.069   2.909  -1.994  1.00  0.00     0.283 C 
ATOM     21  C   UNL     1       0.942   4.408  -0.180  1.00  0.00     0.090 C 
ATOM     22  C   UNL     1       1.786   4.458  -2.495  1.00  0.00     0.090 C 
ATOM     23  N   UNL     1       0.051   1.793  -2.821  1.00  0.00    -0.335 N 
ATOM     24  O   UNL     1      -1.152   3.476  -1.824  1.00  0.00    -0.268 OA
ATOM     25  C   UNL     1      -1.113   1.291  -3.530  1.00  0.00     0.147 C 
ENDBRANCH  14  15
ENDBRANCH  12  14
ENDBRANCH   6   8
ENDBRANCH   5   6
ENDBRANCH   4   5
ENDBRANCH   3   4
ENDBRANCH   2   3
ENDBRANCH   1   2
BRANCH   1  26
ATOM     26  C   UNL     1      -0.359  -3.336  -3.384  1.00  0.00     0.261 C 
BRANCH  26  27
ATOM     27  O   UNL     1      -1.798  -3.297  -3.404  1.00  0.00    -0.460 OA
BRANCH  27  28
ATOM     28  C   UNL     1      -2.397  -4.468  -3.728  1.00  0.00     0.338 C 
ATOM     29  O   UNL     1      -1.850  -5.491  -4.104  1.00  0.00    -0.246 OA
BRANCH  28  30
ATOM     30  C   UNL     1      -3.838  -4.400  -3.403  1.00  0.00     0.060 A 
ATOM     31  C   UNL     1      -4.415  -5.529  -2.810  1.00  0.00     0.016 A 
ATOM     32  C   UNL     1      -4.621  -3.281  -3.702  1.00  0.00     0.016 A 
ATOM     33  C   UNL     1      -5.786  -5.564  -2.559  1.00  0.00     0.010 A 
ATOM     34  C   UNL     1      -5.998  -3.319  -3.454  1.00  0.00     0.010 A 
ATOM     35  C   UNL     1      -6.591  -4.473  -2.912  1.00  0.00    -0.014 A 
BRANCH  35  36
ATOM     36  C   UNL     1      -8.066  -4.601  -2.838  1.00  0.00     0.031 A 
ATOM     37  C   UNL     1      -8.834  -4.929  -4.090  1.00  0.00     0.074 A 
ATOM     38  C   UNL     1      -8.712  -4.458  -1.667  1.00  0.00     0.049 A 
ATOM     39  N   UNL     1     -10.122  -5.075  -4.258  1.00  0.00    -0.248 NA
ATOM     40  C   UNL     1      -8.041  -5.117  -5.316  1.00  0.00     0.031 C 
ATOM     41  C   UNL     1      -8.076  -4.169  -0.382  1.00  0.00     0.029 A 
ATOM     42  N   UNL     1     -10.050  -4.535  -1.372  1.00  0.00    -0.354 N 
ATOM     43  C   UNL     1     -10.297  -5.371  -5.604  1.00  0.00     0.074 A 
ATOM     44  C   UNL     1      -8.985  -5.354  -6.215  1.00  0.00     0.031 C 
ATOM     45  C   UNL     1      -9.028  -4.081   0.564  1.00  0.00     0.029 A 
ATOM     46  C   UNL     1     -10.338  -4.285  -0.052  1.00  0.00     0.049 A 
ATOM     47  H   UNL     1     -10.738  -4.748  -2.042  1.00  0.00     0.167 HD
ATOM     48  C   UNL     1     -11.445  -5.643  -6.270  1.00  0.00     0.037 A 
ATOM     49  C   UNL     1     -11.525  -4.213   0.583  1.00  0.00     0.037 A 
ATOM     50  C   UNL     1     -12.749  -5.660  -5.661  1.00  0.00     0.049 A 
ATOM     51  C   UNL     1     -12.794  -4.465  -0.189  1.00  0.00     0.074 A 
ATOM     52  C   UNL     1     -13.970  -5.939  -6.248  1.00  0.00     0.029 A 
ATOM     53  N   UNL     1     -13.002  -5.380  -4.326  1.00  0.00    -0.354 N 
ATOM     54  N   UNL     1     -12.942  -4.767  -1.457  1.00  0.00    -0.248 NA
ATOM     55  C   UNL     1     -14.057  -4.370   0.557  1.00  0.00     0.031 C 
ATOM     56  C   UNL     1     -14.967  -5.791  -5.277  1.00  0.00     0.029 A 
ATOM     57  C   UNL     1     -14.362  -5.460  -4.075  1.00  0.00     0.049 A 
ATOM     58  H   UNL     1     -12.316  -5.157  -3.656  1.00  0.00     0.167 HD
ATOM     59  C   UNL     1     -14.310  -4.920  -1.655  1.00  0.00     0.074 A 
ATOM     60  C   UNL     1     -14.946  -4.687  -0.375  1.00  0.00     0.031 C 
ATOM     61  C   UNL     1     -14.979  -5.230  -2.793  1.00  0.00     0.037 A 
BRANCH  48  62
ATOM     62  C   UNL     1     -11.340  -5.926  -7.741  1.00  0.00     0.058 A 
ATOM     63  C   UNL     1     -10.821  -7.138  -8.223  1.00  0.00     0.135 A 
ATOM     64  C   UNL     1     -11.786  -4.983  -8.681  1.00  0.00     0.135 A 
ATOM     65  F   UNL     1     -10.364  -8.065  -7.366  1.00  0.00    -0.206 F 
ATOM     66  C   UNL     1     -10.723  -7.395  -9.586  1.00  0.00     0.059 A 
ATOM     67  C   UNL     1     -11.718  -5.228 -10.049  1.00  0.00     0.059 A 
ATOM     68  F   UNL     1     -12.287  -3.806  -8.273  1.00  0.00    -0.206 F 
ATOM     69  C   UNL     1     -11.172  -6.432 -10.492  1.00  0.00     0.060 A 
BRANCH  69  70
ATOM     70  S   UNL     1     -11.035  -6.777 -12.259  1.00  0.00     0.124 S 
ATOM     71  O   UNL     1      -9.605  -6.588 -12.481  1.00  0.00    -0.237 OA
ATOM     72  O   UNL     1     -11.514  -8.152 -12.349  1.00  0.00    -0.237 OA
ATOM     73  O   UNL     1     -11.902  -5.774 -12.868  1.00  0.00    -0.744 OA
ENDBRANCH  69  70
ENDBRANCH  48  62
BRANCH  49  74
ATOM     74  C   UNL     1     -11.571  -3.877   2.030  1.00  0.00     0.058 A 
ATOM     75  C   UNL     1     -11.915  -4.841   2.988  1.00  0.00     0.135 A 
ATOM     76  C   UNL     1     -11.267  -2.583   2.481  1.00  0.00     0.135 A 
ATOM     77  F   UNL     1     -12.225  -6.088   2.603  1.00  0.00    -0.206 F 
ATOM     78  C   UNL     1     -11.966  -4.533   4.344  1.00  0.00     0.059 A 
ATOM     79  C   UNL     1     -11.289  -2.257   3.833  1.00  0.00     0.059 A 
ATOM     80  F   UNL     1     -10.922  -1.628   1.603  1.00  0.00    -0.206 F 
ATOM     81  C   UNL     1     -11.648  -3.238   4.757  1.00  0.00     0.060 A 
BRANCH  81  82
ATOM     82  S   UNL     1     -11.660  -2.861   6.523  1.00  0.00     0.124 S 
ATOM     83  O   UNL     1     -13.090  -2.764   6.793  1.00  0.00    -0.237 OA
ATOM     84  O   UNL     1     -10.979  -4.021   7.090  1.00  0.00    -0.237 OA
ATOM     85  O   UNL     1     -10.915  -1.607   6.601  1.00  0.00    -0.744 OA
ENDBRANCH  81  82
ENDBRANCH  49  74
BRANCH  61  86
ATOM     86  C   UNL     1     -16.474  -5.363  -2.705  1.00  0.00     0.058 A 
ATOM     87  C   UNL     1     -17.308  -4.239  -2.600  1.00  0.00     0.135 A 
ATOM     88  C   UNL     1     -17.081  -6.627  -2.782  1.00  0.00     0.135 A 
ATOM     89  F   UNL     1     -16.777  -3.009  -2.518  1.00  0.00    -0.206 F 
ATOM     90  C   UNL     1     -18.693  -4.365  -2.555  1.00  0.00     0.059 A 
ATOM     91  C   UNL     1     -18.464  -6.775  -2.762  1.00  0.00     0.059 A 
ATOM     92  F   UNL     1     -16.328  -7.733  -2.894  1.00  0.00    -0.206 F 
ATOM     93  C   UNL     1     -19.262  -5.638  -2.637  1.00  0.00     0.060 A 
BRANCH  93  94
ATOM     94  S   UNL     1     -21.061  -5.788  -2.614  1.00  0.00     0.124 S 
ATOM     95  O   UNL     1     -21.354  -5.589  -1.198  1.00  0.00    -0.237 OA
ATOM     96  O   UNL     1     -21.479  -4.711  -3.506  1.00  0.00    -0.237 OA
ATOM     97  O   UNL     1     -21.295  -7.138  -3.120  1.00  0.00    -0.744 OA
ENDBRANCH  93  94
ENDBRANCH  61  86
ENDBRANCH  35  36
ENDBRANCH  28  30
ENDBRANCH  27  28
ENDBRANCH  26  27
ENDBRANCH   1  26
TORSDOF 19
