REMARK SMILES Cc1c(CC(=O)N[C@@H](CCO)C(=O)OCCOCCOC(=O)c2ccc(-c3c4nc(c(-c5c(F)cc(S(=O)(=O)[O-])cc5F)c5ccc([nH]5)c(-c5c(F)cc(S(=O)(=O)[O-])cc5F)c5nc(c(-c6c(F)cc(S(=O)(=O)[O-])cc6F)c6ccc3[nH]6)C=C5)C=C4)cc2)cc(-c2ccc(S(C)(=O)=O)cc2)n1-c1ccc(F)cc1
REMARK SMILES IDX 16 1 15 2 14 3 12 4 13 5 8 6 7 7 5 8 6 9 4 11 3 12 1 13 2 14
REMARK SMILES IDX 101 15 89 16 90 17 102 18 103 19 108 20 104 21 107 22 105 23
REMARK SMILES IDX 106 24 91 25 92 26 100 27 93 28 99 29 94 30 95 31 96 32
REMARK SMILES IDX 97 33 98 34 9 35 10 36 11 37 17 39 18 40 19 41 20 42 21 43
REMARK SMILES IDX 22 44 23 45 24 46 88 47 25 48 87 49 26 50 27 51 28 52 81 53
REMARK SMILES IDX 29 54 86 55 80 56 82 57 30 58 85 59 79 60 78 61 31 63 65 64
REMARK SMILES IDX 44 65 64 66 45 67 48 68 63 69 83 70 46 71 47 72 62 74 84 75
REMARK SMILES IDX 49 76 32 77 33 78 42 79 34 80 35 81 41 82 43 83 36 84 37 85
REMARK SMILES IDX 38 86 39 87 40 88 66 89 67 90 76 91 68 92 69 93 75 94 77 95
REMARK SMILES IDX 70 96 71 97 72 98 73 99 74 100 50 101 51 102 60 103 52 104
REMARK SMILES IDX 53 105 59 106 61 107 54 108 55 109 56 110 57 111 58 112
REMARK H PARENT 7 10 11 38 82 62 48 73
REMARK Flexibility Score: inf
ROOT
ATOM      1  C   UNL     1       4.130  -5.869  -5.361  1.00  0.00     0.202 C 
ENDROOT
BRANCH   1   2
ATOM      2  C   UNL     1       4.268  -4.433  -5.895  1.00  0.00     0.261 C 
BRANCH   2   3
ATOM      3  O   UNL     1       3.982  -3.479  -4.859  1.00  0.00    -0.462 OA
BRANCH   3   4
ATOM      4  C   UNL     1       3.099  -2.494  -5.187  1.00  0.00     0.328 C 
ATOM      5  O   UNL     1       2.743  -2.214  -6.326  1.00  0.00    -0.250 OA
BRANCH   4   6
ATOM      6  C   UNL     1       2.677  -1.679  -3.954  1.00  0.00     0.194 C 
BRANCH   6   7
ATOM      7  N   UNL     1       2.753  -2.375  -2.663  1.00  0.00    -0.342 N 
ATOM      8  C   UNL     1       1.775  -2.626  -1.743  1.00  0.00     0.225 C 
ATOM      9  O   UNL     1       2.089  -3.260  -0.733  1.00  0.00    -0.275 OA
ATOM     10  H   UNL     1       3.647  -2.713  -2.424  1.00  0.00     0.164 HD
BRANCH   8  11
ATOM     11  C   UNL     1       0.333  -2.201  -1.979  1.00  0.00     0.137 C 
BRANCH  11  12
ATOM     12  C   UNL     1       0.167  -0.721  -2.136  1.00  0.00    -0.017 A 
ATOM     13  C   UNL     1       1.058   0.124   0.142  1.00  0.00     0.065 C 
ATOM     14  C   UNL     1       0.549   0.281  -1.255  1.00  0.00     0.024 A 
ATOM     15  N   UNL     1       0.348   1.509  -1.878  1.00  0.00    -0.314 N 
ATOM     16  C   UNL     1      -0.415  -0.080  -3.259  1.00  0.00     0.033 A 
ATOM     17  C   UNL     1      -0.221   1.282  -3.133  1.00  0.00     0.053 A 
BRANCH  15  18
ATOM     18  C   UNL     1       0.715   2.787  -1.369  1.00  0.00     0.046 A 
ATOM     19  C   UNL     1      -0.181   3.860  -1.480  1.00  0.00     0.029 A 
ATOM     20  C   UNL     1       1.998   2.987  -0.842  1.00  0.00     0.029 A 
ATOM     21  C   UNL     1       0.213   5.134  -1.075  1.00  0.00     0.041 A 
ATOM     22  C   UNL     1       2.388   4.269  -0.452  1.00  0.00     0.041 A 
ATOM     23  C   UNL     1       1.495   5.329  -0.575  1.00  0.00     0.123 A 
ATOM     24  F   UNL     1       1.881   6.561  -0.219  1.00  0.00    -0.207 F 
ENDBRANCH  15  18
BRANCH  17  25
ATOM     25  C   UNL     1      -0.384   2.284  -4.192  1.00  0.00    -0.001 A 
ATOM     26  C   UNL     1       0.727   3.004  -4.661  1.00  0.00     0.011 A 
ATOM     27  C   UNL     1      -1.635   2.493  -4.784  1.00  0.00     0.011 A 
ATOM     28  C   UNL     1       0.586   3.946  -5.681  1.00  0.00     0.021 A 
ATOM     29  C   UNL     1      -1.785   3.436  -5.804  1.00  0.00     0.021 A 
ATOM     30  C   UNL     1      -0.676   4.165  -6.238  1.00  0.00     0.067 A 
BRANCH  30  31
ATOM     31  S   UNL     1      -0.837   5.356  -7.547  1.00  0.00     0.175 S 
ATOM     32  C   UNL     1      -0.457   6.904  -6.770  1.00  0.00     0.163 C 
ATOM     33  O   UNL     1       0.177   5.069  -8.521  1.00  0.00    -0.224 OA
ATOM     34  O   UNL     1      -2.252   5.405  -7.923  1.00  0.00    -0.224 OA
ENDBRANCH  30  31
ENDBRANCH  17  25
ENDBRANCH  11  12
ENDBRANCH   8  11
ENDBRANCH   6   7
BRANCH   6  35
ATOM     35  C   UNL     1       3.470  -0.368  -3.886  1.00  0.00     0.065 C 
BRANCH  35  36
ATOM     36  C   UNL     1       4.960  -0.544  -3.594  1.00  0.00     0.159 C 
BRANCH  36  37
ATOM     37  O   UNL     1       5.631  -1.156  -4.684  1.00  0.00    -0.396 OA
ATOM     38  H   UNL     1       5.254  -2.035  -4.844  1.00  0.00     0.210 HD
ENDBRANCH  36  37
ENDBRANCH  35  36
ENDBRANCH   6  35
ENDBRANCH   4   6
ENDBRANCH   3   4
ENDBRANCH   2   3
ENDBRANCH   1   2
BRANCH   1  39
ATOM     39  O   UNL     1       2.880  -6.149  -4.732  1.00  0.00    -0.374 OA
BRANCH  39  40
ATOM     40  C   UNL     1       2.748  -5.747  -3.356  1.00  0.00     0.202 C 
BRANCH  40  41
ATOM     41  C   UNL     1       3.414  -6.638  -2.266  1.00  0.00     0.261 C 
BRANCH  41  42
ATOM     42  O   UNL     1       4.494  -6.063  -1.423  1.00  0.00    -0.460 OA
BRANCH  42  43
ATOM     43  C   UNL     1       5.626  -6.838  -1.266  1.00  0.00     0.338 C 
ATOM     44  O   UNL     1       5.958  -7.665  -2.108  1.00  0.00    -0.246 OA
BRANCH  43  45
ATOM     45  C   UNL     1       6.540  -6.573  -0.043  1.00  0.00     0.060 A 
ATOM     46  C   UNL     1       7.872  -6.231  -0.268  1.00  0.00     0.016 A 
ATOM     47  C   UNL     1       6.267  -6.940   1.294  1.00  0.00     0.016 A 
ATOM     48  C   UNL     1       8.859  -6.220   0.791  1.00  0.00     0.010 A 
ATOM     49  C   UNL     1       7.300  -6.995   2.363  1.00  0.00     0.010 A 
ATOM     50  C   UNL     1       8.652  -6.642   2.156  1.00  0.00    -0.014 A 
BRANCH  50  51
ATOM     51  C   UNL     1       9.988  -7.133   2.999  1.00  0.00     0.031 A 
ATOM     52  C   UNL     1      10.716  -7.941   1.973  1.00  0.00     0.074 A 
ATOM     53  C   UNL     1      10.631  -7.127   4.255  1.00  0.00     0.049 A 
ATOM     54  N   UNL     1      10.123  -8.913   1.334  1.00  0.00    -0.248 NA
ATOM     55  C   UNL     1      11.951  -7.463   1.344  1.00  0.00     0.031 C 
ATOM     56  C   UNL     1      10.153  -6.546   5.524  1.00  0.00     0.029 A 
ATOM     57  N   UNL     1      11.906  -7.644   4.720  1.00  0.00    -0.354 N 
ATOM     58  C   UNL     1      11.053  -9.397   0.451  1.00  0.00     0.074 A 
ATOM     59  C   UNL     1      12.022  -8.318   0.319  1.00  0.00     0.031 C 
ATOM     60  C   UNL     1      11.096  -6.606   6.517  1.00  0.00     0.029 A 
ATOM     61  C   UNL     1      12.312  -7.295   6.078  1.00  0.00     0.049 A 
ATOM     62  H   UNL     1      12.472  -8.206   4.143  1.00  0.00     0.167 HD
ATOM     63  C   UNL     1      11.299 -10.737   0.511  1.00  0.00     0.037 A 
ATOM     64  C   UNL     1      13.470  -7.582   6.825  1.00  0.00     0.037 A 
ATOM     65  C   UNL     1      12.555 -11.036   1.143  1.00  0.00     0.049 A 
ATOM     66  C   UNL     1      14.085  -8.766   6.208  1.00  0.00     0.074 A 
ATOM     67  C   UNL     1      13.823 -10.501   1.036  1.00  0.00     0.029 A 
ATOM     68  N   UNL     1      12.499 -11.686   2.359  1.00  0.00    -0.354 N 
ATOM     69  N   UNL     1      13.615  -9.957   6.401  1.00  0.00    -0.248 NA
ATOM     70  C   UNL     1      15.335  -8.698   5.456  1.00  0.00     0.031 C 
ATOM     71  C   UNL     1      14.280 -10.396   2.368  1.00  0.00     0.029 A 
ATOM     72  C   UNL     1      13.471 -11.173   3.188  1.00  0.00     0.049 A 
ATOM     73  H   UNL     1      11.865 -12.401   2.596  1.00  0.00     0.167 HD
ATOM     74  C   UNL     1      14.185 -10.684   5.407  1.00  0.00     0.074 A 
ATOM     75  C   UNL     1      15.398  -9.970   5.056  1.00  0.00     0.031 C 
ATOM     76  C   UNL     1      13.325 -11.363   4.611  1.00  0.00     0.037 A 
BRANCH  63  77
ATOM     77  C   UNL     1      10.080 -11.603   0.641  1.00  0.00     0.058 A 
ATOM     78  C   UNL     1       9.679 -12.379  -0.450  1.00  0.00     0.135 A 
ATOM     79  C   UNL     1       9.260 -11.618   1.789  1.00  0.00     0.135 A 
ATOM     80  F   UNL     1      10.443 -12.437  -1.554  1.00  0.00    -0.206 F 
ATOM     81  C   UNL     1       8.489 -13.100  -0.427  1.00  0.00     0.059 A 
ATOM     82  C   UNL     1       8.046 -12.294   1.820  1.00  0.00     0.059 A 
ATOM     83  F   UNL     1       9.645 -10.979   2.907  1.00  0.00    -0.206 F 
ATOM     84  C   UNL     1       7.667 -13.030   0.701  1.00  0.00     0.060 A 
BRANCH  84  85
ATOM     85  S   UNL     1       6.077 -13.883   0.659  1.00  0.00     0.124 S 
ATOM     86  O   UNL     1       5.559 -13.508  -0.655  1.00  0.00    -0.237 OA
ATOM     87  O   UNL     1       6.486 -15.277   0.793  1.00  0.00    -0.237 OA
ATOM     88  O   UNL     1       5.349 -13.313   1.788  1.00  0.00    -0.744 OA
ENDBRANCH  84  85
ENDBRANCH  63  77
BRANCH  64  89
ATOM     89  C   UNL     1      14.299  -7.256   8.138  1.00  0.00     0.058 A 
ATOM     90  C   UNL     1      15.162  -8.244   8.748  1.00  0.00     0.135 A 
ATOM     91  C   UNL     1      14.605  -5.953   8.562  1.00  0.00     0.135 A 
ATOM     92  F   UNL     1      14.993  -9.553   8.515  1.00  0.00    -0.206 F 
ATOM     93  C   UNL     1      16.286  -7.960   9.554  1.00  0.00     0.059 A 
ATOM     94  C   UNL     1      15.718  -5.644   9.407  1.00  0.00     0.059 A 
ATOM     95  F   UNL     1      13.889  -4.920   8.097  1.00  0.00    -0.206 F 
ATOM     96  C   UNL     1      16.586  -6.646   9.853  1.00  0.00     0.060 A 
BRANCH  96  97
ATOM     97  S   UNL     1      18.169  -6.277  10.688  1.00  0.00     0.124 S 
ATOM     98  O   UNL     1      17.983  -6.865  12.009  1.00  0.00    -0.237 OA
ATOM     99  O   UNL     1      19.141  -6.950   9.829  1.00  0.00    -0.237 OA
ATOM    100  O   UNL     1      18.235  -4.818  10.658  1.00  0.00    -0.744 OA
ENDBRANCH  96  97
ENDBRANCH  64  89
BRANCH  76 101
ATOM    101  C   UNL     1      12.190 -12.104   5.304  1.00  0.00     0.058 A 
ATOM    102  C   UNL     1      11.295 -11.585   6.272  1.00  0.00     0.135 A 
ATOM    103  C   UNL     1      12.065 -13.475   5.030  1.00  0.00     0.135 A 
ATOM    104  F   UNL     1      11.212 -10.272   6.535  1.00  0.00    -0.206 F 
ATOM    105  C   UNL     1      10.429 -12.403   7.003  1.00  0.00     0.059 A 
ATOM    106  C   UNL     1      11.163 -14.298   5.702  1.00  0.00     0.059 A 
ATOM    107  F   UNL     1      12.840 -14.039   4.089  1.00  0.00    -0.206 F 
ATOM    108  C   UNL     1      10.383 -13.764   6.723  1.00  0.00     0.060 A 
BRANCH 108 109
ATOM    109  S   UNL     1       9.297 -14.826   7.699  1.00  0.00     0.124 S 
ATOM    110  O   UNL     1      10.002 -14.885   8.976  1.00  0.00    -0.237 OA
ATOM    111  O   UNL     1       8.042 -14.081   7.710  1.00  0.00    -0.237 OA
ATOM    112  O   UNL     1       9.281 -16.076   6.946  1.00  0.00    -0.744 OA
ENDBRANCH 108 109
ENDBRANCH  76 101
ENDBRANCH  50  51
ENDBRANCH  43  45
ENDBRANCH  42  43
ENDBRANCH  41  42
ENDBRANCH  40  41
ENDBRANCH  39  40
ENDBRANCH   1  39
TORSDOF 26
