REMARK SMILES O=C(OCCOCCOC(=O)[C@H]1[C@H]2CC[C@H](CC2)[C@@H]1C(=O)Nc1sc2c(c1C(=O)N1CCCCC1)CCCC2)c1ccc(-c2c3nc(c(-c4c(F)cc(S(=O)(=O)[O-])cc4F)c4ccc([nH]4)c(-c4c(F)cc(S(=O)(=O)[O-])cc4F)c4nc(c(-c5c(F)cc(S(=O)(=O)[O-])cc5F)c5ccc2[nH]5)C=C4)C=C3)cc1
REMARK SMILES IDX 6 1 5 2 4 3 3 4 2 5 1 6 40 7 41 8 105 9 42 10 104 11 43 12
REMARK SMILES IDX 44 13 45 14 98 15 46 16 103 17 97 18 99 19 47 20 102 21
REMARK SMILES IDX 96 22 95 23 48 25 82 26 61 27 81 28 62 29 65 30 80 31 100 32
REMARK SMILES IDX 63 33 64 34 79 36 101 37 66 38 49 39 50 40 59 41 51 42 52 43
REMARK SMILES IDX 58 44 60 45 53 46 54 47 55 48 56 49 57 50 83 51 84 52 93 53
REMARK SMILES IDX 85 54 86 55 92 56 94 57 87 58 88 59 89 60 90 61 91 62 67 63
REMARK SMILES IDX 68 64 77 65 69 66 70 67 76 68 78 69 71 70 72 71 73 72 74 73
REMARK SMILES IDX 75 74 7 75 8 76 9 77 10 78 11 79 12 80 13 81 19 82 18 83
REMARK SMILES IDX 14 84 16 85 17 86 15 87 20 88 21 89 22 90 23 92 24 93 27 94
REMARK SMILES IDX 25 95 26 96 39 97 36 98 38 99 37 100 28 101 29 102 30 103
REMARK SMILES IDX 31 104 35 105 32 106 34 107 33 108
REMARK H PARENT 99 24 65 35 22 91
REMARK Flexibility Score: inf
ROOT
ATOM      1  O   UNL     1       3.790  -0.839  -1.595  1.00  0.00    -0.374 OA
ENDROOT
BRANCH   1   2
ATOM      2  C   UNL     1       4.129  -1.219  -0.265  1.00  0.00     0.202 C 
BRANCH   2   3
ATOM      3  C   UNL     1       3.912  -0.153   0.800  1.00  0.00     0.261 C 
BRANCH   3   4
ATOM      4  O   UNL     1       2.518   0.154   0.931  1.00  0.00    -0.460 OA
BRANCH   4   5
ATOM      5  C   UNL     1       1.857   1.177   0.345  1.00  0.00     0.338 C 
ATOM      6  O   UNL     1       0.641   1.267   0.494  1.00  0.00    -0.246 OA
BRANCH   5   7
ATOM      7  C   UNL     1       2.563   2.221  -0.446  1.00  0.00     0.060 A 
ATOM      8  C   UNL     1       3.739   2.002  -1.165  1.00  0.00     0.016 A 
ATOM      9  C   UNL     1       1.973   3.488  -0.515  1.00  0.00     0.016 A 
ATOM     10  C   UNL     1       4.353   2.982  -1.894  1.00  0.00     0.010 A 
ATOM     11  C   UNL     1       2.567   4.493  -1.276  1.00  0.00     0.010 A 
ATOM     12  C   UNL     1       3.758   4.224  -1.959  1.00  0.00    -0.014 A 
BRANCH  12  13
ATOM     13  C   UNL     1       4.526   5.244  -2.654  1.00  0.00     0.031 A 
ATOM     14  C   UNL     1       5.301   6.194  -1.814  1.00  0.00     0.074 A 
ATOM     15  C   UNL     1       4.637   5.164  -3.989  1.00  0.00     0.049 A 
ATOM     16  N   UNL     1       5.921   7.277  -2.166  1.00  0.00    -0.248 NA
ATOM     17  C   UNL     1       5.394   5.873  -0.376  1.00  0.00     0.031 C 
ATOM     18  C   UNL     1       4.068   4.097  -4.823  1.00  0.00     0.029 A 
ATOM     19  N   UNL     1       5.277   5.976  -4.875  1.00  0.00    -0.354 N 
ATOM     20  C   UNL     1       6.416   7.814  -0.987  1.00  0.00     0.074 A 
ATOM     21  C   UNL     1       6.057   6.919   0.088  1.00  0.00     0.031 C 
ATOM     22  C   UNL     1       4.372   4.337  -6.107  1.00  0.00     0.029 A 
ATOM     23  C   UNL     1       5.061   5.617  -6.182  1.00  0.00     0.049 A 
ATOM     24  H   UNL     1       5.836   6.741  -4.606  1.00  0.00     0.167 HD
ATOM     25  C   UNL     1       7.075   8.983  -0.846  1.00  0.00     0.037 A 
ATOM     26  C   UNL     1       5.325   6.309  -7.303  1.00  0.00     0.037 A 
ATOM     27  C   UNL     1       7.376   9.818  -1.977  1.00  0.00     0.049 A 
ATOM     28  C   UNL     1       5.966   7.656  -7.123  1.00  0.00     0.074 A 
ATOM     29  C   UNL     1       7.955  11.068  -2.008  1.00  0.00     0.029 A 
ATOM     30  N   UNL     1       7.104   9.462  -3.298  1.00  0.00    -0.354 N 
ATOM     31  N   UNL     1       6.326   8.248  -6.005  1.00  0.00    -0.248 NA
ATOM     32  C   UNL     1       6.221   8.439  -8.333  1.00  0.00     0.031 C 
ATOM     33  C   UNL     1       7.990  11.487  -3.344  1.00  0.00     0.029 A 
ATOM     34  C   UNL     1       7.493  10.472  -4.153  1.00  0.00     0.049 A 
ATOM     35  H   UNL     1       6.694   8.612  -3.579  1.00  0.00     0.167 HD
ATOM     36  C   UNL     1       6.876   9.465  -6.373  1.00  0.00     0.074 A 
ATOM     37  C   UNL     1       6.797   9.521  -7.824  1.00  0.00     0.031 C 
ATOM     38  C   UNL     1       7.401  10.446  -5.596  1.00  0.00     0.037 A 
BRANCH  25  39
ATOM     39  C   UNL     1       7.361   9.437   0.556  1.00  0.00     0.058 A 
ATOM     40  C   UNL     1       8.282   8.779   1.388  1.00  0.00     0.135 A 
ATOM     41  C   UNL     1       6.619  10.492   1.111  1.00  0.00     0.135 A 
ATOM     42  F   UNL     1       8.987   7.734   0.926  1.00  0.00    -0.206 F 
ATOM     43  C   UNL     1       8.423   9.121   2.731  1.00  0.00     0.059 A 
ATOM     44  C   UNL     1       6.764  10.870   2.442  1.00  0.00     0.059 A 
ATOM     45  F   UNL     1       5.708  11.142   0.369  1.00  0.00    -0.206 F 
ATOM     46  C   UNL     1       7.650  10.161   3.251  1.00  0.00     0.060 A 
BRANCH  46  47
ATOM     47  S   UNL     1       7.797  10.553   5.007  1.00  0.00     0.124 S 
ATOM     48  O   UNL     1       7.107   9.419   5.615  1.00  0.00    -0.237 OA
ATOM     49  O   UNL     1       9.243  10.589   5.198  1.00  0.00    -0.237 OA
ATOM     50  O   UNL     1       7.118  11.839   5.127  1.00  0.00    -0.744 OA
ENDBRANCH  46  47
ENDBRANCH  25  39
BRANCH  26  51
ATOM     51  C   UNL     1       4.910   5.768  -8.622  1.00  0.00     0.058 A 
ATOM     52  C   UNL     1       5.854   5.348  -9.567  1.00  0.00     0.135 A 
ATOM     53  C   UNL     1       3.550   5.585  -8.935  1.00  0.00     0.135 A 
ATOM     54  F   UNL     1       7.164   5.498  -9.318  1.00  0.00    -0.206 F 
ATOM     55  C   UNL     1       5.470   4.766 -10.773  1.00  0.00     0.059 A 
ATOM     56  C   UNL     1       3.142   4.982 -10.121  1.00  0.00     0.059 A 
ATOM     57  F   UNL     1       2.602   5.952  -8.059  1.00  0.00    -0.206 F 
ATOM     58  C   UNL     1       4.111   4.580 -11.037  1.00  0.00     0.060 A 
BRANCH  58  59
ATOM     59  S   UNL     1       3.628   3.767 -12.577  1.00  0.00     0.124 S 
ATOM     60  O   UNL     1       3.955   4.790 -13.563  1.00  0.00    -0.237 OA
ATOM     61  O   UNL     1       4.482   2.583 -12.577  1.00  0.00    -0.237 OA
ATOM     62  O   UNL     1       2.205   3.505 -12.388  1.00  0.00    -0.744 OA
ENDBRANCH  58  59
ENDBRANCH  26  51
BRANCH  38  63
ATOM     63  C   UNL     1       7.990  11.623  -6.309  1.00  0.00     0.058 A 
ATOM     64  C   UNL     1       7.186  12.626  -6.866  1.00  0.00     0.135 A 
ATOM     65  C   UNL     1       9.383  11.795  -6.324  1.00  0.00     0.135 A 
ATOM     66  F   UNL     1       5.851  12.494  -6.880  1.00  0.00    -0.206 F 
ATOM     67  C   UNL     1       7.748  13.770  -7.416  1.00  0.00     0.059 A 
ATOM     68  C   UNL     1       9.963  12.943  -6.842  1.00  0.00     0.059 A 
ATOM     69  F   UNL     1      10.187  10.860  -5.791  1.00  0.00    -0.206 F 
ATOM     70  C   UNL     1       9.136  13.925  -7.386  1.00  0.00     0.060 A 
BRANCH  70  71
ATOM     71  S   UNL     1       9.846  15.456  -8.020  1.00  0.00     0.124 S 
ATOM     72  O   UNL     1       9.688  15.278  -9.459  1.00  0.00    -0.237 OA
ATOM     73  O   UNL     1       8.993  16.470  -7.406  1.00  0.00    -0.237 OA
ATOM     74  O   UNL     1      11.220  15.421  -7.528  1.00  0.00    -0.744 OA
ENDBRANCH  70  71
ENDBRANCH  38  63
ENDBRANCH  12  13
ENDBRANCH   5   7
ENDBRANCH   4   5
ENDBRANCH   3   4
ENDBRANCH   2   3
ENDBRANCH   1   2
BRANCH   1  75
ATOM     75  C   UNL     1       2.438  -1.064  -2.000  1.00  0.00     0.202 C 
BRANCH  75  76
ATOM     76  C   UNL     1       2.395  -2.261  -2.934  1.00  0.00     0.261 C 
BRANCH  76  77
ATOM     77  O   UNL     1       2.791  -3.394  -2.151  1.00  0.00    -0.463 OA
BRANCH  77  78
ATOM     78  C   UNL     1       4.126  -3.663  -2.130  1.00  0.00     0.310 C 
ATOM     79  O   UNL     1       4.938  -3.236  -2.925  1.00  0.00    -0.252 OA
BRANCH  78  80
ATOM     80  C   UNL     1       4.496  -4.473  -0.877  1.00  0.00     0.115 C 
ATOM     81  C   UNL     1       3.290  -5.212  -0.202  1.00  0.00     0.004 C 
ATOM     82  C   UNL     1       5.613  -5.449  -1.265  1.00  0.00     0.096 C 
ATOM     83  C   UNL     1       2.565  -6.083  -1.232  1.00  0.00     0.005 C 
ATOM     84  C   UNL     1       3.751  -6.228   0.865  1.00  0.00     0.005 C 
ATOM     85  C   UNL     1       4.994  -6.879  -1.219  1.00  0.00     0.002 C 
ATOM     86  C   UNL     1       3.628  -6.896  -1.983  1.00  0.00     0.005 C 
ATOM     87  C   UNL     1       4.717  -7.246   0.247  1.00  0.00     0.005 C 
BRANCH  82  88
ATOM     88  C   UNL     1       7.002  -5.299  -0.544  1.00  0.00     0.229 C 
ATOM     89  O   UNL     1       7.822  -6.220  -0.634  1.00  0.00    -0.274 OA
ATOM     90  N   UNL     1       7.428  -4.052  -0.112  1.00  0.00    -0.317 N 
ATOM     91  H   UNL     1       8.030  -3.555  -0.712  1.00  0.00     0.170 HD
BRANCH  90  92
ATOM     92  C   UNL     1       7.087  -3.430   1.093  1.00  0.00     0.108 A 
ATOM     93  S   UNL     1       6.213  -4.324   2.235  1.00  0.00    -0.122 S 
ATOM     94  C   UNL     1       7.410  -2.157   1.599  1.00  0.00     0.078 A 
ATOM     95  C   UNL     1       5.636  -2.913   2.957  1.00  0.00     0.011 A 
ATOM     96  C   UNL     1       6.492  -1.854   2.716  1.00  0.00    -0.019 A 
ATOM     97  C   UNL     1       4.404  -2.916   3.808  1.00  0.00     0.047 C 
ATOM     98  C   UNL     1       6.298  -0.579   3.486  1.00  0.00     0.037 C 
ATOM     99  C   UNL     1       4.016  -1.506   4.261  1.00  0.00     0.006 C 
ATOM    100  C   UNL     1       5.237  -0.656   4.600  1.00  0.00     0.005 C 
BRANCH  94 101
ATOM    101  C   UNL     1       8.397  -1.298   0.897  1.00  0.00     0.257 C 
ATOM    102  O   UNL     1       8.973  -1.719  -0.108  1.00  0.00    -0.269 OA
ATOM    103  N   UNL     1       8.566   0.029   1.303  1.00  0.00    -0.339 N 
ATOM    104  C   UNL     1       8.784   1.020   0.254  1.00  0.00     0.120 C 
ATOM    105  C   UNL     1       9.223   0.382   2.561  1.00  0.00     0.120 C 
ATOM    106  C   UNL     1       8.197   2.361   0.679  1.00  0.00     0.022 C 
ATOM    107  C   UNL     1       8.738   1.744   3.079  1.00  0.00     0.022 C 
ATOM    108  C   UNL     1       8.794   2.833   2.006  1.00  0.00     0.004 C 
ENDBRANCH  94 101
ENDBRANCH  90  92
ENDBRANCH  82  88
ENDBRANCH  78  80
ENDBRANCH  77  78
ENDBRANCH  76  77
ENDBRANCH  75  76
ENDBRANCH   1  75
TORSDOF 20
