REMARK SMILES O=C(CC1CCN(C(=O)c2ccc3[nH]ccc3c2)CC1)OCCOCCOC(=O)c1ccc(-c2c3nc(c(-c4c(F)cc(S(=O)(=O)[O-])cc4F)c4ccc([nH]4)c(-c4c(F)cc(S(=O)(=O)[O-])cc4F)c4nc(c(-c5c(F)cc(S(=O)(=O)[O-])cc5F)c5ccc2[nH]5)C=C4)C=C3)cc1
REMARK SMILES IDX 25 1 24 2 23 3 22 4 21 5 2 6 1 7 3 8 4 9 5 10 20 11 6 12
REMARK SMILES IDX 19 13 7 14 8 15 9 16 10 17 11 18 18 19 12 20 17 21 13 22
REMARK SMILES IDX 16 23 14 24 15 25 26 27 27 28 28 29 29 30 30 31 31 32 95 33
REMARK SMILES IDX 32 34 94 35 33 36 34 37 35 38 88 39 36 40 93 41 87 42 89 43
REMARK SMILES IDX 37 44 92 45 86 46 85 47 38 49 72 50 51 51 71 52 52 53 55 54
REMARK SMILES IDX 70 55 90 56 53 57 54 58 69 60 91 61 56 62 39 63 40 64 49 65
REMARK SMILES IDX 41 66 42 67 48 68 50 69 43 70 44 71 45 72 46 73 47 74 73 75
REMARK SMILES IDX 74 76 83 77 75 78 76 79 82 80 84 81 77 82 78 83 79 84 80 85
REMARK SMILES IDX 81 86 57 87 58 88 67 89 59 90 60 91 66 92 68 93 61 94 62 95
REMARK SMILES IDX 63 96 64 97 65 98
REMARK H PARENT 14 26 89 48 55 59
REMARK Flexibility Score: inf
ROOT
ATOM      1  C   UNL     1       3.069  -1.880   2.424  1.00  0.00     0.202 C 
ENDROOT
BRANCH   1   2
ATOM      2  O   UNL     1       4.327  -1.967   1.749  1.00  0.00    -0.374 OA
BRANCH   2   3
ATOM      3  C   UNL     1       5.158  -0.819   1.660  1.00  0.00     0.202 C 
BRANCH   3   4
ATOM      4  C   UNL     1       4.712   0.353   0.779  1.00  0.00     0.261 C 
BRANCH   4   5
ATOM      5  O   UNL     1       3.304   0.609   0.750  1.00  0.00    -0.463 OA
BRANCH   5   6
ATOM      6  C   UNL     1       2.470   0.021  -0.137  1.00  0.00     0.306 C 
ATOM      7  O   UNL     1       1.268   0.278  -0.132  1.00  0.00    -0.252 OA
BRANCH   6   8
ATOM      8  C   UNL     1       3.028  -1.018  -1.079  1.00  0.00     0.126 C 
BRANCH   8   9
ATOM      9  C   UNL     1       3.765  -0.535  -2.340  1.00  0.00     0.003 C 
ATOM     10  C   UNL     1       3.810   0.985  -2.579  1.00  0.00     0.026 C 
ATOM     11  C   UNL     1       3.181  -1.221  -3.586  1.00  0.00     0.026 C 
ATOM     12  C   UNL     1       2.461   1.563  -2.991  1.00  0.00     0.120 C 
ATOM     13  C   UNL     1       1.830  -0.622  -3.971  1.00  0.00     0.120 C 
ATOM     14  N   UNL     1       1.929   0.831  -4.130  1.00  0.00    -0.339 N 
ATOM     15  C   UNL     1       1.608   1.559  -5.267  1.00  0.00     0.253 C 
ATOM     16  O   UNL     1       1.736   2.776  -5.368  1.00  0.00    -0.269 OA
BRANCH  15  17
ATOM     17  C   UNL     1       1.149   0.840  -6.461  1.00  0.00     0.040 A 
ATOM     18  C   UNL     1      -0.068   0.155  -6.469  1.00  0.00     0.016 A 
ATOM     19  C   UNL     1       1.966   0.915  -7.596  1.00  0.00     0.024 A 
ATOM     20  C   UNL     1      -0.487  -0.516  -7.620  1.00  0.00     0.027 A 
ATOM     21  C   UNL     1       1.545   0.265  -8.764  1.00  0.00     0.000 A 
ATOM     22  C   UNL     1       0.338  -0.435  -8.750  1.00  0.00     0.045 A 
ATOM     23  C   UNL     1       2.091   0.149 -10.069  1.00  0.00     0.028 A 
ATOM     24  N   UNL     1       0.168  -0.958 -10.013  1.00  0.00    -0.361 N 
ATOM     25  C   UNL     1       1.217  -0.602 -10.819  1.00  0.00     0.083 A 
ATOM     26  H   UNL     1      -0.597  -1.508 -10.295  1.00  0.00     0.166 HD
ENDBRANCH  15  17
ENDBRANCH   8   9
ENDBRANCH   6   8
ENDBRANCH   5   6
ENDBRANCH   4   5
ENDBRANCH   3   4
ENDBRANCH   2   3
ENDBRANCH   1   2
BRANCH   1  27
ATOM     27  C   UNL     1       3.020  -1.351   3.858  1.00  0.00     0.261 C 
BRANCH  27  28
ATOM     28  O   UNL     1       3.339   0.047   3.935  1.00  0.00    -0.460 OA
BRANCH  28  29
ATOM     29  C   UNL     1       4.456   0.331   4.638  1.00  0.00     0.338 C 
ATOM     30  O   UNL     1       5.203  -0.466   5.193  1.00  0.00    -0.246 OA
BRANCH  29  31
ATOM     31  C   UNL     1       4.792   1.752   4.502  1.00  0.00     0.060 A 
ATOM     32  C   UNL     1       6.061   2.079   4.005  1.00  0.00     0.016 A 
ATOM     33  C   UNL     1       3.942   2.731   5.016  1.00  0.00     0.016 A 
ATOM     34  C   UNL     1       6.524   3.385   4.106  1.00  0.00     0.010 A 
ATOM     35  C   UNL     1       4.414   4.038   5.132  1.00  0.00     0.010 A 
ATOM     36  C   UNL     1       5.729   4.346   4.739  1.00  0.00    -0.014 A 
BRANCH  36  37
ATOM     37  C   UNL     1       6.374   5.579   5.239  1.00  0.00     0.031 A 
ATOM     38  C   UNL     1       6.852   5.595   6.667  1.00  0.00     0.074 A 
ATOM     39  C   UNL     1       6.568   6.633   4.431  1.00  0.00     0.049 A 
ATOM     40  N   UNL     1       7.429   6.553   7.341  1.00  0.00    -0.248 NA
ATOM     41  C   UNL     1       6.646   4.357   7.440  1.00  0.00     0.031 C 
ATOM     42  C   UNL     1       6.191   6.695   3.020  1.00  0.00     0.029 A 
ATOM     43  N   UNL     1       7.133   7.853   4.687  1.00  0.00    -0.354 N 
ATOM     44  C   UNL     1       7.638   6.043   8.618  1.00  0.00     0.074 A 
ATOM     45  C   UNL     1       7.105   4.700   8.633  1.00  0.00     0.031 C 
ATOM     46  C   UNL     1       6.533   7.900   2.533  1.00  0.00     0.029 A 
ATOM     47  C   UNL     1       7.124   8.699   3.605  1.00  0.00     0.049 A 
ATOM     48  H   UNL     1       7.510   8.100   5.562  1.00  0.00     0.167 HD
ATOM     49  C   UNL     1       8.227   6.642   9.680  1.00  0.00     0.037 A 
ATOM     50  C   UNL     1       7.537   9.976   3.506  1.00  0.00     0.037 A 
ATOM     51  C   UNL     1       8.753   7.980   9.645  1.00  0.00     0.049 A 
ATOM     52  C   UNL     1       8.144  10.641   4.714  1.00  0.00     0.074 A 
ATOM     53  C   UNL     1       9.381   8.687  10.653  1.00  0.00     0.029 A 
ATOM     54  N   UNL     1       8.703   8.817   8.538  1.00  0.00    -0.354 N 
ATOM     55  N   UNL     1       8.349  10.148   5.914  1.00  0.00    -0.248 NA
ATOM     56  C   UNL     1       8.585  12.032   4.552  1.00  0.00     0.031 C 
ATOM     57  C   UNL     1       9.669   9.969  10.171  1.00  0.00     0.029 A 
ATOM     58  C   UNL     1       9.272  10.041   8.844  1.00  0.00     0.049 A 
ATOM     59  H   UNL     1       8.319   8.575   7.665  1.00  0.00     0.167 HD
ATOM     60  C   UNL     1       8.978  11.154   6.638  1.00  0.00     0.074 A 
ATOM     61  C   UNL     1       9.119  12.284   5.740  1.00  0.00     0.031 C 
ATOM     62  C   UNL     1       9.410  11.145   7.925  1.00  0.00     0.037 A 
BRANCH  49  63
ATOM     63  C   UNL     1       8.283   5.866  10.968  1.00  0.00     0.058 A 
ATOM     64  C   UNL     1       9.107   4.739  11.126  1.00  0.00     0.135 A 
ATOM     65  C   UNL     1       7.487   6.249  12.060  1.00  0.00     0.135 A 
ATOM     66  F   UNL     1       9.873   4.314  10.109  1.00  0.00    -0.206 F 
ATOM     67  C   UNL     1       9.108   3.997  12.303  1.00  0.00     0.059 A 
ATOM     68  C   UNL     1       7.495   5.540  13.257  1.00  0.00     0.059 A 
ATOM     69  F   UNL     1       6.678   7.316  11.965  1.00  0.00    -0.206 F 
ATOM     70  C   UNL     1       8.293   4.402  13.362  1.00  0.00     0.060 A 
BRANCH  70  71
ATOM     71  S   UNL     1       8.287   3.419  14.876  1.00  0.00     0.124 S 
ATOM     72  O   UNL     1       7.522   2.247  14.459  1.00  0.00    -0.237 OA
ATOM     73  O   UNL     1       9.710   3.195  15.111  1.00  0.00    -0.237 OA
ATOM     74  O   UNL     1       7.624   4.288  15.843  1.00  0.00    -0.744 OA
ENDBRANCH  70  71
ENDBRANCH  49  63
BRANCH  50  75
ATOM     75  C   UNL     1       7.410  10.695   2.212  1.00  0.00     0.058 A 
ATOM     76  C   UNL     1       8.543  11.009   1.448  1.00  0.00     0.135 A 
ATOM     77  C   UNL     1       6.155  11.058   1.699  1.00  0.00     0.135 A 
ATOM     78  F   UNL     1       9.766  10.690   1.899  1.00  0.00    -0.206 F 
ATOM     79  C   UNL     1       8.439  11.665   0.226  1.00  0.00     0.059 A 
ATOM     80  C   UNL     1       6.023  11.692   0.468  1.00  0.00     0.059 A 
ATOM     81  F   UNL     1       5.039  10.768   2.386  1.00  0.00    -0.206 F 
ATOM     82  C   UNL     1       7.173  11.997  -0.259  1.00  0.00     0.060 A 
BRANCH  82  83
ATOM     83  S   UNL     1       7.049  12.793  -1.875  1.00  0.00     0.124 S 
ATOM     84  O   UNL     1       7.555  14.130  -1.584  1.00  0.00    -0.237 OA
ATOM     85  O   UNL     1       7.910  11.949  -2.698  1.00  0.00    -0.237 OA
ATOM     86  O   UNL     1       5.624  12.710  -2.182  1.00  0.00    -0.744 OA
ENDBRANCH  82  83
ENDBRANCH  50  75
BRANCH  62  87
ATOM     87  C   UNL     1      10.128  12.371   8.419  1.00  0.00     0.058 A 
ATOM     88  C   UNL     1       9.454  13.573   8.681  1.00  0.00     0.135 A 
ATOM     89  C   UNL     1      11.509  12.323   8.671  1.00  0.00     0.135 A 
ATOM     90  F   UNL     1       8.135  13.673   8.455  1.00  0.00    -0.206 F 
ATOM     91  C   UNL     1      10.132  14.697   9.145  1.00  0.00     0.059 A 
ATOM     92  C   UNL     1      12.200  13.424   9.163  1.00  0.00     0.059 A 
ATOM     93  F   UNL     1      12.198  11.191   8.452  1.00  0.00    -0.206 F 
ATOM     94  C   UNL     1      11.505  14.613   9.380  1.00  0.00     0.060 A 
BRANCH  94  95
ATOM     95  S   UNL     1      12.372  16.072   9.995  1.00  0.00     0.124 S 
ATOM     96  O   UNL     1      12.447  16.896   8.794  1.00  0.00    -0.237 OA
ATOM     97  O   UNL     1      11.473  16.554  11.040  1.00  0.00    -0.237 OA
ATOM     98  O   UNL     1      13.644  15.536  10.470  1.00  0.00    -0.744 OA
ENDBRANCH  94  95
ENDBRANCH  62  87
ENDBRANCH  36  37
ENDBRANCH  29  31
ENDBRANCH  28  29
ENDBRANCH  27  28
ENDBRANCH   1  27
TORSDOF 19
