REMARK SMILES C[C@H]1[C@H](C)CC[C@@]2(C(=O)OCCOCCOC(=O)c3ccc(-c4c5nc(c(-c6c(F)cc(S(=O)(=O)[O-])cc6F)c6ccc([nH]6)c(-c6c(F)cc(S(=O)(=O)[O-])cc6F)c6nc(c(-c7c(F)cc(S(=O)(=O)[O-])cc7F)c7ccc4[nH]7)C=C6)C=C5)cc3)CC[C@@]3(C)C(=CC[C@@H]4[C@@]5(C)CC[C@H](O)C(C)(C)[C@@H]5CC[C@]43C)[C@H]12
REMARK SMILES IDX 14 1 13 2 12 3 11 4 10 5 8 6 9 7 7 8 1 9 2 10 3 11 107 12
REMARK SMILES IDX 4 13 5 14 89 15 6 16 85 17 87 18 90 19 86 20 88 21 105 22
REMARK SMILES IDX 91 23 92 24 104 25 106 26 93 27 103 28 94 29 95 30 102 31
REMARK SMILES IDX 96 32 99 33 97 34 100 35 101 36 98 37 15 39 16 40 17 41
REMARK SMILES IDX 18 42 19 43 20 44 84 45 21 46 83 47 22 48 23 49 24 50 77 51
REMARK SMILES IDX 25 52 82 53 76 54 78 55 26 56 81 57 75 58 74 59 27 61 61 62
REMARK SMILES IDX 40 63 60 64 41 65 44 66 59 67 79 68 42 69 43 70 58 72 80 73
REMARK SMILES IDX 45 74 28 75 29 76 38 77 30 78 31 79 37 80 39 81 32 82 33 83
REMARK SMILES IDX 34 84 35 85 36 86 62 87 63 88 72 89 64 90 65 91 71 92 73 93
REMARK SMILES IDX 66 94 67 95 68 96 69 97 70 98 46 99 47 100 56 101 48 102
REMARK SMILES IDX 49 103 55 104 57 105 50 106 51 107 52 108 53 109 54 110
REMARK H PARENT 98 38 78 60 44 71
REMARK Flexibility Score: inf
ROOT
ATOM      1  C   UNL     1       3.414   2.686  -4.687  1.00  0.00     0.202 C 
ENDROOT
BRANCH   1   2
ATOM      2  O   UNL     1       4.079   1.450  -4.517  1.00  0.00    -0.374 OA
BRANCH   2   3
ATOM      3  C   UNL     1       3.839   0.753  -3.304  1.00  0.00     0.202 C 
BRANCH   3   4
ATOM      4  C   UNL     1       2.556   0.990  -2.485  1.00  0.00     0.261 C 
BRANCH   4   5
ATOM      5  O   UNL     1       2.539   2.239  -1.745  1.00  0.00    -0.463 OA
BRANCH   5   6
ATOM      6  C   UNL     1       1.509   3.125  -1.805  1.00  0.00     0.312 C 
ATOM      7  O   UNL     1       1.131   3.626  -2.858  1.00  0.00    -0.252 OA
BRANCH   6   8
ATOM      8  C   UNL     1       0.887   3.504  -0.420  1.00  0.00     0.075 C 
ATOM      9  C   UNL     1       0.651   0.007   1.403  1.00  0.00     0.008 C 
ATOM     10  C   UNL     1       0.495   1.087   0.328  1.00  0.00    -0.003 C 
ATOM     11  C   UNL     1      -1.035   1.254  -0.015  1.00  0.00    -0.011 C 
ATOM     12  C   UNL     1       1.230   2.462   0.698  1.00  0.00     0.036 C 
ATOM     13  C   UNL     1      -1.694  -0.015  -0.584  1.00  0.00     0.008 C 
ATOM     14  C   UNL     1      -1.305   2.353  -1.039  1.00  0.00     0.005 C 
ATOM     15  C   UNL     1       2.807   2.576   0.910  1.00  0.00    -0.063 C 
ATOM     16  C   UNL     1      -0.639   3.643  -0.647  1.00  0.00     0.020 C 
ATOM     17  C   UNL     1       1.294   4.912   0.055  1.00  0.00     0.020 C 
ATOM     18  C   UNL     1       3.417   3.997   1.237  1.00  0.00    -0.006 C 
ATOM     19  C   UNL     1       3.643   1.575   0.557  1.00  0.00    -0.027 C 
ATOM     20  C   UNL     1       2.766   5.084   0.337  1.00  0.00     0.013 C 
ATOM     21  C   UNL     1       3.068   4.307   2.712  1.00  0.00     0.017 C 
ATOM     22  C   UNL     1       5.050   4.068   1.012  1.00  0.00    -0.020 C 
ATOM     23  C   UNL     1       5.032   1.821  -0.011  1.00  0.00     0.032 C 
ATOM     24  C   UNL     1       5.303   3.322  -0.346  1.00  0.00     0.006 C 
ATOM     25  C   UNL     1       5.623   5.508   0.968  1.00  0.00     0.008 C 
ATOM     26  C   UNL     1       5.804   3.376   2.194  1.00  0.00     0.012 C 
ATOM     27  C   UNL     1       6.602   3.675  -1.230  1.00  0.00    -0.025 C 
ATOM     28  C   UNL     1       7.072   5.563   0.457  1.00  0.00     0.005 C 
ATOM     29  C   UNL     1       7.659   2.581  -1.000  1.00  0.00     0.012 C 
ATOM     30  C   UNL     1       6.233   3.653  -2.757  1.00  0.00     0.010 C 
ATOM     31  C   UNL     1       7.096   5.158  -1.018  1.00  0.00     0.003 C 
ATOM     32  C   UNL     1       7.368   4.063  -3.708  1.00  0.00     0.033 C 
ATOM     33  C   UNL     1       8.382   5.580  -1.841  1.00  0.00    -0.006 C 
ATOM     34  C   UNL     1       8.049   5.389  -3.354  1.00  0.00     0.120 C 
ATOM     35  C   UNL     1       9.681   4.851  -1.434  1.00  0.00     0.014 C 
ATOM     36  C   UNL     1       8.697   7.090  -1.639  1.00  0.00     0.014 C 
BRANCH  34  37
ATOM     37  O   UNL     1       9.213   5.559  -4.166  1.00  0.00    -0.393 OA
ATOM     38  H   UNL     1       9.853   4.858  -3.966  1.00  0.00     0.210 HD
ENDBRANCH  34  37
ENDBRANCH   6   8
ENDBRANCH   5   6
ENDBRANCH   4   5
ENDBRANCH   3   4
ENDBRANCH   2   3
ENDBRANCH   1   2
BRANCH   1  39
ATOM     39  C   UNL     1       2.103   2.536  -5.473  1.00  0.00     0.261 C 
BRANCH  39  40
ATOM     40  O   UNL     1       1.335   1.365  -5.135  1.00  0.00    -0.460 OA
BRANCH  40  41
ATOM     41  C   UNL     1       1.756   0.211  -5.702  1.00  0.00     0.338 C 
ATOM     42  O   UNL     1       2.641   0.072  -6.541  1.00  0.00    -0.246 OA
BRANCH  41  43
ATOM     43  C   UNL     1       1.064  -0.936  -5.089  1.00  0.00     0.060 A 
ATOM     44  C   UNL     1       1.825  -1.979  -4.541  1.00  0.00     0.016 A 
ATOM     45  C   UNL     1      -0.324  -1.046  -5.191  1.00  0.00     0.016 A 
ATOM     46  C   UNL     1       1.213  -3.168  -4.162  1.00  0.00     0.010 A 
ATOM     47  C   UNL     1      -0.933  -2.254  -4.855  1.00  0.00     0.010 A 
ATOM     48  C   UNL     1      -0.153  -3.333  -4.403  1.00  0.00    -0.014 A 
BRANCH  48  49
ATOM     49  C   UNL     1      -0.697  -4.705  -4.476  1.00  0.00     0.031 A 
ATOM     50  C   UNL     1      -0.757  -5.358  -5.832  1.00  0.00     0.074 A 
ATOM     51  C   UNL     1      -1.085  -5.352  -3.367  1.00  0.00     0.049 A 
ATOM     52  N   UNL     1      -1.278  -6.503  -6.181  1.00  0.00    -0.248 NA
ATOM     53  C   UNL     1      -0.145  -4.612  -6.947  1.00  0.00     0.031 C 
ATOM     54  C   UNL     1      -0.986  -4.825  -2.006  1.00  0.00     0.029 A 
ATOM     55  N   UNL     1      -1.651  -6.589  -3.213  1.00  0.00    -0.354 N 
ATOM     56  C   UNL     1      -1.077  -6.604  -7.554  1.00  0.00     0.074 A 
ATOM     57  C   UNL     1      -0.404  -5.400  -7.980  1.00  0.00     0.031 C 
ATOM     58  C   UNL     1      -1.502  -5.727  -1.154  1.00  0.00     0.029 A 
ATOM     59  C   UNL     1      -2.005  -6.869  -1.916  1.00  0.00     0.049 A 
ATOM     60  H   UNL     1      -1.790  -7.217  -3.959  1.00  0.00     0.167 HD
ATOM     61  C   UNL     1      -1.428  -7.617  -8.380  1.00  0.00     0.037 A 
ATOM     62  C   UNL     1      -2.693  -7.913  -1.418  1.00  0.00     0.037 A 
ATOM     63  C   UNL     1      -2.100  -8.804  -7.925  1.00  0.00     0.049 A 
ATOM     64  C   UNL     1      -3.143  -8.994  -2.367  1.00  0.00     0.074 A 
ATOM     65  C   UNL     1      -2.509  -9.901  -8.660  1.00  0.00     0.029 A 
ATOM     66  N   UNL     1      -2.466  -9.043  -6.606  1.00  0.00    -0.354 N 
ATOM     67  N   UNL     1      -2.960  -9.081  -3.665  1.00  0.00    -0.248 NA
ATOM     68  C   UNL     1      -3.890 -10.117  -1.788  1.00  0.00     0.031 C 
ATOM     69  C   UNL     1      -3.173 -10.777  -7.795  1.00  0.00     0.029 A 
ATOM     70  C   UNL     1      -3.119 -10.259  -6.509  1.00  0.00     0.049 A 
ATOM     71  H   UNL     1      -2.287  -8.437  -5.852  1.00  0.00     0.167 HD
ATOM     72  C   UNL     1      -3.542 -10.282  -4.054  1.00  0.00     0.074 A 
ATOM     73  C   UNL     1      -4.074 -10.891  -2.850  1.00  0.00     0.031 C 
ATOM     74  C   UNL     1      -3.629 -10.837  -5.289  1.00  0.00     0.037 A 
BRANCH  61  75
ATOM     75  C   UNL     1      -1.135  -7.461  -9.849  1.00  0.00     0.058 A 
ATOM     76  C   UNL     1       0.173  -7.490 -10.358  1.00  0.00     0.135 A 
ATOM     77  C   UNL     1      -2.187  -7.300 -10.767  1.00  0.00     0.135 A 
ATOM     78  F   UNL     1       1.220  -7.617  -9.527  1.00  0.00    -0.206 F 
ATOM     79  C   UNL     1       0.430  -7.345 -11.719  1.00  0.00     0.059 A 
ATOM     80  C   UNL     1      -1.956  -7.182 -12.134  1.00  0.00     0.059 A 
ATOM     81  F   UNL     1      -3.458  -7.254 -10.337  1.00  0.00    -0.206 F 
ATOM     82  C   UNL     1      -0.642  -7.194 -12.600  1.00  0.00     0.060 A 
BRANCH  82  83
ATOM     83  S   UNL     1      -0.294  -7.026 -14.364  1.00  0.00     0.124 S 
ATOM     84  O   UNL     1       0.291  -5.691 -14.421  1.00  0.00    -0.237 OA
ATOM     85  O   UNL     1       0.627  -8.133 -14.605  1.00  0.00    -0.237 OA
ATOM     86  O   UNL     1      -1.608  -7.162 -14.985  1.00  0.00    -0.744 OA
ENDBRANCH  82  83
ENDBRANCH  61  75
BRANCH  62  87
ATOM     87  C   UNL     1      -3.013  -7.968   0.033  1.00  0.00     0.058 A 
ATOM     88  C   UNL     1      -2.434  -8.932   0.870  1.00  0.00     0.135 A 
ATOM     89  C   UNL     1      -3.894  -7.043   0.618  1.00  0.00     0.135 A 
ATOM     90  F   UNL     1      -1.591  -9.843   0.360  1.00  0.00    -0.206 F 
ATOM     91  C   UNL     1      -2.723  -8.986   2.230  1.00  0.00     0.059 A 
ATOM     92  C   UNL     1      -4.176  -7.058   1.980  1.00  0.00     0.059 A 
ATOM     93  F   UNL     1      -4.466  -6.090  -0.135  1.00  0.00    -0.206 F 
ATOM     94  C   UNL     1      -3.593  -8.041   2.776  1.00  0.00     0.060 A 
BRANCH  94  95
ATOM     95  S   UNL     1      -3.921  -8.090   4.551  1.00  0.00     0.124 S 
ATOM     96  O   UNL     1      -4.739  -9.292   4.665  1.00  0.00    -0.237 OA
ATOM     97  O   UNL     1      -2.575  -8.178   5.108  1.00  0.00    -0.237 OA
ATOM     98  O   UNL     1      -4.613  -6.829   4.800  1.00  0.00    -0.744 OA
ENDBRANCH  94  95
ENDBRANCH  62  87
BRANCH  74  99
ATOM     99  C   UNL     1      -4.281 -12.188  -5.392  1.00  0.00     0.058 A 
ATOM    100  C   UNL     1      -5.665 -12.355  -5.239  1.00  0.00     0.135 A 
ATOM    101  C   UNL     1      -3.512 -13.320  -5.707  1.00  0.00     0.135 A 
ATOM    102  F   UNL     1      -6.444 -11.305  -4.932  1.00  0.00    -0.206 F 
ATOM    103  C   UNL     1      -6.262 -13.604  -5.368  1.00  0.00     0.059 A 
ATOM    104  C   UNL     1      -4.092 -14.572  -5.875  1.00  0.00     0.059 A 
ATOM    105  F   UNL     1      -2.184 -13.210  -5.877  1.00  0.00    -0.206 F 
ATOM    106  C   UNL     1      -5.467 -14.706  -5.690  1.00  0.00     0.060 A 
BRANCH 106 107
ATOM    107  S   UNL     1      -6.260 -16.314  -5.888  1.00  0.00     0.124 S 
ATOM    108  O   UNL     1      -6.586 -16.652  -4.506  1.00  0.00    -0.237 OA
ATOM    109  O   UNL     1      -7.395 -15.998  -6.748  1.00  0.00    -0.237 OA
ATOM    110  O   UNL     1      -5.221 -17.133  -6.505  1.00  0.00    -0.744 OA
ENDBRANCH 106 107
ENDBRANCH  74  99
ENDBRANCH  48  49
ENDBRANCH  41  43
ENDBRANCH  40  41
ENDBRANCH  39  40
ENDBRANCH   1  39
TORSDOF 18
