REMARK SMILES O=C(OCCOCCOC(=O)[C@@H]1[C@H](C(=O)NCc2ccncc2)[C@H]2C=C[C@@H]1O2)c1ccc(-c2c3nc(c(-c4c(F)cc(S(=O)(=O)[O-])cc4F)c4ccc([nH]4)c(-c4c(F)cc(S(=O)(=O)[O-])cc4F)c4nc(c(-c5c(F)cc(S(=O)(=O)[O-])cc5F)c5ccc2[nH]5)C=C4)C=C3)cc1
REMARK SMILES IDX 6 1 5 2 4 3 3 4 2 5 1 6 29 7 30 8 94 9 31 10 93 11 32 12
REMARK SMILES IDX 33 13 34 14 87 15 35 16 92 17 86 18 88 19 36 20 91 21 85 22
REMARK SMILES IDX 84 23 37 25 71 26 50 27 70 28 51 29 54 30 69 31 89 32 52 33
REMARK SMILES IDX 53 34 68 36 90 37 55 38 38 39 39 40 48 41 40 42 41 43 47 44
REMARK SMILES IDX 49 45 42 46 43 47 44 48 45 49 46 50 72 51 73 52 82 53 74 54
REMARK SMILES IDX 75 55 81 56 83 57 76 58 77 59 78 60 79 61 80 62 56 63 57 64
REMARK SMILES IDX 66 65 58 66 59 67 65 68 67 69 60 70 61 71 62 72 63 73 64 74
REMARK SMILES IDX 7 75 8 76 9 77 10 78 11 79 12 80 13 81 27 82 24 83 26 84
REMARK SMILES IDX 28 85 25 86 14 87 15 88 16 89 17 91 18 92 19 93 23 94 20 95
REMARK SMILES IDX 22 96 21 97
REMARK H PARENT 88 24 54 35 16 90
REMARK Flexibility Score: inf
ROOT
ATOM      1  O   UNL     1       3.788   1.365   0.707  1.00  0.00    -0.374 OA
ENDROOT
BRANCH   1   2
ATOM      2  C   UNL     1       4.205   1.300  -0.661  1.00  0.00     0.202 C 
BRANCH   2   3
ATOM      3  C   UNL     1       3.955  -0.029  -1.388  1.00  0.00     0.261 C 
BRANCH   3   4
ATOM      4  O   UNL     1       2.600  -0.474  -1.236  1.00  0.00    -0.460 OA
BRANCH   4   5
ATOM      5  C   UNL     1       2.113  -1.326  -0.299  1.00  0.00     0.338 C 
ATOM      6  O   UNL     1       0.905  -1.555  -0.284  1.00  0.00    -0.246 OA
BRANCH   5   7
ATOM      7  C   UNL     1       2.975  -2.020   0.706  1.00  0.00     0.060 A 
ATOM      8  C   UNL     1       4.173  -1.516   1.207  1.00  0.00     0.016 A 
ATOM      9  C   UNL     1       2.508  -3.239   1.226  1.00  0.00     0.016 A 
ATOM     10  C   UNL     1       4.930  -2.213   2.124  1.00  0.00     0.010 A 
ATOM     11  C   UNL     1       3.244  -3.935   2.193  1.00  0.00     0.010 A 
ATOM     12  C   UNL     1       4.468  -3.423   2.627  1.00  0.00    -0.014 A 
BRANCH  12  13
ATOM     13  C   UNL     1       5.397  -4.137   3.516  1.00  0.00     0.031 A 
ATOM     14  C   UNL     1       6.191  -5.262   2.943  1.00  0.00     0.074 A 
ATOM     15  C   UNL     1       5.681  -3.593   4.714  1.00  0.00     0.049 A 
ATOM     16  N   UNL     1       7.106  -5.990   3.516  1.00  0.00    -0.248 NA
ATOM     17  C   UNL     1       5.929  -5.612   1.535  1.00  0.00     0.031 C 
ATOM     18  C   UNL     1       5.003  -2.421   5.271  1.00  0.00     0.029 A 
ATOM     19  N   UNL     1       6.642  -3.887   5.639  1.00  0.00    -0.354 N 
ATOM     20  C   UNL     1       7.501  -6.910   2.557  1.00  0.00     0.074 A 
ATOM     21  C   UNL     1       6.735  -6.648   1.360  1.00  0.00     0.031 C 
ATOM     22  C   UNL     1       5.627  -2.040   6.396  1.00  0.00     0.029 A 
ATOM     23  C   UNL     1       6.666  -3.013   6.703  1.00  0.00     0.049 A 
ATOM     24  H   UNL     1       7.259  -4.649   5.552  1.00  0.00     0.167 HD
ATOM     25  C   UNL     1       8.417  -7.894   2.689  1.00  0.00     0.037 A 
ATOM     26  C   UNL     1       7.414  -3.042   7.823  1.00  0.00     0.037 A 
ATOM     27  C   UNL     1       9.150  -8.114   3.907  1.00  0.00     0.049 A 
ATOM     28  C   UNL     1       8.374  -4.194   7.969  1.00  0.00     0.074 A 
ATOM     29  C   UNL     1      10.022  -9.138   4.221  1.00  0.00     0.029 A 
ATOM     30  N   UNL     1       9.095  -7.275   5.015  1.00  0.00    -0.354 N 
ATOM     31  N   UNL     1       8.659  -5.142   7.102  1.00  0.00    -0.248 NA
ATOM     32  C   UNL     1       9.082  -4.312   9.247  1.00  0.00     0.031 C 
ATOM     33  C   UNL     1      10.464  -8.938   5.534  1.00  0.00     0.029 A 
ATOM     34  C   UNL     1       9.914  -7.760   6.018  1.00  0.00     0.049 A 
ATOM     35  H   UNL     1       8.552  -6.456   5.077  1.00  0.00     0.167 HD
ATOM     36  C   UNL     1       9.571  -5.975   7.735  1.00  0.00     0.074 A 
ATOM     37  C   UNL     1       9.827  -5.388   9.038  1.00  0.00     0.031 C 
ATOM     38  C   UNL     1      10.133  -7.131   7.299  1.00  0.00     0.037 A 
BRANCH  25  39
ATOM     39  C   UNL     1       8.592  -8.828   1.528  1.00  0.00     0.058 A 
ATOM     40  C   UNL     1       9.228  -8.432   0.341  1.00  0.00     0.135 A 
ATOM     41  C   UNL     1       8.085 -10.136   1.595  1.00  0.00     0.135 A 
ATOM     42  F   UNL     1       9.691  -7.178   0.207  1.00  0.00    -0.206 F 
ATOM     43  C   UNL     1       9.342  -9.295  -0.744  1.00  0.00     0.059 A 
ATOM     44  C   UNL     1       8.211 -11.024   0.532  1.00  0.00     0.059 A 
ATOM     45  F   UNL     1       7.445 -10.557   2.697  1.00  0.00    -0.206 F 
ATOM     46  C   UNL     1       8.833 -10.591  -0.638  1.00  0.00     0.060 A 
BRANCH  46  47
ATOM     47  S   UNL     1       9.001 -11.702  -2.050  1.00  0.00     0.124 S 
ATOM     48  O   UNL     1       8.061 -11.113  -2.999  1.00  0.00    -0.237 OA
ATOM     49  O   UNL     1      10.413 -11.562  -2.388  1.00  0.00    -0.237 OA
ATOM     50  O   UNL     1       8.614 -13.001  -1.509  1.00  0.00    -0.744 OA
ENDBRANCH  46  47
ENDBRANCH  25  39
BRANCH  26  51
ATOM     51  C   UNL     1       7.208  -2.046   8.915  1.00  0.00     0.058 A 
ATOM     52  C   UNL     1       8.243  -1.210   9.362  1.00  0.00     0.135 A 
ATOM     53  C   UNL     1       5.968  -1.938   9.568  1.00  0.00     0.135 A 
ATOM     54  F   UNL     1       9.453  -1.272   8.785  1.00  0.00    -0.206 F 
ATOM     55  C   UNL     1       8.067  -0.333  10.432  1.00  0.00     0.059 A 
ATOM     56  C   UNL     1       5.755  -1.040  10.609  1.00  0.00     0.059 A 
ATOM     57  F   UNL     1       4.936  -2.709   9.190  1.00  0.00    -0.206 F 
ATOM     58  C   UNL     1       6.818  -0.259  11.051  1.00  0.00     0.060 A 
BRANCH  58  59
ATOM     59  S   UNL     1       6.595   0.870  12.444  1.00  0.00     0.124 S 
ATOM     60  O   UNL     1       7.323   0.176  13.501  1.00  0.00    -0.237 OA
ATOM     61  O   UNL     1       7.208   2.098  11.949  1.00  0.00    -0.237 OA
ATOM     62  O   UNL     1       5.146   0.922  12.608  1.00  0.00    -0.744 OA
ENDBRANCH  58  59
ENDBRANCH  26  51
BRANCH  38  63
ATOM     63  C   UNL     1      11.092  -7.804   8.237  1.00  0.00     0.058 A 
ATOM     64  C   UNL     1      10.651  -8.453   9.400  1.00  0.00     0.135 A 
ATOM     65  C   UNL     1      12.465  -7.823   7.947  1.00  0.00     0.135 A 
ATOM     66  F   UNL     1       9.347  -8.456   9.721  1.00  0.00    -0.206 F 
ATOM     67  C   UNL     1      11.546  -9.066  10.267  1.00  0.00     0.059 A 
ATOM     68  C   UNL     1      13.373  -8.460   8.782  1.00  0.00     0.059 A 
ATOM     69  F   UNL     1      12.932  -7.228   6.838  1.00  0.00    -0.206 F 
ATOM     70  C   UNL     1      12.906  -9.063   9.949  1.00  0.00     0.060 A 
BRANCH  70  71
ATOM     71  S   UNL     1      14.057  -9.874  11.076  1.00  0.00     0.124 S 
ATOM     72  O   UNL     1      14.101  -8.924  12.182  1.00  0.00    -0.237 OA
ATOM     73  O   UNL     1      13.384 -11.140  11.352  1.00  0.00    -0.237 OA
ATOM     74  O   UNL     1      15.282  -9.981  10.289  1.00  0.00    -0.744 OA
ENDBRANCH  70  71
ENDBRANCH  38  63
ENDBRANCH  12  13
ENDBRANCH   5   7
ENDBRANCH   4   5
ENDBRANCH   3   4
ENDBRANCH   2   3
ENDBRANCH   1   2
BRANCH   1  75
ATOM     75  C   UNL     1       2.392   1.611   0.918  1.00  0.00     0.202 C 
BRANCH  75  76
ATOM     76  C   UNL     1       2.177   3.035   1.404  1.00  0.00     0.261 C 
BRANCH  76  77
ATOM     77  O   UNL     1       2.839   3.880   0.453  1.00  0.00    -0.463 OA
BRANCH  77  78
ATOM     78  C   UNL     1       3.987   4.456   0.903  1.00  0.00     0.312 C 
ATOM     79  O   UNL     1       4.211   4.732   2.065  1.00  0.00    -0.252 OA
BRANCH  78  80
ATOM     80  C   UNL     1       4.836   4.864  -0.256  1.00  0.00     0.147 C 
ATOM     81  C   UNL     1       6.290   4.368  -0.439  1.00  0.00     0.128 C 
ATOM     82  C   UNL     1       5.035   6.378  -0.123  1.00  0.00     0.157 C 
ATOM     83  C   UNL     1       7.081   5.680  -0.361  1.00  0.00     0.155 C 
ATOM     84  C   UNL     1       5.500   6.929  -1.438  1.00  0.00     0.004 C 
ATOM     85  O   UNL     1       6.293   6.422   0.601  1.00  0.00    -0.365 OA
ATOM     86  C   UNL     1       6.766   6.508  -1.584  1.00  0.00     0.004 C 
BRANCH  81  87
ATOM     87  C   UNL     1       6.990   3.214   0.262  1.00  0.00     0.227 C 
ATOM     88  O   UNL     1       7.449   2.315  -0.465  1.00  0.00    -0.275 OA
ATOM     89  N   UNL     1       7.263   3.053   1.564  1.00  0.00    -0.352 N 
ATOM     90  H   UNL     1       7.749   2.216   1.745  1.00  0.00     0.163 HD
BRANCH  89  91
ATOM     91  C   UNL     1       7.013   3.817   2.770  1.00  0.00     0.151 C 
BRANCH  91  92
ATOM     92  C   UNL     1       6.012   3.152   3.686  1.00  0.00    -0.026 A 
ATOM     93  C   UNL     1       5.243   3.948   4.545  1.00  0.00     0.025 A 
ATOM     94  C   UNL     1       5.788   1.774   3.709  1.00  0.00     0.025 A 
ATOM     95  C   UNL     1       4.218   3.365   5.273  1.00  0.00     0.111 A 
ATOM     96  C   UNL     1       4.746   1.285   4.483  1.00  0.00     0.111 A 
ATOM     97  N   UNL     1       3.938   2.048   5.245  1.00  0.00    -0.265 NA
ENDBRANCH  91  92
ENDBRANCH  89  91
ENDBRANCH  81  87
ENDBRANCH  78  80
ENDBRANCH  77  78
ENDBRANCH  76  77
ENDBRANCH  75  76
ENDBRANCH   1  75
TORSDOF 20
