REMARK SMILES O=C(Cn1c(SCCc2ccccc2)nc2ccccc21)OCCOCCOC(=O)c1ccc(-c2c3nc(c(-c4c(F)cc(S(=O)(=O)[O-])cc4F)c4ccc([nH]4)c(-c4c(F)cc(S(=O)(=O)[O-])cc4F)c4nc(c(-c5c(F)cc(S(=O)(=O)[O-])cc5F)c5ccc2[nH]5)C=C4)C=C3)cc1
REMARK SMILES IDX 24 1 23 2 22 3 2 4 1 5 3 6 4 7 5 8 21 9 15 10 16 11 20 12
REMARK SMILES IDX 17 13 19 14 18 15 6 16 7 17 8 18 9 19 10 20 14 21 11 22
REMARK SMILES IDX 13 23 12 24 25 25 26 26 27 27 28 28 29 29 30 30 31 31 32 32
REMARK SMILES IDX 96 33 33 34 95 35 34 36 35 37 36 38 89 39 37 40 94 41 88 42
REMARK SMILES IDX 90 43 38 44 93 45 87 46 86 47 39 49 73 50 52 51 72 52 53 53
REMARK SMILES IDX 56 54 71 55 91 56 54 57 55 58 70 60 92 61 57 62 40 63 41 64
REMARK SMILES IDX 50 65 42 66 43 67 49 68 51 69 44 70 45 71 46 72 47 73 48 74
REMARK SMILES IDX 74 75 75 76 84 77 76 78 77 79 83 80 85 81 78 82 79 83 80 84
REMARK SMILES IDX 81 85 82 86 58 87 59 88 68 89 60 90 61 91 67 92 69 93 62 94
REMARK SMILES IDX 63 95 64 96 65 97 66 98
REMARK H PARENT 90 48 56 59
REMARK Flexibility Score: inf
ROOT
ATOM      1  C   UNL     1       3.569   1.186  -1.695  1.00  0.00     0.202 C 
ENDROOT
BRANCH   1   2
ATOM      2  C   UNL     1       2.356   0.391  -1.211  1.00  0.00     0.261 C 
BRANCH   2   3
ATOM      3  O   UNL     1       1.892   1.045  -0.022  1.00  0.00    -0.462 OA
BRANCH   3   4
ATOM      4  C   UNL     1       0.888   0.443   0.659  1.00  0.00     0.326 C 
ATOM      5  O   UNL     1       0.135  -0.390   0.176  1.00  0.00    -0.250 OA
BRANCH   4   6
ATOM      6  C   UNL     1       0.843   0.964   2.087  1.00  0.00     0.247 C 
BRANCH   6   7
ATOM      7  N   UNL     1       1.844   0.375   2.968  1.00  0.00    -0.308 N 
ATOM      8  C   UNL     1       2.779   1.021   3.766  1.00  0.00     0.169 A 
ATOM      9  C   UNL     1       2.140  -0.982   3.002  1.00  0.00     0.069 A 
ATOM     10  N   UNL     1       3.647   0.172   4.266  1.00  0.00    -0.222 NA
ATOM     11  C   UNL     1       3.318  -1.055   3.743  1.00  0.00     0.090 A 
ATOM     12  C   UNL     1       1.561  -2.116   2.408  1.00  0.00     0.028 A 
ATOM     13  C   UNL     1       4.011  -2.272   3.816  1.00  0.00     0.030 A 
ATOM     14  C   UNL     1       2.274  -3.316   2.474  1.00  0.00     0.002 A 
ATOM     15  C   UNL     1       3.498  -3.378   3.134  1.00  0.00     0.002 A 
BRANCH   8  16
ATOM     16  S   UNL     1       2.833   2.721   4.153  1.00  0.00    -0.088 SA
BRANCH  16  17
ATOM     17  C   UNL     1       3.826   3.621   2.880  1.00  0.00     0.083 C 
BRANCH  17  18
ATOM     18  C   UNL     1       5.316   3.317   2.562  1.00  0.00     0.047 C 
BRANCH  18  19
ATOM     19  C   UNL     1       5.616   2.024   1.868  1.00  0.00    -0.047 A 
ATOM     20  C   UNL     1       6.915   1.576   1.617  1.00  0.00     0.004 A 
ATOM     21  C   UNL     1       4.560   1.240   1.440  1.00  0.00     0.004 A 
ATOM     22  C   UNL     1       7.106   0.396   0.911  1.00  0.00     0.000 A 
ATOM     23  C   UNL     1       4.736  -0.016   0.927  1.00  0.00     0.000 A 
ATOM     24  C   UNL     1       5.997  -0.344   0.538  1.00  0.00     0.000 A 
ENDBRANCH  18  19
ENDBRANCH  17  18
ENDBRANCH  16  17
ENDBRANCH   8  16
ENDBRANCH   6   7
ENDBRANCH   4   6
ENDBRANCH   3   4
ENDBRANCH   2   3
ENDBRANCH   1   2
BRANCH   1  25
ATOM     25  O   UNL     1       3.328   2.512  -2.147  1.00  0.00    -0.374 OA
BRANCH  25  26
ATOM     26  C   UNL     1       2.361   2.623  -3.174  1.00  0.00     0.202 C 
BRANCH  26  27
ATOM     27  C   UNL     1       2.805   2.089  -4.549  1.00  0.00     0.261 C 
BRANCH  27  28
ATOM     28  O   UNL     1       3.354   0.751  -4.495  1.00  0.00    -0.460 OA
BRANCH  28  29
ATOM     29  C   UNL     1       4.684   0.633  -4.829  1.00  0.00     0.338 C 
ATOM     30  O   UNL     1       5.325   1.427  -5.474  1.00  0.00    -0.246 OA
BRANCH  29  31
ATOM     31  C   UNL     1       5.304  -0.489  -4.034  1.00  0.00     0.060 A 
ATOM     32  C   UNL     1       4.609  -1.658  -3.707  1.00  0.00     0.016 A 
ATOM     33  C   UNL     1       6.544  -0.245  -3.419  1.00  0.00     0.016 A 
ATOM     34  C   UNL     1       5.138  -2.554  -2.757  1.00  0.00     0.010 A 
ATOM     35  C   UNL     1       7.072  -1.147  -2.474  1.00  0.00     0.010 A 
ATOM     36  C   UNL     1       6.370  -2.310  -2.113  1.00  0.00    -0.014 A 
BRANCH  36  37
ATOM     37  C   UNL     1       7.041  -3.425  -1.372  1.00  0.00     0.031 A 
ATOM     38  C   UNL     1       7.418  -4.473  -2.346  1.00  0.00     0.074 A 
ATOM     39  C   UNL     1       7.404  -3.697  -0.083  1.00  0.00     0.049 A 
ATOM     40  N   UNL     1       6.851  -5.629  -2.420  1.00  0.00    -0.248 NA
ATOM     41  C   UNL     1       8.350  -4.169  -3.436  1.00  0.00     0.031 C 
ATOM     42  C   UNL     1       7.194  -2.960   1.159  1.00  0.00     0.029 A 
ATOM     43  N   UNL     1       8.165  -4.751   0.394  1.00  0.00    -0.354 N 
ATOM     44  C   UNL     1       7.521  -6.299  -3.421  1.00  0.00     0.074 A 
ATOM     45  C   UNL     1       8.303  -5.311  -4.124  1.00  0.00     0.031 C 
ATOM     46  C   UNL     1       8.065  -3.327   2.118  1.00  0.00     0.029 A 
ATOM     47  C   UNL     1       8.707  -4.537   1.661  1.00  0.00     0.049 A 
ATOM     48  H   UNL     1       8.312  -5.580  -0.117  1.00  0.00     0.167 HD
ATOM     49  C   UNL     1       7.567  -7.654  -3.428  1.00  0.00     0.037 A 
ATOM     50  C   UNL     1       9.456  -5.330   2.462  1.00  0.00     0.037 A 
ATOM     51  C   UNL     1       6.551  -8.242  -2.589  1.00  0.00     0.049 A 
ATOM     52  C   UNL     1       9.128  -6.728   2.130  1.00  0.00     0.074 A 
ATOM     53  C   UNL     1       5.177  -8.114  -2.505  1.00  0.00     0.029 A 
ATOM     54  N   UNL     1       6.935  -8.867  -1.428  1.00  0.00    -0.354 N 
ATOM     55  N   UNL     1       8.006  -7.314   2.448  1.00  0.00    -0.248 NA
ATOM     56  C   UNL     1       9.902  -7.382   1.093  1.00  0.00     0.031 C 
ATOM     57  C   UNL     1       4.869  -8.242  -1.122  1.00  0.00     0.029 A 
ATOM     58  C   UNL     1       6.055  -8.507  -0.435  1.00  0.00     0.049 A 
ATOM     59  H   UNL     1       7.707  -9.468  -1.324  1.00  0.00     0.167 HD
ATOM     60  C   UNL     1       7.707  -8.102   1.352  1.00  0.00     0.074 A 
ATOM     61  C   UNL     1       8.971  -8.216   0.628  1.00  0.00     0.031 C 
ATOM     62  C   UNL     1       6.416  -8.350   0.970  1.00  0.00     0.037 A 
BRANCH  49  63
ATOM     63  C   UNL     1       8.767  -8.403  -3.921  1.00  0.00     0.058 A 
ATOM     64  C   UNL     1       8.661  -9.773  -4.210  1.00  0.00     0.135 A 
ATOM     65  C   UNL     1      10.077  -7.873  -3.875  1.00  0.00     0.135 A 
ATOM     66  F   UNL     1       7.461 -10.373  -4.237  1.00  0.00    -0.206 F 
ATOM     67  C   UNL     1       9.785 -10.573  -4.399  1.00  0.00     0.059 A 
ATOM     68  C   UNL     1      11.206  -8.637  -4.123  1.00  0.00     0.059 A 
ATOM     69  F   UNL     1      10.324  -6.614  -3.486  1.00  0.00    -0.206 F 
ATOM     70  C   UNL     1      11.052  -9.995  -4.343  1.00  0.00     0.060 A 
BRANCH  70  71
ATOM     71  S   UNL     1      12.507 -11.045  -4.476  1.00  0.00     0.124 S 
ATOM     72  O   UNL     1      12.466 -11.750  -3.200  1.00  0.00    -0.237 OA
ATOM     73  O   UNL     1      12.199 -11.839  -5.660  1.00  0.00    -0.237 OA
ATOM     74  O   UNL     1      13.596 -10.087  -4.636  1.00  0.00    -0.744 OA
ENDBRANCH  70  71
ENDBRANCH  49  63
BRANCH  50  75
ATOM     75  C   UNL     1      10.530  -4.917   3.400  1.00  0.00     0.058 A 
ATOM     76  C   UNL     1      11.056  -5.798   4.360  1.00  0.00     0.135 A 
ATOM     77  C   UNL     1      11.262  -3.731   3.177  1.00  0.00     0.135 A 
ATOM     78  F   UNL     1      10.424  -6.946   4.643  1.00  0.00    -0.206 F 
ATOM     79  C   UNL     1      12.281  -5.561   4.994  1.00  0.00     0.059 A 
ATOM     80  C   UNL     1      12.480  -3.469   3.803  1.00  0.00     0.059 A 
ATOM     81  F   UNL     1      10.859  -2.834   2.263  1.00  0.00    -0.206 F 
ATOM     82  C   UNL     1      13.004  -4.411   4.679  1.00  0.00     0.060 A 
BRANCH  82  83
ATOM     83  S   UNL     1      14.697  -4.235   5.292  1.00  0.00     0.124 S 
ATOM     84  O   UNL     1      14.486  -4.033   6.721  1.00  0.00    -0.237 OA
ATOM     85  O   UNL     1      15.294  -5.511   4.910  1.00  0.00    -0.237 OA
ATOM     86  O   UNL     1      15.204  -3.074   4.565  1.00  0.00    -0.744 OA
ENDBRANCH  82  83
ENDBRANCH  50  75
BRANCH  62  87
ATOM     87  C   UNL     1       5.261  -8.199   1.956  1.00  0.00     0.058 A 
ATOM     88  C   UNL     1       5.021  -7.107   2.809  1.00  0.00     0.135 A 
ATOM     89  C   UNL     1       4.241  -9.178   1.914  1.00  0.00     0.135 A 
ATOM     90  F   UNL     1       5.857  -6.060   2.871  1.00  0.00    -0.206 F 
ATOM     91  C   UNL     1       3.847  -7.000   3.566  1.00  0.00     0.059 A 
ATOM     92  C   UNL     1       3.028  -9.042   2.591  1.00  0.00     0.059 A 
ATOM     93  F   UNL     1       4.383 -10.267   1.140  1.00  0.00    -0.206 F 
ATOM     94  C   UNL     1       2.830  -7.934   3.401  1.00  0.00     0.060 A 
BRANCH  94  95
ATOM     95  S   UNL     1       1.230  -7.644   4.184  1.00  0.00     0.124 S 
ATOM     96  O   UNL     1       1.597  -7.236   5.535  1.00  0.00    -0.237 OA
ATOM     97  O   UNL     1       0.671  -6.596   3.333  1.00  0.00    -0.237 OA
ATOM     98  O   UNL     1       0.565  -8.941   4.088  1.00  0.00    -0.744 OA
ENDBRANCH  94  95
ENDBRANCH  62  87
ENDBRANCH  36  37
ENDBRANCH  29  31
ENDBRANCH  28  29
ENDBRANCH  27  28
ENDBRANCH  26  27
ENDBRANCH  25  26
ENDBRANCH   1  25
TORSDOF 22
