REMARK SMILES C[C@@H]1[C@@H](C(=O)OCCOCCOC(=O)c2ccc(-c3c4nc(c(-c5c(F)cc(S(=O)(=O)[O-])cc5F)c5ccc([nH]5)c(-c5c(F)cc(S(=O)(=O)[O-])cc5F)c5nc(c(-c6c(F)cc(S(=O)(=O)[O-])cc6F)c6ccc3[nH]6)C=C5)C=C4)cc2)CCN1C(=O)N(C)Cc1ccsc1
REMARK SMILES IDX 8 1 7 2 6 3 4 4 5 5 3 6 1 7 2 8 83 9 81 10 82 11 84 12 85 13
REMARK SMILES IDX 86 14 87 15 88 16 89 17 90 18 93 19 91 20 92 21 9 22 10 23
REMARK SMILES IDX 11 24 12 25 13 26 14 27 15 28 16 29 80 30 17 31 79 32 18 33
REMARK SMILES IDX 19 34 20 35 73 36 21 37 78 38 72 39 74 40 22 41 77 42 71 43
REMARK SMILES IDX 70 44 23 46 57 47 36 48 56 49 37 50 40 51 55 52 75 53 38 54
REMARK SMILES IDX 39 55 54 57 76 58 41 59 24 60 25 61 34 62 26 63 27 64 33 65
REMARK SMILES IDX 35 66 28 67 29 68 30 69 31 70 32 71 58 72 59 73 68 74 60 75
REMARK SMILES IDX 61 76 67 77 69 78 62 79 63 80 64 81 65 82 66 83 42 84 43 85
REMARK SMILES IDX 52 86 44 87 45 88 51 89 53 90 46 91 47 92 48 93 49 94 50 95
REMARK H PARENT 74 45 40 56
REMARK Flexibility Score: inf
ROOT
ATOM      1  C   UNL     1      -1.486   2.449  -4.553  1.00  0.00     0.202 C 
ENDROOT
BRANCH   1   2
ATOM      2  C   UNL     1      -2.280   1.483  -3.666  1.00  0.00     0.261 C 
BRANCH   2   3
ATOM      3  O   UNL     1      -1.889   1.544  -2.288  1.00  0.00    -0.463 OA
BRANCH   3   4
ATOM      4  C   UNL     1      -1.041   0.544  -1.920  1.00  0.00     0.311 C 
ATOM      5  O   UNL     1      -0.677  -0.364  -2.656  1.00  0.00    -0.252 OA
BRANCH   4   6
ATOM      6  C   UNL     1      -0.512   0.784  -0.513  1.00  0.00     0.123 C 
ATOM      7  C   UNL     1       1.560   0.301   0.873  1.00  0.00     0.032 C 
ATOM      8  C   UNL     1       0.656  -0.182  -0.268  1.00  0.00     0.098 C 
ATOM      9  N   UNL     1      -0.027  -1.427   0.080  1.00  0.00    -0.321 N 
ATOM     10  C   UNL     1      -1.525   0.380   0.546  1.00  0.00     0.039 C 
ATOM     11  C   UNL     1      -1.371  -1.132   0.589  1.00  0.00     0.122 C 
BRANCH   9  12
ATOM     12  C   UNL     1       0.211  -2.728  -0.278  1.00  0.00     0.320 C 
ATOM     13  O   UNL     1      -0.699  -3.551  -0.104  1.00  0.00    -0.248 OA
BRANCH  12  14
ATOM     14  N   UNL     1       1.421  -3.158  -0.779  1.00  0.00    -0.323 N 
ATOM     15  C   UNL     1       2.645  -2.440  -1.089  1.00  0.00     0.149 C 
BRANCH  14  16
ATOM     16  C   UNL     1       1.496  -4.593  -1.049  1.00  0.00     0.157 C 
BRANCH  16  17
ATOM     17  C   UNL     1       1.688  -5.384   0.226  1.00  0.00    -0.018 A 
ATOM     18  C   UNL     1       1.691  -6.820   0.267  1.00  0.00     0.017 A 
ATOM     19  C   UNL     1       1.821  -4.873   1.508  1.00  0.00     0.070 A 
ATOM     20  C   UNL     1       1.794  -7.319   1.546  1.00  0.00     0.065 A 
ATOM     21  S   UNL     1       1.920  -6.079   2.712  1.00  0.00    -0.152 S 
ENDBRANCH  16  17
ENDBRANCH  14  16
ENDBRANCH  12  14
ENDBRANCH   9  12
ENDBRANCH   4   6
ENDBRANCH   3   4
ENDBRANCH   2   3
ENDBRANCH   1   2
BRANCH   1  22
ATOM     22  O   UNL     1      -0.063   2.365  -4.542  1.00  0.00    -0.374 OA
BRANCH  22  23
ATOM     23  C   UNL     1       0.649   2.897  -3.426  1.00  0.00     0.202 C 
BRANCH  23  24
ATOM     24  C   UNL     1       0.625   4.412  -3.191  1.00  0.00     0.261 C 
BRANCH  24  25
ATOM     25  O   UNL     1      -0.684   4.897  -2.848  1.00  0.00    -0.460 OA
BRANCH  25  26
ATOM     26  C   UNL     1      -1.221   5.750  -3.752  1.00  0.00     0.338 C 
ATOM     27  O   UNL     1      -0.685   6.179  -4.769  1.00  0.00    -0.246 OA
BRANCH  26  28
ATOM     28  C   UNL     1      -2.649   5.963  -3.469  1.00  0.00     0.060 A 
ATOM     29  C   UNL     1      -3.564   5.650  -4.483  1.00  0.00     0.016 A 
ATOM     30  C   UNL     1      -3.079   6.543  -2.275  1.00  0.00     0.016 A 
ATOM     31  C   UNL     1      -4.911   5.962  -4.327  1.00  0.00     0.010 A 
ATOM     32  C   UNL     1      -4.431   6.870  -2.126  1.00  0.00     0.010 A 
ATOM     33  C   UNL     1      -5.343   6.615  -3.166  1.00  0.00    -0.014 A 
BRANCH  33  34
ATOM     34  C   UNL     1      -6.717   7.170  -3.116  1.00  0.00     0.031 A 
ATOM     35  C   UNL     1      -6.921   8.628  -3.425  1.00  0.00     0.074 A 
ATOM     36  C   UNL     1      -7.767   6.378  -2.837  1.00  0.00     0.049 A 
ATOM     37  N   UNL     1      -8.024   9.329  -3.420  1.00  0.00    -0.248 NA
ATOM     38  C   UNL     1      -5.720   9.398  -3.790  1.00  0.00     0.031 C 
ATOM     39  C   UNL     1      -7.694   4.944  -2.561  1.00  0.00     0.029 A 
ATOM     40  N   UNL     1      -9.102   6.674  -2.735  1.00  0.00    -0.354 N 
ATOM     41  C   UNL     1      -7.653  10.621  -3.774  1.00  0.00     0.074 A 
ATOM     42  C   UNL     1      -6.218  10.614  -3.961  1.00  0.00     0.031 C 
ATOM     43  C   UNL     1      -8.932   4.486  -2.309  1.00  0.00     0.029 A 
ATOM     44  C   UNL     1      -9.878   5.598  -2.378  1.00  0.00     0.049 A 
ATOM     45  H   UNL     1      -9.470   7.572  -2.902  1.00  0.00     0.167 HD
ATOM     46  C   UNL     1      -8.439  11.712  -3.938  1.00  0.00     0.037 A 
ATOM     47  C   UNL     1     -11.199   5.525  -2.119  1.00  0.00     0.037 A 
ATOM     48  C   UNL     1      -9.866  11.711  -3.753  1.00  0.00     0.049 A 
ATOM     49  C   UNL     1     -12.044   6.766  -2.247  1.00  0.00     0.074 A 
ATOM     50  C   UNL     1     -10.755  12.760  -3.908  1.00  0.00     0.029 A 
ATOM     51  N   UNL     1     -10.614  10.608  -3.366  1.00  0.00    -0.354 N 
ATOM     52  N   UNL     1     -11.683   7.977  -2.600  1.00  0.00    -0.248 NA
ATOM     53  C   UNL     1     -13.476   6.630  -1.946  1.00  0.00     0.031 C 
ATOM     54  C   UNL     1     -12.034  12.303  -3.572  1.00  0.00     0.029 A 
ATOM     55  C   UNL     1     -11.949  10.956  -3.255  1.00  0.00     0.049 A 
ATOM     56  H   UNL     1     -10.248   9.710  -3.195  1.00  0.00     0.167 HD
ATOM     57  C   UNL     1     -12.846   8.740  -2.590  1.00  0.00     0.074 A 
ATOM     58  C   UNL     1     -13.923   7.851  -2.204  1.00  0.00     0.031 C 
ATOM     59  C   UNL     1     -13.010  10.056  -2.876  1.00  0.00     0.037 A 
BRANCH  46  60
ATOM     60  C   UNL     1      -7.767  13.002  -4.314  1.00  0.00     0.058 A 
ATOM     61  C   UNL     1      -7.246  13.217  -5.600  1.00  0.00     0.135 A 
ATOM     62  C   UNL     1      -7.666  14.049  -3.384  1.00  0.00     0.135 A 
ATOM     63  F   UNL     1      -7.298  12.242  -6.522  1.00  0.00    -0.206 F 
ATOM     64  C   UNL     1      -6.628  14.415  -5.943  1.00  0.00     0.059 A 
ATOM     65  C   UNL     1      -7.074  15.265  -3.712  1.00  0.00     0.059 A 
ATOM     66  F   UNL     1      -8.144  13.895  -2.139  1.00  0.00    -0.206 F 
ATOM     67  C   UNL     1      -6.545  15.433  -4.991  1.00  0.00     0.060 A 
BRANCH  67  68
ATOM     68  S   UNL     1      -5.742  16.983  -5.451  1.00  0.00     0.124 S 
ATOM     69  O   UNL     1      -4.337  16.589  -5.465  1.00  0.00    -0.237 OA
ATOM     70  O   UNL     1      -6.333  17.268  -6.754  1.00  0.00    -0.237 OA
ATOM     71  O   UNL     1      -6.127  17.896  -4.379  1.00  0.00    -0.744 OA
ENDBRANCH  67  68
ENDBRANCH  46  60
BRANCH  47  72
ATOM     72  C   UNL     1     -11.802   4.233  -1.698  1.00  0.00     0.058 A 
ATOM     73  C   UNL     1     -12.671   3.529  -2.544  1.00  0.00     0.135 A 
ATOM     74  C   UNL     1     -11.519   3.677  -0.441  1.00  0.00     0.135 A 
ATOM     75  F   UNL     1     -12.980   4.025  -3.752  1.00  0.00    -0.206 F 
ATOM     76  C   UNL     1     -13.250   2.325  -2.154  1.00  0.00     0.059 A 
ATOM     77  C   UNL     1     -12.067   2.464  -0.037  1.00  0.00     0.059 A 
ATOM     78  F   UNL     1     -10.685   4.308   0.401  1.00  0.00    -0.206 F 
ATOM     79  C   UNL     1     -12.940   1.800  -0.898  1.00  0.00     0.060 A 
BRANCH  79  80
ATOM     80  S   UNL     1     -13.659   0.214  -0.419  1.00  0.00     0.124 S 
ATOM     81  O   UNL     1     -15.038   0.593  -0.132  1.00  0.00    -0.237 OA
ATOM     82  O   UNL     1     -13.453  -0.591  -1.619  1.00  0.00    -0.237 OA
ATOM     83  O   UNL     1     -12.858  -0.180   0.736  1.00  0.00    -0.744 OA
ENDBRANCH  79  80
ENDBRANCH  47  72
BRANCH  59  84
ATOM     84  C   UNL     1     -14.406  10.610  -2.817  1.00  0.00     0.058 A 
ATOM     85  C   UNL     1     -15.056  10.844  -1.595  1.00  0.00     0.135 A 
ATOM     86  C   UNL     1     -15.081  10.962  -3.998  1.00  0.00     0.135 A 
ATOM     87  F   UNL     1     -14.458  10.520  -0.438  1.00  0.00    -0.206 F 
ATOM     88  C   UNL     1     -16.336  11.387  -1.547  1.00  0.00     0.059 A 
ATOM     89  C   UNL     1     -16.350  11.530  -3.972  1.00  0.00     0.059 A 
ATOM     90  F   UNL     1     -14.498  10.770  -5.192  1.00  0.00    -0.206 F 
ATOM     91  C   UNL     1     -16.975  11.728  -2.741  1.00  0.00     0.060 A 
BRANCH  91  92
ATOM     92  S   UNL     1     -18.622  12.464  -2.664  1.00  0.00     0.124 S 
ATOM     93  O   UNL     1     -19.448  11.303  -2.350  1.00  0.00    -0.237 OA
ATOM     94  O   UNL     1     -18.477  13.448  -1.595  1.00  0.00    -0.237 OA
ATOM     95  O   UNL     1     -18.807  13.023  -4.000  1.00  0.00    -0.744 OA
ENDBRANCH  91  92
ENDBRANCH  59  84
ENDBRANCH  33  34
ENDBRANCH  26  28
ENDBRANCH  25  26
ENDBRANCH  24  25
ENDBRANCH  23  24
ENDBRANCH  22  23
ENDBRANCH   1  22
TORSDOF 21
