REMARK SMILES CC[C@]1(C(=O)OCCOCCOC(=O)c2ccc(-c3c4nc(c(-c5c(F)cc(S(=O)(=O)[O-])cc5F)c5ccc([nH]5)c(-c5c(F)cc(S(=O)(=O)[O-])cc5F)c5nc(c(-c6c(F)cc(S(=O)(=O)[O-])cc6F)c6ccc3[nH]6)C=C5)C=C4)cc2)CCN(C(=O)N(C)CCc2cccs2)C1
REMARK SMILES IDX 8 1 7 2 6 3 4 4 5 5 3 6 81 7 95 8 82 9 83 10 2 11 1 12 84 13
REMARK SMILES IDX 85 14 86 15 87 16 88 17 89 18 90 19 91 20 94 21 92 22 93 23
REMARK SMILES IDX 9 24 10 25 11 26 12 27 13 28 14 29 15 30 16 31 80 32 17 33
REMARK SMILES IDX 79 34 18 35 19 36 20 37 73 38 21 39 78 40 72 41 74 42 22 43
REMARK SMILES IDX 77 44 71 45 70 46 23 48 57 49 36 50 56 51 37 52 40 53 55 54
REMARK SMILES IDX 75 55 38 56 39 57 54 59 76 60 41 61 24 62 25 63 34 64 26 65
REMARK SMILES IDX 27 66 33 67 35 68 28 69 29 70 30 71 31 72 32 73 58 74 59 75
REMARK SMILES IDX 68 76 60 77 61 78 67 79 69 80 62 81 63 82 64 83 65 84 66 85
REMARK SMILES IDX 42 86 43 87 52 88 44 89 45 90 51 91 53 92 46 93 47 94 48 95
REMARK SMILES IDX 49 96 50 97
REMARK H PARENT 74 47 40 58
REMARK Flexibility Score: inf
ROOT
ATOM      1  C   UNL     1       0.471  -3.828   3.324  1.00  0.00     0.202 C 
ENDROOT
BRANCH   1   2
ATOM      2  C   UNL     1      -0.203  -4.292   2.030  1.00  0.00     0.261 C 
BRANCH   2   3
ATOM      3  O   UNL     1       0.503  -3.828   0.867  1.00  0.00    -0.463 OA
BRANCH   3   4
ATOM      4  C   UNL     1      -0.191  -3.010   0.032  1.00  0.00     0.314 C 
ATOM      5  O   UNL     1      -1.372  -2.716   0.171  1.00  0.00    -0.252 OA
BRANCH   4   6
ATOM      6  C   UNL     1       0.661  -2.494  -1.125  1.00  0.00     0.087 C 
ATOM      7  C   UNL     1       2.191  -2.565  -0.943  1.00  0.00     0.042 C 
ATOM      8  C   UNL     1       0.445  -3.485  -2.277  1.00  0.00     0.140 C 
ATOM      9  C   UNL     1       2.716  -2.734  -2.365  1.00  0.00     0.122 C 
ATOM     10  N   UNL     1       1.681  -3.492  -3.048  1.00  0.00    -0.323 N 
BRANCH   6  11
ATOM     11  C   UNL     1       0.186  -1.072  -1.531  1.00  0.00     0.017 C 
ATOM     12  C   UNL     1       0.405   0.006  -0.473  1.00  0.00     0.005 C 
ENDBRANCH   6  11
BRANCH  10  13
ATOM     13  C   UNL     1       1.819  -4.437  -4.040  1.00  0.00     0.319 C 
ATOM     14  O   UNL     1       0.901  -5.225  -4.281  1.00  0.00    -0.248 OA
BRANCH  13  15
ATOM     15  N   UNL     1       3.023  -4.524  -4.705  1.00  0.00    -0.327 N 
ATOM     16  C   UNL     1       3.836  -3.383  -5.087  1.00  0.00     0.148 C 
BRANCH  15  17
ATOM     17  C   UNL     1       3.445  -5.841  -5.198  1.00  0.00     0.126 C 
BRANCH  17  18
ATOM     18  C   UNL     1       4.350  -6.595  -4.207  1.00  0.00     0.068 C 
BRANCH  18  19
ATOM     19  C   UNL     1       3.592  -7.252  -3.086  1.00  0.00     0.006 A 
ATOM     20  C   UNL     1       3.011  -8.507  -3.076  1.00  0.00     0.015 A 
ATOM     21  S   UNL     1       3.388  -6.463  -1.578  1.00  0.00    -0.149 S 
ATOM     22  C   UNL     1       2.329  -8.781  -1.855  1.00  0.00     0.012 A 
ATOM     23  C   UNL     1       2.425  -7.735  -0.966  1.00  0.00     0.065 A 
ENDBRANCH  18  19
ENDBRANCH  17  18
ENDBRANCH  15  17
ENDBRANCH  13  15
ENDBRANCH  10  13
ENDBRANCH   4   6
ENDBRANCH   3   4
ENDBRANCH   2   3
ENDBRANCH   1   2
BRANCH   1  24
ATOM     24  O   UNL     1       0.539  -2.420   3.554  1.00  0.00    -0.374 OA
BRANCH  24  25
ATOM     25  C   UNL     1       1.456  -1.662   2.770  1.00  0.00     0.202 C 
BRANCH  25  26
ATOM     26  C   UNL     1       2.947  -1.755   3.118  1.00  0.00     0.261 C 
BRANCH  26  27
ATOM     27  O   UNL     1       3.462  -3.094   3.069  1.00  0.00    -0.460 OA
BRANCH  27  28
ATOM     28  C   UNL     1       3.723  -3.633   4.285  1.00  0.00     0.338 C 
ATOM     29  O   UNL     1       3.626  -3.077   5.373  1.00  0.00    -0.246 OA
BRANCH  28  30
ATOM     30  C   UNL     1       3.989  -5.076   4.160  1.00  0.00     0.060 A 
ATOM     31  C   UNL     1       3.236  -5.941   4.964  1.00  0.00     0.016 A 
ATOM     32  C   UNL     1       5.002  -5.571   3.336  1.00  0.00     0.016 A 
ATOM     33  C   UNL     1       3.527  -7.303   4.984  1.00  0.00     0.010 A 
ATOM     34  C   UNL     1       5.299  -6.938   3.366  1.00  0.00     0.010 A 
ATOM     35  C   UNL     1       4.586  -7.802   4.216  1.00  0.00    -0.014 A 
BRANCH  35  36
ATOM     36  C   UNL     1       5.026  -9.204   4.413  1.00  0.00     0.031 A 
ATOM     37  C   UNL     1       6.202  -9.482   5.309  1.00  0.00     0.074 A 
ATOM     38  C   UNL     1       4.361 -10.216   3.829  1.00  0.00     0.049 A 
ATOM     39  N   UNL     1       6.752 -10.626   5.622  1.00  0.00    -0.248 NA
ATOM     40  C   UNL     1       6.843  -8.314   5.933  1.00  0.00     0.031 C 
ATOM     41  C   UNL     1       3.192 -10.067   2.963  1.00  0.00     0.029 A 
ATOM     42  N   UNL     1       4.577 -11.569   3.874  1.00  0.00    -0.354 N 
ATOM     43  C   UNL     1       7.806 -10.319   6.474  1.00  0.00     0.074 A 
ATOM     44  C   UNL     1       7.836  -8.878   6.606  1.00  0.00     0.031 C 
ATOM     45  C   UNL     1       2.799 -11.284   2.549  1.00  0.00     0.029 A 
ATOM     46  C   UNL     1       3.703 -12.292   3.100  1.00  0.00     0.049 A 
ATOM     47  H   UNL     1       5.292 -11.983   4.411  1.00  0.00     0.167 HD
ATOM     48  C   UNL     1       8.666 -11.162   7.095  1.00  0.00     0.037 A 
ATOM     49  C   UNL     1       3.651 -13.615   2.850  1.00  0.00     0.037 A 
ATOM     50  C   UNL     1       8.630 -12.594   6.957  1.00  0.00     0.049 A 
ATOM     51  C   UNL     1       4.646 -14.530   3.513  1.00  0.00     0.074 A 
ATOM     52  C   UNL     1       9.438 -13.539   7.565  1.00  0.00     0.029 A 
ATOM     53  N   UNL     1       7.745 -13.290   6.145  1.00  0.00    -0.354 N 
ATOM     54  N   UNL     1       5.617 -14.230   4.344  1.00  0.00    -0.248 NA
ATOM     55  C   UNL     1       4.538 -15.964   3.210  1.00  0.00     0.031 C 
ATOM     56  C   UNL     1       9.073 -14.801   7.084  1.00  0.00     0.029 A 
ATOM     57  C   UNL     1       8.004 -14.649   6.215  1.00  0.00     0.049 A 
ATOM     58  H   UNL     1       7.036 -12.878   5.600  1.00  0.00     0.167 HD
ATOM     59  C   UNL     1       6.221 -15.437   4.678  1.00  0.00     0.074 A 
ATOM     60  C   UNL     1       5.498 -16.474   3.969  1.00  0.00     0.031 C 
ATOM     61  C   UNL     1       7.277 -15.668   5.499  1.00  0.00     0.037 A 
BRANCH  48  62
ATOM     62  C   UNL     1       9.738 -10.550   7.955  1.00  0.00     0.058 A 
ATOM     63  C   UNL     1       9.445  -9.957   9.194  1.00  0.00     0.135 A 
ATOM     64  C   UNL     1      11.079 -10.572   7.541  1.00  0.00     0.135 A 
ATOM     65  F   UNL     1       8.178  -9.893   9.630  1.00  0.00    -0.206 F 
ATOM     66  C   UNL     1      10.441  -9.380   9.976  1.00  0.00     0.059 A 
ATOM     67  C   UNL     1      12.094 -10.024   8.319  1.00  0.00     0.059 A 
ATOM     68  F   UNL     1      11.414 -11.124   6.364  1.00  0.00    -0.206 F 
ATOM     69  C   UNL     1      11.762  -9.414   9.528  1.00  0.00     0.060 A 
BRANCH  69  70
ATOM     70  S   UNL     1      13.042  -8.652  10.549  1.00  0.00     0.124 S 
ATOM     71  O   UNL     1      12.782  -7.233  10.328  1.00  0.00    -0.237 OA
ATOM     72  O   UNL     1      12.722  -9.155  11.881  1.00  0.00    -0.237 OA
ATOM     73  O   UNL     1      14.284  -9.159   9.972  1.00  0.00    -0.744 OA
ENDBRANCH  69  70
ENDBRANCH  48  62
BRANCH  49  74
ATOM     74  C   UNL     1       2.620 -14.148   1.922  1.00  0.00     0.058 A 
ATOM     75  C   UNL     1       1.543 -14.913   2.393  1.00  0.00     0.135 A 
ATOM     76  C   UNL     1       2.680 -13.879   0.545  1.00  0.00     0.135 A 
ATOM     77  F   UNL     1       1.448 -15.205   3.699  1.00  0.00    -0.206 F 
ATOM     78  C   UNL     1       0.563 -15.397   1.532  1.00  0.00     0.059 A 
ATOM     79  C   UNL     1       1.700 -14.332  -0.332  1.00  0.00     0.059 A 
ATOM     80  F   UNL     1       3.684 -13.143   0.046  1.00  0.00    -0.206 F 
ATOM     81  C   UNL     1       0.647 -15.096   0.171  1.00  0.00     0.060 A 
BRANCH  81  82
ATOM     82  S   UNL     1      -0.666 -15.670  -0.928  1.00  0.00     0.124 S 
ATOM     83  O   UNL     1      -0.370 -17.095  -1.019  1.00  0.00    -0.237 OA
ATOM     84  O   UNL     1      -1.868 -15.313  -0.180  1.00  0.00    -0.237 OA
ATOM     85  O   UNL     1      -0.443 -14.898  -2.147  1.00  0.00    -0.744 OA
ENDBRANCH  81  82
ENDBRANCH  49  74
BRANCH  61  86
ATOM     86  C   UNL     1       7.703 -17.097   5.693  1.00  0.00     0.058 A 
ATOM     87  C   UNL     1       8.377 -17.809   4.689  1.00  0.00     0.135 A 
ATOM     88  C   UNL     1       7.479 -17.747   6.919  1.00  0.00     0.135 A 
ATOM     89  F   UNL     1       8.611 -17.237   3.497  1.00  0.00    -0.206 F 
ATOM     90  C   UNL     1       8.792 -19.123   4.883  1.00  0.00     0.059 A 
ATOM     91  C   UNL     1       7.908 -19.051   7.144  1.00  0.00     0.059 A 
ATOM     92  F   UNL     1       6.849 -17.107   7.917  1.00  0.00    -0.206 F 
ATOM     93  C   UNL     1       8.553 -19.735   6.115  1.00  0.00     0.060 A 
BRANCH  93  94
ATOM     94  S   UNL     1       9.122 -21.431   6.365  1.00  0.00     0.124 S 
ATOM     95  O   UNL     1       8.140 -22.186   5.595  1.00  0.00    -0.237 OA
ATOM     96  O   UNL     1      10.471 -21.394   5.809  1.00  0.00    -0.237 OA
ATOM     97  O   UNL     1       9.052 -21.602   7.813  1.00  0.00    -0.744 OA
ENDBRANCH  93  94
ENDBRANCH  61  86
ENDBRANCH  35  36
ENDBRANCH  28  30
ENDBRANCH  27  28
ENDBRANCH  26  27
ENDBRANCH  25  26
ENDBRANCH  24  25
ENDBRANCH   1  24
TORSDOF 23
