REMARK SMILES Cc1cc(F)cc(N[C@H](C(=O)OCCOCCOC(=O)c2ccc(-c3c4nc(c(-c5c(F)cc(S(=O)(=O)[O-])cc5F)c5ccc([nH]5)c(-c5c(F)cc(S(=O)(=O)[O-])cc5F)c5nc(c(-c6c(F)cc(S(=O)(=O)[O-])cc6F)c6ccc3[nH]6)C=C5)C=C4)cc2)c2cc(C)cc(C)c2)c1
REMARK SMILES IDX 16 1 15 2 14 3 13 4 12 5 10 6 11 7 9 8 8 9 7 11 1 12 2 13
REMARK SMILES IDX 3 14 95 15 4 16 5 17 6 18 87 19 88 20 94 21 89 22 92 23
REMARK SMILES IDX 90 24 91 25 93 26 17 27 18 28 19 29 20 30 21 31 22 32 86 33
REMARK SMILES IDX 23 34 85 35 24 36 25 37 26 38 79 39 27 40 84 41 78 42 80 43
REMARK SMILES IDX 28 44 83 45 77 46 76 47 29 49 63 50 42 51 62 52 43 53 46 54
REMARK SMILES IDX 61 55 81 56 44 57 45 58 60 60 82 61 47 62 30 63 31 64 40 65
REMARK SMILES IDX 32 66 33 67 39 68 41 69 34 70 35 71 36 72 37 73 38 74 64 75
REMARK SMILES IDX 65 76 74 77 66 78 67 79 73 80 75 81 68 82 69 83 70 84 71 85
REMARK SMILES IDX 72 86 48 87 49 88 58 89 50 90 51 91 57 92 59 93 52 94 53 95
REMARK SMILES IDX 54 96 55 97 56 98
REMARK H PARENT 8 10 80 48 46 59
REMARK Flexibility Score: inf
ROOT
ATOM      1  C   UNL     1       0.504  -0.868  -0.306  1.00  0.00     0.202 C 
ENDROOT
BRANCH   1   2
ATOM      2  O   UNL     1       1.860  -0.928   0.143  1.00  0.00    -0.374 OA
BRANCH   2   3
ATOM      3  C   UNL     1       2.786  -1.668  -0.646  1.00  0.00     0.202 C 
BRANCH   3   4
ATOM      4  C   UNL     1       2.806  -3.192  -0.491  1.00  0.00     0.261 C 
BRANCH   4   5
ATOM      5  O   UNL     1       1.511  -3.795  -0.568  1.00  0.00    -0.461 OA
BRANCH   5   6
ATOM      6  C   UNL     1       0.922  -3.975   0.650  1.00  0.00     0.333 C 
ATOM      7  O   UNL     1       1.395  -3.546   1.701  1.00  0.00    -0.249 OA
BRANCH   6   8
ATOM      8  C   UNL     1      -0.450  -4.673   0.552  1.00  0.00     0.221 C 
BRANCH   8   9
ATOM      9  N   UNL     1      -0.650  -5.503  -0.662  1.00  0.00    -0.369 N 
ATOM     10  H   UNL     1      -1.324  -5.158  -1.292  1.00  0.00     0.161 HD
BRANCH   9  11
ATOM     11  C   UNL     1      -0.042  -6.683  -1.049  1.00  0.00     0.038 A 
ATOM     12  C   UNL     1      -0.293  -9.161  -3.982  1.00  0.00     0.044 C 
ATOM     13  C   UNL     1       0.100  -8.537  -2.675  1.00  0.00    -0.046 A 
ATOM     14  C   UNL     1       1.003  -9.207  -1.851  1.00  0.00     0.042 A 
ATOM     15  C   UNL     1      -0.437  -7.302  -2.251  1.00  0.00     0.029 A 
ATOM     16  C   UNL     1       1.403  -8.608  -0.674  1.00  0.00     0.125 A 
ATOM     17  F   UNL     1       2.278  -9.231   0.128  1.00  0.00    -0.207 F 
ATOM     18  C   UNL     1       0.917  -7.358  -0.302  1.00  0.00     0.065 A 
ENDBRANCH   9  11
ENDBRANCH   8   9
BRANCH   8  19
ATOM     19  C   UNL     1      -0.839  -5.388   1.843  1.00  0.00    -0.014 A 
ATOM     20  C   UNL     1       0.124  -6.093   2.581  1.00  0.00     0.010 A 
ATOM     21  C   UNL     1      -2.150  -5.366   2.337  1.00  0.00     0.010 A 
ATOM     22  C   UNL     1      -0.209  -6.900   3.664  1.00  0.00    -0.051 A 
ATOM     23  C   UNL     1      -2.479  -6.058   3.515  1.00  0.00    -0.051 A 
ATOM     24  C   UNL     1       0.823  -7.851   4.189  1.00  0.00     0.044 C 
ATOM     25  C   UNL     1      -1.518  -6.873   4.134  1.00  0.00     0.006 A 
ATOM     26  C   UNL     1      -3.853  -5.970   4.108  1.00  0.00     0.044 C 
ENDBRANCH   8  19
ENDBRANCH   6   8
ENDBRANCH   5   6
ENDBRANCH   4   5
ENDBRANCH   3   4
ENDBRANCH   2   3
ENDBRANCH   1   2
BRANCH   1  27
ATOM     27  C   UNL     1       0.221   0.005  -1.534  1.00  0.00     0.261 C 
BRANCH  27  28
ATOM     28  O   UNL     1       0.689  -0.622  -2.743  1.00  0.00    -0.460 OA
BRANCH  28  29
ATOM     29  C   UNL     1       1.698   0.021  -3.372  1.00  0.00     0.338 C 
ATOM     30  O   UNL     1       2.180   1.111  -3.073  1.00  0.00    -0.246 OA
BRANCH  29  31
ATOM     31  C   UNL     1       2.315  -0.875  -4.363  1.00  0.00     0.060 A 
ATOM     32  C   UNL     1       3.693  -1.115  -4.260  1.00  0.00     0.016 A 
ATOM     33  C   UNL     1       1.573  -1.425  -5.409  1.00  0.00     0.016 A 
ATOM     34  C   UNL     1       4.344  -1.871  -5.230  1.00  0.00     0.010 A 
ATOM     35  C   UNL     1       2.232  -2.169  -6.392  1.00  0.00     0.010 A 
ATOM     36  C   UNL     1       3.624  -2.363  -6.324  1.00  0.00    -0.014 A 
BRANCH  36  37
ATOM     37  C   UNL     1       4.351  -2.933  -7.481  1.00  0.00     0.031 A 
ATOM     38  C   UNL     1       4.619  -2.049  -8.668  1.00  0.00     0.074 A 
ATOM     39  C   UNL     1       4.779  -4.207  -7.467  1.00  0.00     0.049 A 
ATOM     40  N   UNL     1       5.170  -2.344  -9.815  1.00  0.00    -0.248 NA
ATOM     41  C   UNL     1       4.204  -0.641  -8.543  1.00  0.00     0.031 C 
ATOM     42  C   UNL     1       4.618  -5.140  -6.353  1.00  0.00     0.029 A 
ATOM     43  N   UNL     1       5.429  -4.938  -8.428  1.00  0.00    -0.354 N 
ATOM     44  C   UNL     1       5.163  -1.166 -10.552  1.00  0.00     0.074 A 
ATOM     45  C   UNL     1       4.529  -0.156  -9.732  1.00  0.00     0.031 C 
ATOM     46  C   UNL     1       5.139  -6.329  -6.702  1.00  0.00     0.029 A 
ATOM     47  C   UNL     1       5.637  -6.249  -8.074  1.00  0.00     0.049 A 
ATOM     48  H   UNL     1       5.718  -4.560  -9.290  1.00  0.00     0.167 HD
ATOM     49  C   UNL     1       5.646  -0.947 -11.797  1.00  0.00     0.037 A 
ATOM     50  C   UNL     1       6.146  -7.272  -8.789  1.00  0.00     0.037 A 
ATOM     51  C   UNL     1       6.274  -1.959 -12.604  1.00  0.00     0.049 A 
ATOM     52  C   UNL     1       6.610  -7.022 -10.201  1.00  0.00     0.074 A 
ATOM     53  C   UNL     1       6.814  -1.837 -13.873  1.00  0.00     0.029 A 
ATOM     54  N   UNL     1       6.441  -3.283 -12.224  1.00  0.00    -0.354 N 
ATOM     55  N   UNL     1       6.611  -5.901 -10.883  1.00  0.00    -0.248 NA
ATOM     56  C   UNL     1       7.139  -8.176 -10.942  1.00  0.00     0.031 C 
ATOM     57  C   UNL     1       7.263  -3.099 -14.278  1.00  0.00     0.029 A 
ATOM     58  C   UNL     1       7.049  -3.996 -13.243  1.00  0.00     0.049 A 
ATOM     59  H   UNL     1       6.167  -3.660 -11.356  1.00  0.00     0.167 HD
ATOM     60  C   UNL     1       7.159  -6.210 -12.124  1.00  0.00     0.074 A 
ATOM     61  C   UNL     1       7.490  -7.620 -12.094  1.00  0.00     0.031 C 
ATOM     62  C   UNL     1       7.371  -5.401 -13.193  1.00  0.00     0.037 A 
BRANCH  49  63
ATOM     63  C   UNL     1       5.485   0.433 -12.373  1.00  0.00     0.058 A 
ATOM     64  C   UNL     1       6.243   1.520 -11.911  1.00  0.00     0.135 A 
ATOM     65  C   UNL     1       4.578   0.664 -13.420  1.00  0.00     0.135 A 
ATOM     66  F   UNL     1       7.110   1.359 -10.898  1.00  0.00    -0.206 F 
ATOM     67  C   UNL     1       6.091   2.794 -12.450  1.00  0.00     0.059 A 
ATOM     68  C   UNL     1       4.428   1.924 -13.991  1.00  0.00     0.059 A 
ATOM     69  F   UNL     1       3.825  -0.340 -13.895  1.00  0.00    -0.206 F 
ATOM     70  C   UNL     1       5.179   2.986 -13.490  1.00  0.00     0.060 A 
BRANCH  70  71
ATOM     71  S   UNL     1       4.995   4.643 -14.182  1.00  0.00     0.124 S 
ATOM     72  O   UNL     1       4.269   5.325 -13.115  1.00  0.00    -0.237 OA
ATOM     73  O   UNL     1       6.381   5.058 -14.371  1.00  0.00    -0.237 OA
ATOM     74  O   UNL     1       4.239   4.417 -15.410  1.00  0.00    -0.744 OA
ENDBRANCH  70  71
ENDBRANCH  49  63
BRANCH  50  75
ATOM     75  C   UNL     1       6.220  -8.631  -8.191  1.00  0.00     0.058 A 
ATOM     76  C   UNL     1       7.452  -9.216  -7.867  1.00  0.00     0.135 A 
ATOM     77  C   UNL     1       5.056  -9.371  -7.930  1.00  0.00     0.135 A 
ATOM     78  F   UNL     1       8.593  -8.553  -8.109  1.00  0.00    -0.206 F 
ATOM     79  C   UNL     1       7.531 -10.490  -7.314  1.00  0.00     0.059 A 
ATOM     80  C   UNL     1       5.107 -10.637  -7.356  1.00  0.00     0.059 A 
ATOM     81  F   UNL     1       3.850  -8.854  -8.214  1.00  0.00    -0.206 F 
ATOM     82  C   UNL     1       6.351 -11.192  -7.060  1.00  0.00     0.060 A 
BRANCH  82  83
ATOM     83  S   UNL     1       6.459 -12.826  -6.297  1.00  0.00     0.124 S 
ATOM     84  O   UNL     1       6.938 -13.638  -7.410  1.00  0.00    -0.237 OA
ATOM     85  O   UNL     1       7.413 -12.597  -5.216  1.00  0.00    -0.237 OA
ATOM     86  O   UNL     1       5.088 -13.086  -5.868  1.00  0.00    -0.744 OA
ENDBRANCH  82  83
ENDBRANCH  50  75
BRANCH  62  87
ATOM     87  C   UNL     1       8.010  -6.012 -14.409  1.00  0.00     0.058 A 
ATOM     88  C   UNL     1       7.301  -6.876 -15.257  1.00  0.00     0.135 A 
ATOM     89  C   UNL     1       9.329  -5.683 -14.761  1.00  0.00     0.135 A 
ATOM     90  F   UNL     1       6.039  -7.227 -14.962  1.00  0.00    -0.206 F 
ATOM     91  C   UNL     1       7.885  -7.410 -16.401  1.00  0.00     0.059 A 
ATOM     92  C   UNL     1       9.924  -6.184 -15.915  1.00  0.00     0.059 A 
ATOM     93  F   UNL     1      10.048  -4.851 -13.990  1.00  0.00    -0.206 F 
ATOM     94  C   UNL     1       9.196  -7.056 -16.723  1.00  0.00     0.060 A 
BRANCH  94  95
ATOM     95  S   UNL     1       9.929  -7.726 -18.231  1.00  0.00     0.124 S 
ATOM     96  O   UNL     1      10.191  -9.108 -17.841  1.00  0.00    -0.237 OA
ATOM     97  O   UNL     1       8.863  -7.535 -19.209  1.00  0.00    -0.237 OA
ATOM     98  O   UNL     1      11.113  -6.896 -18.432  1.00  0.00    -0.744 OA
ENDBRANCH  94  95
ENDBRANCH  62  87
ENDBRANCH  36  37
ENDBRANCH  29  31
ENDBRANCH  28  29
ENDBRANCH  27  28
ENDBRANCH   1  27
TORSDOF 20
