REMARK SMILES Cc1cscc1CNC(=O)N[C@@H](C)c1nc(C(=O)OCCOCCOC(=O)c2ccc(-c3c4nc(c(-c5c(F)cc(S(=O)(=O)[O-])cc5F)c5ccc([nH]5)c(-c5c(F)cc(S(=O)(=O)[O-])cc5F)c5nc(c(-c6c(F)cc(S(=O)(=O)[O-])cc6F)c6ccc3[nH]6)C=C5)C=C4)cc2)cs1
REMARK SMILES IDX 21 1 20 2 19 3 17 4 18 5 16 6 14 7 15 8 95 9 94 10 12 11
REMARK SMILES IDX 13 12 11 13 8 14 9 15 10 17 7 19 6 20 1 21 2 22 3 23 4 24
REMARK SMILES IDX 5 25 22 26 23 27 24 28 25 29 26 30 27 31 28 32 29 33 93 34
REMARK SMILES IDX 30 35 92 36 31 37 32 38 33 39 86 40 34 41 91 42 85 43 87 44
REMARK SMILES IDX 35 45 90 46 84 47 83 48 36 50 70 51 49 52 69 53 50 54 53 55
REMARK SMILES IDX 68 56 88 57 51 58 52 59 67 61 89 62 54 63 37 64 38 65 47 66
REMARK SMILES IDX 39 67 40 68 46 69 48 70 41 71 42 72 43 73 44 74 45 75 71 76
REMARK SMILES IDX 72 77 81 78 73 79 74 80 80 81 82 82 75 83 76 84 77 85 78 86
REMARK SMILES IDX 79 87 55 88 56 89 65 90 57 91 58 92 64 93 66 94 59 95 60 96
REMARK SMILES IDX 61 97 62 98 63 99
REMARK H PARENT 8 16 11 18 87 49 53 60
REMARK Flexibility Score: inf
ROOT
ATOM      1  C   UNL     1      -5.239   7.603   4.434  1.00  0.00     0.202 C 
ENDROOT
BRANCH   1   2
ATOM      2  C   UNL     1      -4.092   7.505   5.443  1.00  0.00     0.261 C 
BRANCH   2   3
ATOM      3  O   UNL     1      -2.991   6.784   4.863  1.00  0.00    -0.458 OA
BRANCH   3   4
ATOM      4  C   UNL     1      -2.883   5.481   5.243  1.00  0.00     0.357 C 
ATOM      5  O   UNL     1      -3.485   4.975   6.186  1.00  0.00    -0.244 OA
BRANCH   4   6
ATOM      6  C   UNL     1      -2.056   4.685   4.329  1.00  0.00     0.159 A 
ATOM      7  C   UNL     1      -0.521   4.251   2.768  1.00  0.00     0.116 A 
ATOM      8  N   UNL     1      -1.118   5.221   3.438  1.00  0.00    -0.232 NA
ATOM      9  S   UNL     1      -1.128   2.667   3.083  1.00  0.00    -0.124 S 
ATOM     10  C   UNL     1      -2.190   3.310   4.249  1.00  0.00     0.102 A 
BRANCH   7  11
ATOM     11  C   UNL     1       0.637   4.407   1.805  1.00  0.00     0.140 C 
ATOM     12  C   UNL     1       1.688   5.371   2.353  1.00  0.00     0.039 C 
BRANCH  11  13
ATOM     13  N   UNL     1       0.141   4.884   0.525  1.00  0.00    -0.329 N 
ATOM     14  N   UNL     1       1.010   3.480  -1.174  1.00  0.00    -0.334 N 
ATOM     15  C   UNL     1       0.325   4.543  -0.750  1.00  0.00     0.315 C 
ATOM     16  H   UNL     1       1.044   3.437  -2.157  1.00  0.00     0.165 HD
ATOM     17  O   UNL     1      -0.199   5.249  -1.614  1.00  0.00    -0.249 OA
ATOM     18  H   UNL     1      -0.481   5.641   0.624  1.00  0.00     0.166 HD
BRANCH  14  19
ATOM     19  C   UNL     1       1.715   2.376  -0.564  1.00  0.00     0.154 C 
BRANCH  19  20
ATOM     20  C   UNL     1       0.804   1.195  -0.341  1.00  0.00    -0.015 A 
ATOM     21  C   UNL     1       2.716  -0.558  -0.015  1.00  0.00     0.045 C 
ATOM     22  C   UNL     1       1.278  -0.156  -0.093  1.00  0.00    -0.035 A 
ATOM     23  C   UNL     1       0.229  -1.044   0.058  1.00  0.00     0.068 A 
ATOM     24  S   UNL     1      -1.297  -0.300  -0.079  1.00  0.00    -0.152 S 
ATOM     25  C   UNL     1      -0.582   1.224  -0.352  1.00  0.00     0.070 A 
ENDBRANCH  19  20
ENDBRANCH  14  19
ENDBRANCH  11  13
ENDBRANCH   7  11
ENDBRANCH   4   6
ENDBRANCH   3   4
ENDBRANCH   2   3
ENDBRANCH   1   2
BRANCH   1  26
ATOM     26  O   UNL     1      -5.853   6.341   4.152  1.00  0.00    -0.374 OA
BRANCH  26  27
ATOM     27  C   UNL     1      -5.343   5.651   3.006  1.00  0.00     0.202 C 
BRANCH  27  28
ATOM     28  C   UNL     1      -6.008   6.048   1.685  1.00  0.00     0.261 C 
BRANCH  28  29
ATOM     29  O   UNL     1      -5.506   7.321   1.240  1.00  0.00    -0.460 OA
BRANCH  29  30
ATOM     30  C   UNL     1      -6.355   8.364   1.398  1.00  0.00     0.338 C 
ATOM     31  O   UNL     1      -7.519   8.314   1.756  1.00  0.00    -0.246 OA
BRANCH  30  32
ATOM     32  C   UNL     1      -5.610   9.633   1.251  1.00  0.00     0.060 A 
ATOM     33  C   UNL     1      -5.933  10.672   2.135  1.00  0.00     0.016 A 
ATOM     34  C   UNL     1      -4.641   9.823   0.262  1.00  0.00     0.016 A 
ATOM     35  C   UNL     1      -5.332  11.921   1.996  1.00  0.00     0.010 A 
ATOM     36  C   UNL     1      -4.044  11.080   0.119  1.00  0.00     0.010 A 
ATOM     37  C   UNL     1      -4.416  12.143   0.960  1.00  0.00    -0.014 A 
BRANCH  37  38
ATOM     38  C   UNL     1      -3.992  13.527   0.643  1.00  0.00     0.031 A 
ATOM     39  C   UNL     1      -4.712  14.262  -0.455  1.00  0.00     0.074 A 
ATOM     40  C   UNL     1      -3.004  14.127   1.330  1.00  0.00     0.049 A 
ATOM     41  N   UNL     1      -4.484  15.453  -0.944  1.00  0.00    -0.248 NA
ATOM     42  C   UNL     1      -5.840  13.557  -1.086  1.00  0.00     0.031 C 
ATOM     43  C   UNL     1      -2.263  13.532   2.441  1.00  0.00     0.029 A 
ATOM     44  N   UNL     1      -2.449  15.373   1.183  1.00  0.00    -0.354 N 
ATOM     45  C   UNL     1      -5.431  15.636  -1.944  1.00  0.00     0.074 A 
ATOM     46  C   UNL     1      -6.223  14.427  -2.008  1.00  0.00     0.031 C 
ATOM     47  C   UNL     1      -1.337  14.409   2.866  1.00  0.00     0.029 A 
ATOM     48  C   UNL     1      -1.401  15.614   2.040  1.00  0.00     0.049 A 
ATOM     49  H   UNL     1      -2.770  16.033   0.527  1.00  0.00     0.167 HD
ATOM     50  C   UNL     1      -5.626  16.717  -2.736  1.00  0.00     0.037 A 
ATOM     51  C   UNL     1      -0.577  16.677   2.128  1.00  0.00     0.037 A 
ATOM     52  C   UNL     1      -4.837  17.917  -2.669  1.00  0.00     0.049 A 
ATOM     53  C   UNL     1      -0.778  17.848   1.202  1.00  0.00     0.074 A 
ATOM     54  C   UNL     1      -4.955  19.068  -3.427  1.00  0.00     0.029 A 
ATOM     55  N   UNL     1      -3.781  18.118  -1.794  1.00  0.00    -0.354 N 
ATOM     56  N   UNL     1      -1.682  18.012   0.265  1.00  0.00    -0.248 NA
ATOM     57  C   UNL     1       0.151  18.979   1.343  1.00  0.00     0.031 C 
ATOM     58  C   UNL     1      -3.947  19.954  -3.032  1.00  0.00     0.029 A 
ATOM     59  C   UNL     1      -3.229  19.371  -2.000  1.00  0.00     0.049 A 
ATOM     60  H   UNL     1      -3.469  17.467  -1.125  1.00  0.00     0.167 HD
ATOM     61  C   UNL     1      -1.452  19.275  -0.271  1.00  0.00     0.074 A 
ATOM     62  C   UNL     1      -0.322  19.833   0.444  1.00  0.00     0.031 C 
ATOM     63  C   UNL     1      -2.119  19.917  -1.262  1.00  0.00     0.037 A 
BRANCH  50  64
ATOM     64  C   UNL     1      -6.722  16.634  -3.760  1.00  0.00     0.058 A 
ATOM     65  C   UNL     1      -8.076  16.712  -3.397  1.00  0.00     0.135 A 
ATOM     66  C   UNL     1      -6.413  16.493  -5.122  1.00  0.00     0.135 A 
ATOM     67  F   UNL     1      -8.425  16.826  -2.106  1.00  0.00    -0.206 F 
ATOM     68  C   UNL     1      -9.088  16.627  -4.348  1.00  0.00     0.059 A 
ATOM     69  C   UNL     1      -7.408  16.429  -6.092  1.00  0.00     0.059 A 
ATOM     70  F   UNL     1      -5.134  16.409  -5.520  1.00  0.00    -0.206 F 
ATOM     71  C   UNL     1      -8.743  16.482  -5.694  1.00  0.00     0.060 A 
BRANCH  71  72
ATOM     72  S   UNL     1     -10.065  16.372  -6.919  1.00  0.00     0.124 S 
ATOM     73  O   UNL     1     -10.538  15.007  -6.713  1.00  0.00    -0.237 OA
ATOM     74  O   UNL     1     -10.977  17.429  -6.493  1.00  0.00    -0.237 OA
ATOM     75  O   UNL     1      -9.377  16.615  -8.183  1.00  0.00    -0.744 OA
ENDBRANCH  71  72
ENDBRANCH  50  64
BRANCH  51  76
ATOM     76  C   UNL     1       0.525  16.679   3.127  1.00  0.00     0.058 A 
ATOM     77  C   UNL     1       0.480  17.511   4.254  1.00  0.00     0.135 A 
ATOM     78  C   UNL     1       1.642  15.844   2.974  1.00  0.00     0.135 A 
ATOM     79  F   UNL     1      -0.562  18.336   4.438  1.00  0.00    -0.206 F 
ATOM     80  C   UNL     1       1.509  17.525   5.191  1.00  0.00     0.059 A 
ATOM     81  C   UNL     1       2.673  15.823   3.908  1.00  0.00     0.059 A 
ATOM     82  F   UNL     1       1.728  15.022   1.916  1.00  0.00    -0.206 F 
ATOM     83  C   UNL     1       2.602  16.674   5.009  1.00  0.00     0.060 A 
BRANCH  83  84
ATOM     84  S   UNL     1       3.909  16.658   6.256  1.00  0.00     0.124 S 
ATOM     85  O   UNL     1       4.620  17.894   5.952  1.00  0.00    -0.237 OA
ATOM     86  O   UNL     1       3.147  16.650   7.502  1.00  0.00    -0.237 OA
ATOM     87  O   UNL     1       4.632  15.424   5.966  1.00  0.00    -0.744 OA
ENDBRANCH  83  84
ENDBRANCH  51  76
BRANCH  63  88
ATOM     88  C   UNL     1      -1.687  21.315  -1.604  1.00  0.00     0.058 A 
ATOM     89  C   UNL     1      -0.534  21.566  -2.361  1.00  0.00     0.135 A 
ATOM     90  C   UNL     1      -2.487  22.410  -1.239  1.00  0.00     0.135 A 
ATOM     91  F   UNL     1       0.267  20.554  -2.730  1.00  0.00    -0.206 F 
ATOM     92  C   UNL     1      -0.183  22.859  -2.740  1.00  0.00     0.059 A 
ATOM     93  C   UNL     1      -2.167  23.707  -1.624  1.00  0.00     0.059 A 
ATOM     94  F   UNL     1      -3.606  22.220  -0.522  1.00  0.00    -0.206 F 
ATOM     95  C   UNL     1      -1.009  23.923  -2.370  1.00  0.00     0.060 A 
BRANCH  95  96
ATOM     96  S   UNL     1      -0.577  25.589  -2.916  1.00  0.00     0.124 S 
ATOM     97  O   UNL     1       0.509  25.925  -2.002  1.00  0.00    -0.237 OA
ATOM     98  O   UNL     1      -0.191  25.375  -4.307  1.00  0.00    -0.237 OA
ATOM     99  O   UNL     1      -1.815  26.340  -2.725  1.00  0.00    -0.744 OA
ENDBRANCH  95  96
ENDBRANCH  63  88
ENDBRANCH  37  38
ENDBRANCH  30  32
ENDBRANCH  29  30
ENDBRANCH  28  29
ENDBRANCH  27  28
ENDBRANCH  26  27
ENDBRANCH   1  26
TORSDOF 21
