REMARK SMILES Cc1n[nH]c2c1[C@@]1(C(=O)N([C@@H](C)C(=O)OCCOCCOC(=O)c3ccc(-c4c5nc(c(-c6c(F)cc(S(=O)(=O)[O-])cc6F)c6ccc([nH]6)c(-c6c(F)cc(S(=O)(=O)[O-])cc6F)c6nc(c(-c7c(F)cc(S(=O)(=O)[O-])cc7F)c7ccc4[nH]7)C=C6)C=C5)cc3)c3ccccc31)C(C#N)=C(N)O2
REMARK SMILES IDX 19 1 18 2 17 3 16 4 15 5 13 6 14 7 11 8 12 9 10 10 1 11 2 12
REMARK SMILES IDX 3 13 6 14 4 15 5 16 7 17 101 19 8 20 95 21 96 22 99 23 9 24
REMARK SMILES IDX 90 25 94 26 91 27 93 28 92 29 97 30 98 31 100 32 20 35 21 36
REMARK SMILES IDX 22 37 23 38 24 39 25 40 89 41 26 42 88 43 27 44 28 45 29 46
REMARK SMILES IDX 82 47 30 48 87 49 81 50 83 51 31 52 86 53 80 54 79 55 32 57
REMARK SMILES IDX 66 58 45 59 65 60 46 61 49 62 64 63 84 64 47 65 48 66 63 68
REMARK SMILES IDX 85 69 50 70 33 71 34 72 43 73 35 74 36 75 42 76 44 77 37 78
REMARK SMILES IDX 38 79 39 80 40 81 41 82 67 83 68 84 77 85 69 86 70 87 76 88
REMARK SMILES IDX 78 89 71 90 72 91 73 92 74 93 75 94 51 95 52 96 61 97 53 98
REMARK SMILES IDX 54 99 60 100 62 101 55 102 56 103 57 104 58 105 59 106
REMARK H PARENT 4 18 100 33 100 34 83 56 49 67
REMARK Flexibility Score: inf
ROOT
ATOM      1  C   UNL     1       3.345   4.119   5.997  1.00  0.00     0.202 C 
ENDROOT
BRANCH   1   2
ATOM      2  O   UNL     1       4.689   4.054   6.464  1.00  0.00    -0.374 OA
BRANCH   2   3
ATOM      3  C   UNL     1       5.740   4.098   5.500  1.00  0.00     0.202 C 
BRANCH   3   4
ATOM      4  C   UNL     1       5.829   2.977   4.451  1.00  0.00     0.261 C 
BRANCH   4   5
ATOM      5  O   UNL     1       4.590   2.667   3.774  1.00  0.00    -0.462 OA
BRANCH   5   6
ATOM      6  C   UNL     1       4.104   1.437   4.066  1.00  0.00     0.329 C 
ATOM      7  O   UNL     1       4.627   0.660   4.865  1.00  0.00    -0.250 OA
BRANCH   6   8
ATOM      8  C   UNL     1       2.821   1.022   3.334  1.00  0.00     0.197 C 
ATOM      9  C   UNL     1       3.175  -0.188   2.462  1.00  0.00     0.044 C 
BRANCH   8  10
ATOM     10  N   UNL     1       1.904   1.942   2.623  1.00  0.00    -0.297 N 
ATOM     11  C   UNL     1       0.795  -0.210  -0.162  1.00  0.00     0.069 C 
ATOM     12  C   UNL     1       0.395   1.022  -0.879  1.00  0.00     0.068 A 
ATOM     13  N   UNL     1      -0.044   0.923  -2.146  1.00  0.00    -0.177 NA
ATOM     14  C   UNL     1       0.419   2.371  -0.438  1.00  0.00     0.063 A 
ATOM     15  N   UNL     1      -0.231   2.195  -2.534  1.00  0.00    -0.246 N 
ATOM     16  C   UNL     1       0.015   3.085  -1.542  1.00  0.00     0.222 A 
ATOM     17  C   UNL     1       0.801   3.101   0.816  1.00  0.00     0.149 C 
ATOM     18  H   UNL     1      -0.516   2.453  -3.440  1.00  0.00     0.193 HD
ATOM     19  O   UNL     1      -0.090   4.400  -1.684  1.00  0.00    -0.422 OA
ATOM     20  C   UNL     1       2.180   2.587   1.392  1.00  0.00     0.248 C 
ATOM     21  C   UNL     1      -0.169   2.662   1.887  1.00  0.00     0.002 A 
ATOM     22  C   UNL     1       0.732   4.610   0.572  1.00  0.00     0.114 C 
ATOM     23  C   UNL     1       0.325   5.178  -0.593  1.00  0.00     0.208 C 
ATOM     24  O   UNL     1       3.256   2.689   0.857  1.00  0.00    -0.273 OA
ATOM     25  C   UNL     1       0.524   2.022   2.923  1.00  0.00     0.050 A 
ATOM     26  C   UNL     1      -1.546   2.849   1.946  1.00  0.00     0.008 A 
ATOM     27  C   UNL     1      -0.156   1.557   4.037  1.00  0.00     0.027 A 
ATOM     28  C   UNL     1      -2.232   2.384   3.066  1.00  0.00     0.001 A 
ATOM     29  C   UNL     1      -1.541   1.745   4.104  1.00  0.00     0.002 A 
BRANCH  22  30
ATOM     30  C   UNL     1       1.250   5.507   1.684  1.00  0.00     0.102 C 
ATOM     31  N   UNL     1       1.680   6.251   2.607  1.00  0.00    -0.193 NA
ENDBRANCH  22  30
BRANCH  23  32
ATOM     32  N   UNL     1       0.288   6.517  -0.852  1.00  0.00    -0.369 N 
ATOM     33  H   UNL     1       0.558   7.160  -0.157  1.00  0.00     0.159 HD
ATOM     34  H   UNL     1      -0.010   6.840  -1.732  1.00  0.00     0.159 HD
ENDBRANCH  23  32
ENDBRANCH   8  10
ENDBRANCH   6   8
ENDBRANCH   5   6
ENDBRANCH   4   5
ENDBRANCH   3   4
ENDBRANCH   2   3
ENDBRANCH   1   2
BRANCH   1  35
ATOM     35  C   UNL     1       2.937   5.302   5.117  1.00  0.00     0.261 C 
BRANCH  35  36
ATOM     36  O   UNL     1       3.779   5.417   3.969  1.00  0.00    -0.460 OA
BRANCH  36  37
ATOM     37  C   UNL     1       4.139   6.681   3.616  1.00  0.00     0.338 C 
ATOM     38  O   UNL     1       3.717   7.741   4.054  1.00  0.00    -0.246 OA
BRANCH  37  39
ATOM     39  C   UNL     1       5.409   6.549   2.892  1.00  0.00     0.060 A 
ATOM     40  C   UNL     1       5.641   5.520   1.972  1.00  0.00     0.016 A 
ATOM     41  C   UNL     1       6.455   7.289   3.453  1.00  0.00     0.016 A 
ATOM     42  C   UNL     1       6.953   5.141   1.731  1.00  0.00     0.010 A 
ATOM     43  C   UNL     1       7.754   6.883   3.240  1.00  0.00     0.010 A 
ATOM     44  C   UNL     1       7.993   5.772   2.432  1.00  0.00    -0.014 A 
BRANCH  44  45
ATOM     45  C   UNL     1       9.364   5.341   2.190  1.00  0.00     0.031 A 
ATOM     46  C   UNL     1       9.842   5.694   0.834  1.00  0.00     0.074 A 
ATOM     47  C   UNL     1      10.191   4.843   3.132  1.00  0.00     0.049 A 
ATOM     48  N   UNL     1      10.189   4.899  -0.121  1.00  0.00    -0.248 NA
ATOM     49  C   UNL     1       9.793   7.115   0.451  1.00  0.00     0.031 C 
ATOM     50  C   UNL     1       9.940   4.755   4.574  1.00  0.00     0.029 A 
ATOM     51  N   UNL     1      11.483   4.408   3.017  1.00  0.00    -0.354 N 
ATOM     52  C   UNL     1      10.626   5.731  -1.146  1.00  0.00     0.074 A 
ATOM     53  C   UNL     1      10.181   7.059  -0.822  1.00  0.00     0.031 C 
ATOM     54  C   UNL     1      11.103   4.495   5.215  1.00  0.00     0.029 A 
ATOM     55  C   UNL     1      12.147   4.262   4.231  1.00  0.00     0.049 A 
ATOM     56  H   UNL     1      11.906   4.215   2.149  1.00  0.00     0.167 HD
ATOM     57  C   UNL     1      11.573   5.315  -2.027  1.00  0.00     0.037 A 
ATOM     58  C   UNL     1      13.466   4.003   4.416  1.00  0.00     0.037 A 
ATOM     59  C   UNL     1      11.749   3.888  -1.982  1.00  0.00     0.049 A 
ATOM     60  C   UNL     1      13.985   3.381   3.175  1.00  0.00     0.074 A 
ATOM     61  C   UNL     1      11.084   2.779  -2.455  1.00  0.00     0.029 A 
ATOM     62  N   UNL     1      12.632   3.460  -1.027  1.00  0.00    -0.354 N 
ATOM     63  N   UNL     1      13.631   2.199   2.753  1.00  0.00    -0.248 NA
ATOM     64  C   UNL     1      14.729   4.191   2.215  1.00  0.00     0.031 C 
ATOM     65  C   UNL     1      11.491   1.685  -1.635  1.00  0.00     0.029 A 
ATOM     66  C   UNL     1      12.399   2.153  -0.689  1.00  0.00     0.049 A 
ATOM     67  H   UNL     1      13.341   4.019  -0.634  1.00  0.00     0.167 HD
ATOM     68  C   UNL     1      13.737   2.282   1.381  1.00  0.00     0.074 A 
ATOM     69  C   UNL     1      14.579   3.439   1.122  1.00  0.00     0.031 C 
ATOM     70  C   UNL     1      12.863   1.622   0.574  1.00  0.00     0.037 A 
BRANCH  57  71
ATOM     71  C   UNL     1      12.655   6.214  -2.582  1.00  0.00     0.058 A 
ATOM     72  C   UNL     1      13.466   5.747  -3.635  1.00  0.00     0.135 A 
ATOM     73  C   UNL     1      13.116   7.379  -1.927  1.00  0.00     0.135 A 
ATOM     74  F   UNL     1      13.133   4.636  -4.311  1.00  0.00    -0.206 F 
ATOM     75  C   UNL     1      14.672   6.362  -3.977  1.00  0.00     0.059 A 
ATOM     76  C   UNL     1      14.283   8.041  -2.289  1.00  0.00     0.059 A 
ATOM     77  F   UNL     1      12.514   7.873  -0.838  1.00  0.00    -0.206 F 
ATOM     78  C   UNL     1      15.076   7.503  -3.288  1.00  0.00     0.060 A 
BRANCH  78  79
ATOM     79  S   UNL     1      16.673   8.247  -3.660  1.00  0.00     0.124 S 
ATOM     80  O   UNL     1      17.591   7.246  -3.130  1.00  0.00    -0.237 OA
ATOM     81  O   UNL     1      16.622   8.363  -5.114  1.00  0.00    -0.237 OA
ATOM     82  O   UNL     1      16.630   9.513  -2.935  1.00  0.00    -0.744 OA
ENDBRANCH  78  79
ENDBRANCH  57  71
BRANCH  58  83
ATOM     83  C   UNL     1      14.388   4.407   5.511  1.00  0.00     0.058 A 
ATOM     84  C   UNL     1      15.664   3.821   5.623  1.00  0.00     0.135 A 
ATOM     85  C   UNL     1      14.174   5.579   6.260  1.00  0.00     0.135 A 
ATOM     86  F   UNL     1      15.957   2.699   4.949  1.00  0.00    -0.206 F 
ATOM     87  C   UNL     1      16.697   4.415   6.351  1.00  0.00     0.059 A 
ATOM     88  C   UNL     1      15.186   6.182   7.007  1.00  0.00     0.059 A 
ATOM     89  F   UNL     1      13.002   6.230   6.205  1.00  0.00    -0.206 F 
ATOM     90  C   UNL     1      16.457   5.617   7.012  1.00  0.00     0.060 A 
BRANCH  90  91
ATOM     91  S   UNL     1      17.850   6.503   7.749  1.00  0.00     0.124 S 
ATOM     92  O   UNL     1      18.227   5.618   8.845  1.00  0.00    -0.237 OA
ATOM     93  O   UNL     1      18.790   6.573   6.634  1.00  0.00    -0.237 OA
ATOM     94  O   UNL     1      17.266   7.780   8.149  1.00  0.00    -0.744 OA
ENDBRANCH  90  91
ENDBRANCH  58  83
BRANCH  70  95
ATOM     95  C   UNL     1      12.229   0.376   1.111  1.00  0.00     0.058 A 
ATOM     96  C   UNL     1      11.284   0.339   2.149  1.00  0.00     0.135 A 
ATOM     97  C   UNL     1      12.557  -0.838   0.489  1.00  0.00     0.135 A 
ATOM     98  F   UNL     1      10.870   1.467   2.745  1.00  0.00    -0.206 F 
ATOM     99  C   UNL     1      10.709  -0.863   2.566  1.00  0.00     0.059 A 
ATOM    100  C   UNL     1      11.976  -2.042   0.869  1.00  0.00     0.059 A 
ATOM    101  F   UNL     1      13.429  -0.856  -0.533  1.00  0.00    -0.206 F 
ATOM    102  C   UNL     1      11.057  -2.048   1.916  1.00  0.00     0.060 A 
BRANCH 102 103
ATOM    103  S   UNL     1      10.247  -3.590   2.394  1.00  0.00     0.124 S 
ATOM    104  O   UNL     1      10.839  -3.858   3.700  1.00  0.00    -0.237 OA
ATOM    105  O   UNL     1       8.835  -3.216   2.401  1.00  0.00    -0.237 OA
ATOM    106  O   UNL     1      10.629  -4.520   1.334  1.00  0.00    -0.744 OA
ENDBRANCH 102 103
ENDBRANCH  70  95
ENDBRANCH  44  45
ENDBRANCH  37  39
ENDBRANCH  36  37
ENDBRANCH  35  36
ENDBRANCH   1  35
TORSDOF 20
