REMARK SMILES Cc1cc(=O)c(Oc2ccc(C(=O)OCCOCCOC(=O)c3ccc(-c4c5nc(c(-c6c(F)cc(S(=O)(=O)[O-])cc6F)c6ccc([nH]6)c(-c6c(F)cc(S(=O)(=O)[O-])cc6F)c6nc(c(-c7c(F)cc(S(=O)(=O)[O-])cc7F)c7ccc4[nH]7)C=C6)C=C5)cc3)cc2)c(-c2ccc(S(C)(=O)=O)cc2)o1
REMARK SMILES IDX 16 1 15 2 14 3 12 4 13 5 11 6 8 7 9 8 90 9 10 10 89 11 7 12
REMARK SMILES IDX 6 13 1 14 2 15 3 16 102 17 4 18 91 19 5 20 92 21 93 22
REMARK SMILES IDX 101 23 94 24 100 25 95 26 96 27 97 28 98 29 99 30 17 31
REMARK SMILES IDX 18 32 19 33 20 34 21 35 22 36 23 37 24 38 88 39 25 40 87 41
REMARK SMILES IDX 26 42 27 43 28 44 81 45 29 46 86 47 80 48 82 49 30 50 85 51
REMARK SMILES IDX 79 52 78 53 31 55 65 56 44 57 64 58 45 59 48 60 63 61 83 62
REMARK SMILES IDX 46 63 47 64 62 66 84 67 49 68 32 69 33 70 42 71 34 72 35 73
REMARK SMILES IDX 41 74 43 75 36 76 37 77 38 78 39 79 40 80 66 81 67 82 76 83
REMARK SMILES IDX 68 84 69 85 75 86 77 87 70 88 71 89 72 90 73 91 74 92 50 93
REMARK SMILES IDX 51 94 60 95 52 96 53 97 59 98 61 99 54 100 55 101 56 102
REMARK SMILES IDX 57 103 58 104
REMARK H PARENT 82 54 48 65
REMARK Flexibility Score: inf
ROOT
ATOM      1  C   UNL     1       3.974  11.424   0.564  1.00  0.00     0.202 C 
ENDROOT
BRANCH   1   2
ATOM      2  C   UNL     1       2.580  11.835   1.059  1.00  0.00     0.261 C 
BRANCH   2   3
ATOM      3  O   UNL     1       1.888  10.714   1.641  1.00  0.00    -0.460 OA
BRANCH   3   4
ATOM      4  C   UNL     1       0.809  10.266   0.951  1.00  0.00     0.338 C 
ATOM      5  O   UNL     1       0.252  10.831   0.023  1.00  0.00    -0.246 OA
BRANCH   4   6
ATOM      6  C   UNL     1       0.438   8.892   1.394  1.00  0.00     0.060 A 
ATOM      7  C   UNL     1      -0.210   6.236   2.021  1.00  0.00     0.127 A 
ATOM      8  C   UNL     1      -0.780   6.842   0.905  1.00  0.00     0.048 A 
ATOM      9  C   UNL     1       0.623   6.975   2.867  1.00  0.00     0.048 A 
ATOM     10  C   UNL     1      -0.433   8.155   0.577  1.00  0.00     0.019 A 
ATOM     11  C   UNL     1       0.951   8.300   2.555  1.00  0.00     0.019 A 
BRANCH   7  12
ATOM     12  O   UNL     1      -0.593   4.994   2.437  1.00  0.00    -0.449 OA
BRANCH  12  13
ATOM     13  C   UNL     1      -0.301   3.812   1.776  1.00  0.00     0.217 A 
ATOM     14  C   UNL     1       0.686  -0.119   0.269  1.00  0.00     0.088 C 
ATOM     15  C   UNL     1       0.233   1.171   0.871  1.00  0.00     0.105 A 
ATOM     16  C   UNL     1      -0.438   1.266   2.019  1.00  0.00     0.098 A 
ATOM     17  O   UNL     1       0.572   2.273   0.127  1.00  0.00    -0.457 OA
ATOM     18  C   UNL     1      -0.803   2.603   2.516  1.00  0.00     0.228 A 
ATOM     19  C   UNL     1       0.346   3.556   0.611  1.00  0.00     0.180 A 
ATOM     20  O   UNL     1      -1.494   2.691   3.528  1.00  0.00    -0.285 OA
BRANCH  19  21
ATOM     21  C   UNL     1       0.933   4.502  -0.345  1.00  0.00     0.021 A 
ATOM     22  C   UNL     1       0.317   4.700  -1.595  1.00  0.00     0.013 A 
ATOM     23  C   UNL     1       2.194   5.049  -0.110  1.00  0.00     0.013 A 
ATOM     24  C   UNL     1       0.922   5.488  -2.578  1.00  0.00     0.021 A 
ATOM     25  C   UNL     1       2.817   5.784  -1.116  1.00  0.00     0.021 A 
ATOM     26  C   UNL     1       2.175   6.033  -2.328  1.00  0.00     0.067 A 
BRANCH  26  27
ATOM     27  S   UNL     1       2.941   7.124  -3.505  1.00  0.00     0.175 S 
ATOM     28  C   UNL     1       4.395   6.262  -4.037  1.00  0.00     0.163 C 
ATOM     29  O   UNL     1       2.051   7.238  -4.644  1.00  0.00    -0.224 OA
ATOM     30  O   UNL     1       3.358   8.293  -2.764  1.00  0.00    -0.224 OA
ENDBRANCH  26  27
ENDBRANCH  19  21
ENDBRANCH  12  13
ENDBRANCH   7  12
ENDBRANCH   4   6
ENDBRANCH   3   4
ENDBRANCH   2   3
ENDBRANCH   1   2
BRANCH   1  31
ATOM     31  O   UNL     1       3.971  10.303  -0.318  1.00  0.00    -0.374 OA
BRANCH  31  32
ATOM     32  C   UNL     1       3.849   9.040   0.337  1.00  0.00     0.202 C 
BRANCH  32  33
ATOM     33  C   UNL     1       5.032   8.134   0.020  1.00  0.00     0.261 C 
BRANCH  33  34
ATOM     34  O   UNL     1       6.145   8.527   0.800  1.00  0.00    -0.460 OA
BRANCH  34  35
ATOM     35  C   UNL     1       7.032   9.371   0.242  1.00  0.00     0.338 C 
ATOM     36  O   UNL     1       7.204   9.634  -0.931  1.00  0.00    -0.246 OA
BRANCH  35  37
ATOM     37  C   UNL     1       7.606  10.064   1.404  1.00  0.00     0.060 A 
ATOM     38  C   UNL     1       7.684   9.387   2.631  1.00  0.00     0.016 A 
ATOM     39  C   UNL     1       7.900  11.425   1.303  1.00  0.00     0.016 A 
ATOM     40  C   UNL     1       7.988  10.090   3.775  1.00  0.00     0.010 A 
ATOM     41  C   UNL     1       8.280  12.117   2.447  1.00  0.00     0.010 A 
ATOM     42  C   UNL     1       8.323  11.447   3.678  1.00  0.00    -0.014 A 
BRANCH  42  43
ATOM     43  C   UNL     1       8.860  12.091   4.883  1.00  0.00     0.031 A 
ATOM     44  C   UNL     1       8.047  13.078   5.648  1.00  0.00     0.074 A 
ATOM     45  C   UNL     1      10.072  11.669   5.288  1.00  0.00     0.049 A 
ATOM     46  N   UNL     1       8.336  13.664   6.776  1.00  0.00    -0.248 NA
ATOM     47  C   UNL     1       6.744  13.462   5.081  1.00  0.00     0.031 C 
ATOM     48  C   UNL     1      10.896  10.685   4.571  1.00  0.00     0.029 A 
ATOM     49  N   UNL     1      10.803  11.961   6.402  1.00  0.00    -0.354 N 
ATOM     50  C   UNL     1       7.258  14.490   7.058  1.00  0.00     0.074 A 
ATOM     51  C   UNL     1       6.318  14.354   5.967  1.00  0.00     0.031 C 
ATOM     52  C   UNL     1      11.985  10.408   5.298  1.00  0.00     0.029 A 
ATOM     53  C   UNL     1      11.970  11.241   6.491  1.00  0.00     0.049 A 
ATOM     54  H   UNL     1      10.522  12.622   7.076  1.00  0.00     0.167 HD
ATOM     55  C   UNL     1       7.084  15.277   8.145  1.00  0.00     0.037 A 
ATOM     56  C   UNL     1      12.926  11.262   7.435  1.00  0.00     0.037 A 
ATOM     57  C   UNL     1       8.055  15.375   9.204  1.00  0.00     0.049 A 
ATOM     58  C   UNL     1      12.725  12.184   8.599  1.00  0.00     0.074 A 
ATOM     59  C   UNL     1       7.997  16.133  10.358  1.00  0.00     0.029 A 
ATOM     60  N   UNL     1       9.266  14.692   9.232  1.00  0.00    -0.354 N 
ATOM     61  N   UNL     1      11.691  12.947   8.869  1.00  0.00    -0.248 NA
ATOM     62  C   UNL     1      13.814  12.267   9.576  1.00  0.00     0.031 C 
ATOM     63  C   UNL     1       9.192  15.945  11.059  1.00  0.00     0.029 A 
ATOM     64  C   UNL     1       9.978  15.033  10.368  1.00  0.00     0.049 A 
ATOM     65  H   UNL     1       9.572  14.058   8.543  1.00  0.00     0.167 HD
ATOM     66  C   UNL     1      12.004  13.607  10.047  1.00  0.00     0.074 A 
ATOM     67  C   UNL     1      13.313  13.128  10.453  1.00  0.00     0.031 C 
ATOM     68  C   UNL     1      11.284  14.532  10.727  1.00  0.00     0.037 A 
BRANCH  55  69
ATOM     69  C   UNL     1       5.825  16.091   8.231  1.00  0.00     0.058 A 
ATOM     70  C   UNL     1       4.579  15.496   8.482  1.00  0.00     0.135 A 
ATOM     71  C   UNL     1       5.867  17.489   8.104  1.00  0.00     0.135 A 
ATOM     72  F   UNL     1       4.476  14.161   8.591  1.00  0.00    -0.206 F 
ATOM     73  C   UNL     1       3.417  16.255   8.590  1.00  0.00     0.059 A 
ATOM     74  C   UNL     1       4.721  18.271   8.231  1.00  0.00     0.059 A 
ATOM     75  F   UNL     1       7.030  18.110   7.855  1.00  0.00    -0.206 F 
ATOM     76  C   UNL     1       3.499  17.643   8.466  1.00  0.00     0.060 A 
BRANCH  76  77
ATOM     77  S   UNL     1       1.983  18.610   8.623  1.00  0.00     0.124 S 
ATOM     78  O   UNL     1       1.267  18.228   7.409  1.00  0.00    -0.237 OA
ATOM     79  O   UNL     1       1.423  18.106   9.873  1.00  0.00    -0.237 OA
ATOM     80  O   UNL     1       2.459  19.989   8.661  1.00  0.00    -0.744 OA
ENDBRANCH  76  77
ENDBRANCH  55  69
BRANCH  56  81
ATOM     81  C   UNL     1      14.121  10.392   7.295  1.00  0.00     0.058 A 
ATOM     82  C   UNL     1      14.329   9.307   8.156  1.00  0.00     0.135 A 
ATOM     83  C   UNL     1      15.041  10.585   6.250  1.00  0.00     0.135 A 
ATOM     84  F   UNL     1      13.474   9.077   9.164  1.00  0.00    -0.206 F 
ATOM     85  C   UNL     1      15.410   8.446   7.992  1.00  0.00     0.059 A 
ATOM     86  C   UNL     1      16.113   9.722   6.050  1.00  0.00     0.059 A 
ATOM     87  F   UNL     1      14.873  11.594   5.381  1.00  0.00    -0.206 F 
ATOM     88  C   UNL     1      16.294   8.659   6.932  1.00  0.00     0.060 A 
BRANCH  88  89
ATOM     89  S   UNL     1      17.662   7.504   6.702  1.00  0.00     0.124 S 
ATOM     90  O   UNL     1      18.507   7.819   7.849  1.00  0.00    -0.237 OA
ATOM     91  O   UNL     1      16.982   6.214   6.744  1.00  0.00    -0.237 OA
ATOM     92  O   UNL     1      18.203   7.878   5.399  1.00  0.00    -0.744 OA
ENDBRANCH  88  89
ENDBRANCH  56  81
BRANCH  68  93
ATOM     93  C   UNL     1      11.905  15.095  11.969  1.00  0.00     0.058 A 
ATOM     94  C   UNL     1      12.938  16.041  11.895  1.00  0.00     0.135 A 
ATOM     95  C   UNL     1      11.395  14.764  13.234  1.00  0.00     0.135 A 
ATOM     96  F   UNL     1      13.465  16.375  10.707  1.00  0.00    -0.206 F 
ATOM     97  C   UNL     1      13.442  16.647  13.037  1.00  0.00     0.059 A 
ATOM     98  C   UNL     1      11.867  15.378  14.387  1.00  0.00     0.059 A 
ATOM     99  F   UNL     1      10.403  13.867  13.350  1.00  0.00    -0.206 F 
ATOM    100  C   UNL     1      12.890  16.320  14.278  1.00  0.00     0.060 A 
BRANCH 100 101
ATOM    101  S   UNL     1      13.499  17.182  15.740  1.00  0.00     0.124 S 
ATOM    102  O   UNL     1      14.840  16.623  15.874  1.00  0.00    -0.237 OA
ATOM    103  O   UNL     1      13.433  18.579  15.324  1.00  0.00    -0.237 OA
ATOM    104  O   UNL     1      12.552  16.797  16.782  1.00  0.00    -0.744 OA
ENDBRANCH 100 101
ENDBRANCH  68  93
ENDBRANCH  42  43
ENDBRANCH  35  37
ENDBRANCH  34  35
ENDBRANCH  33  34
ENDBRANCH  32  33
ENDBRANCH  31  32
ENDBRANCH   1  31
TORSDOF 21
