REMARK SMILES O=C(CCN1C(=O)/C(=C/C=C/c2ccco2)SC1=S)Nc1ccc(C(=O)OCCOCCOC(=O)c2ccc(-c3c4nc(c(-c5c(F)cc(S(=O)(=O)[O-])cc5F)c5ccc([nH]5)c(-c5c(F)cc(S(=O)(=O)[O-])cc5F)c5nc(c(-c6c(F)cc(S(=O)(=O)[O-])cc6F)c6ccc3[nH]6)C=C5)C=C4)cc2)c(O)c1
REMARK SMILES IDX 28 1 27 2 25 3 26 4 24 5 21 6 22 7 104 8 23 9 102 10 20 11
REMARK SMILES IDX 1 12 2 13 3 15 4 16 5 17 6 18 18 19 7 20 8 21 17 22 19 23
REMARK SMILES IDX 9 24 10 25 11 26 12 27 13 28 16 29 14 30 15 31 103 32 29 34
REMARK SMILES IDX 30 35 31 36 32 37 33 38 34 39 35 40 36 41 37 42 101 43 38 44
REMARK SMILES IDX 100 45 39 46 40 47 41 48 94 49 42 50 99 51 93 52 95 53 43 54
REMARK SMILES IDX 98 55 92 56 91 57 44 59 78 60 57 61 77 62 58 63 61 64 76 65
REMARK SMILES IDX 96 66 59 67 60 68 75 70 97 71 62 72 45 73 46 74 55 75 47 76
REMARK SMILES IDX 48 77 54 78 56 79 49 80 50 81 51 82 52 83 53 84 79 85 80 86
REMARK SMILES IDX 89 87 81 88 82 89 88 90 90 91 83 92 84 93 85 94 86 95 87 96
REMARK SMILES IDX 63 97 64 98 73 99 65 100 66 101 72 102 74 103 67 104 68 105
REMARK SMILES IDX 69 106 70 107 71 108
REMARK H PARENT 20 14 103 33 95 58 61 69
REMARK Flexibility Score: inf
ROOT
ATOM      1  C   UNL     1       0.062  -0.797  -8.353  1.00  0.00     0.261 C 
ENDROOT
BRANCH   1   2
ATOM      2  O   UNL     1       0.841  -0.884  -7.148  1.00  0.00    -0.460 OA
BRANCH   2   3
ATOM      3  C   UNL     1       0.953   0.288  -6.471  1.00  0.00     0.341 C 
ATOM      4  O   UNL     1       0.598   1.392  -6.853  1.00  0.00    -0.246 OA
BRANCH   3   5
ATOM      5  C   UNL     1       1.403   0.028  -5.086  1.00  0.00     0.101 A 
ATOM      6  C   UNL     1       2.140  -0.285  -2.393  1.00  0.00     0.044 A 
ATOM      7  C   UNL     1       1.179   0.659  -2.750  1.00  0.00     0.027 A 
ATOM      8  C   UNL     1       2.715  -1.088  -3.388  1.00  0.00     0.073 A 
ATOM      9  C   UNL     1       0.827   0.828  -4.090  1.00  0.00     0.022 A 
ATOM     10  C   UNL     1       2.322  -0.957  -4.723  1.00  0.00     0.132 A 
BRANCH   6  11
ATOM     11  N   UNL     1       2.619  -0.426  -1.076  1.00  0.00    -0.326 N 
ATOM     12  O   UNL     1       0.907   0.514   0.165  1.00  0.00    -0.275 OA
ATOM     13  C   UNL     1       2.059   0.092   0.071  1.00  0.00     0.226 C 
ATOM     14  H   UNL     1       3.444  -0.951  -0.963  1.00  0.00     0.169 HD
BRANCH  13  15
ATOM     15  C   UNL     1       3.007   0.234   1.252  1.00  0.00     0.122 C 
BRANCH  15  16
ATOM     16  C   UNL     1       3.994  -0.903   1.521  1.00  0.00     0.137 C 
BRANCH  16  17
ATOM     17  N   UNL     1       5.006  -1.143   0.480  1.00  0.00    -0.292 N 
ATOM     18  C   UNL     1       5.787  -0.089   0.024  1.00  0.00     0.266 C 
ATOM     19  C   UNL     1       5.350  -2.397   0.002  1.00  0.00     0.148 C 
ATOM     20  O   UNL     1       5.793   1.049   0.471  1.00  0.00    -0.268 OA
ATOM     21  C   UNL     1       6.626  -0.532  -1.119  1.00  0.00     0.080 C 
ATOM     22  S   UNL     1       6.548  -2.239  -1.270  1.00  0.00    -0.054 SA
ATOM     23  S   UNL     1       4.735  -3.877   0.457  1.00  0.00    -0.052 S 
ATOM     24  C   UNL     1       7.277   0.339  -1.902  1.00  0.00     0.021 C 
BRANCH  24  25
ATOM     25  C   UNL     1       8.056  -0.001  -3.075  1.00  0.00     0.005 C 
ATOM     26  C   UNL     1       8.774   0.894  -3.770  1.00  0.00     0.047 C 
BRANCH  26  27
ATOM     27  C   UNL     1       9.553   0.491  -4.890  1.00  0.00     0.126 A 
ATOM     28  C   UNL     1       9.302  -0.461  -5.873  1.00  0.00     0.050 A 
ATOM     29  O   UNL     1      10.780   1.053  -5.165  1.00  0.00    -0.465 OA
ATOM     30  C   UNL     1      10.418  -0.497  -6.741  1.00  0.00     0.042 A 
ATOM     31  C   UNL     1      11.295   0.439  -6.258  1.00  0.00     0.195 A 
ENDBRANCH  26  27
ENDBRANCH  24  25
ENDBRANCH  16  17
ENDBRANCH  15  16
ENDBRANCH  13  15
ENDBRANCH   6  11
BRANCH  10  32
ATOM     32  O   UNL     1       2.887  -1.837  -5.602  1.00  0.00    -0.507 OA
ATOM     33  H   UNL     1       2.663  -1.800  -6.511  1.00  0.00     0.293 HD
ENDBRANCH  10  32
ENDBRANCH   3   5
ENDBRANCH   2   3
ENDBRANCH   1   2
BRANCH   1  34
ATOM     34  C   UNL     1      -1.316  -1.452  -8.203  1.00  0.00     0.202 C 
BRANCH  34  35
ATOM     35  O   UNL     1      -2.174  -0.963  -7.174  1.00  0.00    -0.374 OA
BRANCH  35  36
ATOM     36  C   UNL     1      -1.922  -1.394  -5.837  1.00  0.00     0.202 C 
BRANCH  36  37
ATOM     37  C   UNL     1      -2.284  -2.838  -5.460  1.00  0.00     0.261 C 
BRANCH  37  38
ATOM     38  O   UNL     1      -1.519  -3.814  -6.187  1.00  0.00    -0.460 OA
BRANCH  38  39
ATOM     39  C   UNL     1      -2.227  -4.534  -7.093  1.00  0.00     0.338 C 
ATOM     40  O   UNL     1      -3.427  -4.471  -7.313  1.00  0.00    -0.246 OA
BRANCH  39  41
ATOM     41  C   UNL     1      -1.298  -5.295  -7.947  1.00  0.00     0.060 A 
ATOM     42  C   UNL     1      -1.306  -5.032  -9.323  1.00  0.00     0.016 A 
ATOM     43  C   UNL     1      -0.459  -6.275  -7.415  1.00  0.00     0.016 A 
ATOM     44  C   UNL     1      -0.477  -5.758 -10.177  1.00  0.00     0.010 A 
ATOM     45  C   UNL     1       0.361  -7.011  -8.276  1.00  0.00     0.010 A 
ATOM     46  C   UNL     1       0.349  -6.765  -9.661  1.00  0.00    -0.014 A 
BRANCH  46  47
ATOM     47  C   UNL     1       1.162  -7.606 -10.572  1.00  0.00     0.031 A 
ATOM     48  C   UNL     1       0.708  -9.001 -10.898  1.00  0.00     0.074 A 
ATOM     49  C   UNL     1       2.307  -7.126 -11.091  1.00  0.00     0.049 A 
ATOM     50  N   UNL     1       1.317  -9.928 -11.590  1.00  0.00    -0.248 NA
ATOM     51  C   UNL     1      -0.605  -9.405 -10.372  1.00  0.00     0.031 C 
ATOM     52  C   UNL     1       2.828  -5.776 -10.875  1.00  0.00     0.029 A 
ATOM     53  N   UNL     1       3.248  -7.726 -11.889  1.00  0.00    -0.354 N 
ATOM     54  C   UNL     1       0.469 -11.029 -11.577  1.00  0.00     0.074 A 
ATOM     55  C   UNL     1      -0.687 -10.662 -10.787  1.00  0.00     0.031 C 
ATOM     56  C   UNL     1       4.006  -5.657 -11.510  1.00  0.00     0.029 A 
ATOM     57  C   UNL     1       4.343  -6.933 -12.138  1.00  0.00     0.049 A 
ATOM     58  H   UNL     1       3.148  -8.637 -12.250  1.00  0.00     0.167 HD
ATOM     59  C   UNL     1       0.641 -12.233 -12.175  1.00  0.00     0.037 A 
ATOM     60  C   UNL     1       5.501  -7.215 -12.768  1.00  0.00     0.037 A 
ATOM     61  C   UNL     1       1.800 -12.589 -12.954  1.00  0.00     0.049 A 
ATOM     62  C   UNL     1       5.707  -8.589 -13.348  1.00  0.00     0.074 A 
ATOM     63  C   UNL     1       2.055 -13.773 -13.623  1.00  0.00     0.029 A 
ATOM     64  N   UNL     1       2.903 -11.772 -13.156  1.00  0.00    -0.354 N 
ATOM     65  N   UNL     1       4.884  -9.612 -13.358  1.00  0.00    -0.248 NA
ATOM     66  C   UNL     1       6.999  -8.852 -13.998  1.00  0.00     0.031 C 
ATOM     67  C   UNL     1       3.337 -13.695 -14.177  1.00  0.00     0.029 A 
ATOM     68  C   UNL     1       3.858 -12.440 -13.905  1.00  0.00     0.049 A 
ATOM     69  H   UNL     1       2.994 -10.852 -12.816  1.00  0.00     0.167 HD
ATOM     70  C   UNL     1       5.551 -10.632 -14.030  1.00  0.00     0.074 A 
ATOM     71  C   UNL     1       6.837 -10.097 -14.427  1.00  0.00     0.031 C 
ATOM     72  C   UNL     1       5.138 -11.897 -14.291  1.00  0.00     0.037 A 
BRANCH  59  73
ATOM     73  C   UNL     1      -0.435 -13.269 -11.987  1.00  0.00     0.058 A 
ATOM     74  C   UNL     1      -1.693 -13.150 -12.597  1.00  0.00     0.135 A 
ATOM     75  C   UNL     1      -0.185 -14.421 -11.222  1.00  0.00     0.135 A 
ATOM     76  F   UNL     1      -1.992 -12.064 -13.327  1.00  0.00    -0.206 F 
ATOM     77  C   UNL     1      -2.674 -14.125 -12.438  1.00  0.00     0.059 A 
ATOM     78  C   UNL     1      -1.141 -15.422 -11.073  1.00  0.00     0.059 A 
ATOM     79  F   UNL     1       1.000 -14.586 -10.615  1.00  0.00    -0.206 F 
ATOM     80  C   UNL     1      -2.388 -15.258 -11.674  1.00  0.00     0.060 A 
BRANCH  80  81
ATOM     81  S   UNL     1      -3.669 -16.516 -11.485  1.00  0.00     0.124 S 
ATOM     82  O   UNL     1      -4.622 -15.832 -10.616  1.00  0.00    -0.237 OA
ATOM     83  O   UNL     1      -4.104 -16.725 -12.862  1.00  0.00    -0.237 OA
ATOM     84  O   UNL     1      -2.960 -17.637 -10.877  1.00  0.00    -0.744 OA
ENDBRANCH  80  81
ENDBRANCH  59  73
BRANCH  60  85
ATOM     85  C   UNL     1       6.569  -6.183 -12.854  1.00  0.00     0.058 A 
ATOM     86  C   UNL     1       6.925  -5.606 -14.081  1.00  0.00     0.135 A 
ATOM     87  C   UNL     1       7.252  -5.748 -11.706  1.00  0.00     0.135 A 
ATOM     88  F   UNL     1       6.311  -5.997 -15.208  1.00  0.00    -0.206 F 
ATOM     89  C   UNL     1       7.925  -4.642 -14.171  1.00  0.00     0.059 A 
ATOM     90  C   UNL     1       8.235  -4.766 -11.766  1.00  0.00     0.059 A 
ATOM     91  F   UNL     1       6.944  -6.261 -10.504  1.00  0.00    -0.206 F 
ATOM     92  C   UNL     1       8.570  -4.225 -13.006  1.00  0.00     0.060 A 
BRANCH  92  93
ATOM     93  S   UNL     1       9.826  -2.933 -13.125  1.00  0.00     0.124 S 
ATOM     94  O   UNL     1      10.921  -3.645 -13.773  1.00  0.00    -0.237 OA
ATOM     95  O   UNL     1       9.150  -1.925 -13.935  1.00  0.00    -0.237 OA
ATOM     96  O   UNL     1      10.054  -2.557 -11.732  1.00  0.00    -0.744 OA
ENDBRANCH  92  93
ENDBRANCH  60  85
BRANCH  72  97
ATOM     97  C   UNL     1       6.076 -12.792 -15.056  1.00  0.00     0.058 A 
ATOM     98  C   UNL     1       7.239 -13.313 -14.468  1.00  0.00     0.135 A 
ATOM     99  C   UNL     1       5.777 -13.185 -16.371  1.00  0.00     0.135 A 
ATOM    100  F   UNL     1       7.579 -12.963 -13.217  1.00  0.00    -0.206 F 
ATOM    101  C   UNL     1       8.081 -14.177 -15.161  1.00  0.00     0.059 A 
ATOM    102  C   UNL     1       6.588 -14.072 -17.073  1.00  0.00     0.059 A 
ATOM    103  F   UNL     1       4.672 -12.723 -16.980  1.00  0.00    -0.206 F 
ATOM    104  C   UNL     1       7.743 -14.556 -16.462  1.00  0.00     0.060 A 
BRANCH 104 105
ATOM    105  S   UNL     1       8.821 -15.715 -17.331  1.00  0.00     0.124 S 
ATOM    106  O   UNL     1       9.989 -14.884 -17.604  1.00  0.00    -0.237 OA
ATOM    107  O   UNL     1       9.010 -16.768 -16.338  1.00  0.00    -0.237 OA
ATOM    108  O   UNL     1       8.036 -16.098 -18.501  1.00  0.00    -0.744 OA
ENDBRANCH 104 105
ENDBRANCH  72  97
ENDBRANCH  46  47
ENDBRANCH  39  41
ENDBRANCH  38  39
ENDBRANCH  37  38
ENDBRANCH  36  37
ENDBRANCH  35  36
ENDBRANCH  34  35
ENDBRANCH   1  34
TORSDOF 24
