REMARK SMILES C[C@H]1CCC[C@H](C(C)(C)C(=O)OCCOCCOC(=O)c2ccc(-c3c4nc(c(-c5c(F)cc(S(=O)(=O)[O-])cc5F)c5ccc([nH]5)c(-c5c(F)cc(S(=O)(=O)[O-])cc5F)c5nc(c(-c6c(F)cc(S(=O)(=O)[O-])cc6F)c6ccc3[nH]6)C=C5)C=C4)cc2)C1
REMARK SMILES IDX 16 1 15 2 14 3 13 4 12 5 10 6 11 7 7 8 8 9 9 10 6 11 1 12
REMARK SMILES IDX 2 13 3 14 87 15 4 16 5 17 17 18 18 19 19 20 20 21 21 22
REMARK SMILES IDX 22 23 86 24 23 25 85 26 24 27 25 28 26 29 79 30 27 31 84 32
REMARK SMILES IDX 78 33 80 34 28 35 83 36 77 37 76 38 29 40 63 41 42 42 62 43
REMARK SMILES IDX 43 44 46 45 61 46 81 47 44 48 45 49 60 51 82 52 47 53 30 54
REMARK SMILES IDX 31 55 40 56 32 57 33 58 39 59 41 60 34 61 35 62 36 63 37 64
REMARK SMILES IDX 38 65 64 66 65 67 74 68 66 69 67 70 73 71 75 72 68 73 69 74
REMARK SMILES IDX 70 75 71 76 72 77 48 78 49 79 58 80 50 81 51 82 57 83 59 84
REMARK SMILES IDX 52 85 53 86 54 87 55 88 56 89
REMARK H PARENT 80 39 46 50
REMARK Flexibility Score: inf
ROOT
ATOM      1  C   UNL     1       2.124   0.658   2.536  1.00  0.00     0.202 C 
ENDROOT
BRANCH   1   2
ATOM      2  O   UNL     1       1.957   1.771   3.406  1.00  0.00    -0.374 OA
BRANCH   2   3
ATOM      3  C   UNL     1       1.002   1.623   4.463  1.00  0.00     0.202 C 
BRANCH   3   4
ATOM      4  C   UNL     1      -0.476   1.535   4.076  1.00  0.00     0.261 C 
BRANCH   4   5
ATOM      5  O   UNL     1      -0.771   0.264   3.458  1.00  0.00    -0.463 OA
BRANCH   5   6
ATOM      6  C   UNL     1      -1.375   0.321   2.240  1.00  0.00     0.311 C 
ATOM      7  O   UNL     1      -1.743   1.369   1.732  1.00  0.00    -0.252 OA
BRANCH   6   8
ATOM      8  C   UNL     1      -1.651  -1.070   1.639  1.00  0.00     0.065 C 
ATOM      9  C   UNL     1      -3.107  -1.363   2.073  1.00  0.00     0.024 C 
ATOM     10  C   UNL     1      -0.769  -2.167   2.284  1.00  0.00     0.024 C 
BRANCH   8  11
ATOM     11  C   UNL     1      -1.545  -1.159   0.052  1.00  0.00     0.006 C 
ATOM     12  C   UNL     1       2.094  -0.297  -1.054  1.00  0.00     0.007 C 
ATOM     13  C   UNL     1       0.670  -0.063  -0.547  1.00  0.00    -0.014 C 
ATOM     14  C   UNL     1       0.001   1.074  -1.313  1.00  0.00     0.003 C 
ATOM     15  C   UNL     1      -0.144  -1.347  -0.564  1.00  0.00     0.008 C 
ATOM     16  C   UNL     1      -1.510   1.195  -1.129  1.00  0.00     0.001 C 
ATOM     17  C   UNL     1      -2.283  -0.083  -0.773  1.00  0.00     0.005 C 
ENDBRANCH   8  11
ENDBRANCH   6   8
ENDBRANCH   5   6
ENDBRANCH   4   5
ENDBRANCH   3   4
ENDBRANCH   2   3
ENDBRANCH   1   2
BRANCH   1  18
ATOM     18  C   UNL     1       3.121  -0.438   2.917  1.00  0.00     0.261 C 
BRANCH  18  19
ATOM     19  O   UNL     1       2.979  -0.821   4.281  1.00  0.00    -0.460 OA
BRANCH  19  20
ATOM     20  C   UNL     1       3.814  -0.140   5.100  1.00  0.00     0.338 C 
ATOM     21  O   UNL     1       4.776   0.541   4.782  1.00  0.00    -0.246 OA
BRANCH  20  22
ATOM     22  C   UNL     1       3.236  -0.146   6.449  1.00  0.00     0.060 A 
ATOM     23  C   UNL     1       3.115   1.096   7.084  1.00  0.00     0.016 A 
ATOM     24  C   UNL     1       2.781  -1.321   7.054  1.00  0.00     0.016 A 
ATOM     25  C   UNL     1       2.595   1.162   8.366  1.00  0.00     0.010 A 
ATOM     26  C   UNL     1       2.277  -1.256   8.350  1.00  0.00     0.010 A 
ATOM     27  C   UNL     1       2.232  -0.021   9.019  1.00  0.00    -0.014 A 
BRANCH  27  28
ATOM     28  C   UNL     1       2.050   0.021  10.481  1.00  0.00     0.031 A 
ATOM     29  C   UNL     1       3.236  -0.325  11.335  1.00  0.00     0.074 A 
ATOM     30  C   UNL     1       0.886   0.424  11.014  1.00  0.00     0.049 A 
ATOM     31  N   UNL     1       3.338  -0.362  12.635  1.00  0.00    -0.248 NA
ATOM     32  C   UNL     1       4.479  -0.677  10.623  1.00  0.00     0.031 C 
ATOM     33  C   UNL     1      -0.296   0.829  10.253  1.00  0.00     0.029 A 
ATOM     34  N   UNL     1       0.510   0.560  12.322  1.00  0.00    -0.354 N 
ATOM     35  C   UNL     1       4.648  -0.744  12.896  1.00  0.00     0.074 A 
ATOM     36  C   UNL     1       5.296  -0.962  11.624  1.00  0.00     0.031 C 
ATOM     37  C   UNL     1      -1.273   1.160  11.114  1.00  0.00     0.029 A 
ATOM     38  C   UNL     1      -0.794   0.960  12.479  1.00  0.00     0.049 A 
ATOM     39  H   UNL     1       1.117   0.387  13.079  1.00  0.00     0.167 HD
ATOM     40  C   UNL     1       5.254  -0.889  14.096  1.00  0.00     0.037 A 
ATOM     41  C   UNL     1      -1.514   1.122  13.605  1.00  0.00     0.037 A 
ATOM     42  C   UNL     1       4.583  -0.669  15.349  1.00  0.00     0.049 A 
ATOM     43  C   UNL     1      -0.837   0.886  14.931  1.00  0.00     0.074 A 
ATOM     44  C   UNL     1       5.090  -0.782  16.629  1.00  0.00     0.029 A 
ATOM     45  N   UNL     1       3.250  -0.298  15.473  1.00  0.00    -0.354 N 
ATOM     46  N   UNL     1       0.407   0.537  15.171  1.00  0.00    -0.248 NA
ATOM     47  C   UNL     1      -1.653   1.070  16.136  1.00  0.00     0.031 C 
ATOM     48  C   UNL     1       4.048  -0.533  17.529  1.00  0.00     0.029 A 
ATOM     49  C   UNL     1       2.909  -0.204  16.810  1.00  0.00     0.049 A 
ATOM     50  H   UNL     1       2.639  -0.128  14.720  1.00  0.00     0.167 HD
ATOM     51  C   UNL     1       0.529   0.487  16.555  1.00  0.00     0.074 A 
ATOM     52  C   UNL     1      -0.765   0.853  17.097  1.00  0.00     0.031 C 
ATOM     53  C   UNL     1       1.609   0.170  17.314  1.00  0.00     0.037 A 
BRANCH  40  54
ATOM     54  C   UNL     1       6.689  -1.339  14.104  1.00  0.00     0.058 A 
ATOM     55  C   UNL     1       7.732  -0.508  13.666  1.00  0.00     0.135 A 
ATOM     56  C   UNL     1       7.026  -2.620  14.570  1.00  0.00     0.135 A 
ATOM     57  F   UNL     1       7.466   0.717  13.184  1.00  0.00    -0.206 F 
ATOM     58  C   UNL     1       9.056  -0.938  13.669  1.00  0.00     0.059 A 
ATOM     59  C   UNL     1       8.346  -3.060  14.610  1.00  0.00     0.059 A 
ATOM     60  F   UNL     1       6.068  -3.461  14.988  1.00  0.00    -0.206 F 
ATOM     61  C   UNL     1       9.353  -2.216  14.146  1.00  0.00     0.060 A 
BRANCH  61  62
ATOM     62  S   UNL     1      11.076  -2.754  14.158  1.00  0.00     0.124 S 
ATOM     63  O   UNL     1      11.335  -2.937  12.733  1.00  0.00    -0.237 OA
ATOM     64  O   UNL     1      11.751  -1.621  14.784  1.00  0.00    -0.237 OA
ATOM     65  O   UNL     1      11.045  -3.978  14.952  1.00  0.00    -0.744 OA
ENDBRANCH  61  62
ENDBRANCH  40  54
BRANCH  41  66
ATOM     66  C   UNL     1      -2.947   1.511  13.523  1.00  0.00     0.058 A 
ATOM     67  C   UNL     1      -3.390   2.764  13.969  1.00  0.00     0.135 A 
ATOM     68  C   UNL     1      -3.903   0.637  12.980  1.00  0.00     0.135 A 
ATOM     69  F   UNL     1      -2.517   3.633  14.501  1.00  0.00    -0.206 F 
ATOM     70  C   UNL     1      -4.730   3.132  13.895  1.00  0.00     0.059 A 
ATOM     71  C   UNL     1      -5.243   0.992  12.870  1.00  0.00     0.059 A 
ATOM     72  F   UNL     1      -3.530  -0.570  12.526  1.00  0.00    -0.206 F 
ATOM     73  C   UNL     1      -5.649   2.240  13.340  1.00  0.00     0.060 A 
BRANCH  73  74
ATOM     74  S   UNL     1      -7.377   2.747  13.206  1.00  0.00     0.124 S 
ATOM     75  O   UNL     1      -7.802   2.712  14.600  1.00  0.00    -0.237 OA
ATOM     76  O   UNL     1      -7.261   4.072  12.605  1.00  0.00    -0.237 OA
ATOM     77  O   UNL     1      -7.960   1.724  12.342  1.00  0.00    -0.744 OA
ENDBRANCH  73  74
ENDBRANCH  41  66
BRANCH  53  78
ATOM     78  C   UNL     1       1.447   0.241  18.806  1.00  0.00     0.058 A 
ATOM     79  C   UNL     1       0.694  -0.707  19.515  1.00  0.00     0.135 A 
ATOM     80  C   UNL     1       2.108   1.240  19.541  1.00  0.00     0.135 A 
ATOM     81  F   UNL     1       0.040  -1.679  18.858  1.00  0.00    -0.206 F 
ATOM     82  C   UNL     1       0.579  -0.653  20.899  1.00  0.00     0.059 A 
ATOM     83  C   UNL     1       2.033   1.293  20.928  1.00  0.00     0.059 A 
ATOM     84  F   UNL     1       2.853   2.163  18.912  1.00  0.00    -0.206 F 
ATOM     85  C   UNL     1       1.256   0.350  21.597  1.00  0.00     0.060 A 
BRANCH  85  86
ATOM     86  S   UNL     1       1.125   0.388  23.396  1.00  0.00     0.124 S 
ATOM     87  O   UNL     1      -0.243   0.861  23.581  1.00  0.00    -0.237 OA
ATOM     88  O   UNL     1       1.367  -1.006  23.756  1.00  0.00    -0.237 OA
ATOM     89  O   UNL     1       2.172   1.323  23.795  1.00  0.00    -0.744 OA
ENDBRANCH  85  86
ENDBRANCH  53  78
ENDBRANCH  27  28
ENDBRANCH  20  22
ENDBRANCH  19  20
ENDBRANCH  18  19
ENDBRANCH   1  18
TORSDOF 18
