REMARK SMILES C/C(C(=O)NCc1cscc1C)=C(\C)C(=O)OCCOCCOC(=O)c1ccc(-c2c3nc(c(-c4c(F)cc(S(=O)(=O)[O-])cc4F)c4ccc([nH]4)c(-c4c(F)cc(S(=O)(=O)[O-])cc4F)c4nc(c(-c5c(F)cc(S(=O)(=O)[O-])cc5F)c5ccc2[nH]5)C=C4)C=C3)cc1
REMARK SMILES IDX 20 1 19 2 18 3 17 4 15 5 16 6 13 7 1 8 2 9 14 10 3 11 4 12
REMARK SMILES IDX 5 13 6 15 7 16 8 17 11 18 9 19 10 20 12 21 21 22 22 23 23 24
REMARK SMILES IDX 24 25 25 26 26 27 27 28 91 29 28 30 90 31 29 32 30 33 31 34
REMARK SMILES IDX 84 35 32 36 89 37 83 38 85 39 33 40 88 41 82 42 81 43 34 45
REMARK SMILES IDX 68 46 47 47 67 48 48 49 51 50 66 51 86 52 49 53 50 54 65 56
REMARK SMILES IDX 87 57 52 58 35 59 36 60 45 61 37 62 38 63 44 64 46 65 39 66
REMARK SMILES IDX 40 67 41 68 42 69 43 70 69 71 70 72 79 73 71 74 72 75 78 76
REMARK SMILES IDX 80 77 73 78 74 79 75 80 76 81 77 82 53 83 54 84 63 85 55 86
REMARK SMILES IDX 56 87 62 88 64 89 57 90 58 91 59 92 60 93 61 94
REMARK H PARENT 5 14 85 44 51 55
REMARK Flexibility Score: inf
ROOT
ATOM      1  O   UNL     1       0.174  -0.769   6.042  1.00  0.00    -0.374 OA
ENDROOT
BRANCH   1   2
ATOM      2  C   UNL     1      -0.025  -2.185   6.044  1.00  0.00     0.202 C 
BRANCH   2   3
ATOM      3  C   UNL     1      -0.795  -2.775   4.859  1.00  0.00     0.261 C 
BRANCH   3   4
ATOM      4  O   UNL     1      -0.024  -2.615   3.661  1.00  0.00    -0.460 OA
BRANCH   4   5
ATOM      5  C   UNL     1      -0.703  -2.195   2.570  1.00  0.00     0.334 C 
ATOM      6  O   UNL     1      -1.915  -2.212   2.396  1.00  0.00    -0.247 OA
BRANCH   5   7
ATOM      7  C   UNL     1       0.283  -1.773   1.533  1.00  0.00     0.042 C 
ATOM      8  C   UNL     1       1.073  -0.256  -0.260  1.00  0.00     0.051 C 
ATOM      9  C   UNL     1       0.246  -0.540   0.959  1.00  0.00     0.024 C 
ATOM     10  C   UNL     1       1.260  -2.879   1.221  1.00  0.00     0.053 C 
BRANCH   9  11
ATOM     11  C   UNL     1      -0.556   0.576   1.614  1.00  0.00     0.247 C 
ATOM     12  O   UNL     1      -1.050   0.431   2.733  1.00  0.00    -0.270 OA
ATOM     13  N   UNL     1      -0.692   1.829   1.096  1.00  0.00    -0.348 N 
ATOM     14  H   UNL     1      -1.205   2.447   1.665  1.00  0.00     0.164 HD
BRANCH  13  15
ATOM     15  C   UNL     1      -0.220   2.410  -0.130  1.00  0.00     0.153 C 
BRANCH  15  16
ATOM     16  C   UNL     1      -0.428   3.891  -0.277  1.00  0.00    -0.015 A 
ATOM     17  C   UNL     1      -0.865   4.791   0.679  1.00  0.00     0.070 A 
ATOM     18  C   UNL     1      -0.112   4.579  -1.521  1.00  0.00    -0.035 A 
ATOM     19  S   UNL     1      -0.930   6.401   0.106  1.00  0.00    -0.152 S 
ATOM     20  C   UNL     1      -0.351   5.937  -1.427  1.00  0.00     0.068 A 
ATOM     21  C   UNL     1       0.420   3.927  -2.760  1.00  0.00     0.045 C 
ENDBRANCH  15  16
ENDBRANCH  13  15
ENDBRANCH   9  11
ENDBRANCH   5   7
ENDBRANCH   4   5
ENDBRANCH   3   4
ENDBRANCH   2   3
ENDBRANCH   1   2
BRANCH   1  22
ATOM     22  C   UNL     1       1.064  -0.230   5.066  1.00  0.00     0.202 C 
BRANCH  22  23
ATOM     23  C   UNL     1       2.565  -0.314   5.369  1.00  0.00     0.261 C 
BRANCH  23  24
ATOM     24  O   UNL     1       3.020  -1.649   5.637  1.00  0.00    -0.460 OA
BRANCH  24  25
ATOM     25  C   UNL     1       3.240  -1.905   6.948  1.00  0.00     0.338 C 
ATOM     26  O   UNL     1       3.161  -1.112   7.881  1.00  0.00    -0.246 OA
BRANCH  25  27
ATOM     27  C   UNL     1       3.453  -3.345   7.159  1.00  0.00     0.060 A 
ATOM     28  C   UNL     1       2.622  -3.991   8.082  1.00  0.00     0.016 A 
ATOM     29  C   UNL     1       4.491  -4.037   6.531  1.00  0.00     0.016 A 
ATOM     30  C   UNL     1       2.853  -5.322   8.413  1.00  0.00     0.010 A 
ATOM     31  C   UNL     1       4.724  -5.375   6.869  1.00  0.00     0.010 A 
ATOM     32  C   UNL     1       3.926  -6.014   7.835  1.00  0.00    -0.014 A 
BRANCH  32  33
ATOM     33  C   UNL     1       4.257  -7.373   8.329  1.00  0.00     0.031 A 
ATOM     34  C   UNL     1       5.404  -7.558   9.285  1.00  0.00     0.074 A 
ATOM     35  C   UNL     1       3.503  -8.426   7.965  1.00  0.00     0.049 A 
ATOM     36  N   UNL     1       5.828  -8.649   9.869  1.00  0.00    -0.248 NA
ATOM     37  C   UNL     1       6.178  -6.354   9.626  1.00  0.00     0.031 C 
ATOM     38  C   UNL     1       2.358  -8.365   7.055  1.00  0.00     0.029 A 
ATOM     39  N   UNL     1       3.584  -9.749   8.317  1.00  0.00    -0.354 N 
ATOM     40  C   UNL     1       6.917  -8.267  10.644  1.00  0.00     0.074 A 
ATOM     41  C   UNL     1       7.111  -6.849  10.427  1.00  0.00     0.031 C 
ATOM     42  C   UNL     1       1.843  -9.598   6.922  1.00  0.00     0.029 A 
ATOM     43  C   UNL     1       2.633 -10.537   7.715  1.00  0.00     0.049 A 
ATOM     44  H   UNL     1       4.258 -10.100   8.942  1.00  0.00     0.167 HD
ATOM     45  C   UNL     1       7.678  -9.027  11.469  1.00  0.00     0.037 A 
ATOM     46  C   UNL     1       2.430 -11.867   7.787  1.00  0.00     0.037 A 
ATOM     47  C   UNL     1       7.477 -10.440  11.678  1.00  0.00     0.049 A 
ATOM     48  C   UNL     1       3.307 -12.697   8.686  1.00  0.00     0.074 A 
ATOM     49  C   UNL     1       8.173 -11.293  12.517  1.00  0.00     0.029 A 
ATOM     50  N   UNL     1       6.518 -11.210  11.035  1.00  0.00    -0.354 N 
ATOM     51  N   UNL     1       4.307 -12.316   9.445  1.00  0.00    -0.248 NA
ATOM     52  C   UNL     1       3.018 -14.136   8.750  1.00  0.00     0.031 C 
ATOM     53  C   UNL     1       7.671 -12.588  12.339  1.00  0.00     0.029 A 
ATOM     54  C   UNL     1       6.622 -12.533  11.436  1.00  0.00     0.049 A 
ATOM     55  H   UNL     1       5.859 -10.866  10.389  1.00  0.00     0.167 HD
ATOM     56  C   UNL     1       4.753 -13.463  10.093  1.00  0.00     0.074 A 
ATOM     57  C   UNL     1       3.900 -14.547   9.650  1.00  0.00     0.031 C 
ATOM     58  C   UNL     1       5.774 -13.606  10.977  1.00  0.00     0.037 A 
BRANCH  45  59
ATOM     59  C   UNL     1       8.818  -8.352  12.185  1.00  0.00     0.058 A 
ATOM     60  C   UNL     1       8.604  -7.427  13.219  1.00  0.00     0.135 A 
ATOM     61  C   UNL     1      10.147  -8.656  11.847  1.00  0.00     0.135 A 
ATOM     62  F   UNL     1       7.354  -7.086  13.574  1.00  0.00    -0.206 F 
ATOM     63  C   UNL     1       9.664  -6.803  13.870  1.00  0.00     0.059 A 
ATOM     64  C   UNL     1      11.223  -8.067  12.504  1.00  0.00     0.059 A 
ATOM     65  F   UNL     1      10.412  -9.533  10.866  1.00  0.00    -0.206 F 
ATOM     66  C   UNL     1      10.971  -7.129  13.504  1.00  0.00     0.060 A 
BRANCH  66  67
ATOM     67  S   UNL     1      12.337  -6.309  14.354  1.00  0.00     0.124 S 
ATOM     68  O   UNL     1      12.259  -4.962  13.799  1.00  0.00    -0.237 OA
ATOM     69  O   UNL     1      11.956  -6.440  15.757  1.00  0.00    -0.237 OA
ATOM     70  O   UNL     1      13.505  -7.086  13.950  1.00  0.00    -0.744 OA
ENDBRANCH  66  67
ENDBRANCH  45  59
BRANCH  46  71
ATOM     71  C   UNL     1       1.343 -12.490   6.985  1.00  0.00     0.058 A 
ATOM     72  C   UNL     1       0.192 -13.009   7.594  1.00  0.00     0.135 A 
ATOM     73  C   UNL     1       1.428 -12.554   5.585  1.00  0.00     0.135 A 
ATOM     74  F   UNL     1       0.068 -12.981   8.929  1.00  0.00    -0.206 F 
ATOM     75  C   UNL     1      -0.834 -13.577   6.845  1.00  0.00     0.059 A 
ATOM     76  C   UNL     1       0.404 -13.092   4.813  1.00  0.00     0.059 A 
ATOM     77  F   UNL     1       2.505 -12.060   4.953  1.00  0.00    -0.206 F 
ATOM     78  C   UNL     1      -0.722 -13.608   5.454  1.00  0.00     0.060 A 
BRANCH  78  79
ATOM     79  S   UNL     1      -2.089 -14.284   4.487  1.00  0.00     0.124 S 
ATOM     80  O   UNL     1      -1.959 -15.712   4.753  1.00  0.00    -0.237 OA
ATOM     81  O   UNL     1      -3.244 -13.625   5.088  1.00  0.00    -0.237 OA
ATOM     82  O   UNL     1      -1.776 -13.864   3.124  1.00  0.00    -0.744 OA
ENDBRANCH  78  79
ENDBRANCH  46  71
BRANCH  58  83
ATOM     83  C   UNL     1       6.004 -14.983  11.543  1.00  0.00     0.058 A 
ATOM     84  C   UNL     1       6.512 -16.031  10.759  1.00  0.00     0.135 A 
ATOM     85  C   UNL     1       5.725 -15.253  12.893  1.00  0.00     0.135 A 
ATOM     86  F   UNL     1       6.795 -15.830   9.462  1.00  0.00    -0.206 F 
ATOM     87  C   UNL     1       6.691 -17.309  11.281  1.00  0.00     0.059 A 
ATOM     88  C   UNL     1       5.927 -16.515  13.444  1.00  0.00     0.059 A 
ATOM     89  F   UNL     1       5.253 -14.284  13.694  1.00  0.00    -0.206 F 
ATOM     90  C   UNL     1       6.390 -17.543  12.624  1.00  0.00     0.060 A 
BRANCH  90  91
ATOM     91  S   UNL     1       6.617 -19.206  13.287  1.00  0.00     0.124 S 
ATOM     92  O   UNL     1       5.480 -19.912  12.704  1.00  0.00    -0.237 OA
ATOM     93  O   UNL     1       7.928 -19.576  12.764  1.00  0.00    -0.237 OA
ATOM     94  O   UNL     1       6.558 -19.007  14.732  1.00  0.00    -0.744 OA
ENDBRANCH  90  91
ENDBRANCH  58  83
ENDBRANCH  32  33
ENDBRANCH  25  27
ENDBRANCH  24  25
ENDBRANCH  23  24
ENDBRANCH  22  23
ENDBRANCH   1  22
TORSDOF 20
