REMARK SMILES CCS(=O)(=O)Nc1ccc(N2CC[NH+](C)CC2)cc1C(=O)OCCOCCOC(=O)c1ccc(-c2c3nc(c(-c4c(F)cc(S(=O)(=O)[O-])cc4F)c4ccc([nH]4)c(-c4c(F)cc(S(=O)(=O)[O-])cc4F)c4nc(c(-c5c(F)cc(S(=O)(=O)[O-])cc5F)c5ccc2[nH]5)C=C4)C=C3)cc1
REMARK SMILES IDX 25 1 24 2 23 3 22 4 20 5 21 6 19 7 7 8 8 9 9 10 18 11 10 12
REMARK SMILES IDX 6 13 3 15 4 16 5 17 2 18 1 19 11 20 12 21 17 22 13 23 16 24
REMARK SMILES IDX 14 25 15 26 26 28 27 29 28 30 29 31 30 32 31 33 32 34 96 35
REMARK SMILES IDX 33 36 95 37 34 38 35 39 36 40 89 41 37 42 94 43 88 44 90 45
REMARK SMILES IDX 38 46 93 47 87 48 86 49 39 51 73 52 52 53 72 54 53 55 56 56
REMARK SMILES IDX 71 57 91 58 54 59 55 60 70 62 92 63 57 64 40 65 41 66 50 67
REMARK SMILES IDX 42 68 43 69 49 70 51 71 44 72 45 73 46 74 47 75 48 76 74 77
REMARK SMILES IDX 75 78 84 79 76 80 77 81 83 82 85 83 78 84 79 85 80 86 81 87
REMARK SMILES IDX 82 88 58 89 59 90 68 91 60 92 61 93 67 94 69 95 62 96 63 97
REMARK SMILES IDX 64 98 65 99 66 100
REMARK H PARENT 6 14 14 27 90 50 56 61
REMARK Flexibility Score: inf
ROOT
ATOM      1  O   UNL     1       1.536   2.662  -2.735  1.00  0.00    -0.374 OA
ENDROOT
BRANCH   1   2
ATOM      2  C   UNL     1       0.510   2.842  -1.768  1.00  0.00     0.202 C 
BRANCH   2   3
ATOM      3  C   UNL     1       0.295   1.776  -0.690  1.00  0.00     0.261 C 
BRANCH   3   4
ATOM      4  O   UNL     1       1.491   1.273  -0.080  1.00  0.00    -0.460 OA
BRANCH   4   5
ATOM      5  C   UNL     1       1.905   0.079  -0.572  1.00  0.00     0.340 C 
ATOM      6  O   UNL     1       1.461  -0.497  -1.554  1.00  0.00    -0.246 OA
BRANCH   5   7
ATOM      7  C   UNL     1       3.003  -0.492   0.238  1.00  0.00     0.086 A 
ATOM      8  C   UNL     1       3.070  -0.379   1.634  1.00  0.00     0.063 A 
ATOM      9  C   UNL     1       4.021  -1.125   2.325  1.00  0.00     0.030 A 
ATOM     10  C   UNL     1       4.925  -1.938   1.615  1.00  0.00     0.028 A 
ATOM     11  C   UNL     1       3.924  -1.292  -0.454  1.00  0.00     0.043 A 
ATOM     12  C   UNL     1       4.911  -2.016   0.213  1.00  0.00     0.038 A 
BRANCH   8  13
ATOM     13  N   UNL     1       2.218   0.523   2.330  1.00  0.00    -0.283 N 
ATOM     14  H   UNL     1       2.409   1.486   2.244  1.00  0.00     0.180 HD
BRANCH  13  15
ATOM     15  S   UNL     1       0.927   0.080   3.275  1.00  0.00     0.232 S 
ATOM     16  O   UNL     1      -0.087   1.061   2.959  1.00  0.00    -0.207 OA
ATOM     17  O   UNL     1       1.425  -0.061   4.630  1.00  0.00    -0.207 OA
BRANCH  15  18
ATOM     18  C   UNL     1       0.307  -1.525   2.774  1.00  0.00     0.156 C 
ATOM     19  C   UNL     1      -0.022  -1.708   1.312  1.00  0.00     0.023 C 
ENDBRANCH  15  18
ENDBRANCH  13  15
ENDBRANCH   8  13
BRANCH  12  20
ATOM     20  N   UNL     1       5.819  -2.780  -0.482  1.00  0.00    -0.360 N 
ATOM     21  C   UNL     1       6.451  -2.323  -1.730  1.00  0.00     0.178 C 
ATOM     22  C   UNL     1       6.042  -4.191  -0.148  1.00  0.00     0.178 C 
ATOM     23  C   UNL     1       6.125  -3.274  -2.905  1.00  0.00     0.283 C 
ATOM     24  C   UNL     1       5.708  -5.088  -1.370  1.00  0.00     0.283 C 
ATOM     25  N   UNL     1       6.439  -4.689  -2.596  1.00  0.00    -0.334 N 
ATOM     26  C   UNL     1       6.082  -5.551  -3.720  1.00  0.00     0.332 C 
ATOM     27  H   UNL     1       7.442  -4.789  -2.437  1.00  0.00     0.347 HD
ENDBRANCH  12  20
ENDBRANCH   5   7
ENDBRANCH   4   5
ENDBRANCH   3   4
ENDBRANCH   2   3
ENDBRANCH   1   2
BRANCH   1  28
ATOM     28  C   UNL     1       2.895   2.638  -2.316  1.00  0.00     0.202 C 
BRANCH  28  29
ATOM     29  C   UNL     1       3.490   3.826  -1.548  1.00  0.00     0.261 C 
BRANCH  29  30
ATOM     30  O   UNL     1       2.749   4.230  -0.386  1.00  0.00    -0.460 OA
BRANCH  30  31
ATOM     31  C   UNL     1       2.219   5.477  -0.483  1.00  0.00     0.338 C 
ATOM     32  O   UNL     1       2.308   6.238  -1.435  1.00  0.00    -0.246 OA
BRANCH  31  33
ATOM     33  C   UNL     1       1.363   5.787   0.673  1.00  0.00     0.060 A 
ATOM     34  C   UNL     1       0.019   6.085   0.417  1.00  0.00     0.016 A 
ATOM     35  C   UNL     1       1.901   5.959   1.950  1.00  0.00     0.016 A 
ATOM     36  C   UNL     1      -0.778   6.617   1.427  1.00  0.00     0.010 A 
ATOM     37  C   UNL     1       1.098   6.502   2.961  1.00  0.00     0.010 A 
ATOM     38  C   UNL     1      -0.230   6.875   2.690  1.00  0.00    -0.014 A 
BRANCH  38  39
ATOM     39  C   UNL     1      -1.026   7.672   3.656  1.00  0.00     0.031 A 
ATOM     40  C   UNL     1      -0.796   9.157   3.753  1.00  0.00     0.074 A 
ATOM     41  C   UNL     1      -1.996   7.088   4.381  1.00  0.00     0.049 A 
ATOM     42  N   UNL     1      -1.447  10.052   4.451  1.00  0.00    -0.248 NA
ATOM     43  C   UNL     1       0.311   9.708   2.955  1.00  0.00     0.031 C 
ATOM     44  C   UNL     1      -2.315   5.661   4.369  1.00  0.00     0.029 A 
ATOM     45  N   UNL     1      -2.897   7.628   5.263  1.00  0.00    -0.354 N 
ATOM     46  C   UNL     1      -0.832  11.269   4.178  1.00  0.00     0.074 A 
ATOM     47  C   UNL     1       0.262  10.995   3.272  1.00  0.00     0.031 C 
ATOM     48  C   UNL     1      -3.342   5.438   5.207  1.00  0.00     0.029 A 
ATOM     49  C   UNL     1      -3.745   6.702   5.819  1.00  0.00     0.049 A 
ATOM     50  H   UNL     1      -2.932   8.588   5.478  1.00  0.00     0.167 HD
ATOM     51  C   UNL     1      -1.158  12.503   4.631  1.00  0.00     0.037 A 
ATOM     52  C   UNL     1      -4.735   6.858   6.721  1.00  0.00     0.037 A 
ATOM     53  C   UNL     1      -2.253  12.775   5.526  1.00  0.00     0.049 A 
ATOM     54  C   UNL     1      -5.069   8.239   7.220  1.00  0.00     0.074 A 
ATOM     55  C   UNL     1      -2.690  13.997   6.008  1.00  0.00     0.029 A 
ATOM     56  N   UNL     1      -3.078  11.809   6.083  1.00  0.00    -0.354 N 
ATOM     57  N   UNL     1      -4.516   9.386   6.906  1.00  0.00    -0.248 NA
ATOM     58  C   UNL     1      -6.172   8.346   8.185  1.00  0.00     0.031 C 
ATOM     59  C   UNL     1      -3.755  13.766   6.887  1.00  0.00     0.029 A 
ATOM     60  C   UNL     1      -4.005  12.404   6.923  1.00  0.00     0.049 A 
ATOM     61  H   UNL     1      -3.014  10.842   5.907  1.00  0.00     0.167 HD
ATOM     62  C   UNL     1      -5.210  10.353   7.626  1.00  0.00     0.074 A 
ATOM     63  C   UNL     1      -6.239   9.657   8.373  1.00  0.00     0.031 C 
ATOM     64  C   UNL     1      -5.015  11.695   7.668  1.00  0.00     0.037 A 
BRANCH  51  65
ATOM     65  C   UNL     1      -0.310  13.658   4.176  1.00  0.00     0.058 A 
ATOM     66  C   UNL     1      -0.404  14.174   2.874  1.00  0.00     0.135 A 
ATOM     67  C   UNL     1       0.578  14.283   5.066  1.00  0.00     0.135 A 
ATOM     68  F   UNL     1      -1.226  13.604   1.978  1.00  0.00    -0.206 F 
ATOM     69  C   UNL     1       0.367  15.258   2.465  1.00  0.00     0.059 A 
ATOM     70  C   UNL     1       1.343  15.380   4.685  1.00  0.00     0.059 A 
ATOM     71  F   UNL     1       0.707  13.826   6.322  1.00  0.00    -0.206 F 
ATOM     72  C   UNL     1       1.239  15.854   3.377  1.00  0.00     0.060 A 
BRANCH  72  73
ATOM     73  S   UNL     1       2.225  17.268   2.838  1.00  0.00     0.124 S 
ATOM     74  O   UNL     1       3.239  16.618   2.014  1.00  0.00    -0.237 OA
ATOM     75  O   UNL     1       1.247  18.076   2.117  1.00  0.00    -0.237 OA
ATOM     76  O   UNL     1       2.708  17.843   4.090  1.00  0.00    -0.744 OA
ENDBRANCH  72  73
ENDBRANCH  51  65
BRANCH  52  77
ATOM     77  C   UNL     1      -5.483   5.671   7.209  1.00  0.00     0.058 A 
ATOM     78  C   UNL     1      -6.814   5.443   6.834  1.00  0.00     0.135 A 
ATOM     79  C   UNL     1      -4.874   4.739   8.064  1.00  0.00     0.135 A 
ATOM     80  F   UNL     1      -7.442   6.311   6.027  1.00  0.00    -0.206 F 
ATOM     81  C   UNL     1      -7.522   4.339   7.300  1.00  0.00     0.059 A 
ATOM     82  C   UNL     1      -5.553   3.616   8.524  1.00  0.00     0.059 A 
ATOM     83  F   UNL     1      -3.598   4.909   8.444  1.00  0.00    -0.206 F 
ATOM     84  C   UNL     1      -6.882   3.430   8.144  1.00  0.00     0.060 A 
BRANCH  84  85
ATOM     85  S   UNL     1      -7.791   1.974   8.706  1.00  0.00     0.124 S 
ATOM     86  O   UNL     1      -8.641   2.542   9.746  1.00  0.00    -0.237 OA
ATOM     87  O   UNL     1      -8.473   1.545   7.489  1.00  0.00    -0.237 OA
ATOM     88  O   UNL     1      -6.735   1.079   9.171  1.00  0.00    -0.744 OA
ENDBRANCH  84  85
ENDBRANCH  52  77
BRANCH  64  89
ATOM     89  C   UNL     1      -5.939  12.494   8.545  1.00  0.00     0.058 A 
ATOM     90  C   UNL     1      -5.829  12.464   9.944  1.00  0.00     0.135 A 
ATOM     91  C   UNL     1      -6.933  13.309   7.981  1.00  0.00     0.135 A 
ATOM     92  F   UNL     1      -4.897  11.698  10.532  1.00  0.00    -0.206 F 
ATOM     93  C   UNL     1      -6.697  13.187  10.756  1.00  0.00     0.059 A 
ATOM     94  C   UNL     1      -7.796  14.060   8.774  1.00  0.00     0.059 A 
ATOM     95  F   UNL     1      -7.072  13.385   6.648  1.00  0.00    -0.206 F 
ATOM     96  C   UNL     1      -7.683  13.977  10.162  1.00  0.00     0.060 A 
BRANCH  96  97
ATOM     97  S   UNL     1      -8.806  14.911  11.222  1.00  0.00     0.124 S 
ATOM     98  O   UNL     1      -9.742  13.873  11.643  1.00  0.00    -0.237 OA
ATOM     99  O   UNL     1      -7.915  15.420  12.259  1.00  0.00    -0.237 OA
ATOM    100  O   UNL     1      -9.354  15.924  10.324  1.00  0.00    -0.744 OA
ENDBRANCH  96  97
ENDBRANCH  64  89
ENDBRANCH  38  39
ENDBRANCH  31  33
ENDBRANCH  30  31
ENDBRANCH  29  30
ENDBRANCH  28  29
ENDBRANCH   1  28
TORSDOF 21
