REMARK SMILES O=C(OCCOCCOC(=O)C1(Cc2cccc(Cl)c2)CCCC1)c1ccc(-c2c3nc(c(-c4c(F)cc(S(=O)(=O)[O-])cc4F)c4ccc([nH]4)c(-c4c(F)cc(S(=O)(=O)[O-])cc4F)c4nc(c(-c5c(F)cc(S(=O)(=O)[O-])cc5F)c5ccc2[nH]5)C=C4)C=C3)cc1
REMARK SMILES IDX 5 1 4 2 3 3 2 4 1 5 25 6 26 7 90 8 27 9 89 10 28 11 29 12
REMARK SMILES IDX 30 13 83 14 31 15 88 16 82 17 84 18 32 19 87 20 81 21 80 22
REMARK SMILES IDX 33 24 67 25 46 26 66 27 47 28 50 29 65 30 85 31 48 32 49 33
REMARK SMILES IDX 64 35 86 36 51 37 34 38 35 39 44 40 36 41 37 42 43 43 45 44
REMARK SMILES IDX 38 45 39 46 40 47 41 48 42 49 68 50 69 51 78 52 70 53 71 54
REMARK SMILES IDX 77 55 79 56 72 57 73 58 74 59 75 60 76 61 52 62 53 63 62 64
REMARK SMILES IDX 54 65 55 66 61 67 63 68 56 69 57 70 58 71 59 72 60 73 6 74
REMARK SMILES IDX 7 75 8 76 9 77 10 78 11 79 12 80 21 81 24 82 22 83 23 84
REMARK SMILES IDX 13 85 14 86 15 87 20 88 16 89 18 90 17 91 19 92
REMARK H PARENT 84 23 50 34
REMARK Flexibility Score: inf
ROOT
ATOM      1  C   UNL     1       4.104   1.288  -0.762  1.00  0.00     0.202 C 
ENDROOT
BRANCH   1   2
ATOM      2  C   UNL     1       3.816  -0.042  -1.467  1.00  0.00     0.261 C 
BRANCH   2   3
ATOM      3  O   UNL     1       2.463  -0.461  -1.234  1.00  0.00    -0.460 OA
BRANCH   3   4
ATOM      4  C   UNL     1       2.021  -1.333  -0.297  1.00  0.00     0.338 C 
ATOM      5  O   UNL     1       0.814  -1.561  -0.230  1.00  0.00    -0.246 OA
BRANCH   4   6
ATOM      6  C   UNL     1       2.929  -2.049   0.650  1.00  0.00     0.060 A 
ATOM      7  C   UNL     1       4.161  -1.565   1.084  1.00  0.00     0.016 A 
ATOM      8  C   UNL     1       2.473  -3.262   1.193  1.00  0.00     0.016 A 
ATOM      9  C   UNL     1       4.955  -2.270   1.963  1.00  0.00     0.010 A 
ATOM     10  C   UNL     1       3.246  -3.964   2.126  1.00  0.00     0.010 A 
ATOM     11  C   UNL     1       4.496  -3.465   2.500  1.00  0.00    -0.014 A 
BRANCH  11  12
ATOM     12  C   UNL     1       5.438  -4.173   3.377  1.00  0.00     0.031 A 
ATOM     13  C   UNL     1       6.202  -5.324   2.808  1.00  0.00     0.074 A 
ATOM     14  C   UNL     1       5.750  -3.615   4.562  1.00  0.00     0.049 A 
ATOM     15  N   UNL     1       7.115  -6.062   3.371  1.00  0.00    -0.248 NA
ATOM     16  C   UNL     1       5.919  -5.676   1.404  1.00  0.00     0.031 C 
ATOM     17  C   UNL     1       5.142  -2.391   5.101  1.00  0.00     0.029 A 
ATOM     18  N   UNL     1       6.688  -3.956   5.495  1.00  0.00    -0.354 N 
ATOM     19  C   UNL     1       7.506  -6.976   2.401  1.00  0.00     0.074 A 
ATOM     20  C   UNL     1       6.729  -6.706   1.213  1.00  0.00     0.031 C 
ATOM     21  C   UNL     1       5.749  -2.069   6.254  1.00  0.00     0.029 A 
ATOM     22  C   UNL     1       6.728  -3.100   6.571  1.00  0.00     0.049 A 
ATOM     23  H   UNL     1       7.278  -4.738   5.405  1.00  0.00     0.167 HD
ATOM     24  C   UNL     1       8.431  -7.955   2.512  1.00  0.00     0.037 A 
ATOM     25  C   UNL     1       7.452  -3.176   7.702  1.00  0.00     0.037 A 
ATOM     26  C   UNL     1       9.173  -8.191   3.720  1.00  0.00     0.049 A 
ATOM     27  C   UNL     1       8.398  -4.338   7.838  1.00  0.00     0.074 A 
ATOM     28  C   UNL     1      10.048  -9.218   4.015  1.00  0.00     0.029 A 
ATOM     29  N   UNL     1       9.124  -7.367   4.839  1.00  0.00    -0.354 N 
ATOM     30  N   UNL     1       8.675  -5.277   6.961  1.00  0.00    -0.248 NA
ATOM     31  C   UNL     1       9.112  -4.469   9.111  1.00  0.00     0.031 C 
ATOM     32  C   UNL     1      10.505  -9.032   5.325  1.00  0.00     0.029 A 
ATOM     33  C   UNL     1       9.949  -7.865   5.830  1.00  0.00     0.049 A 
ATOM     34  H   UNL     1       8.582  -6.550   4.914  1.00  0.00     0.167 HD
ATOM     35  C   UNL     1       9.595  -6.114   7.578  1.00  0.00     0.074 A 
ATOM     36  C   UNL     1       9.854  -5.545   8.888  1.00  0.00     0.031 C 
ATOM     37  C   UNL     1      10.167  -7.256   7.119  1.00  0.00     0.037 A 
BRANCH  24  38
ATOM     38  C   UNL     1       8.616  -8.859   1.329  1.00  0.00     0.058 A 
ATOM     39  C   UNL     1       9.283  -8.438   0.168  1.00  0.00     0.135 A 
ATOM     40  C   UNL     1       8.086 -10.159   1.345  1.00  0.00     0.135 A 
ATOM     41  F   UNL     1       9.774  -7.191   0.086  1.00  0.00    -0.206 F 
ATOM     42  C   UNL     1       9.403  -9.268  -0.943  1.00  0.00     0.059 A 
ATOM     43  C   UNL     1       8.210 -11.013   0.253  1.00  0.00     0.059 A 
ATOM     44  F   UNL     1       7.419 -10.604   2.421  1.00  0.00    -0.206 F 
ATOM     45  C   UNL     1       8.860 -10.553  -0.892  1.00  0.00     0.060 A 
BRANCH  45  46
ATOM     46  S   UNL     1       9.012 -11.615  -2.344  1.00  0.00     0.124 S 
ATOM     47  O   UNL     1       8.066 -10.989  -3.263  1.00  0.00    -0.237 OA
ATOM     48  O   UNL     1      10.422 -11.469  -2.691  1.00  0.00    -0.237 OA
ATOM     49  O   UNL     1       8.625 -12.931  -1.846  1.00  0.00    -0.744 OA
ENDBRANCH  45  46
ENDBRANCH  24  38
BRANCH  25  50
ATOM     50  C   UNL     1       7.243  -2.197   8.805  1.00  0.00     0.058 A 
ATOM     51  C   UNL     1       8.263  -1.338   9.238  1.00  0.00     0.135 A 
ATOM     52  C   UNL     1       6.005  -2.119   9.467  1.00  0.00     0.135 A 
ATOM     53  F   UNL     1       9.466  -1.371   8.645  1.00  0.00    -0.206 F 
ATOM     54  C   UNL     1       8.075  -0.460  10.304  1.00  0.00     0.059 A 
ATOM     55  C   UNL     1       5.783  -1.228  10.511  1.00  0.00     0.059 A 
ATOM     56  F   UNL     1       4.987  -2.908   9.089  1.00  0.00    -0.206 F 
ATOM     57  C   UNL     1       6.831  -0.417  10.938  1.00  0.00     0.060 A 
BRANCH  57  58
ATOM     58  S   UNL     1       6.587   0.722  12.318  1.00  0.00     0.124 S 
ATOM     59  O   UNL     1       7.295   0.034  13.392  1.00  0.00    -0.237 OA
ATOM     60  O   UNL     1       7.209   1.946  11.824  1.00  0.00    -0.237 OA
ATOM     61  O   UNL     1       5.134   0.777  12.454  1.00  0.00    -0.744 OA
ENDBRANCH  57  58
ENDBRANCH  25  50
BRANCH  37  62
ATOM     62  C   UNL     1      11.129  -7.937   8.045  1.00  0.00     0.058 A 
ATOM     63  C   UNL     1      10.682  -8.647   9.169  1.00  0.00     0.135 A 
ATOM     64  C   UNL     1      12.507  -7.903   7.784  1.00  0.00     0.135 A 
ATOM     65  F   UNL     1       9.372  -8.700   9.460  1.00  0.00    -0.206 F 
ATOM     66  C   UNL     1      11.575  -9.277  10.026  1.00  0.00     0.059 A 
ATOM     67  C   UNL     1      13.416  -8.550   8.612  1.00  0.00     0.059 A 
ATOM     68  F   UNL     1      12.977  -7.246   6.713  1.00  0.00    -0.206 F 
ATOM     69  C   UNL     1      12.941  -9.220   9.739  1.00  0.00     0.060 A 
BRANCH  69  70
ATOM     70  S   UNL     1      14.092 -10.057  10.847  1.00  0.00     0.124 S 
ATOM     71  O   UNL     1      14.142  -9.128  11.971  1.00  0.00    -0.237 OA
ATOM     72  O   UNL     1      13.416 -11.326  11.102  1.00  0.00    -0.237 OA
ATOM     73  O   UNL     1      15.314 -10.153  10.054  1.00  0.00    -0.744 OA
ENDBRANCH  69  70
ENDBRANCH  37  62
ENDBRANCH  11  12
ENDBRANCH   4   6
ENDBRANCH   3   4
ENDBRANCH   2   3
ENDBRANCH   1   2
BRANCH   1  74
ATOM     74  O   UNL     1       3.827   1.333   0.640  1.00  0.00    -0.374 OA
BRANCH  74  75
ATOM     75  C   UNL     1       2.469   1.640   0.985  1.00  0.00     0.202 C 
BRANCH  75  76
ATOM     76  C   UNL     1       2.422   2.989   1.694  1.00  0.00     0.261 C 
BRANCH  76  77
ATOM     77  O   UNL     1       2.982   3.939   0.775  1.00  0.00    -0.463 OA
BRANCH  77  78
ATOM     78  C   UNL     1       4.213   4.418   1.083  1.00  0.00     0.312 C 
ATOM     79  O   UNL     1       4.662   4.453   2.226  1.00  0.00    -0.252 OA
BRANCH  78  80
ATOM     80  C   UNL     1       4.940   4.962  -0.152  1.00  0.00     0.072 C 
ATOM     81  C   UNL     1       4.102   4.831  -1.453  1.00  0.00     0.019 C 
ATOM     82  C   UNL     1       5.037   6.488   0.004  1.00  0.00     0.019 C 
ATOM     83  C   UNL     1       4.516   5.987  -2.341  1.00  0.00     0.001 C 
ATOM     84  C   UNL     1       4.932   7.097  -1.393  1.00  0.00     0.001 C 
BRANCH  80  85
ATOM     85  C   UNL     1       6.321   4.280  -0.389  1.00  0.00     0.054 C 
BRANCH  85  86
ATOM     86  C   UNL     1       7.302   4.135   0.751  1.00  0.00    -0.045 A 
ATOM     87  C   UNL     1       7.203   3.066   1.658  1.00  0.00     0.004 A 
ATOM     88  C   UNL     1       8.367   5.034   0.894  1.00  0.00     0.024 A 
ATOM     89  C   UNL     1       8.120   2.923   2.703  1.00  0.00     0.002 A 
ATOM     90  C   UNL     1       9.290   4.878   1.931  1.00  0.00     0.041 A 
ATOM     91  C   UNL     1       9.166   3.832   2.841  1.00  0.00     0.020 A 
ATOM     92  Cl  UNL     1      10.598   5.989   2.076  1.00  0.00    -0.084 Cl
ENDBRANCH  85  86
ENDBRANCH  80  85
ENDBRANCH  78  80
ENDBRANCH  77  78
ENDBRANCH  76  77
ENDBRANCH  75  76
ENDBRANCH  74  75
ENDBRANCH   1  74
TORSDOF 19
