REMARK SMILES O=C(OCCOCCOC(=O)[C@@H]1[C@@H](C(=O)N2CCN(c3cccc(Cl)c3)CC2)[C@H]2CC[C@@H]1O2)c1ccc(-c2c3nc(c(-c4c(F)cc(S(=O)(=O)[O-])cc4F)c4ccc([nH]4)c(-c4c(F)cc(S(=O)(=O)[O-])cc4F)c4nc(c(-c5c(F)cc(S(=O)(=O)[O-])cc5F)c5ccc2[nH]5)C=C4)C=C3)cc1
REMARK SMILES IDX 5 1 4 2 3 3 2 4 1 5 34 6 35 7 99 8 36 9 98 10 37 11 38 12
REMARK SMILES IDX 39 13 92 14 40 15 97 16 91 17 93 18 41 19 96 20 90 21 89 22
REMARK SMILES IDX 42 24 76 25 55 26 75 27 56 28 59 29 74 30 94 31 57 32 58 33
REMARK SMILES IDX 73 35 95 36 60 37 43 38 44 39 53 40 45 41 46 42 52 43 54 44
REMARK SMILES IDX 47 45 48 46 49 47 50 48 51 49 77 50 78 51 87 52 79 53 80 54
REMARK SMILES IDX 86 55 88 56 81 57 82 58 83 59 84 60 85 61 61 62 62 63 71 64
REMARK SMILES IDX 63 65 64 66 70 67 72 68 65 69 66 70 67 71 68 72 69 73 6 74
REMARK SMILES IDX 7 75 8 76 9 77 10 78 11 79 12 80 13 81 32 82 29 83 31 84
REMARK SMILES IDX 33 85 30 86 14 87 15 88 16 89 17 90 28 91 18 92 27 93 19 94
REMARK SMILES IDX 20 95 21 96 26 97 22 98 24 99 23 100 25 101
REMARK H PARENT 93 23 59 34
REMARK Flexibility Score: inf
ROOT
ATOM      1  C   UNL     1       4.283  -1.479  -0.650  1.00  0.00     0.202 C 
ENDROOT
BRANCH   1   2
ATOM      2  C   UNL     1       4.089  -1.209   0.846  1.00  0.00     0.261 C 
BRANCH   2   3
ATOM      3  O   UNL     1       2.717  -0.892   1.125  1.00  0.00    -0.460 OA
BRANCH   3   4
ATOM      4  C   UNL     1       2.154   0.328   1.287  1.00  0.00     0.338 C 
ATOM      5  O   UNL     1       0.939   0.392   1.467  1.00  0.00    -0.246 OA
BRANCH   4   6
ATOM      6  C   UNL     1       2.931   1.603   1.264  1.00  0.00     0.060 A 
ATOM      7  C   UNL     1       4.117   1.806   0.554  1.00  0.00     0.016 A 
ATOM      8  C   UNL     1       2.373   2.699   1.941  1.00  0.00     0.016 A 
ATOM      9  C   UNL     1       4.780   3.019   0.577  1.00  0.00     0.010 A 
ATOM     10  C   UNL     1       3.009   3.942   1.935  1.00  0.00     0.010 A 
ATOM     11  C   UNL     1       4.230   4.090   1.270  1.00  0.00    -0.014 A 
BRANCH  11  12
ATOM     12  C   UNL     1       5.040   5.311   1.370  1.00  0.00     0.031 A 
ATOM     13  C   UNL     1       5.780   5.557   2.646  1.00  0.00     0.074 A 
ATOM     14  C   UNL     1       5.216   6.072   0.276  1.00  0.00     0.049 A 
ATOM     15  N   UNL     1       6.548   6.556   2.976  1.00  0.00    -0.248 NA
ATOM     16  C   UNL     1       5.653   4.521   3.687  1.00  0.00     0.031 C 
ATOM     17  C   UNL     1       4.634   5.799  -1.042  1.00  0.00     0.029 A 
ATOM     18  N   UNL     1       5.962   7.200   0.084  1.00  0.00    -0.354 N 
ATOM     19  C   UNL     1       6.971   6.289   4.271  1.00  0.00     0.074 A 
ATOM     20  C   UNL     1       6.376   5.034   4.670  1.00  0.00     0.031 C 
ATOM     21  C   UNL     1       5.066   6.725  -1.912  1.00  0.00     0.029 A 
ATOM     22  C   UNL     1       5.893   7.690  -1.198  1.00  0.00     0.049 A 
ATOM     23  H   UNL     1       6.497   7.622   0.795  1.00  0.00     0.167 HD
ATOM     24  C   UNL     1       7.776   7.043   5.053  1.00  0.00     0.037 A 
ATOM     25  C   UNL     1       6.417   8.817  -1.715  1.00  0.00     0.037 A 
ATOM     26  C   UNL     1       8.335   8.293   4.615  1.00  0.00     0.049 A 
ATOM     27  C   UNL     1       7.222   9.693  -0.795  1.00  0.00     0.074 A 
ATOM     28  C   UNL     1       9.102   9.196   5.323  1.00  0.00     0.029 A 
ATOM     29  N   UNL     1       8.172   8.815   3.335  1.00  0.00    -0.354 N 
ATOM     30  N   UNL     1       7.551   9.482   0.460  1.00  0.00    -0.248 NA
ATOM     31  C   UNL     1       7.708  10.963  -1.343  1.00  0.00     0.031 C 
ATOM     32  C   UNL     1       9.364  10.287   4.484  1.00  0.00     0.029 A 
ATOM     33  C   UNL     1       8.807  10.038   3.237  1.00  0.00     0.049 A 
ATOM     34  H   UNL     1       7.676   8.377   2.606  1.00  0.00     0.167 HD
ATOM     35  C   UNL     1       8.297  10.586   0.850  1.00  0.00     0.074 A 
ATOM     36  C   UNL     1       8.380  11.455  -0.310  1.00  0.00     0.031 C 
ATOM     37  C   UNL     1       8.861  10.864   2.053  1.00  0.00     0.037 A 
BRANCH  24  38
ATOM     38  C   UNL     1       7.997   6.566   6.461  1.00  0.00     0.058 A 
ATOM     39  C   UNL     1       8.771   5.431   6.755  1.00  0.00     0.135 A 
ATOM     40  C   UNL     1       7.357   7.213   7.529  1.00  0.00     0.135 A 
ATOM     41  F   UNL     1       9.377   4.751   5.768  1.00  0.00    -0.206 F 
ATOM     42  C   UNL     1       8.864   4.929   8.050  1.00  0.00     0.059 A 
ATOM     43  C   UNL     1       7.457   6.745   8.836  1.00  0.00     0.059 A 
ATOM     44  F   UNL     1       6.593   8.294   7.305  1.00  0.00    -0.206 F 
ATOM     45  C   UNL     1       8.192   5.587   9.082  1.00  0.00     0.060 A 
BRANCH  45  46
ATOM     46  S   UNL     1       8.269   4.892  10.747  1.00  0.00     0.124 S 
ATOM     47  O   UNL     1       7.394   3.731  10.617  1.00  0.00    -0.237 OA
ATOM     48  O   UNL     1       9.691   4.600  10.899  1.00  0.00    -0.237 OA
ATOM     49  O   UNL     1       7.760   5.970  11.590  1.00  0.00    -0.744 OA
ENDBRANCH  45  46
ENDBRANCH  24  38
BRANCH  25  50
ATOM     50  C   UNL     1       6.152   9.184  -3.132  1.00  0.00     0.058 A 
ATOM     51  C   UNL     1       7.177   9.209  -4.088  1.00  0.00     0.135 A 
ATOM     52  C   UNL     1       4.851   9.487  -3.570  1.00  0.00     0.135 A 
ATOM     53  F   UNL     1       8.440   8.939  -3.722  1.00  0.00    -0.206 F 
ATOM     54  C   UNL     1       6.926   9.522  -5.422  1.00  0.00     0.059 A 
ATOM     55  C   UNL     1       4.570   9.778  -4.901  1.00  0.00     0.059 A 
ATOM     56  F   UNL     1       3.827   9.471  -2.701  1.00  0.00    -0.206 F 
ATOM     57  C   UNL     1       5.617   9.800  -5.820  1.00  0.00     0.060 A 
BRANCH  57  58
ATOM     58  S   UNL     1       5.290  10.159  -7.561  1.00  0.00     0.124 S 
ATOM     59  O   UNL     1       5.873  11.489  -7.702  1.00  0.00    -0.237 OA
ATOM     60  O   UNL     1       5.996   9.076  -8.237  1.00  0.00    -0.237 OA
ATOM     61  O   UNL     1       3.834  10.098  -7.649  1.00  0.00    -0.744 OA
ENDBRANCH  57  58
ENDBRANCH  25  50
BRANCH  37  62
ATOM     62  C   UNL     1       9.638  12.143   2.155  1.00  0.00     0.058 A 
ATOM     63  C   UNL     1       8.998  13.388   2.229  1.00  0.00     0.135 A 
ATOM     64  C   UNL     1      11.038  12.110   2.248  1.00  0.00     0.135 A 
ATOM     65  F   UNL     1       7.661  13.468   2.137  1.00  0.00    -0.206 F 
ATOM     66  C   UNL     1       9.723  14.564   2.377  1.00  0.00     0.059 A 
ATOM     67  C   UNL     1      11.781  13.270   2.424  1.00  0.00     0.059 A 
ATOM     68  F   UNL     1      11.693  10.939   2.193  1.00  0.00    -0.206 F 
ATOM     69  C   UNL     1      11.114  14.494   2.478  1.00  0.00     0.060 A 
BRANCH  69  70
ATOM     70  S   UNL     1      12.041  16.022   2.720  1.00  0.00     0.124 S 
ATOM     71  O   UNL     1      11.987  16.612   1.387  1.00  0.00    -0.237 OA
ATOM     72  O   UNL     1      11.259  16.702   3.748  1.00  0.00    -0.237 OA
ATOM     73  O   UNL     1      13.357  15.556   3.149  1.00  0.00    -0.744 OA
ENDBRANCH  69  70
ENDBRANCH  37  62
ENDBRANCH  11  12
ENDBRANCH   4   6
ENDBRANCH   3   4
ENDBRANCH   2   3
ENDBRANCH   1   2
BRANCH   1  74
ATOM     74  O   UNL     1       3.962  -0.402  -1.536  1.00  0.00    -0.374 OA
BRANCH  74  75
ATOM     75  C   UNL     1       2.565  -0.228  -1.832  1.00  0.00     0.202 C 
BRANCH  75  76
ATOM     76  C   UNL     1       2.345  -0.205  -3.345  1.00  0.00     0.261 C 
BRANCH  76  77
ATOM     77  O   UNL     1       2.805  -1.464  -3.849  1.00  0.00    -0.463 OA
BRANCH  77  78
ATOM     78  C   UNL     1       4.104  -1.464  -4.238  1.00  0.00     0.312 C 
ATOM     79  O   UNL     1       4.695  -0.503  -4.717  1.00  0.00    -0.252 OA
BRANCH  78  80
ATOM     80  C   UNL     1       4.806  -2.737  -3.836  1.00  0.00     0.143 C 
ATOM     81  C   UNL     1       5.600  -3.304  -5.011  1.00  0.00     0.124 C 
ATOM     82  C   UNL     1       3.888  -3.901  -3.465  1.00  0.00     0.133 C 
ATOM     83  C   UNL     1       5.053  -4.735  -5.093  1.00  0.00     0.132 C 
ATOM     84  C   UNL     1       4.705  -4.983  -2.752  1.00  0.00     0.036 C 
ATOM     85  O   UNL     1       3.656  -4.513  -4.752  1.00  0.00    -0.373 OA
ATOM     86  C   UNL     1       5.448  -5.630  -3.918  1.00  0.00     0.035 C 
BRANCH  81  87
ATOM     87  C   UNL     1       7.110  -3.213  -4.868  1.00  0.00     0.229 C 
ATOM     88  O   UNL     1       7.861  -4.132  -5.182  1.00  0.00    -0.274 OA
ATOM     89  N   UNL     1       7.573  -1.940  -4.582  1.00  0.00    -0.339 N 
ATOM     90  C   UNL     1       8.386  -1.279  -5.607  1.00  0.00     0.141 C 
ATOM     91  C   UNL     1       7.992  -1.603  -3.214  1.00  0.00     0.141 C 
ATOM     92  C   UNL     1       8.451   0.250  -5.408  1.00  0.00     0.138 C 
ATOM     93  C   UNL     1       8.028  -0.080  -2.986  1.00  0.00     0.138 C 
ATOM     94  N   UNL     1       8.861   0.541  -4.026  1.00  0.00    -0.368 N 
BRANCH  94  95
ATOM     95  C   UNL     1       9.625   1.649  -3.717  1.00  0.00     0.038 A 
ATOM     96  C   UNL     1      10.597   1.565  -2.706  1.00  0.00     0.026 A 
ATOM     97  C   UNL     1       9.509   2.863  -4.404  1.00  0.00     0.046 A 
ATOM     98  C   UNL     1      11.437   2.640  -2.403  1.00  0.00     0.004 A 
ATOM     99  C   UNL     1      10.339   3.945  -4.094  1.00  0.00     0.043 A 
ATOM    100  C   UNL     1      11.307   3.836  -3.101  1.00  0.00     0.020 A 
ATOM    101  Cl  UNL     1      10.173   5.423  -4.960  1.00  0.00    -0.084 Cl
ENDBRANCH  94  95
ENDBRANCH  81  87
ENDBRANCH  78  80
ENDBRANCH  77  78
ENDBRANCH  76  77
ENDBRANCH  75  76
ENDBRANCH  74  75
ENDBRANCH   1  74
TORSDOF 19
