REMARK SMILES Cc1nnc(-c2ccccc2-c2cc(NCC(=O)OCCOCCOC(=O)c3ccc(-c4c5nc(c(-c6c(F)cc(S(=O)(=O)[O-])cc6F)c6ccc([nH]6)c(-c6c(F)cc(S(=O)(=O)[O-])cc6F)c6nc(c(-c7c(F)cc(S(=O)(=O)[O-])cc7F)c7ccc4[nH]7)C=C6)C=C5)cc3)nc3[nH]ccc23)o1
REMARK SMILES IDX 21 1 20 2 19 3 17 4 18 5 16 6 15 7 14 9 12 10 13 11 99 12
REMARK SMILES IDX 95 13 98 14 94 15 96 16 97 17 11 19 6 20 7 21 8 22 10 23
REMARK SMILES IDX 9 24 5 25 1 26 2 27 3 28 100 29 4 30 22 31 23 32 24 33 25 34
REMARK SMILES IDX 26 35 27 36 28 37 29 38 93 39 30 40 92 41 31 42 32 43 33 44
REMARK SMILES IDX 86 45 34 46 91 47 85 48 87 49 35 50 90 51 84 52 83 53 36 55
REMARK SMILES IDX 70 56 49 57 69 58 50 59 53 60 68 61 88 62 51 63 52 64 67 66
REMARK SMILES IDX 89 67 54 68 37 69 38 70 47 71 39 72 40 73 46 74 48 75 41 76
REMARK SMILES IDX 42 77 43 78 44 79 45 80 71 81 72 82 81 83 73 84 74 85 80 86
REMARK SMILES IDX 82 87 75 88 76 89 77 90 78 91 79 92 55 93 56 94 65 95 57 96
REMARK SMILES IDX 58 97 64 98 66 99 59 100 60 101 61 102 62 103 63 104
REMARK H PARENT 15 8 96 18 87 54 53 65
REMARK Flexibility Score: inf
ROOT
ATOM      1  C   UNL     1      -2.710  -4.112  -4.024  1.00  0.00     0.202 C 
ENDROOT
BRANCH   1   2
ATOM      2  C   UNL     1      -1.296  -4.638  -4.285  1.00  0.00     0.261 C 
BRANCH   2   3
ATOM      3  O   UNL     1      -0.321  -3.584  -4.322  1.00  0.00    -0.462 OA
BRANCH   3   4
ATOM      4  C   UNL     1       0.238  -3.352  -5.540  1.00  0.00     0.325 C 
ATOM      5  O   UNL     1       0.030  -4.033  -6.542  1.00  0.00    -0.250 OA
BRANCH   4   6
ATOM      6  C   UNL     1       1.131  -2.119  -5.598  1.00  0.00     0.237 C 
BRANCH   6   7
ATOM      7  N   UNL     1       1.028  -1.174  -4.478  1.00  0.00    -0.359 N 
ATOM      8  H   UNL     1       0.170  -0.739  -4.266  1.00  0.00     0.162 HD
BRANCH   7   9
ATOM      9  C   UNL     1       2.161  -0.905  -3.723  1.00  0.00     0.129 A 
ATOM     10  C   UNL     1       3.315   0.502  -2.073  1.00  0.00    -0.003 A 
ATOM     11  C   UNL     1       2.173   0.192  -2.848  1.00  0.00     0.056 A 
ATOM     12  C   UNL     1       4.407  -0.385  -2.210  1.00  0.00     0.027 A 
ATOM     13  C   UNL     1       4.264  -1.442  -3.097  1.00  0.00     0.140 A 
ATOM     14  C   UNL     1       5.712  -0.524  -1.645  1.00  0.00     0.030 A 
ATOM     15  N   UNL     1       3.208  -1.732  -3.863  1.00  0.00    -0.213 NA
ATOM     16  N   UNL     1       5.407  -2.190  -3.076  1.00  0.00    -0.346 N 
ATOM     17  C   UNL     1       6.305  -1.638  -2.204  1.00  0.00     0.085 A 
ATOM     18  H   UNL     1       5.561  -3.003  -3.609  1.00  0.00     0.167 HD
BRANCH  10  19
ATOM     19  C   UNL     1       3.430   1.663  -1.163  1.00  0.00    -0.005 A 
ATOM     20  C   UNL     1       2.557   1.910  -0.084  1.00  0.00     0.047 A 
ATOM     21  C   UNL     1       2.801   2.978   0.806  1.00  0.00     0.014 A 
ATOM     22  C   UNL     1       3.884   3.829   0.629  1.00  0.00     0.001 A 
ATOM     23  C   UNL     1       4.499   2.573  -1.339  1.00  0.00     0.009 A 
ATOM     24  C   UNL     1       4.727   3.635  -0.456  1.00  0.00     0.001 A 
BRANCH  20  25
ATOM     25  C   UNL     1       1.386   1.110   0.189  1.00  0.00     0.248 A 
ATOM     26  C   UNL     1      -2.128   1.132   0.335  1.00  0.00     0.113 C 
ATOM     27  C   UNL     1      -0.695   0.815   0.444  1.00  0.00     0.213 A 
ATOM     28  N   UNL     1      -0.099  -0.240   0.956  1.00  0.00    -0.113 NA
ATOM     29  O   UNL     1       0.187   1.725  -0.064  1.00  0.00    -0.421 OA
ATOM     30  N   UNL     1       1.253  -0.061   0.768  1.00  0.00    -0.108 NA
ENDBRANCH  20  25
ENDBRANCH  10  19
ENDBRANCH   7   9
ENDBRANCH   6   7
ENDBRANCH   4   6
ENDBRANCH   3   4
ENDBRANCH   2   3
ENDBRANCH   1   2
BRANCH   1  31
ATOM     31  O   UNL     1      -3.228  -3.116  -4.906  1.00  0.00    -0.374 OA
BRANCH  31  32
ATOM     32  C   UNL     1      -2.704  -1.794  -4.820  1.00  0.00     0.202 C 
BRANCH  32  33
ATOM     33  C   UNL     1      -3.091  -0.928  -3.614  1.00  0.00     0.261 C 
BRANCH  33  34
ATOM     34  O   UNL     1      -2.737  -1.518  -2.359  1.00  0.00    -0.460 OA
BRANCH  34  35
ATOM     35  C   UNL     1      -3.765  -2.108  -1.700  1.00  0.00     0.338 C 
ATOM     36  O   UNL     1      -4.940  -2.109  -2.046  1.00  0.00    -0.246 OA
BRANCH  35  37
ATOM     37  C   UNL     1      -3.277  -2.848  -0.513  1.00  0.00     0.060 A 
ATOM     38  C   UNL     1      -4.076  -3.865   0.017  1.00  0.00     0.016 A 
ATOM     39  C   UNL     1      -2.077  -2.515   0.115  1.00  0.00     0.016 A 
ATOM     40  C   UNL     1      -3.745  -4.442   1.242  1.00  0.00     0.010 A 
ATOM     41  C   UNL     1      -1.766  -3.054   1.362  1.00  0.00     0.010 A 
ATOM     42  C   UNL     1      -2.629  -3.981   1.952  1.00  0.00    -0.014 A 
BRANCH  42  43
ATOM     43  C   UNL     1      -2.396  -4.433   3.338  1.00  0.00     0.031 A 
ATOM     44  C   UNL     1      -2.993  -3.667   4.483  1.00  0.00     0.074 A 
ATOM     45  C   UNL     1      -1.643  -5.522   3.555  1.00  0.00     0.049 A 
ATOM     46  N   UNL     1      -3.040  -3.979   5.751  1.00  0.00    -0.248 NA
ATOM     47  C   UNL     1      -3.613  -2.372   4.157  1.00  0.00     0.031 C 
ATOM     48  C   UNL     1      -0.969  -6.296   2.514  1.00  0.00     0.029 A 
ATOM     49  N   UNL     1      -1.318  -6.161   4.721  1.00  0.00    -0.354 N 
ATOM     50  C   UNL     1      -3.725  -2.942   6.373  1.00  0.00     0.074 A 
ATOM     51  C   UNL     1      -4.022  -1.960   5.351  1.00  0.00     0.031 C 
ATOM     52  C   UNL     1      -0.314  -7.317   3.089  1.00  0.00     0.029 A 
ATOM     53  C   UNL     1      -0.529  -7.268   4.534  1.00  0.00     0.049 A 
ATOM     54  H   UNL     1      -1.621  -5.856   5.607  1.00  0.00     0.167 HD
ATOM     55  C   UNL     1      -4.086  -2.834   7.676  1.00  0.00     0.037 A 
ATOM     56  C   UNL     1      -0.054  -8.151   5.430  1.00  0.00     0.037 A 
ATOM     57  C   UNL     1      -3.729  -3.803   8.683  1.00  0.00     0.049 A 
ATOM     58  C   UNL     1      -0.445  -8.002   6.875  1.00  0.00     0.074 A 
ATOM     59  C   UNL     1      -4.071  -3.824  10.023  1.00  0.00     0.029 A 
ATOM     60  N   UNL     1      -2.921  -4.912   8.462  1.00  0.00    -0.354 N 
ATOM     61  N   UNL     1      -1.200  -7.087   7.438  1.00  0.00    -0.248 NA
ATOM     62  C   UNL     1       0.057  -9.023   7.804  1.00  0.00     0.031 C 
ATOM     63  C   UNL     1      -3.424  -4.910  10.624  1.00  0.00     0.029 A 
ATOM     64  C   UNL     1      -2.732  -5.607   9.646  1.00  0.00     0.049 A 
ATOM     65  H   UNL     1      -2.539  -5.168   7.591  1.00  0.00     0.167 HD
ATOM     66  C   UNL     1      -1.293  -7.441   8.779  1.00  0.00     0.074 A 
ATOM     67  C   UNL     1      -0.525  -8.660   8.939  1.00  0.00     0.031 C 
ATOM     68  C   UNL     1      -1.960  -6.820   9.786  1.00  0.00     0.037 A 
BRANCH  55  69
ATOM     69  C   UNL     1      -4.907  -1.637   8.082  1.00  0.00     0.058 A 
ATOM     70  C   UNL     1      -6.229  -1.468   7.636  1.00  0.00     0.135 A 
ATOM     71  C   UNL     1      -4.391  -0.668   8.960  1.00  0.00     0.135 A 
ATOM     72  F   UNL     1      -6.777  -2.356   6.791  1.00  0.00    -0.206 F 
ATOM     73  C   UNL     1      -6.994  -0.368   8.015  1.00  0.00     0.059 A 
ATOM     74  C   UNL     1      -5.149   0.424   9.376  1.00  0.00     0.059 A 
ATOM     75  F   UNL     1      -3.137  -0.776   9.425  1.00  0.00    -0.206 F 
ATOM     76  C   UNL     1      -6.445   0.574   8.884  1.00  0.00     0.060 A 
BRANCH  76  77
ATOM     77  S   UNL     1      -7.450   1.999   9.355  1.00  0.00     0.124 S 
ATOM     78  O   UNL     1      -7.481   2.759   8.109  1.00  0.00    -0.237 OA
ATOM     79  O   UNL     1      -8.710   1.376   9.748  1.00  0.00    -0.237 OA
ATOM     80  O   UNL     1      -6.690   2.609  10.442  1.00  0.00    -0.744 OA
ENDBRANCH  76  77
ENDBRANCH  55  69
BRANCH  56  81
ATOM     81  C   UNL     1       0.777  -9.290   4.963  1.00  0.00     0.058 A 
ATOM     82  C   UNL     1       0.269 -10.596   4.961  1.00  0.00     0.135 A 
ATOM     83  C   UNL     1       2.075  -9.090   4.470  1.00  0.00     0.135 A 
ATOM     84  F   UNL     1      -0.969 -10.835   5.421  1.00  0.00    -0.206 F 
ATOM     85  C   UNL     1       1.024 -11.670   4.503  1.00  0.00     0.059 A 
ATOM     86  C   UNL     1       2.841 -10.144   3.982  1.00  0.00     0.059 A 
ATOM     87  F   UNL     1       2.598  -7.855   4.430  1.00  0.00    -0.206 F 
ATOM     88  C   UNL     1       2.308 -11.433   4.011  1.00  0.00     0.060 A 
BRANCH  88  89
ATOM     89  S   UNL     1       3.258 -12.829   3.374  1.00  0.00     0.124 S 
ATOM     90  O   UNL     1       3.573 -13.554   4.600  1.00  0.00    -0.237 OA
ATOM     91  O   UNL     1       2.298 -13.470   2.482  1.00  0.00    -0.237 OA
ATOM     92  O   UNL     1       4.391 -12.191   2.710  1.00  0.00    -0.744 OA
ENDBRANCH  88  89
ENDBRANCH  56  81
BRANCH  68  93
ATOM     93  C   UNL     1      -1.918  -7.470  11.143  1.00  0.00     0.058 A 
ATOM     94  C   UNL     1      -0.748  -7.494  11.920  1.00  0.00     0.135 A 
ATOM     95  C   UNL     1      -3.078  -8.043  11.691  1.00  0.00     0.135 A 
ATOM     96  F   UNL     1       0.391  -6.966  11.444  1.00  0.00    -0.206 F 
ATOM     97  C   UNL     1      -0.722  -8.091  13.177  1.00  0.00     0.059 A 
ATOM     98  C   UNL     1      -3.083  -8.616  12.959  1.00  0.00     0.059 A 
ATOM     99  F   UNL     1      -4.227  -8.039  10.997  1.00  0.00    -0.206 F 
ATOM    100  C   UNL     1      -1.896  -8.648  13.688  1.00  0.00     0.060 A 
BRANCH 100 101
ATOM    101  S   UNL     1      -1.853  -9.395  15.331  1.00  0.00     0.124 S 
ATOM    102  O   UNL     1      -1.103 -10.621  15.078  1.00  0.00    -0.237 OA
ATOM    103  O   UNL     1      -1.161  -8.379  16.118  1.00  0.00    -0.237 OA
ATOM    104  O   UNL     1      -3.264  -9.579  15.658  1.00  0.00    -0.744 OA
ENDBRANCH 100 101
ENDBRANCH  68  93
ENDBRANCH  42  43
ENDBRANCH  35  37
ENDBRANCH  34  35
ENDBRANCH  33  34
ENDBRANCH  32  33
ENDBRANCH  31  32
ENDBRANCH   1  31
TORSDOF 21
