REMARK SMILES COCCN1C(=O)C[C@H](C(=O)OCCOCCOC(=O)c2ccc(-c3c4nc(c(-c5c(F)cc(S(=O)(=O)[O-])cc5F)c5ccc([nH]5)c(-c5c(F)cc(S(=O)(=O)[O-])cc5F)c5nc(c(-c6c(F)cc(S(=O)(=O)[O-])cc6F)c6ccc3[nH]6)C=C5)C=C4)cc2)[C@@H]1c1ccccc1N1CCOCC1
REMARK SMILES IDX 15 1 14 2 13 3 12 4 10 5 11 6 9 7 5 8 6 9 87 10 7 11 8 12
REMARK SMILES IDX 4 13 3 14 2 15 1 16 88 17 89 18 93 19 90 20 92 21 91 22
REMARK SMILES IDX 94 23 95 24 99 25 96 26 98 27 97 28 16 29 17 30 18 31 19 32
REMARK SMILES IDX 20 33 21 34 22 35 86 36 23 37 85 38 24 39 25 40 26 41 79 42
REMARK SMILES IDX 27 43 84 44 78 45 80 46 28 47 83 48 77 49 76 50 29 52 63 53
REMARK SMILES IDX 42 54 62 55 43 56 46 57 61 58 81 59 44 60 45 61 60 63 82 64
REMARK SMILES IDX 47 65 30 66 31 67 40 68 32 69 33 70 39 71 41 72 34 73 35 74
REMARK SMILES IDX 36 75 37 76 38 77 64 78 65 79 74 80 66 81 67 82 73 83 75 84
REMARK SMILES IDX 68 85 69 86 70 87 71 88 72 89 48 90 49 91 58 92 50 93 51 94
REMARK SMILES IDX 57 95 59 96 52 97 53 98 54 99 55 100 56 101
REMARK H PARENT 80 51 46 62
REMARK Flexibility Score: inf
ROOT
ATOM      1  O   UNL     1       1.648   6.701   3.144  1.00  0.00    -0.374 OA
ENDROOT
BRANCH   1   2
ATOM      2  C   UNL     1       0.234   6.726   3.039  1.00  0.00     0.202 C 
BRANCH   2   3
ATOM      3  C   UNL     1      -0.563   5.804   2.092  1.00  0.00     0.261 C 
BRANCH   3   4
ATOM      4  O   UNL     1       0.081   4.697   1.468  1.00  0.00    -0.463 OA
BRANCH   4   5
ATOM      5  C   UNL     1       1.013   5.036   0.547  1.00  0.00     0.312 C 
ATOM      6  O   UNL     1       1.528   6.141   0.452  1.00  0.00    -0.252 OA
BRANCH   5   7
ATOM      7  C   UNL     1       1.493   3.891  -0.273  1.00  0.00     0.136 C 
ATOM      8  N   UNL     1       0.922   1.914  -1.399  1.00  0.00    -0.332 N 
ATOM      9  C   UNL     1       1.901   1.633  -0.451  1.00  0.00     0.224 C 
ATOM     10  C   UNL     1       0.594   3.365  -1.396  1.00  0.00     0.132 C 
ATOM     11  O   UNL     1       2.682   0.697  -0.423  1.00  0.00    -0.275 OA
ATOM     12  C   UNL     1       1.822   2.690   0.591  1.00  0.00     0.118 C 
BRANCH   8  13
ATOM     13  C   UNL     1       0.672   1.041  -2.549  1.00  0.00     0.148 C 
BRANCH  13  14
ATOM     14  C   UNL     1       0.779  -0.481  -2.299  1.00  0.00     0.181 C 
BRANCH  14  15
ATOM     15  O   UNL     1      -0.224  -1.005  -1.424  1.00  0.00    -0.383 OA
ATOM     16  C   UNL     1       0.143  -0.989  -0.049  1.00  0.00     0.194 C 
ENDBRANCH  14  15
ENDBRANCH  13  14
ENDBRANCH   8  13
BRANCH  10  17
ATOM     17  C   UNL     1      -0.870   3.793  -1.409  1.00  0.00    -0.001 A 
ATOM     18  C   UNL     1      -1.854   2.798  -1.182  1.00  0.00     0.008 A 
ATOM     19  C   UNL     1      -1.298   5.153  -1.599  1.00  0.00     0.042 A 
ATOM     20  C   UNL     1      -3.217   3.087  -1.168  1.00  0.00     0.001 A 
ATOM     21  C   UNL     1      -2.695   5.391  -1.586  1.00  0.00     0.026 A 
ATOM     22  C   UNL     1      -3.639   4.386  -1.374  1.00  0.00     0.002 A 
BRANCH  19  23
ATOM     23  N   UNL     1      -0.434   6.257  -1.683  1.00  0.00    -0.367 N 
ATOM     24  C   UNL     1       0.557   6.413  -2.765  1.00  0.00     0.145 C 
ATOM     25  C   UNL     1      -0.922   7.597  -1.232  1.00  0.00     0.145 C 
ATOM     26  C   UNL     1       1.686   7.377  -2.331  1.00  0.00     0.181 C 
ATOM     27  C   UNL     1       0.243   8.529  -0.857  1.00  0.00     0.181 C 
ATOM     28  O   UNL     1       1.181   8.662  -1.936  1.00  0.00    -0.378 OA
ENDBRANCH  19  23
ENDBRANCH  10  17
ENDBRANCH   5   7
ENDBRANCH   4   5
ENDBRANCH   3   4
ENDBRANCH   2   3
ENDBRANCH   1   2
BRANCH   1  29
ATOM     29  C   UNL     1       2.349   5.489   3.367  1.00  0.00     0.202 C 
BRANCH  29  30
ATOM     30  C   UNL     1       2.045   4.667   4.614  1.00  0.00     0.261 C 
BRANCH  30  31
ATOM     31  O   UNL     1       0.673   4.261   4.685  1.00  0.00    -0.460 OA
BRANCH  31  32
ATOM     32  C   UNL     1      -0.027   4.863   5.674  1.00  0.00     0.338 C 
ATOM     33  O   UNL     1       0.393   5.669   6.493  1.00  0.00    -0.246 OA
BRANCH  32  34
ATOM     34  C   UNL     1      -1.457   4.564   5.528  1.00  0.00     0.060 A 
ATOM     35  C   UNL     1      -2.347   5.646   5.502  1.00  0.00     0.016 A 
ATOM     36  C   UNL     1      -1.922   3.248   5.519  1.00  0.00     0.016 A 
ATOM     37  C   UNL     1      -3.715   5.419   5.537  1.00  0.00     0.010 A 
ATOM     38  C   UNL     1      -3.296   3.021   5.579  1.00  0.00     0.010 A 
ATOM     39  C   UNL     1      -4.189   4.107   5.643  1.00  0.00    -0.014 A 
BRANCH  39  40
ATOM     40  C   UNL     1      -5.585   3.887   6.073  1.00  0.00     0.031 A 
ATOM     41  C   UNL     1      -5.841   3.646   7.535  1.00  0.00     0.074 A 
ATOM     42  C   UNL     1      -6.596   3.938   5.190  1.00  0.00     0.049 A 
ATOM     43  N   UNL     1      -6.960   3.364   8.146  1.00  0.00    -0.248 NA
ATOM     44  C   UNL     1      -4.673   3.734   8.429  1.00  0.00     0.031 C 
ATOM     45  C   UNL     1      -6.458   4.226   3.764  1.00  0.00     0.029 A 
ATOM     46  N   UNL     1      -7.939   3.737   5.369  1.00  0.00    -0.354 N 
ATOM     47  C   UNL     1      -6.630   3.226   9.490  1.00  0.00     0.074 A 
ATOM     48  C   UNL     1      -5.204   3.429   9.603  1.00  0.00     0.031 C 
ATOM     49  C   UNL     1      -7.672   4.163   3.191  1.00  0.00     0.029 A 
ATOM     50  C   UNL     1      -8.661   3.794   4.203  1.00  0.00     0.049 A 
ATOM     51  H   UNL     1      -8.347   3.569   6.249  1.00  0.00     0.167 HD
ATOM     52  C   UNL     1      -7.449   2.958  10.534  1.00  0.00     0.037 A 
ATOM     53  C   UNL     1      -9.966   3.544   3.981  1.00  0.00     0.037 A 
ATOM     54  C   UNL     1      -8.867   2.757  10.401  1.00  0.00     0.049 A 
ATOM     55  C   UNL     1     -10.845   3.173   5.147  1.00  0.00     0.074 A 
ATOM     56  C   UNL     1      -9.795   2.488  11.390  1.00  0.00     0.029 A 
ATOM     57  N   UNL     1      -9.561   2.794   9.199  1.00  0.00    -0.354 N 
ATOM     58  N   UNL     1     -10.528   3.052   6.416  1.00  0.00    -0.248 NA
ATOM     59  C   UNL     1     -12.260   2.907   4.854  1.00  0.00     0.031 C 
ATOM     60  C   UNL     1     -11.040   2.305  10.780  1.00  0.00     0.029 A 
ATOM     61  C   UNL     1     -10.901   2.526   9.418  1.00  0.00     0.049 A 
ATOM     62  H   UNL     1      -9.159   2.983   8.320  1.00  0.00     0.167 HD
ATOM     63  C   UNL     1     -11.710   2.728   7.076  1.00  0.00     0.074 A 
ATOM     64  C   UNL     1     -12.748   2.681   6.066  1.00  0.00     0.031 C 
ATOM     65  C   UNL     1     -11.919   2.494   8.396  1.00  0.00     0.037 A 
BRANCH  52  66
ATOM     66  C   UNL     1      -6.824   2.830  11.896  1.00  0.00     0.058 A 
ATOM     67  C   UNL     1      -6.294   3.937  12.580  1.00  0.00     0.135 A 
ATOM     68  C   UNL     1      -6.773   1.582  12.537  1.00  0.00     0.135 A 
ATOM     69  F   UNL     1      -6.295   5.151  12.006  1.00  0.00    -0.206 F 
ATOM     70  C   UNL     1      -5.714   3.806  13.838  1.00  0.00     0.059 A 
ATOM     71  C   UNL     1      -6.225   1.432  13.808  1.00  0.00     0.059 A 
ATOM     72  F   UNL     1      -7.257   0.488  11.927  1.00  0.00    -0.206 F 
ATOM     73  C   UNL     1      -5.686   2.549  14.445  1.00  0.00     0.060 A 
BRANCH  73  74
ATOM     74  S   UNL     1      -4.939   2.397  16.081  1.00  0.00     0.124 S 
ATOM     75  O   UNL     1      -3.523   2.575  15.772  1.00  0.00    -0.237 OA
ATOM     76  O   UNL     1      -5.570   3.489  16.814  1.00  0.00    -0.237 OA
ATOM     77  O   UNL     1      -5.322   1.055  16.508  1.00  0.00    -0.744 OA
ENDBRANCH  73  74
ENDBRANCH  52  66
BRANCH  53  78
ATOM     78  C   UNL     1     -10.511   3.622   2.600  1.00  0.00     0.058 A 
ATOM     79  C   UNL     1     -11.419   4.625   2.234  1.00  0.00     0.135 A 
ATOM     80  C   UNL     1     -10.127   2.697   1.615  1.00  0.00     0.135 A 
ATOM     81  F   UNL     1     -11.825   5.527   3.141  1.00  0.00    -0.206 F 
ATOM     82  C   UNL     1     -11.937   4.705   0.945  1.00  0.00     0.059 A 
ATOM     83  C   UNL     1     -10.609   2.773   0.312  1.00  0.00     0.059 A 
ATOM     84  F   UNL     1      -9.252   1.724   1.909  1.00  0.00    -0.206 F 
ATOM     85  C   UNL     1     -11.521   3.776  -0.011  1.00  0.00     0.060 A 
BRANCH  85  86
ATOM     86  S   UNL     1     -12.155   3.926  -1.695  1.00  0.00     0.124 S 
ATOM     87  O   UNL     1     -13.543   3.513  -1.525  1.00  0.00    -0.237 OA
ATOM     88  O   UNL     1     -11.938   5.342  -1.976  1.00  0.00    -0.237 OA
ATOM     89  O   UNL     1     -11.310   3.008  -2.454  1.00  0.00    -0.744 OA
ENDBRANCH  85  86
ENDBRANCH  53  78
BRANCH  65  90
ATOM     90  C   UNL     1     -13.331   2.211   8.835  1.00  0.00     0.058 A 
ATOM     91  C   UNL     1     -13.974   1.001   8.534  1.00  0.00     0.135 A 
ATOM     92  C   UNL     1     -14.027   3.146   9.621  1.00  0.00     0.135 A 
ATOM     93  F   UNL     1     -13.357   0.076   7.783  1.00  0.00    -0.206 F 
ATOM     94  C   UNL     1     -15.268   0.738   8.973  1.00  0.00     0.059 A 
ATOM     95  C   UNL     1     -15.308   2.890  10.098  1.00  0.00     0.059 A 
ATOM     96  F   UNL     1     -13.453   4.314   9.950  1.00  0.00    -0.206 F 
ATOM     97  C   UNL     1     -15.926   1.688   9.757  1.00  0.00     0.060 A 
BRANCH  97  98
ATOM     98  S   UNL     1     -17.592   1.321  10.345  1.00  0.00     0.124 S 
ATOM     99  O   UNL     1     -18.371   1.446   9.118  1.00  0.00    -0.237 OA
ATOM    100  O   UNL     1     -17.445  -0.034  10.868  1.00  0.00    -0.237 OA
ATOM    101  O   UNL     1     -17.834   2.352  11.350  1.00  0.00    -0.744 OA
ENDBRANCH  97  98
ENDBRANCH  65  90
ENDBRANCH  39  40
ENDBRANCH  32  34
ENDBRANCH  31  32
ENDBRANCH  30  31
ENDBRANCH  29  30
ENDBRANCH   1  29
TORSDOF 22
