REMARK SMILES CC1=C(C)C[C@@H](C(=O)NNC(=O)c2sccc2C)[C@@H](C(=O)OCCOCCOC(=O)c2ccc(-c3c4nc(c(-c5c(F)cc(S(=O)(=O)[O-])cc5F)c5ccc([nH]5)c(-c5c(F)cc(S(=O)(=O)[O-])cc5F)c5nc(c(-c6c(F)cc(S(=O)(=O)[O-])cc6F)c6ccc3[nH]6)C=C5)C=C4)cc2)C1
REMARK SMILES IDX 25 1 24 2 23 3 22 4 20 5 21 6 19 7 1 8 2 9 3 10 97 11 4 12
REMARK SMILES IDX 5 13 6 14 7 15 8 16 9 17 10 19 11 20 12 22 13 23 14 24 17 25
REMARK SMILES IDX 15 26 16 27 18 28 26 29 27 30 28 31 29 32 30 33 31 34 32 35
REMARK SMILES IDX 96 36 33 37 95 38 34 39 35 40 36 41 89 42 37 43 94 44 88 45
REMARK SMILES IDX 90 46 38 47 93 48 87 49 86 50 39 52 73 53 52 54 72 55 53 56
REMARK SMILES IDX 56 57 71 58 91 59 54 60 55 61 70 63 92 64 57 65 40 66 41 67
REMARK SMILES IDX 50 68 42 69 43 70 49 71 51 72 44 73 45 74 46 75 47 76 48 77
REMARK SMILES IDX 74 78 75 79 84 80 76 81 77 82 83 83 85 84 78 85 79 86 80 87
REMARK SMILES IDX 81 88 82 89 58 90 59 91 68 92 60 93 61 94 67 95 69 96 62 97
REMARK SMILES IDX 63 98 64 99 65 100 66 101
REMARK H PARENT 9 18 10 21 90 51 56 62
REMARK Flexibility Score: inf
ROOT
ATOM      1  O   UNL     1       0.131   2.369   7.291  1.00  0.00    -0.374 OA
ENDROOT
BRANCH   1   2
ATOM      2  C   UNL     1       1.151   3.120   6.648  1.00  0.00     0.202 C 
BRANCH   2   3
ATOM      3  C   UNL     1       1.846   2.588   5.383  1.00  0.00     0.261 C 
BRANCH   3   4
ATOM      4  O   UNL     1       0.995   1.977   4.406  1.00  0.00    -0.463 OA
BRANCH   4   5
ATOM      5  C   UNL     1       0.809   0.651   4.639  1.00  0.00     0.310 C 
ATOM      6  O   UNL     1       1.157   0.111   5.683  1.00  0.00    -0.252 OA
BRANCH   5   7
ATOM      7  C   UNL     1      -0.022  -0.054   3.562  1.00  0.00     0.116 C 
ATOM      8  C   UNL     1       0.957   0.198  -0.252  1.00  0.00     0.039 C 
ATOM      9  C   UNL     1       0.510  -0.472   1.026  1.00  0.00    -0.073 C 
ATOM     10  C   UNL     1       0.419  -1.809   1.179  1.00  0.00    -0.074 C 
ATOM     11  C   UNL     1       0.188   0.502   2.139  1.00  0.00     0.046 C 
ATOM     12  C   UNL     1       0.869  -2.827   0.163  1.00  0.00     0.039 C 
ATOM     13  C   UNL     1      -0.130  -2.415   2.439  1.00  0.00     0.045 C 
ATOM     14  C   UNL     1       0.060  -1.592   3.708  1.00  0.00     0.099 C 
BRANCH  14  15
ATOM     15  C   UNL     1       1.222  -2.162   4.526  1.00  0.00     0.242 C 
ATOM     16  O   UNL     1       1.001  -2.964   5.440  1.00  0.00    -0.273 OA
ATOM     17  N   UNL     1       2.519  -1.818   4.263  1.00  0.00    -0.267 N 
ATOM     18  H   UNL     1       3.194  -2.075   4.932  1.00  0.00     0.191 HD
BRANCH  17  19
ATOM     19  N   UNL     1       2.969  -1.144   3.147  1.00  0.00    -0.263 N 
ATOM     20  C   UNL     1       4.080  -0.326   3.056  1.00  0.00     0.280 C 
ATOM     21  H   UNL     1       2.441  -1.259   2.324  1.00  0.00     0.191 HD
ATOM     22  O   UNL     1       4.165   0.344   2.022  1.00  0.00    -0.266 OA
BRANCH  20  23
ATOM     23  C   UNL     1       5.069  -0.277   4.124  1.00  0.00     0.096 A 
ATOM     24  S   UNL     1       5.756   1.272   4.449  1.00  0.00    -0.138 S 
ATOM     25  C   UNL     1       5.669  -1.269   4.897  1.00  0.00    -0.027 A 
ATOM     26  C   UNL     1       6.811   0.647   5.627  1.00  0.00     0.066 A 
ATOM     27  C   UNL     1       6.648  -0.707   5.790  1.00  0.00     0.016 A 
ATOM     28  C   UNL     1       5.434  -2.745   4.834  1.00  0.00     0.046 C 
ENDBRANCH  20  23
ENDBRANCH  17  19
ENDBRANCH  14  15
ENDBRANCH   5   7
ENDBRANCH   4   5
ENDBRANCH   3   4
ENDBRANCH   2   3
ENDBRANCH   1   2
BRANCH   1  29
ATOM     29  C   UNL     1      -1.123   2.169   6.647  1.00  0.00     0.202 C 
BRANCH  29  30
ATOM     30  C   UNL     1      -1.982   3.376   6.263  1.00  0.00     0.261 C 
BRANCH  30  31
ATOM     31  O   UNL     1      -1.336   4.247   5.325  1.00  0.00    -0.460 OA
BRANCH  31  32
ATOM     32  C   UNL     1      -1.039   5.473   5.817  1.00  0.00     0.338 C 
ATOM     33  O   UNL     1      -1.289   5.904   6.935  1.00  0.00    -0.246 OA
BRANCH  32  34
ATOM     34  C   UNL     1      -0.172   6.186   4.872  1.00  0.00     0.060 A 
ATOM     35  C   UNL     1       1.083   6.620   5.324  1.00  0.00     0.016 A 
ATOM     36  C   UNL     1      -0.628   6.510   3.595  1.00  0.00     0.016 A 
ATOM     37  C   UNL     1       1.873   7.427   4.515  1.00  0.00     0.010 A 
ATOM     38  C   UNL     1       0.153   7.340   2.794  1.00  0.00     0.010 A 
ATOM     39  C   UNL     1       1.382   7.833   3.270  1.00  0.00    -0.014 A 
BRANCH  39  40
ATOM     40  C   UNL     1       2.034   8.945   2.549  1.00  0.00     0.031 A 
ATOM     41  C   UNL     1       1.463  10.322   2.717  1.00  0.00     0.074 A 
ATOM     42  C   UNL     1       3.075   8.719   1.733  1.00  0.00     0.049 A 
ATOM     43  N   UNL     1       1.739  11.420   2.068  1.00  0.00    -0.248 NA
ATOM     44  C   UNL     1       0.426  10.476   3.752  1.00  0.00     0.031 C 
ATOM     45  C   UNL     1       3.730   7.427   1.540  1.00  0.00     0.029 A 
ATOM     46  N   UNL     1       3.739   9.569   0.888  1.00  0.00    -0.354 N 
ATOM     47  C   UNL     1       0.889  12.387   2.590  1.00  0.00     0.074 A 
ATOM     48  C   UNL     1       0.082  11.745   3.604  1.00  0.00     0.031 C 
ATOM     49  C   UNL     1       4.677   7.559   0.597  1.00  0.00     0.029 A 
ATOM     50  C   UNL     1       4.661   8.933   0.094  1.00  0.00     0.049 A 
ATOM     51  H   UNL     1       3.571  10.539   0.854  1.00  0.00     0.167 HD
ATOM     52  C   UNL     1       0.788  13.691   2.243  1.00  0.00     0.037 A 
ATOM     53  C   UNL     1       5.372   9.399  -0.951  1.00  0.00     0.037 A 
ATOM     54  C   UNL     1       1.600  14.307   1.228  1.00  0.00     0.049 A 
ATOM     55  C   UNL     1       5.218  10.841  -1.355  1.00  0.00     0.074 A 
ATOM     56  C   UNL     1       1.608  15.625   0.814  1.00  0.00     0.029 A 
ATOM     57  N   UNL     1       2.541  13.636   0.459  1.00  0.00    -0.354 N 
ATOM     58  N   UNL     1       4.430  11.758  -0.845  1.00  0.00    -0.248 NA
ATOM     59  C   UNL     1       6.046  11.315  -2.472  1.00  0.00     0.031 C 
ATOM     60  C   UNL     1       2.518  15.741  -0.243  1.00  0.00     0.029 A 
ATOM     61  C   UNL     1       3.119  14.507  -0.448  1.00  0.00     0.049 A 
ATOM     62  H   UNL     1       2.764  12.681   0.545  1.00  0.00     0.167 HD
ATOM     63  C   UNL     1       4.687  12.924  -1.557  1.00  0.00     0.074 A 
ATOM     64  C   UNL     1       5.701  12.595  -2.539  1.00  0.00     0.031 C 
ATOM     65  C   UNL     1       4.140  14.156  -1.406  1.00  0.00     0.037 A 
BRANCH  52  66
ATOM     66  C   UNL     1      -0.274  14.507   2.926  1.00  0.00     0.058 A 
ATOM     67  C   UNL     1      -0.188  14.860   4.282  1.00  0.00     0.135 A 
ATOM     68  C   UNL     1      -1.410  14.925   2.212  1.00  0.00     0.135 A 
ATOM     69  F   UNL     1       0.866  14.471   5.017  1.00  0.00    -0.206 F 
ATOM     70  C   UNL     1      -1.211  15.556   4.919  1.00  0.00     0.059 A 
ATOM     71  C   UNL     1      -2.431  15.647   2.821  1.00  0.00     0.059 A 
ATOM     72  F   UNL     1      -1.545  14.614   0.914  1.00  0.00    -0.206 F 
ATOM     73  C   UNL     1      -2.334  15.937   4.181  1.00  0.00     0.060 A 
BRANCH  73  74
ATOM     74  S   UNL     1      -3.672  16.805   5.026  1.00  0.00     0.124 S 
ATOM     75  O   UNL     1      -4.292  15.719   5.778  1.00  0.00    -0.237 OA
ATOM     76  O   UNL     1      -2.952  17.795   5.821  1.00  0.00    -0.237 OA
ATOM     77  O   UNL     1      -4.471  17.346   3.931  1.00  0.00    -0.744 OA
ENDBRANCH  73  74
ENDBRANCH  52  66
BRANCH  53  78
ATOM     78  C   UNL     1       6.268   8.470  -1.687  1.00  0.00     0.058 A 
ATOM     79  C   UNL     1       7.660   8.545  -1.548  1.00  0.00     0.135 A 
ATOM     80  C   UNL     1       5.743   7.440  -2.484  1.00  0.00     0.135 A 
ATOM     81  F   UNL     1       8.210   9.517  -0.805  1.00  0.00    -0.206 F 
ATOM     82  C   UNL     1       8.502   7.624  -2.164  1.00  0.00     0.059 A 
ATOM     83  C   UNL     1       6.562   6.494  -3.091  1.00  0.00     0.059 A 
ATOM     84  F   UNL     1       4.415   7.320  -2.638  1.00  0.00    -0.206 F 
ATOM     85  C   UNL     1       7.943   6.595  -2.925  1.00  0.00     0.060 A 
BRANCH  85  86
ATOM     86  S   UNL     1       9.041   5.352  -3.640  1.00  0.00     0.124 S 
ATOM     87  O   UNL     1       9.682   6.107  -4.711  1.00  0.00    -0.237 OA
ATOM     88  O   UNL     1       9.892   5.006  -2.506  1.00  0.00    -0.237 OA
ATOM     89  O   UNL     1       8.125   4.300  -4.071  1.00  0.00    -0.744 OA
ENDBRANCH  85  86
ENDBRANCH  53  78
BRANCH  65  90
ATOM     90  C   UNL     1       4.650  15.265  -2.283  1.00  0.00     0.058 A 
ATOM     91  C   UNL     1       4.263  15.383  -3.625  1.00  0.00     0.135 A 
ATOM     92  C   UNL     1       5.438  16.290  -1.731  1.00  0.00     0.135 A 
ATOM     93  F   UNL     1       3.517  14.427  -4.201  1.00  0.00    -0.206 F 
ATOM     94  C   UNL     1       4.633  16.485  -4.391  1.00  0.00     0.059 A 
ATOM     95  C   UNL     1       5.799  17.410  -2.470  1.00  0.00     0.059 A 
ATOM     96  F   UNL     1       5.826  16.226  -0.447  1.00  0.00    -0.206 F 
ATOM     97  C   UNL     1       5.391  17.499  -3.800  1.00  0.00     0.060 A 
BRANCH  97  98
ATOM     98  S   UNL     1       5.787  18.965  -4.777  1.00  0.00     0.124 S 
ATOM     99  O   UNL     1       6.811  18.450  -5.681  1.00  0.00    -0.237 OA
ATOM    100  O   UNL     1       4.503  19.288  -5.392  1.00  0.00    -0.237 OA
ATOM    101  O   UNL     1       6.255  19.923  -3.779  1.00  0.00    -0.744 OA
ENDBRANCH  97  98
ENDBRANCH  65  90
ENDBRANCH  39  40
ENDBRANCH  32  34
ENDBRANCH  31  32
ENDBRANCH  30  31
ENDBRANCH  29  30
ENDBRANCH   1  29
TORSDOF 20
