REMARK SMILES O=C(OCCOCCOC(=O)c1nnn(-c2cccc(Br)c2)c1[C@@H]1COc2ccccc2O1)c1ccc(-c2c3nc(c(-c4c(F)cc(S(=O)(=O)[O-])cc4F)c4ccc([nH]4)c(-c4c(F)cc(S(=O)(=O)[O-])cc4F)c4nc(c(-c5c(F)cc(S(=O)(=O)[O-])cc5F)c5ccc2[nH]5)C=C4)C=C3)cc1
REMARK SMILES IDX 5 1 4 2 3 3 2 4 1 5 34 6 35 7 99 8 36 9 98 10 37 11 38 12
REMARK SMILES IDX 39 13 92 14 40 15 97 16 91 17 93 18 41 19 96 20 90 21 89 22
REMARK SMILES IDX 42 24 76 25 55 26 75 27 56 28 59 29 74 30 94 31 57 32 58 33
REMARK SMILES IDX 73 35 95 36 60 37 43 38 44 39 53 40 45 41 46 42 52 43 54 44
REMARK SMILES IDX 47 45 48 46 49 47 50 48 51 49 77 50 78 51 87 52 79 53 80 54
REMARK SMILES IDX 86 55 88 56 81 57 82 58 83 59 84 60 85 61 61 62 62 63 71 64
REMARK SMILES IDX 63 65 64 66 70 67 72 68 65 69 66 70 67 71 68 72 69 73 6 74
REMARK SMILES IDX 7 75 8 76 9 77 10 78 11 79 12 80 13 81 23 82 14 83 15 84
REMARK SMILES IDX 24 85 25 86 33 87 26 88 32 89 27 90 31 91 28 92 30 93 29 94
REMARK SMILES IDX 16 95 17 96 22 97 18 98 20 99 19 100 21 101
REMARK H PARENT 93 23 59 34
REMARK Flexibility Score: inf
ROOT
ATOM      1  C   UNL     1       5.680  -0.450   0.139  1.00  0.00     0.202 C 
ENDROOT
BRANCH   1   2
ATOM      2  C   UNL     1       4.700  -1.115   1.121  1.00  0.00     0.261 C 
BRANCH   2   3
ATOM      3  O   UNL     1       3.372  -1.251   0.590  1.00  0.00    -0.460 OA
BRANCH   3   4
ATOM      4  C   UNL     1       2.252  -0.547   0.875  1.00  0.00     0.338 C 
ATOM      5  O   UNL     1       1.181  -0.939   0.410  1.00  0.00    -0.246 OA
BRANCH   4   6
ATOM      6  C   UNL     1       2.238   0.703   1.694  1.00  0.00     0.060 A 
ATOM      7  C   UNL     1       3.362   1.395   2.151  1.00  0.00     0.016 A 
ATOM      8  C   UNL     1       0.966   1.227   1.996  1.00  0.00     0.016 A 
ATOM      9  C   UNL     1       3.231   2.425   3.064  1.00  0.00     0.010 A 
ATOM     10  C   UNL     1       0.825   2.308   2.852  1.00  0.00     0.010 A 
ATOM     11  C   UNL     1       1.961   2.845   3.444  1.00  0.00    -0.014 A 
BRANCH  11  12
ATOM     12  C   UNL     1       1.888   3.953   4.379  1.00  0.00     0.031 A 
ATOM     13  C   UNL     1       2.455   5.219   3.845  1.00  0.00     0.074 A 
ATOM     14  C   UNL     1       1.288   3.829   5.578  1.00  0.00     0.049 A 
ATOM     15  N   UNL     1       3.486   5.875   4.266  1.00  0.00    -0.248 NA
ATOM     16  C   UNL     1       1.914   5.720   2.568  1.00  0.00     0.031 C 
ATOM     17  C   UNL     1       0.496   2.695   6.060  1.00  0.00     0.029 A 
ATOM     18  N   UNL     1       1.161   4.736   6.584  1.00  0.00    -0.354 N 
ATOM     19  C   UNL     1       3.556   7.012   3.464  1.00  0.00     0.074 A 
ATOM     20  C   UNL     1       2.722   6.751   2.323  1.00  0.00     0.031 C 
ATOM     21  C   UNL     1      -0.224   3.083   7.136  1.00  0.00     0.029 A 
ATOM     22  C   UNL     1       0.141   4.446   7.483  1.00  0.00     0.049 A 
ATOM     23  H   UNL     1       1.740   5.527   6.668  1.00  0.00     0.167 HD
ATOM     24  C   UNL     1       4.037   8.185   3.961  1.00  0.00     0.037 A 
ATOM     25  C   UNL     1      -0.423   5.303   8.373  1.00  0.00     0.037 A 
ATOM     26  C   UNL     1       4.899   7.950   5.094  1.00  0.00     0.049 A 
ATOM     27  C   UNL     1       0.530   6.431   8.560  1.00  0.00     0.074 A 
ATOM     28  C   UNL     1       6.031   7.185   5.309  1.00  0.00     0.029 A 
ATOM     29  N   UNL     1       4.422   8.261   6.345  1.00  0.00    -0.354 N 
ATOM     30  N   UNL     1       1.696   6.310   9.136  1.00  0.00    -0.248 NA
ATOM     31  C   UNL     1       0.388   7.590   7.690  1.00  0.00     0.031 C 
ATOM     32  C   UNL     1       5.885   6.670   6.630  1.00  0.00     0.029 A 
ATOM     33  C   UNL     1       4.718   7.209   7.171  1.00  0.00     0.049 A 
ATOM     34  H   UNL     1       3.953   9.088   6.601  1.00  0.00     0.167 HD
ATOM     35  C   UNL     1       2.551   7.098   8.378  1.00  0.00     0.074 A 
ATOM     36  C   UNL     1       1.673   7.929   7.557  1.00  0.00     0.031 C 
ATOM     37  C   UNL     1       3.881   6.802   8.277  1.00  0.00     0.037 A 
BRANCH  24  38
ATOM     38  C   UNL     1       3.367   9.524   3.707  1.00  0.00     0.058 A 
ATOM     39  C   UNL     1       3.946  10.689   4.254  1.00  0.00     0.135 A 
ATOM     40  C   UNL     1       2.042   9.678   3.234  1.00  0.00     0.135 A 
ATOM     41  F   UNL     1       5.203  10.672   4.724  1.00  0.00    -0.206 F 
ATOM     42  C   UNL     1       3.226  11.873   4.425  1.00  0.00     0.059 A 
ATOM     43  C   UNL     1       1.326  10.862   3.348  1.00  0.00     0.059 A 
ATOM     44  F   UNL     1       1.330   8.671   2.718  1.00  0.00    -0.206 F 
ATOM     45  C   UNL     1       1.907  11.939   3.989  1.00  0.00     0.060 A 
BRANCH  45  46
ATOM     46  S   UNL     1       0.934  13.417   4.310  1.00  0.00     0.124 S 
ATOM     47  O   UNL     1       0.773  13.346   5.758  1.00  0.00    -0.237 OA
ATOM     48  O   UNL     1       1.813  14.469   3.812  1.00  0.00    -0.237 OA
ATOM     49  O   UNL     1      -0.277  13.196   3.526  1.00  0.00    -0.744 OA
ENDBRANCH  45  46
ENDBRANCH  24  38
BRANCH  25  50
ATOM     50  C   UNL     1      -1.857   5.386   8.773  1.00  0.00     0.058 A 
ATOM     51  C   UNL     1      -2.273   6.205   9.839  1.00  0.00     0.135 A 
ATOM     52  C   UNL     1      -2.887   4.876   7.954  1.00  0.00     0.135 A 
ATOM     53  F   UNL     1      -1.365   6.754  10.661  1.00  0.00    -0.206 F 
ATOM     54  C   UNL     1      -3.618   6.537  10.049  1.00  0.00     0.059 A 
ATOM     55  C   UNL     1      -4.233   5.178   8.154  1.00  0.00     0.059 A 
ATOM     56  F   UNL     1      -2.616   4.138   6.868  1.00  0.00    -0.206 F 
ATOM     57  C   UNL     1      -4.590   6.033   9.186  1.00  0.00     0.060 A 
BRANCH  57  58
ATOM     58  S   UNL     1      -6.303   6.593   9.336  1.00  0.00     0.124 S 
ATOM     59  O   UNL     1      -6.720   5.962  10.583  1.00  0.00    -0.237 OA
ATOM     60  O   UNL     1      -6.152   8.044   9.374  1.00  0.00    -0.237 OA
ATOM     61  O   UNL     1      -6.939   6.068   8.130  1.00  0.00    -0.744 OA
ENDBRANCH  57  58
ENDBRANCH  25  50
BRANCH  37  62
ATOM     62  C   UNL     1       4.473   5.819   9.251  1.00  0.00     0.058 A 
ATOM     63  C   UNL     1       4.088   4.472   9.367  1.00  0.00     0.135 A 
ATOM     64  C   UNL     1       5.577   6.237  10.011  1.00  0.00     0.135 A 
ATOM     65  F   UNL     1       3.120   3.961   8.592  1.00  0.00    -0.206 F 
ATOM     66  C   UNL     1       4.734   3.597  10.243  1.00  0.00     0.059 A 
ATOM     67  C   UNL     1       6.257   5.374  10.863  1.00  0.00     0.059 A 
ATOM     68  F   UNL     1       6.038   7.494   9.895  1.00  0.00    -0.206 F 
ATOM     69  C   UNL     1       5.817   4.060  10.990  1.00  0.00     0.060 A 
BRANCH  69  70
ATOM     70  S   UNL     1       6.684   2.918  12.089  1.00  0.00     0.124 S 
ATOM     71  O   UNL     1       5.707   2.715  13.153  1.00  0.00    -0.237 OA
ATOM     72  O   UNL     1       6.927   1.768  11.223  1.00  0.00    -0.237 OA
ATOM     73  O   UNL     1       7.882   3.659  12.475  1.00  0.00    -0.744 OA
ENDBRANCH  69  70
ENDBRANCH  37  62
ENDBRANCH  11  12
ENDBRANCH   4   6
ENDBRANCH   3   4
ENDBRANCH   2   3
ENDBRANCH   1   2
BRANCH   1  74
ATOM     74  O   UNL     1       5.336   0.805  -0.442  1.00  0.00    -0.374 OA
BRANCH  74  75
ATOM     75  C   UNL     1       4.224   0.891  -1.326  1.00  0.00     0.202 C 
BRANCH  75  76
ATOM     76  C   UNL     1       4.169  -0.034  -2.537  1.00  0.00     0.261 C 
BRANCH  76  77
ATOM     77  O   UNL     1       4.172  -1.427  -2.204  1.00  0.00    -0.458 OA
BRANCH  77  78
ATOM     78  C   UNL     1       5.142  -2.174  -2.800  1.00  0.00     0.361 C 
ATOM     79  O   UNL     1       6.023  -1.740  -3.530  1.00  0.00    -0.244 OA
BRANCH  78  80
ATOM     80  C   UNL     1       5.033  -3.584  -2.492  1.00  0.00     0.198 A 
ATOM     81  N   UNL     1       5.862  -4.221  -1.598  1.00  0.00    -0.122 NA
ATOM     82  C   UNL     1       4.190  -4.515  -3.071  1.00  0.00     0.123 A 
ATOM     83  N   UNL     1       5.560  -5.515  -1.601  1.00  0.00    -0.061 NA
ATOM     84  N   UNL     1       4.668  -5.718  -2.590  1.00  0.00    -0.213 N 
BRANCH  82  85
ATOM     85  C   UNL     1       2.983  -4.419  -3.943  1.00  0.00     0.262 C 
ATOM     86  C   UNL     1       3.175  -3.718  -5.287  1.00  0.00     0.281 C 
ATOM     87  O   UNL     1       1.925  -3.933  -3.123  1.00  0.00    -0.477 OA
ATOM     88  O   UNL     1       3.012  -2.305  -5.267  1.00  0.00    -0.485 OA
ATOM     89  C   UNL     1       1.466  -2.691  -3.439  1.00  0.00     0.162 A 
ATOM     90  C   UNL     1       1.947  -1.926  -4.498  1.00  0.00     0.161 A 
ATOM     91  C   UNL     1       0.491  -2.167  -2.592  1.00  0.00     0.050 A 
ATOM     92  C   UNL     1       1.421  -0.656  -4.740  1.00  0.00     0.050 A 
ATOM     93  C   UNL     1      -0.010  -0.883  -2.809  1.00  0.00     0.004 A 
ATOM     94  C   UNL     1       0.444  -0.132  -3.891  1.00  0.00     0.004 A 
ENDBRANCH  82  85
BRANCH  84  95
ATOM     95  C   UNL     1       4.437  -7.001  -3.123  1.00  0.00     0.068 A 
ATOM     96  C   UNL     1       4.566  -7.191  -4.508  1.00  0.00     0.028 A 
ATOM     97  C   UNL     1       4.000  -8.033  -2.291  1.00  0.00     0.044 A 
ATOM     98  C   UNL     1       4.196  -8.405  -5.077  1.00  0.00     0.003 A 
ATOM     99  C   UNL     1       3.599  -9.231  -2.882  1.00  0.00     0.020 A 
ATOM    100  C   UNL     1       3.688  -9.419  -4.266  1.00  0.00     0.016 A 
ATOM    101  Br  UNL     1       2.866 -10.607  -1.811  1.00  0.00    -0.051 Br
ENDBRANCH  84  95
ENDBRANCH  78  80
ENDBRANCH  77  78
ENDBRANCH  76  77
ENDBRANCH  75  76
ENDBRANCH  74  75
ENDBRANCH   1  74
TORSDOF 19
