REMARK SMILES O=C(OCCOCCOC(=O)c1ccc(-c2c3nc(c(-c4c(F)cc(S(=O)(=O)[O-])cc4F)c4ccc([nH]4)c(-c4c(F)cc(S(=O)(=O)[O-])cc4F)c4nc(c(-c5c(F)cc(S(=O)(=O)[O-])cc5F)c5ccc2[nH]5)C=C4)C=C3)cc1)C1=Cc2cc(Cl)c(Cl)c(Cl)c2O[C@@H]1C(F)(F)F
REMARK SMILES IDX 7 1 6 2 5 3 4 4 3 5 2 6 1 7 78 8 79 9 90 10 80 11 89 12
REMARK SMILES IDX 81 13 88 14 82 15 86 16 83 17 84 18 87 19 85 20 91 21 92 22
REMARK SMILES IDX 93 23 94 24 8 25 9 26 10 27 11 28 12 29 13 30 77 31 14 32
REMARK SMILES IDX 76 33 15 34 16 35 17 36 70 37 18 38 75 39 69 40 71 41 19 42
REMARK SMILES IDX 74 43 68 44 67 45 20 47 54 48 33 49 53 50 34 51 37 52 52 53
REMARK SMILES IDX 72 54 35 55 36 56 51 58 73 59 38 60 21 61 22 62 31 63 23 64
REMARK SMILES IDX 24 65 30 66 32 67 25 68 26 69 27 70 28 71 29 72 55 73 56 74
REMARK SMILES IDX 65 75 57 76 58 77 64 78 66 79 59 80 60 81 61 82 62 83 63 84
REMARK SMILES IDX 39 85 40 86 49 87 41 88 42 89 48 90 50 91 43 92 44 93 45 94
REMARK SMILES IDX 46 95 47 96
REMARK H PARENT 71 46 37 57
REMARK Flexibility Score: inf
ROOT
ATOM      1  C   UNL     1       2.678   1.637   2.498  1.00  0.00     0.202 C 
ENDROOT
BRANCH   1   2
ATOM      2  O   UNL     1       3.747   0.695   2.329  1.00  0.00    -0.374 OA
BRANCH   2   3
ATOM      3  C   UNL     1       4.260  -0.208   1.139  1.00  0.00     0.202 C 
BRANCH   3   4
ATOM      4  C   UNL     1       3.361  -0.837  -0.748  1.00  0.00     0.261 C 
BRANCH   4   5
ATOM      5  O   UNL     1       2.453  -2.054  -0.979  1.00  0.00    -0.460 OA
BRANCH   5   6
ATOM      6  C   UNL     1       2.666  -3.037  -0.101  1.00  0.00     0.338 C 
ATOM      7  O   UNL     1       2.079  -4.077   0.050  1.00  0.00    -0.246 OA
BRANCH   6   8
ATOM      8  C   UNL     1       3.538  -2.271   0.762  1.00  0.00     0.087 C 
ATOM      9  C   UNL     1       4.908  -2.177   0.191  1.00  0.00     0.027 C 
ATOM     10  C   UNL     1       2.336  -0.772   0.998  1.00  0.00     0.316 C 
ATOM     11  C   UNL     1       5.581  -0.659  -0.548  1.00  0.00     0.020 A 
ATOM     12  O   UNL     1       3.014   0.831   0.162  1.00  0.00    -0.474 OA
ATOM     13  C   UNL     1       6.760  -0.743  -1.233  1.00  0.00     0.034 A 
ATOM     14  C   UNL     1       4.631   0.786  -0.696  1.00  0.00     0.148 A 
ATOM     15  C   UNL     1       7.041   0.340  -2.086  1.00  0.00     0.062 A 
ATOM     16  C   UNL     1       4.899   1.706  -1.679  1.00  0.00     0.103 A 
ATOM     17  Cl  UNL     1       8.579   0.202  -2.909  1.00  0.00    -0.083 Cl
ATOM     18  C   UNL     1       6.136   1.465  -2.357  1.00  0.00     0.082 A 
ATOM     19  Cl  UNL     1       3.680   2.768  -2.237  1.00  0.00    -0.079 Cl
ATOM     20  Cl  UNL     1       6.588   2.493  -3.694  1.00  0.00    -0.081 Cl
BRANCH  10  21
ATOM     21  C   UNL     1       1.883  -1.080   2.487  1.00  0.00     0.430 C 
ATOM     22  F   UNL     1       1.012  -0.213   3.030  1.00  0.00    -0.167 F 
ATOM     23  F   UNL     1       1.211  -2.272   2.458  1.00  0.00    -0.167 F 
ATOM     24  F   UNL     1       2.898  -1.296   3.355  1.00  0.00    -0.167 F 
ENDBRANCH  10  21
ENDBRANCH   6   8
ENDBRANCH   5   6
ENDBRANCH   4   5
ENDBRANCH   3   4
ENDBRANCH   2   3
ENDBRANCH   1   2
BRANCH   1  25
ATOM     25  C   UNL     1       2.942   3.127   2.565  1.00  0.00     0.261 C 
BRANCH  25  26
ATOM     26  O   UNL     1       3.445   3.641   1.353  1.00  0.00    -0.460 OA
BRANCH  26  27
ATOM     27  C   UNL     1       4.771   3.886   1.358  1.00  0.00     0.338 C 
ATOM     28  O   UNL     1       5.603   3.494   2.155  1.00  0.00    -0.246 OA
BRANCH  27  29
ATOM     29  C   UNL     1       5.047   4.700   0.167  1.00  0.00     0.060 A 
ATOM     30  C   UNL     1       6.270   4.532  -0.485  1.00  0.00     0.016 A 
ATOM     31  C   UNL     1       4.066   5.568  -0.336  1.00  0.00     0.016 A 
ATOM     32  C   UNL     1       6.490   5.197  -1.687  1.00  0.00     0.010 A 
ATOM     33  C   UNL     1       4.283   6.219  -1.538  1.00  0.00     0.010 A 
ATOM     34  C   UNL     1       5.494   6.030  -2.216  1.00  0.00    -0.014 A 
BRANCH  34  35
ATOM     35  C   UNL     1       5.791   6.923  -3.347  1.00  0.00     0.031 A 
ATOM     36  C   UNL     1       6.305   8.280  -2.999  1.00  0.00     0.074 A 
ATOM     37  C   UNL     1       5.527   6.571  -4.615  1.00  0.00     0.049 A 
ATOM     38  N   UNL     1       6.529   9.302  -3.775  1.00  0.00    -0.248 NA
ATOM     39  C   UNL     1       6.569   8.525  -1.570  1.00  0.00     0.031 C 
ATOM     40  C   UNL     1       5.008   5.276  -5.040  1.00  0.00     0.029 A 
ATOM     41  N   UNL     1       5.635   7.285  -5.779  1.00  0.00    -0.354 N 
ATOM     42  C   UNL     1       6.949  10.316  -2.928  1.00  0.00     0.074 A 
ATOM     43  C   UNL     1       6.913   9.800  -1.579  1.00  0.00     0.031 C 
ATOM     44  C   UNL     1       4.852   5.277  -6.373  1.00  0.00     0.029 A 
ATOM     45  C   UNL     1       5.185   6.603  -6.885  1.00  0.00     0.049 A 
ATOM     46  H   UNL     1       6.000   8.199  -5.820  1.00  0.00     0.167 HD
ATOM     47  C   UNL     1       7.325  11.570  -3.256  1.00  0.00     0.037 A 
ATOM     48  C   UNL     1       5.017   7.023  -8.154  1.00  0.00     0.037 A 
ATOM     49  C   UNL     1       7.294  12.071  -4.601  1.00  0.00     0.049 A 
ATOM     50  C   UNL     1       5.381   8.444  -8.492  1.00  0.00     0.074 A 
ATOM     51  C   UNL     1       7.659  13.321  -5.059  1.00  0.00     0.029 A 
ATOM     52  N   UNL     1       6.838  11.353  -5.700  1.00  0.00    -0.354 N 
ATOM     53  N   UNL     1       5.828   9.390  -7.698  1.00  0.00    -0.248 NA
ATOM     54  C   UNL     1       5.220   8.861  -9.890  1.00  0.00     0.031 C 
ATOM     55  C   UNL     1       7.348  13.387  -6.420  1.00  0.00     0.029 A 
ATOM     56  C   UNL     1       6.879  12.147  -6.832  1.00  0.00     0.049 A 
ATOM     57  H   UNL     1       6.531  10.418  -5.677  1.00  0.00     0.167 HD
ATOM     58  C   UNL     1       6.035  10.503  -8.504  1.00  0.00     0.074 A 
ATOM     59  C   UNL     1       5.658  10.114  -9.848  1.00  0.00     0.031 C 
ATOM     60  C   UNL     1       6.505  11.730  -8.164  1.00  0.00     0.037 A 
BRANCH  47  61
ATOM     61  C   UNL     1       7.716  12.476  -2.124  1.00  0.00     0.058 A 
ATOM     62  C   UNL     1       8.849  12.230  -1.329  1.00  0.00     0.135 A 
ATOM     63  C   UNL     1       6.905  13.571  -1.787  1.00  0.00     0.135 A 
ATOM     64  F   UNL     1       9.644  11.178  -1.586  1.00  0.00    -0.206 F 
ATOM     65  C   UNL     1       9.130  13.003  -0.208  1.00  0.00     0.059 A 
ATOM     66  C   UNL     1       7.191  14.382  -0.696  1.00  0.00     0.059 A 
ATOM     67  F   UNL     1       5.804  13.844  -2.504  1.00  0.00    -0.206 F 
ATOM     68  C   UNL     1       8.291  14.074   0.103  1.00  0.00     0.060 A 
BRANCH  68  69
ATOM     69  S   UNL     1       8.646  15.042   1.582  1.00  0.00     0.124 S 
ATOM     70  O   UNL     1       8.299  14.097   2.639  1.00  0.00    -0.237 OA
ATOM     71  O   UNL     1      10.069  15.328   1.431  1.00  0.00    -0.237 OA
ATOM     72  O   UNL     1       7.760  16.195   1.456  1.00  0.00    -0.744 OA
ENDBRANCH  68  69
ENDBRANCH  47  61
BRANCH  48  73
ATOM     73  C   UNL     1       4.458   6.091  -9.171  1.00  0.00     0.058 A 
ATOM     74  C   UNL     1       5.251   5.581 -10.209  1.00  0.00     0.135 A 
ATOM     75  C   UNL     1       3.128   5.643  -9.088  1.00  0.00     0.135 A 
ATOM     76  F   UNL     1       6.522   5.987 -10.343  1.00  0.00    -0.206 F 
ATOM     77  C   UNL     1       4.752   4.656 -11.122  1.00  0.00     0.059 A 
ATOM     78  C   UNL     1       2.615   4.699  -9.972  1.00  0.00     0.059 A 
ATOM     79  F   UNL     1       2.327   6.093  -8.110  1.00  0.00    -0.206 F 
ATOM     80  C   UNL     1       3.436   4.209 -10.986  1.00  0.00     0.060 A 
BRANCH  80  81
ATOM     81  S   UNL     1       2.832   2.936 -12.116  1.00  0.00     0.124 S 
ATOM     82  O   UNL     1       2.778   3.661 -13.380  1.00  0.00    -0.237 OA
ATOM     83  O   UNL     1       3.872   1.917 -12.008  1.00  0.00    -0.237 OA
ATOM     84  O   UNL     1       1.540   2.564 -11.547  1.00  0.00    -0.744 OA
ENDBRANCH  80  81
ENDBRANCH  48  73
BRANCH  60  85
ATOM     85  C   UNL     1       6.705  12.736  -9.265  1.00  0.00     0.058 A 
ATOM     86  C   UNL     1       5.630  13.375  -9.900  1.00  0.00     0.135 A 
ATOM     87  C   UNL     1       8.006  13.148  -9.601  1.00  0.00     0.135 A 
ATOM     88  F   UNL     1       4.367  13.016  -9.621  1.00  0.00    -0.206 F 
ATOM     89  C   UNL     1       5.839  14.386 -10.834  1.00  0.00     0.059 A 
ATOM     90  C   UNL     1       8.236  14.178 -10.504  1.00  0.00     0.059 A 
ATOM     91  F   UNL     1       9.069  12.575  -9.015  1.00  0.00    -0.206 F 
ATOM     92  C   UNL     1       7.146  14.789 -11.119  1.00  0.00     0.060 A 
BRANCH  92  93
ATOM     93  S   UNL     1       7.398  16.152 -12.274  1.00  0.00     0.124 S 
ATOM     94  O   UNL     1       7.008  15.542 -13.540  1.00  0.00    -0.237 OA
ATOM     95  O   UNL     1       6.490  17.171 -11.754  1.00  0.00    -0.237 OA
ATOM     96  O   UNL     1       8.819  16.458 -12.137  1.00  0.00    -0.744 OA
ENDBRANCH  92  93
ENDBRANCH  60  85
ENDBRANCH  34  35
ENDBRANCH  27  29
ENDBRANCH  26  27
ENDBRANCH  25  26
ENDBRANCH   1  25
TORSDOF 18
