REMARK SMILES CCCc1cc(S(F)(F)(F)(F)F)cc2c1O[C@@H](C(F)(F)F)C(C(=O)OCCOCCOC(=O)c1ccc(-c3c4nc(c(-c5c(F)cc(S(=O)(=O)[O-])cc5F)c5ccc([nH]5)c(-c5c(F)cc(S(=O)(=O)[O-])cc5F)c5nc(c(-c6c(F)cc(S(=O)(=O)[O-])cc6F)c6ccc3[nH]6)C=C5)C=C4)cc1)=C2
REMARK SMILES IDX 29 1 28 2 27 3 26 4 25 5 23 6 24 7 22 8 4 9 5 10 15 11 6 12
REMARK SMILES IDX 14 13 16 14 13 15 100 16 17 17 3 18 2 19 1 20 7 21 8 22 9 23
REMARK SMILES IDX 10 24 11 25 12 26 18 27 19 28 20 29 21 30 30 31 31 32 32 33
REMARK SMILES IDX 33 34 34 35 35 36 99 37 36 38 98 39 37 40 38 41 39 42 92 43
REMARK SMILES IDX 40 44 97 45 91 46 93 47 41 48 96 49 90 50 89 51 42 53 76 54
REMARK SMILES IDX 55 55 75 56 56 57 59 58 74 59 94 60 57 61 58 62 73 64 95 65
REMARK SMILES IDX 60 66 43 67 44 68 53 69 45 70 46 71 52 72 54 73 47 74 48 75
REMARK SMILES IDX 49 76 50 77 51 78 77 79 78 80 87 81 79 82 80 83 86 84 88 85
REMARK SMILES IDX 81 86 82 87 83 88 84 89 85 90 61 91 62 92 71 93 63 94 64 95
REMARK SMILES IDX 70 96 72 97 65 98 66 99 67 100 68 101 69 102
REMARK H PARENT 93 52 59 63
REMARK Flexibility Score: inf
ROOT
ATOM      1  C   UNL     1      -0.501  -2.236  -4.846  1.00  0.00     0.202 C 
ENDROOT
BRANCH   1   2
ATOM      2  O   UNL     1      -1.113  -3.211  -5.678  1.00  0.00    -0.374 OA
BRANCH   2   3
ATOM      3  C   UNL     1      -1.716  -2.570  -6.792  1.00  0.00     0.202 C 
BRANCH   3   4
ATOM      4  C   UNL     1      -2.769  -1.588  -6.304  1.00  0.00     0.261 C 
BRANCH   4   5
ATOM      5  O   UNL     1      -2.157  -0.614  -5.472  1.00  0.00    -0.460 OA
BRANCH   5   6
ATOM      6  C   UNL     1      -1.484  -1.013  -4.287  1.00  0.00     0.338 C 
ATOM      7  O   UNL     1      -1.429  -2.243  -3.971  1.00  0.00    -0.246 OA
BRANCH   6   8
ATOM      8  C   UNL     1      -0.829   0.030  -3.397  1.00  0.00     0.087 C 
ATOM      9  C   UNL     1       0.553   2.865  -0.657  1.00  0.00    -0.004 A 
ATOM     10  C   UNL     1       0.692   4.186  -1.042  1.00  0.00     0.032 A 
ATOM     11  C   UNL     1       0.046   1.964  -1.562  1.00  0.00     0.131 A 
ATOM     12  C   UNL     1       0.328   4.596  -2.297  1.00  0.00     0.108 A 
ATOM     13  C   UNL     1      -0.314   2.338  -2.844  1.00  0.00     0.019 A 
ATOM     14  O   UNL     1      -0.191   0.681  -1.131  1.00  0.00    -0.475 OA
ATOM     15  C   UNL     1      -0.166   3.674  -3.196  1.00  0.00     0.036 A 
ATOM     16  C   UNL     1      -0.877   1.319  -3.713  1.00  0.00     0.027 C 
ATOM     17  C   UNL     1      -0.102  -0.379  -2.123  1.00  0.00     0.316 C 
BRANCH   9  18
ATOM     18  C   UNL     1       1.060   2.428   0.708  1.00  0.00     0.039 C 
BRANCH  18  19
ATOM     19  C   UNL     1       0.553   1.028   1.012  1.00  0.00     0.001 C 
ATOM     20  C   UNL     1       1.060   0.064  -0.048  1.00  0.00     0.004 C 
ENDBRANCH  18  19
ENDBRANCH   9  18
BRANCH  12  21
ATOM     21  S   UNL     1       0.495   6.334  -2.773  1.00  0.00     0.310 S 
ATOM     22  F   UNL     1       2.081   6.357  -2.726  1.00  0.00    -0.094 F 
ATOM     23  F   UNL     1       0.514   6.722  -1.246  1.00  0.00    -0.094 F 
ATOM     24  F   UNL     1       0.547   7.833  -3.182  1.00  0.00    -0.094 F 
ATOM     25  F   UNL     1       0.618   5.923  -4.293  1.00  0.00    -0.094 F 
ATOM     26  F   UNL     1       0.557   4.807  -2.369  1.00  0.00    -0.094 F 
ENDBRANCH  12  21
BRANCH  17  27
ATOM     27  C   UNL     1      -0.751  -1.636  -1.565  1.00  0.00     0.430 C 
ATOM     28  F   UNL     1      -0.671  -2.613  -2.463  1.00  0.00    -0.167 F 
ATOM     29  F   UNL     1      -0.120  -2.004  -0.453  1.00  0.00    -0.167 F 
ATOM     30  F   UNL     1      -2.029  -1.391  -1.289  1.00  0.00    -0.167 F 
ENDBRANCH  17  27
ENDBRANCH   6   8
ENDBRANCH   5   6
ENDBRANCH   4   5
ENDBRANCH   3   4
ENDBRANCH   2   3
ENDBRANCH   1   2
BRANCH   1  31
ATOM     31  C   UNL     1       0.561  -1.489  -5.638  1.00  0.00     0.261 C 
BRANCH  31  32
ATOM     32  O   UNL     1      -0.043  -0.849  -6.752  1.00  0.00    -0.460 OA
BRANCH  32  33
ATOM     33  C   UNL     1      -0.722  -1.620  -7.732  1.00  0.00     0.338 C 
ATOM     34  O   UNL     1      -0.790  -2.883  -7.612  1.00  0.00    -0.246 OA
BRANCH  33  35
ATOM     35  C   UNL     1      -1.368  -0.934  -8.925  1.00  0.00     0.060 A 
ATOM     36  C   UNL     1      -2.690  -1.262  -9.180  1.00  0.00     0.016 A 
ATOM     37  C   UNL     1      -0.748   0.015  -9.616  1.00  0.00     0.016 A 
ATOM     38  C   UNL     1      -3.190  -0.726 -10.390  1.00  0.00     0.010 A 
ATOM     39  C   UNL     1      -1.351   0.592 -10.707  1.00  0.00     0.010 A 
ATOM     40  C   UNL     1      -2.635   0.272 -11.053  1.00  0.00    -0.014 A 
BRANCH  40  41
ATOM     41  C   UNL     1      -3.382   1.025 -12.142  1.00  0.00     0.031 A 
ATOM     42  C   UNL     1      -2.889   1.052 -13.447  1.00  0.00     0.074 A 
ATOM     43  C   UNL     1      -4.478   1.754 -11.713  1.00  0.00     0.049 A 
ATOM     44  N   UNL     1      -3.378   1.728 -14.488  1.00  0.00    -0.248 NA
ATOM     45  C   UNL     1      -1.705   0.305 -13.897  1.00  0.00     0.031 C 
ATOM     46  C   UNL     1      -4.987   1.725 -10.399  1.00  0.00     0.029 A 
ATOM     47  N   UNL     1      -5.258   2.619 -12.448  1.00  0.00    -0.354 N 
ATOM     48  C   UNL     1      -2.647   1.489 -15.578  1.00  0.00     0.074 A 
ATOM     49  C   UNL     1      -1.557   0.575 -15.212  1.00  0.00     0.031 C 
ATOM     50  C   UNL     1      -6.051   2.568 -10.341  1.00  0.00     0.029 A 
ATOM     51  C   UNL     1      -6.226   3.138 -11.617  1.00  0.00     0.049 A 
ATOM     52  H   UNL     1      -5.144   2.829 -13.403  1.00  0.00     0.167 HD
ATOM     53  C   UNL     1      -2.848   1.995 -16.863  1.00  0.00     0.037 A 
ATOM     54  C   UNL     1      -7.212   4.059 -11.934  1.00  0.00     0.037 A 
ATOM     55  C   UNL     1      -3.861   2.882 -17.190  1.00  0.00     0.049 A 
ATOM     56  C   UNL     1      -7.378   4.611 -13.206  1.00  0.00     0.074 A 
ATOM     57  C   UNL     1      -4.082   3.397 -18.482  1.00  0.00     0.029 A 
ATOM     58  N   UNL     1      -4.813   3.421 -16.353  1.00  0.00    -0.354 N 
ATOM     59  N   UNL     1      -6.671   4.340 -14.305  1.00  0.00    -0.248 NA
ATOM     60  C   UNL     1      -8.398   5.611 -13.546  1.00  0.00     0.031 C 
ATOM     61  C   UNL     1      -5.147   4.240 -18.424  1.00  0.00     0.029 A 
ATOM     62  C   UNL     1      -5.607   4.268 -17.094  1.00  0.00     0.049 A 
ATOM     63  H   UNL     1      -4.909   3.233 -15.391  1.00  0.00     0.167 HD
ATOM     64  C   UNL     1      -7.135   5.049 -15.336  1.00  0.00     0.074 A 
ATOM     65  C   UNL     1      -8.248   5.882 -14.861  1.00  0.00     0.031 C 
ATOM     66  C   UNL     1      -6.678   5.032 -16.655  1.00  0.00     0.037 A 
BRANCH  53  67
ATOM     67  C   UNL     1      -1.902   1.548 -17.966  1.00  0.00     0.058 A 
ATOM     68  C   UNL     1      -1.867   0.204 -18.299  1.00  0.00     0.135 A 
ATOM     69  C   UNL     1      -1.168   2.439 -18.622  1.00  0.00     0.135 A 
ATOM     70  F   UNL     1      -2.757  -0.677 -17.851  1.00  0.00    -0.206 F 
ATOM     71  C   UNL     1      -0.799  -0.147 -19.157  1.00  0.00     0.059 A 
ATOM     72  C   UNL     1      -0.237   2.033 -19.548  1.00  0.00     0.059 A 
ATOM     73  F   UNL     1      -1.336   3.736 -18.381  1.00  0.00    -0.206 F 
ATOM     74  C   UNL     1      -0.107   0.714 -19.882  1.00  0.00     0.060 A 
BRANCH  74  75
ATOM     75  S   UNL     1       0.956   0.175 -21.244  1.00  0.00     0.124 S 
ATOM     76  O   UNL     1       2.034  -0.768 -20.708  1.00  0.00    -0.237 OA
ATOM     77  O   UNL     1       0.113  -0.557 -22.291  1.00  0.00    -0.237 OA
ATOM     78  O   UNL     1       1.697   1.539 -21.962  1.00  0.00    -0.744 OA
ENDBRANCH  74  75
ENDBRANCH  53  67
BRANCH  54  79
ATOM     79  C   UNL     1      -8.168   4.493 -10.834  1.00  0.00     0.058 A 
ATOM     80  C   UNL     1      -9.528   4.309 -11.022  1.00  0.00     0.135 A 
ATOM     81  C   UNL     1      -7.697   5.080  -9.741  1.00  0.00     0.135 A 
ATOM     82  F   UNL     1     -10.029   3.513 -11.962  1.00  0.00    -0.206 F 
ATOM     83  C   UNL     1     -10.335   5.044 -10.123  1.00  0.00     0.059 A 
ATOM     84  C   UNL     1      -8.552   5.661  -8.835  1.00  0.00     0.059 A 
ATOM     85  F   UNL     1      -6.386   5.107  -9.520  1.00  0.00    -0.206 F 
ATOM     86  C   UNL     1      -9.907   5.569  -8.989  1.00  0.00     0.060 A 
BRANCH  86  87
ATOM     87  S   UNL     1     -11.053   6.136  -7.708  1.00  0.00     0.124 S 
ATOM     88  O   UNL     1     -11.953   7.236  -8.278  1.00  0.00    -0.237 OA
ATOM     89  O   UNL     1     -11.917   4.963  -7.240  1.00  0.00    -0.237 OA
ATOM     90  O   UNL     1     -10.167   6.755  -6.384  1.00  0.00    -0.744 OA
ENDBRANCH  86  87
ENDBRANCH  54  79
BRANCH  66  91
ATOM     91  C   UNL     1      -7.397   5.904 -17.671  1.00  0.00     0.058 A 
ATOM     92  C   UNL     1      -7.285   7.269 -17.465  1.00  0.00     0.135 A 
ATOM     93  C   UNL     1      -7.995   5.417 -18.752  1.00  0.00     0.135 A 
ATOM     94  F   UNL     1      -6.487   7.800 -16.543  1.00  0.00    -0.206 F 
ATOM     95  C   UNL     1      -8.097   8.047 -18.324  1.00  0.00     0.059 A 
ATOM     96  C   UNL     1      -8.655   6.252 -19.622  1.00  0.00     0.059 A 
ATOM     97  F   UNL     1      -7.954   4.110 -18.996  1.00  0.00    -0.206 F 
ATOM     98  C   UNL     1      -8.636   7.607 -19.446  1.00  0.00     0.060 A 
BRANCH  98  99
ATOM     99  S   UNL     1      -9.312   8.739 -20.686  1.00  0.00     0.124 S 
ATOM    100  O   UNL     1     -10.441   9.564 -20.063  1.00  0.00    -0.237 OA
ATOM    101  O   UNL     1      -8.207   9.677 -21.178  1.00  0.00    -0.237 OA
ATOM    102  O   UNL     1      -9.925   7.839 -22.005  1.00  0.00    -0.744 OA
ENDBRANCH  98  99
ENDBRANCH  66  91
ENDBRANCH  40  41
ENDBRANCH  33  35
ENDBRANCH  32  33
ENDBRANCH  31  32
ENDBRANCH   1  31
TORSDOF 21
