REMARK SMILES CCOc1ccccc1-c1cc(C(=O)OCCOCCOC(=O)c2ccc(-c3c4nc(c(-c5c(F)cc(S(=O)(=O)[O-])cc5F)c5ccc([nH]5)c(-c5c(F)cc(S(=O)(=O)[O-])cc5F)c5nc(c(-c6c(F)cc(S(=O)(=O)[O-])cc6F)c6ccc3[nH]6)C=C5)C=C4)cc2)c2cc(C)cc(C)c2n1
REMARK SMILES IDX 18 1 17 2 16 3 15 4 13 5 14 6 12 7 10 8 11 9 98 10 97 11
REMARK SMILES IDX 90 12 95 13 91 14 94 15 96 16 92 17 93 18 9 19 4 20 5 21
REMARK SMILES IDX 6 22 8 23 7 24 3 25 2 26 1 27 19 28 20 29 21 30 22 31 23 32
REMARK SMILES IDX 24 33 25 34 89 35 26 36 88 37 27 38 28 39 29 40 82 41 30 42
REMARK SMILES IDX 87 43 81 44 83 45 31 46 86 47 80 48 79 49 32 51 66 52 45 53
REMARK SMILES IDX 65 54 46 55 49 56 64 57 84 58 47 59 48 60 63 62 85 63 50 64
REMARK SMILES IDX 33 65 34 66 43 67 35 68 36 69 42 70 44 71 37 72 38 73 39 74
REMARK SMILES IDX 40 75 41 76 67 77 68 78 77 79 69 80 70 81 76 82 78 83 71 84
REMARK SMILES IDX 72 85 73 86 74 87 75 88 51 89 52 90 61 91 53 92 54 93 60 94
REMARK SMILES IDX 62 95 55 96 56 97 57 98 58 99 59 100
REMARK H PARENT 83 50 49 61
REMARK Flexibility Score: inf
ROOT
ATOM      1  O   UNL     1      -3.078   2.025  -0.918  1.00  0.00    -0.374 OA
ENDROOT
BRANCH   1   2
ATOM      2  C   UNL     1      -3.316   1.310   0.296  1.00  0.00     0.202 C 
BRANCH   2   3
ATOM      3  C   UNL     1      -3.037  -0.190   0.211  1.00  0.00     0.261 C 
BRANCH   3   4
ATOM      4  O   UNL     1      -1.677  -0.454  -0.184  1.00  0.00    -0.460 OA
BRANCH   4   5
ATOM      5  C   UNL     1      -1.550  -0.833  -1.478  1.00  0.00     0.338 C 
ATOM      6  O   UNL     1      -2.466  -0.991  -2.271  1.00  0.00    -0.246 OA
BRANCH   5   7
ATOM      7  C   UNL     1      -0.142  -1.060  -1.868  1.00  0.00     0.071 A 
ATOM      8  C   UNL     1       2.107  -1.632  -1.512  1.00  0.00     0.076 A 
ATOM      9  C   UNL     1       0.870  -1.369  -0.957  1.00  0.00     0.045 A 
ATOM     10  N   UNL     1       2.135  -2.160  -2.754  1.00  0.00    -0.247 NA
ATOM     11  C   UNL     1       1.377  -1.523  -3.646  1.00  0.00     0.075 A 
ATOM     12  C   UNL     1       0.223  -0.863  -3.217  1.00  0.00     0.015 A 
ATOM     13  C   UNL     1       1.841  -1.351  -4.949  1.00  0.00    -0.024 A 
ATOM     14  C   UNL     1      -0.371   0.098  -4.063  1.00  0.00     0.014 A 
ATOM     15  C   UNL     1       1.293  -0.333  -5.744  1.00  0.00     0.009 A 
ATOM     16  C   UNL     1       3.047  -2.098  -5.446  1.00  0.00     0.047 C 
ATOM     17  C   UNL     1       0.226   0.436  -5.279  1.00  0.00    -0.050 A 
ATOM     18  C   UNL     1      -0.154   1.718  -5.959  1.00  0.00     0.044 C 
BRANCH   8  19
ATOM     19  C   UNL     1       3.276  -0.690  -1.409  1.00  0.00     0.042 A 
ATOM     20  C   UNL     1       3.108   0.698  -1.631  1.00  0.00     0.128 A 
ATOM     21  C   UNL     1       4.096   1.447  -2.285  1.00  0.00     0.047 A 
ATOM     22  C   UNL     1       5.316   0.864  -2.607  1.00  0.00     0.004 A 
ATOM     23  C   UNL     1       4.564  -1.220  -1.633  1.00  0.00     0.014 A 
ATOM     24  C   UNL     1       5.570  -0.452  -2.232  1.00  0.00     0.001 A 
BRANCH  20  25
ATOM     25  O   UNL     1       1.893   1.303  -1.412  1.00  0.00    -0.493 OA
BRANCH  25  26
ATOM     26  C   UNL     1       1.974   2.288  -0.374  1.00  0.00     0.226 C 
ATOM     27  C   UNL     1       1.638   1.662   0.968  1.00  0.00     0.049 C 
ENDBRANCH  25  26
ENDBRANCH  20  25
ENDBRANCH   8  19
ENDBRANCH   5   7
ENDBRANCH   4   5
ENDBRANCH   3   4
ENDBRANCH   2   3
ENDBRANCH   1   2
BRANCH   1  28
ATOM     28  C   UNL     1      -1.777   2.610  -1.028  1.00  0.00     0.202 C 
BRANCH  28  29
ATOM     29  C   UNL     1      -1.651   3.963  -0.316  1.00  0.00     0.261 C 
BRANCH  29  30
ATOM     30  O   UNL     1      -1.618   3.779   1.113  1.00  0.00    -0.460 OA
BRANCH  30  31
ATOM     31  C   UNL     1      -2.667   4.324   1.779  1.00  0.00     0.338 C 
ATOM     32  O   UNL     1      -3.500   5.090   1.329  1.00  0.00    -0.246 OA
BRANCH  31  33
ATOM     33  C   UNL     1      -2.795   3.707   3.117  1.00  0.00     0.060 A 
ATOM     34  C   UNL     1      -4.071   3.271   3.493  1.00  0.00     0.016 A 
ATOM     35  C   UNL     1      -1.723   3.606   4.008  1.00  0.00     0.016 A 
ATOM     36  C   UNL     1      -4.297   2.799   4.783  1.00  0.00     0.010 A 
ATOM     37  C   UNL     1      -1.954   3.133   5.308  1.00  0.00     0.010 A 
ATOM     38  C   UNL     1      -3.251   2.770   5.714  1.00  0.00    -0.014 A 
BRANCH  38  39
ATOM     39  C   UNL     1      -3.570   2.521   7.143  1.00  0.00     0.031 A 
ATOM     40  C   UNL     1      -3.693   3.697   8.077  1.00  0.00     0.074 A 
ATOM     41  C   UNL     1      -3.820   1.277   7.590  1.00  0.00     0.049 A 
ATOM     42  N   UNL     1      -4.000   3.719   9.348  1.00  0.00    -0.248 NA
ATOM     43  C   UNL     1      -3.440   5.026   7.497  1.00  0.00     0.031 C 
ATOM     44  C   UNL     1      -3.768   0.062   6.778  1.00  0.00     0.029 A 
ATOM     45  N   UNL     1      -4.174   0.831   8.839  1.00  0.00    -0.354 N 
ATOM     46  C   UNL     1      -3.978   5.058   9.721  1.00  0.00     0.074 A 
ATOM     47  C   UNL     1      -3.592   5.816   8.550  1.00  0.00     0.031 C 
ATOM     48  C   UNL     1      -4.075  -0.994   7.552  1.00  0.00     0.029 A 
ATOM     49  C   UNL     1      -4.325  -0.533   8.917  1.00  0.00     0.049 A 
ATOM     50  H   UNL     1      -4.307   1.432   9.607  1.00  0.00     0.167 HD
ATOM     51  C   UNL     1      -4.266   5.609  10.924  1.00  0.00     0.037 A 
ATOM     52  C   UNL     1      -4.619  -1.320   9.971  1.00  0.00     0.037 A 
ATOM     53  C   UNL     1      -4.653   4.854  12.087  1.00  0.00     0.049 A 
ATOM     54  C   UNL     1      -4.885  -0.690  11.314  1.00  0.00     0.074 A 
ATOM     55  C   UNL     1      -4.977   5.322  13.349  1.00  0.00     0.029 A 
ATOM     56  N   UNL     1      -4.764   3.473  12.133  1.00  0.00    -0.354 N 
ATOM     57  N   UNL     1      -4.880   0.580  11.644  1.00  0.00    -0.248 NA
ATOM     58  C   UNL     1      -5.203  -1.598  12.425  1.00  0.00     0.031 C 
ATOM     59  C   UNL     1      -5.242   4.220  14.169  1.00  0.00     0.029 A 
ATOM     60  C   UNL     1      -5.131   3.068  13.406  1.00  0.00     0.049 A 
ATOM     61  H   UNL     1      -4.606   2.868  11.372  1.00  0.00     0.167 HD
ATOM     62  C   UNL     1      -5.217   0.624  12.994  1.00  0.00     0.074 A 
ATOM     63  C   UNL     1      -5.430  -0.746  13.415  1.00  0.00     0.031 C 
ATOM     64  C   UNL     1      -5.342   1.700  13.810  1.00  0.00     0.037 A 
BRANCH  51  65
ATOM     65  C   UNL     1      -4.151   7.104  11.047  1.00  0.00     0.058 A 
ATOM     66  C   UNL     1      -5.084   7.968  10.453  1.00  0.00     0.135 A 
ATOM     67  C   UNL     1      -3.107   7.678  11.790  1.00  0.00     0.135 A 
ATOM     68  F   UNL     1      -6.092   7.472   9.717  1.00  0.00    -0.206 F 
ATOM     69  C   UNL     1      -4.970   9.350  10.566  1.00  0.00     0.059 A 
ATOM     70  C   UNL     1      -2.987   9.057  11.937  1.00  0.00     0.059 A 
ATOM     71  F   UNL     1      -2.186   6.898  12.377  1.00  0.00    -0.206 F 
ATOM     72  C   UNL     1      -3.916   9.885  11.308  1.00  0.00     0.060 A 
BRANCH  72  73
ATOM     73  S   UNL     1      -3.776  11.680  11.442  1.00  0.00     0.124 S 
ATOM     74  O   UNL     1      -3.295  12.034  10.110  1.00  0.00    -0.237 OA
ATOM     75  O   UNL     1      -5.146  12.079  11.746  1.00  0.00    -0.237 OA
ATOM     76  O   UNL     1      -2.816  11.867  12.525  1.00  0.00    -0.744 OA
ENDBRANCH  72  73
ENDBRANCH  51  65
BRANCH  52  77
ATOM     77  C   UNL     1      -4.670  -2.796   9.800  1.00  0.00     0.058 A 
ATOM     78  C   UNL     1      -5.883  -3.497   9.863  1.00  0.00     0.135 A 
ATOM     79  C   UNL     1      -3.500  -3.535   9.565  1.00  0.00     0.135 A 
ATOM     80  F   UNL     1      -7.027  -2.837  10.098  1.00  0.00    -0.206 F 
ATOM     81  C   UNL     1      -5.935  -4.879   9.708  1.00  0.00     0.059 A 
ATOM     82  C   UNL     1      -3.528  -4.914   9.383  1.00  0.00     0.059 A 
ATOM     83  F   UNL     1      -2.314  -2.910   9.487  1.00  0.00    -0.206 F 
ATOM     84  C   UNL     1      -4.751  -5.579   9.465  1.00  0.00     0.060 A 
BRANCH  84  85
ATOM     85  S   UNL     1      -4.833  -7.365   9.209  1.00  0.00     0.124 S 
ATOM     86  O   UNL     1      -5.054  -7.846  10.567  1.00  0.00    -0.237 OA
ATOM     87  O   UNL     1      -5.963  -7.492   8.293  1.00  0.00    -0.237 OA
ATOM     88  O   UNL     1      -3.530  -7.679   8.630  1.00  0.00    -0.744 OA
ENDBRANCH  84  85
ENDBRANCH  52  77
BRANCH  64  89
ATOM     89  C   UNL     1      -5.753   1.448  15.234  1.00  0.00     0.058 A 
ATOM     90  C   UNL     1      -4.867   0.894  16.171  1.00  0.00     0.135 A 
ATOM     91  C   UNL     1      -7.035   1.810  15.679  1.00  0.00     0.135 A 
ATOM     92  F   UNL     1      -3.631   0.526  15.796  1.00  0.00    -0.206 F 
ATOM     93  C   UNL     1      -5.245   0.685  17.494  1.00  0.00     0.059 A 
ATOM     94  C   UNL     1      -7.426   1.633  17.003  1.00  0.00     0.059 A 
ATOM     95  F   UNL     1      -7.918   2.355  14.827  1.00  0.00    -0.206 F 
ATOM     96  C   UNL     1      -6.528   1.058  17.900  1.00  0.00     0.060 A 
BRANCH  96  97
ATOM     97  S   UNL     1      -6.998   0.806  19.625  1.00  0.00     0.124 S 
ATOM     98  O   UNL     1      -7.221  -0.635  19.662  1.00  0.00    -0.237 OA
ATOM     99  O   UNL     1      -5.822   1.285  20.345  1.00  0.00    -0.237 OA
ATOM    100  O   UNL     1      -8.194   1.631  19.774  1.00  0.00    -0.744 OA
ENDBRANCH  96  97
ENDBRANCH  64  89
ENDBRANCH  38  39
ENDBRANCH  31  33
ENDBRANCH  30  31
ENDBRANCH  29  30
ENDBRANCH  28  29
ENDBRANCH   1  28
TORSDOF 20
