REMARK SMILES C[C@@H](C(=O)OCCOCCOC(=O)c1ccc(-c2c3nc(c(-c4c(F)cc(S(=O)(=O)[O-])cc4F)c4ccc([nH]4)c(-c4c(F)cc(S(=O)(=O)[O-])cc4F)c4nc(c(-c5c(F)cc(S(=O)(=O)[O-])cc5F)c5ccc2[nH]5)C=C4)C=C3)cc1)c1ccc(C[C@@H]2CCC[C@@H]2O)cc1Br
REMARK SMILES IDX 7 1 6 2 5 3 3 4 4 5 2 6 1 7 80 8 81 9 92 10 82 11 91 12
REMARK SMILES IDX 93 13 83 14 84 15 85 16 86 17 89 18 87 19 88 20 90 21 8 23
REMARK SMILES IDX 9 24 10 25 11 26 12 27 13 28 14 29 15 30 79 31 16 32 78 33
REMARK SMILES IDX 17 34 18 35 19 36 72 37 20 38 77 39 71 40 73 41 21 42 76 43
REMARK SMILES IDX 70 44 69 45 22 47 56 48 35 49 55 50 36 51 39 52 54 53 74 54
REMARK SMILES IDX 37 55 38 56 53 58 75 59 40 60 23 61 24 62 33 63 25 64 26 65
REMARK SMILES IDX 32 66 34 67 27 68 28 69 29 70 30 71 31 72 57 73 58 74 67 75
REMARK SMILES IDX 59 76 60 77 66 78 68 79 61 80 62 81 63 82 64 83 65 84 41 85
REMARK SMILES IDX 42 86 51 87 43 88 44 89 50 90 52 91 45 92 46 93 47 94 48 95
REMARK SMILES IDX 49 96
REMARK H PARENT 90 22 73 46 39 57
REMARK Flexibility Score: inf
ROOT
ATOM      1  C   UNL     1      -7.901   4.976   7.406  1.00  0.00     0.202 C 
ENDROOT
BRANCH   1   2
ATOM      2  C   UNL     1      -9.390   4.840   7.068  1.00  0.00     0.261 C 
BRANCH   2   3
ATOM      3  O   UNL     1      -9.868   3.486   7.121  1.00  0.00    -0.463 OA
BRANCH   3   4
ATOM      4  C   UNL     1      -9.931   2.871   5.906  1.00  0.00     0.313 C 
ATOM      5  O   UNL     1      -9.642   3.438   4.858  1.00  0.00    -0.252 OA
BRANCH   4   6
ATOM      6  C   UNL     1     -10.402   1.401   5.997  1.00  0.00     0.127 C 
ATOM      7  C   UNL     1     -10.225   0.814   7.410  1.00  0.00     0.025 C 
BRANCH   6   8
ATOM      8  C   UNL     1      -9.730   0.575   4.886  1.00  0.00    -0.020 A 
ATOM      9  C   UNL     1      -8.719  -0.358   5.175  1.00  0.00     0.006 A 
ATOM     10  C   UNL     1     -10.018   0.799   3.524  1.00  0.00     0.022 A 
ATOM     11  C   UNL     1      -7.973  -0.969   4.158  1.00  0.00     0.004 A 
ATOM     12  C   UNL     1      -9.209   0.253   2.517  1.00  0.00     0.019 A 
ATOM     13  Br  UNL     1     -11.531   1.799   2.934  1.00  0.00    -0.050 Br
ATOM     14  C   UNL     1      -8.149  -0.609   2.822  1.00  0.00    -0.047 A 
BRANCH  14  15
ATOM     15  C   UNL     1      -7.293  -1.169   1.711  1.00  0.00     0.041 C 
BRANCH  15  16
ATOM     16  C   UNL     1      -5.771  -0.890   1.672  1.00  0.00     0.022 C 
ATOM     17  C   UNL     1      -4.956  -1.521   2.806  1.00  0.00     0.007 C 
ATOM     18  C   UNL     1      -5.309   0.570   1.694  1.00  0.00     0.117 C 
ATOM     19  C   UNL     1      -4.638  -0.397   3.798  1.00  0.00     0.003 C 
ATOM     20  C   UNL     1      -5.144   0.898   3.170  1.00  0.00     0.032 C 
BRANCH  18  21
ATOM     21  O   UNL     1      -6.191   1.459   1.048  1.00  0.00    -0.393 OA
ATOM     22  H   UNL     1      -7.059   1.426   1.480  1.00  0.00     0.210 HD
ENDBRANCH  18  21
ENDBRANCH  15  16
ENDBRANCH  14  15
ENDBRANCH   6   8
ENDBRANCH   4   6
ENDBRANCH   3   4
ENDBRANCH   2   3
ENDBRANCH   1   2
BRANCH   1  23
ATOM     23  O   UNL     1      -6.968   4.220   6.639  1.00  0.00    -0.374 OA
BRANCH  23  24
ATOM     24  C   UNL     1      -6.811   2.838   6.957  1.00  0.00     0.202 C 
BRANCH  24  25
ATOM     25  C   UNL     1      -6.064   2.500   8.253  1.00  0.00     0.261 C 
BRANCH  25  26
ATOM     26  O   UNL     1      -6.808   2.889   9.423  1.00  0.00    -0.460 OA
BRANCH  26  27
ATOM     27  C   UNL     1      -6.223   3.857  10.170  1.00  0.00     0.338 C 
ATOM     28  O   UNL     1      -5.107   4.335  10.011  1.00  0.00    -0.246 OA
BRANCH  27  29
ATOM     29  C   UNL     1      -7.196   4.429  11.119  1.00  0.00     0.060 A 
ATOM     30  C   UNL     1      -7.377   5.818  11.097  1.00  0.00     0.016 A 
ATOM     31  C   UNL     1      -7.863   3.642  12.060  1.00  0.00     0.016 A 
ATOM     32  C   UNL     1      -8.181   6.434  12.053  1.00  0.00     0.010 A 
ATOM     33  C   UNL     1      -8.661   4.265  13.028  1.00  0.00     0.010 A 
ATOM     34  C   UNL     1      -8.792   5.666  13.051  1.00  0.00    -0.014 A 
BRANCH  34  35
ATOM     35  C   UNL     1      -9.425   6.348  14.207  1.00  0.00     0.031 A 
ATOM     36  C   UNL     1      -8.645   6.483  15.487  1.00  0.00     0.074 A 
ATOM     37  C   UNL     1     -10.658   6.877  14.106  1.00  0.00     0.049 A 
ATOM     38  N   UNL     1      -9.004   7.019  16.624  1.00  0.00    -0.248 NA
ATOM     39  C   UNL     1      -7.276   5.940  15.482  1.00  0.00     0.031 C 
ATOM     40  C   UNL     1     -11.494   6.845  12.908  1.00  0.00     0.029 A 
ATOM     41  N   UNL     1     -11.421   7.541  15.033  1.00  0.00    -0.354 N 
ATOM     42  C   UNL     1      -7.910   6.878  17.471  1.00  0.00     0.074 A 
ATOM     43  C   UNL     1      -6.886   6.176  16.726  1.00  0.00     0.031 C 
ATOM     44  C   UNL     1     -12.664   7.451  13.177  1.00  0.00     0.029 A 
ATOM     45  C   UNL     1     -12.668   7.888  14.573  1.00  0.00     0.049 A 
ATOM     46  H   UNL     1     -11.105   7.749  15.942  1.00  0.00     0.167 HD
ATOM     47  C   UNL     1      -7.767   7.303  18.749  1.00  0.00     0.037 A 
ATOM     48  C   UNL     1     -13.702   8.472  15.211  1.00  0.00     0.037 A 
ATOM     49  C   UNL     1      -8.789   7.999  19.486  1.00  0.00     0.049 A 
ATOM     50  C   UNL     1     -13.544   8.882  16.653  1.00  0.00     0.074 A 
ATOM     51  C   UNL     1      -8.739   8.478  20.784  1.00  0.00     0.029 A 
ATOM     52  N   UNL     1     -10.048   8.310  18.994  1.00  0.00    -0.354 N 
ATOM     53  N   UNL     1     -12.499   8.755  17.436  1.00  0.00    -0.248 NA
ATOM     54  C   UNL     1     -14.703   9.517  17.296  1.00  0.00     0.031 C 
ATOM     55  C   UNL     1      -9.983   9.040  21.090  1.00  0.00     0.029 A 
ATOM     56  C   UNL     1     -10.791   8.956  19.967  1.00  0.00     0.049 A 
ATOM     57  H   UNL     1     -10.366   8.103  18.085  1.00  0.00     0.167 HD
ATOM     58  C   UNL     1     -12.867   9.316  18.656  1.00  0.00     0.074 A 
ATOM     59  C   UNL     1     -14.226   9.792  18.503  1.00  0.00     0.031 C 
ATOM     60  C   UNL     1     -12.143   9.429  19.798  1.00  0.00     0.037 A 
BRANCH  47  61
ATOM     61  C   UNL     1      -6.464   7.004  19.437  1.00  0.00     0.058 A 
ATOM     62  C   UNL     1      -5.279   7.677  19.099  1.00  0.00     0.135 A 
ATOM     63  C   UNL     1      -6.404   6.048  20.464  1.00  0.00     0.135 A 
ATOM     64  F   UNL     1      -5.277   8.587  18.112  1.00  0.00    -0.206 F 
ATOM     65  C   UNL     1      -4.075   7.393  19.735  1.00  0.00     0.059 A 
ATOM     66  C   UNL     1      -5.215   5.767  21.131  1.00  0.00     0.059 A 
ATOM     67  F   UNL     1      -7.507   5.374  20.825  1.00  0.00    -0.206 F 
ATOM     68  C   UNL     1      -4.053   6.434  20.749  1.00  0.00     0.060 A 
BRANCH  68  69
ATOM     69  S   UNL     1      -2.482   6.073  21.563  1.00  0.00     0.124 S 
ATOM     70  O   UNL     1      -1.788   5.310  20.529  1.00  0.00    -0.237 OA
ATOM     71  O   UNL     1      -1.953   7.407  21.829  1.00  0.00    -0.237 OA
ATOM     72  O   UNL     1      -2.878   5.312  22.744  1.00  0.00    -0.744 OA
ENDBRANCH  68  69
ENDBRANCH  47  61
BRANCH  48  73
ATOM     73  C   UNL     1     -14.986   8.690  14.493  1.00  0.00     0.058 A 
ATOM     74  C   UNL     1     -15.416   9.978  14.145  1.00  0.00     0.135 A 
ATOM     75  C   UNL     1     -15.805   7.607  14.135  1.00  0.00     0.135 A 
ATOM     76  F   UNL     1     -14.674  11.046  14.476  1.00  0.00    -0.206 F 
ATOM     77  C   UNL     1     -16.618  10.188  13.475  1.00  0.00     0.059 A 
ATOM     78  C   UNL     1     -16.998   7.790  13.444  1.00  0.00     0.059 A 
ATOM     79  F   UNL     1     -15.433   6.354  14.438  1.00  0.00    -0.206 F 
ATOM     80  C   UNL     1     -17.400   9.086  13.125  1.00  0.00     0.060 A 
BRANCH  80  81
ATOM     81  S   UNL     1     -18.930   9.363  12.206  1.00  0.00     0.124 S 
ATOM     82  O   UNL     1     -19.803   9.899  13.244  1.00  0.00    -0.237 OA
ATOM     83  O   UNL     1     -18.504  10.309  11.179  1.00  0.00    -0.237 OA
ATOM     84  O   UNL     1     -19.273   8.031  11.717  1.00  0.00    -0.744 OA
ENDBRANCH  80  81
ENDBRANCH  48  73
BRANCH  60  85
ATOM     85  C   UNL     1     -12.792  10.120  20.966  1.00  0.00     0.058 A 
ATOM     86  C   UNL     1     -13.801   9.503  21.721  1.00  0.00     0.135 A 
ATOM     87  C   UNL     1     -12.357  11.393  21.369  1.00  0.00     0.135 A 
ATOM     88  F   UNL     1     -14.256   8.288  21.376  1.00  0.00    -0.206 F 
ATOM     89  C   UNL     1     -14.373  10.133  22.822  1.00  0.00     0.059 A 
ATOM     90  C   UNL     1     -12.896  12.031  22.481  1.00  0.00     0.059 A 
ATOM     91  F   UNL     1     -11.386  12.023  20.688  1.00  0.00    -0.206 F 
ATOM     92  C   UNL     1     -13.912  11.398  23.195  1.00  0.00     0.060 A 
BRANCH  92  93
ATOM     93  S   UNL     1     -14.638  12.191  24.646  1.00  0.00     0.124 S 
ATOM     94  O   UNL     1     -15.936  12.613  24.132  1.00  0.00    -0.237 OA
ATOM     95  O   UNL     1     -14.664  11.102  25.619  1.00  0.00    -0.237 OA
ATOM     96  O   UNL     1     -13.700  13.269  24.948  1.00  0.00    -0.744 OA
ENDBRANCH  92  93
ENDBRANCH  60  85
ENDBRANCH  34  35
ENDBRANCH  27  29
ENDBRANCH  26  27
ENDBRANCH  25  26
ENDBRANCH  24  25
ENDBRANCH  23  24
ENDBRANCH   1  23
TORSDOF 21
