REMARK SMILES COc1cc(/C=N/c2cccc(F)c2)ccc1OCc1cccc(C(=O)OCCOCCOC(=O)c2ccc(-c3c4nc(c(-c5c(F)cc(S(=O)(=O)[O-])cc5F)c5ccc([nH]5)c(-c5c(F)cc(S(=O)(=O)[O-])cc5F)c5nc(c(-c6c(F)cc(S(=O)(=O)[O-])cc6F)c6ccc3[nH]6)C=C5)C=C4)cc2)c1
REMARK SMILES IDX 29 1 28 2 27 3 25 4 26 5 24 6 20 7 21 8 102 9 22 10 23 11
REMARK SMILES IDX 19 12 18 13 17 14 3 15 4 16 5 17 16 18 15 19 2 20 1 21 6 22
REMARK SMILES IDX 7 23 8 24 9 25 14 26 10 27 12 28 11 29 13 30 30 31 31 32
REMARK SMILES IDX 32 33 33 34 34 35 35 36 36 37 37 38 101 39 38 40 100 41
REMARK SMILES IDX 39 42 40 43 41 44 94 45 42 46 99 47 93 48 95 49 43 50 98 51
REMARK SMILES IDX 92 52 91 53 44 55 78 56 57 57 77 58 58 59 61 60 76 61 96 62
REMARK SMILES IDX 59 63 60 64 75 66 97 67 62 68 45 69 46 70 55 71 47 72 48 73
REMARK SMILES IDX 54 74 56 75 49 76 50 77 51 78 52 79 53 80 79 81 80 82 89 83
REMARK SMILES IDX 81 84 82 85 88 86 90 87 83 88 84 89 85 90 86 91 87 92 63 93
REMARK SMILES IDX 64 94 73 95 65 96 66 97 72 98 74 99 67 100 68 101 69 102
REMARK SMILES IDX 70 103 71 104
REMARK H PARENT 95 54 61 65
REMARK Flexibility Score: inf
ROOT
ATOM      1  C   UNL     1      -1.032  -4.206   4.383  1.00  0.00     0.202 C 
ENDROOT
BRANCH   1   2
ATOM      2  C   UNL     1      -1.505  -3.708   3.013  1.00  0.00     0.261 C 
BRANCH   2   3
ATOM      3  O   UNL     1      -0.639  -2.688   2.486  1.00  0.00    -0.460 OA
BRANCH   3   4
ATOM      4  C   UNL     1      -1.237  -1.496   2.252  1.00  0.00     0.338 C 
ATOM      5  O   UNL     1      -2.435  -1.248   2.304  1.00  0.00    -0.246 OA
BRANCH   4   6
ATOM      6  C   UNL     1      -0.218  -0.437   2.095  1.00  0.00     0.060 A 
ATOM      7  C   UNL     1       1.793   0.470   1.096  1.00  0.00    -0.010 A 
ATOM      8  C   UNL     1       1.563   1.679   1.774  1.00  0.00     0.007 A 
ATOM      9  C   UNL     1       0.932  -0.617   1.323  1.00  0.00     0.023 A 
ATOM     10  C   UNL     1       0.434   1.843   2.573  1.00  0.00     0.001 A 
ATOM     11  C   UNL     1      -0.470   0.795   2.712  1.00  0.00     0.016 A 
BRANCH   7  12
ATOM     12  C   UNL     1       2.902   0.350   0.066  1.00  0.00     0.265 C 
BRANCH  12  13
ATOM     13  O   UNL     1       3.194   1.560  -0.650  1.00  0.00    -0.485 OA
BRANCH  13  14
ATOM     14  C   UNL     1       2.204   2.207  -1.347  1.00  0.00     0.161 A 
ATOM     15  C   UNL     1       0.997   1.680  -1.836  1.00  0.00     0.161 A 
ATOM     16  C   UNL     1       0.087   2.533  -2.477  1.00  0.00     0.060 A 
ATOM     17  C   UNL     1       0.369   3.895  -2.628  1.00  0.00    -0.003 A 
ATOM     18  C   UNL     1       2.485   3.571  -1.533  1.00  0.00     0.051 A 
ATOM     19  C   UNL     1       1.572   4.418  -2.163  1.00  0.00     0.014 A 
BRANCH  15  20
ATOM     20  O   UNL     1       0.770   0.331  -1.752  1.00  0.00    -0.493 OA
ATOM     21  C   UNL     1      -0.593  -0.051  -1.568  1.00  0.00     0.278 C 
ENDBRANCH  15  20
BRANCH  17  22
ATOM     22  C   UNL     1      -0.572   4.778  -3.347  1.00  0.00     0.120 C 
ATOM     23  N   UNL     1      -1.704   4.336  -3.794  1.00  0.00    -0.256 NA
BRANCH  23  24
ATOM     24  C   UNL     1      -2.490   5.195  -4.575  1.00  0.00     0.066 A 
ATOM     25  C   UNL     1      -3.831   5.396  -4.233  1.00  0.00     0.028 A 
ATOM     26  C   UNL     1      -1.999   5.758  -5.756  1.00  0.00     0.067 A 
ATOM     27  C   UNL     1      -4.672   6.158  -5.052  1.00  0.00     0.005 A 
ATOM     28  C   UNL     1      -2.838   6.519  -6.562  1.00  0.00     0.125 A 
ATOM     29  C   UNL     1      -4.170   6.722  -6.223  1.00  0.00     0.039 A 
ATOM     30  F   UNL     1      -2.357   7.051  -7.694  1.00  0.00    -0.207 F 
ENDBRANCH  23  24
ENDBRANCH  17  22
ENDBRANCH  13  14
ENDBRANCH  12  13
ENDBRANCH   7  12
ENDBRANCH   4   6
ENDBRANCH   3   4
ENDBRANCH   2   3
ENDBRANCH   1   2
BRANCH   1  31
ATOM     31  O   UNL     1      -0.995  -3.261   5.453  1.00  0.00    -0.374 OA
BRANCH  31  32
ATOM     32  C   UNL     1       0.004  -2.245   5.415  1.00  0.00     0.202 C 
BRANCH  32  33
ATOM     33  C   UNL     1       1.458  -2.645   5.701  1.00  0.00     0.261 C 
BRANCH  33  34
ATOM     34  O   UNL     1       1.957  -3.675   4.835  1.00  0.00    -0.460 OA
BRANCH  34  35
ATOM     35  C   UNL     1       2.173  -4.869   5.441  1.00  0.00     0.338 C 
ATOM     36  O   UNL     1       2.034  -5.132   6.629  1.00  0.00    -0.246 OA
BRANCH  35  37
ATOM     37  C   UNL     1       2.454  -5.901   4.429  1.00  0.00     0.060 A 
ATOM     38  C   UNL     1       1.598  -7.009   4.367  1.00  0.00     0.016 A 
ATOM     39  C   UNL     1       3.569  -5.815   3.593  1.00  0.00     0.016 A 
ATOM     40  C   UNL     1       1.863  -8.045   3.474  1.00  0.00     0.010 A 
ATOM     41  C   UNL     1       3.841  -6.864   2.709  1.00  0.00     0.010 A 
ATOM     42  C   UNL     1       3.000  -7.990   2.656  1.00  0.00    -0.014 A 
BRANCH  42  43
ATOM     43  C   UNL     1       3.354  -9.143   1.796  1.00  0.00     0.031 A 
ATOM     44  C   UNL     1       4.382 -10.131   2.268  1.00  0.00     0.074 A 
ATOM     45  C   UNL     1       2.762  -9.299   0.598  1.00  0.00     0.049 A 
ATOM     46  N   UNL     1       4.885 -11.162   1.643  1.00  0.00    -0.248 NA
ATOM     47  C   UNL     1       4.910  -9.929   3.626  1.00  0.00     0.031 C 
ATOM     48  C   UNL     1       1.721  -8.429   0.053  1.00  0.00     0.029 A 
ATOM     49  N   UNL     1       2.964 -10.238  -0.382  1.00  0.00    -0.354 N 
ATOM     50  C   UNL     1       5.792 -11.735   2.527  1.00  0.00     0.074 A 
ATOM     51  C   UNL     1       5.786 -10.920   3.724  1.00  0.00     0.031 C 
ATOM     52  C   UNL     1       1.386  -8.866  -1.173  1.00  0.00     0.029 A 
ATOM     53  C   UNL     1       2.215 -10.020  -1.513  1.00  0.00     0.049 A 
ATOM     54  H   UNL     1       3.586 -10.995  -0.283  1.00  0.00     0.167 HD
ATOM     55  C   UNL     1       6.554 -12.842   2.356  1.00  0.00     0.037 A 
ATOM     56  C   UNL     1       2.222 -10.660  -2.699  1.00  0.00     0.037 A 
ATOM     57  C   UNL     1       6.562 -13.640   1.158  1.00  0.00     0.049 A 
ATOM     58  C   UNL     1       3.155 -11.823  -2.905  1.00  0.00     0.074 A 
ATOM     59  C   UNL     1       7.274 -14.797   0.898  1.00  0.00     0.029 A 
ATOM     60  N   UNL     1       5.836 -13.352   0.011  1.00  0.00    -0.354 N 
ATOM     61  N   UNL     1       3.986 -12.373  -2.052  1.00  0.00    -0.248 NA
ATOM     62  C   UNL     1       3.163 -12.443  -4.238  1.00  0.00     0.031 C 
ATOM     63  C   UNL     1       7.019 -15.180  -0.424  1.00  0.00     0.029 A 
ATOM     64  C   UNL     1       6.115 -14.286  -0.974  1.00  0.00     0.049 A 
ATOM     65  H   UNL     1       5.215 -12.595  -0.089  1.00  0.00     0.167 HD
ATOM     66  C   UNL     1       4.609 -13.409  -2.741  1.00  0.00     0.074 A 
ATOM     67  C   UNL     1       4.047 -13.419  -4.076  1.00  0.00     0.031 C 
ATOM     68  C   UNL     1       5.559 -14.273  -2.305  1.00  0.00     0.037 A 
BRANCH  55  69
ATOM     69  C   UNL     1       7.465 -13.234   3.485  1.00  0.00     0.058 A 
ATOM     70  C   UNL     1       6.970 -13.793   4.673  1.00  0.00     0.135 A 
ATOM     71  C   UNL     1       8.854 -13.063   3.370  1.00  0.00     0.135 A 
ATOM     72  F   UNL     1       5.649 -13.964   4.840  1.00  0.00    -0.206 F 
ATOM     73  C   UNL     1       7.816 -14.138   5.722  1.00  0.00     0.059 A 
ATOM     74  C   UNL     1       9.722 -13.422   4.397  1.00  0.00     0.059 A 
ATOM     75  F   UNL     1       9.380 -12.532   2.255  1.00  0.00    -0.206 F 
ATOM     76  C   UNL     1       9.191 -13.943   5.577  1.00  0.00     0.060 A 
BRANCH  76  77
ATOM     77  S   UNL     1      10.276 -14.377   6.953  1.00  0.00     0.124 S 
ATOM     78  O   UNL     1      10.012 -13.285   7.886  1.00  0.00    -0.237 OA
ATOM     79  O   UNL     1       9.769 -15.686   7.352  1.00  0.00    -0.237 OA
ATOM     80  O   UNL     1      11.605 -14.380   6.350  1.00  0.00    -0.744 OA
ENDBRANCH  76  77
ENDBRANCH  55  69
BRANCH  56  81
ATOM     81  C   UNL     1       1.332 -10.191  -3.793  1.00  0.00     0.058 A 
ATOM     82  C   UNL     1       0.219 -10.944  -4.191  1.00  0.00     0.135 A 
ATOM     83  C   UNL     1       1.565  -8.969  -4.444  1.00  0.00     0.135 A 
ATOM     84  F   UNL     1      -0.036 -12.124  -3.607  1.00  0.00    -0.206 F 
ATOM     85  C   UNL     1      -0.637 -10.501  -5.195  1.00  0.00     0.059 A 
ATOM     86  C   UNL     1       0.712  -8.495  -5.436  1.00  0.00     0.059 A 
ATOM     87  F   UNL     1       2.615  -8.210  -4.094  1.00  0.00    -0.206 F 
ATOM     88  C   UNL     1      -0.385  -9.271  -5.807  1.00  0.00     0.060 A 
BRANCH  88  89
ATOM     89  S   UNL     1      -1.544  -8.672  -7.056  1.00  0.00     0.124 S 
ATOM     90  O   UNL     1      -1.218  -9.525  -8.192  1.00  0.00    -0.237 OA
ATOM     91  O   UNL     1      -2.834  -8.918  -6.419  1.00  0.00    -0.237 OA
ATOM     92  O   UNL     1      -1.183  -7.264  -7.197  1.00  0.00    -0.744 OA
ENDBRANCH  88  89
ENDBRANCH  56  81
BRANCH  68  93
ATOM     93  C   UNL     1       6.062 -15.300  -3.281  1.00  0.00     0.058 A 
ATOM     94  C   UNL     1       6.946 -14.954  -4.314  1.00  0.00     0.135 A 
ATOM     95  C   UNL     1       5.713 -16.653  -3.141  1.00  0.00     0.135 A 
ATOM     96  F   UNL     1       7.302 -13.673  -4.497  1.00  0.00    -0.206 F 
ATOM     97  C   UNL     1       7.462 -15.913  -5.180  1.00  0.00     0.059 A 
ATOM     98  C   UNL     1       6.234 -17.632  -3.981  1.00  0.00     0.059 A 
ATOM     99  F   UNL     1       4.875 -17.038  -2.164  1.00  0.00    -0.206 F 
ATOM    100  C   UNL     1       7.105 -17.251  -5.002  1.00  0.00     0.060 A 
BRANCH 100 101
ATOM    101  S   UNL     1       7.825 -18.492  -6.098  1.00  0.00     0.124 S 
ATOM    102  O   UNL     1       7.090 -18.255  -7.335  1.00  0.00    -0.237 OA
ATOM    103  O   UNL     1       9.235 -18.113  -6.116  1.00  0.00    -0.237 OA
ATOM    104  O   UNL     1       7.531 -19.753  -5.424  1.00  0.00    -0.744 OA
ENDBRANCH 100 101
ENDBRANCH  68  93
ENDBRANCH  42  43
ENDBRANCH  35  37
ENDBRANCH  34  35
ENDBRANCH  33  34
ENDBRANCH  32  33
ENDBRANCH  31  32
ENDBRANCH   1  31
TORSDOF 23
