REMARK SMILES CC(C)c1ccc2c(c1)c(SC(C)(C)C)c(CC(C)(C)C(=O)OCCOCCOC(=O)c1ccc(-c3c4nc(c(-c5c(F)cc(S(=O)(=O)[O-])cc5F)c5ccc([nH]5)c(-c5c(F)cc(S(=O)(=O)[O-])cc5F)c5nc(c(-c6c(F)cc(S(=O)(=O)[O-])cc6F)c6ccc3[nH]6)C=C5)C=C4)cc1)n2Cc1ccc(Cl)cc1
REMARK SMILES IDX 25 1 24 2 23 3 21 4 22 5 18 6 19 7 20 8 17 9 16 10 4 11 5 12
REMARK SMILES IDX 9 13 6 14 8 15 7 16 10 17 98 18 2 19 1 20 3 21 11 22 12 23
REMARK SMILES IDX 13 24 14 25 15 26 99 27 100 28 101 29 106 30 102 31 105 32
REMARK SMILES IDX 103 33 104 34 26 35 27 36 28 37 29 38 30 39 31 40 32 41
REMARK SMILES IDX 33 42 97 43 34 44 96 45 35 46 36 47 37 48 90 49 38 50 95 51
REMARK SMILES IDX 89 52 91 53 39 54 94 55 88 56 87 57 40 59 74 60 53 61 73 62
REMARK SMILES IDX 54 63 57 64 72 65 92 66 55 67 56 68 71 70 93 71 58 72 41 73
REMARK SMILES IDX 42 74 51 75 43 76 44 77 50 78 52 79 45 80 46 81 47 82 48 83
REMARK SMILES IDX 49 84 75 85 76 86 85 87 77 88 78 89 84 90 86 91 79 92 80 93
REMARK SMILES IDX 81 94 82 95 83 96 59 97 60 98 69 99 61 100 62 101 68 102
REMARK SMILES IDX 70 103 63 104 64 105 65 106 66 107 67 108
REMARK H PARENT 91 58 57 69
REMARK Flexibility Score: inf
ROOT
ATOM      1  C   UNL     1      -6.794   0.668   3.789  1.00  0.00     0.202 C 
ENDROOT
BRANCH   1   2
ATOM      2  C   UNL     1      -5.439   1.292   3.424  1.00  0.00     0.261 C 
BRANCH   2   3
ATOM      3  O   UNL     1      -5.602   2.421   2.582  1.00  0.00    -0.463 OA
BRANCH   3   4
ATOM      4  C   UNL     1      -5.721   2.024   1.292  1.00  0.00     0.311 C 
ATOM      5  O   UNL     1      -5.618   0.858   0.950  1.00  0.00    -0.252 OA
BRANCH   4   6
ATOM      6  C   UNL     1      -5.991   3.195   0.363  1.00  0.00     0.068 C 
ATOM      7  C   UNL     1      -4.712   4.027   0.591  1.00  0.00     0.024 C 
ATOM      8  C   UNL     1      -7.210   4.047   0.785  1.00  0.00     0.024 C 
BRANCH   6   9
ATOM      9  C   UNL     1      -6.343   2.563  -1.034  1.00  0.00     0.073 C 
BRANCH   9  10
ATOM     10  C   UNL     1      -5.206   1.875  -1.685  1.00  0.00     0.034 A 
ATOM     11  C   UNL     1      -0.933   0.112  -1.645  1.00  0.00    -0.045 A 
ATOM     12  C   UNL     1      -1.674  -1.050  -1.422  1.00  0.00     0.006 A 
ATOM     13  C   UNL     1      -1.619   1.315  -1.938  1.00  0.00     0.015 A 
ATOM     14  C   UNL     1      -3.069  -1.041  -1.461  1.00  0.00     0.027 A 
ATOM     15  C   UNL     1      -3.041   1.369  -1.965  1.00  0.00     0.014 A 
ATOM     16  C   UNL     1      -3.729   0.177  -1.697  1.00  0.00     0.050 A 
ATOM     17  C   UNL     1      -4.023   2.426  -2.141  1.00  0.00     0.037 A 
ATOM     18  N   UNL     1      -5.080   0.483  -1.695  1.00  0.00    -0.339 N 
BRANCH  11  19
ATOM     19  C   UNL     1       0.585   0.108  -1.511  1.00  0.00     0.013 C 
ATOM     20  C   UNL     1       1.016   0.023  -0.042  1.00  0.00     0.012 C 
ATOM     21  C   UNL     1       1.245  -1.022  -2.312  1.00  0.00     0.012 C 
ENDBRANCH  11  19
BRANCH  17  22
ATOM     22  S   UNL     1      -3.565   4.104  -2.462  1.00  0.00    -0.118 SA
BRANCH  22  23
ATOM     23  C   UNL     1      -4.892   5.374  -2.815  1.00  0.00     0.012 C 
ATOM     24  C   UNL     1      -5.522   5.082  -4.179  1.00  0.00     0.023 C 
ATOM     25  C   UNL     1      -6.046   5.782  -1.870  1.00  0.00     0.023 C 
ATOM     26  C   UNL     1      -4.059   6.684  -2.868  1.00  0.00     0.023 C 
ENDBRANCH  22  23
ENDBRANCH  17  22
BRANCH  18  27
ATOM     27  C   UNL     1      -6.141  -0.535  -1.878  1.00  0.00     0.158 C 
BRANCH  27  28
ATOM     28  C   UNL     1      -7.019  -0.989  -0.720  1.00  0.00    -0.028 A 
ATOM     29  C   UNL     1      -8.384  -0.644  -0.703  1.00  0.00     0.007 A 
ATOM     30  C   UNL     1      -6.553  -1.843   0.299  1.00  0.00     0.007 A 
ATOM     31  C   UNL     1      -9.245  -1.109   0.302  1.00  0.00     0.021 A 
ATOM     32  C   UNL     1      -7.414  -2.310   1.308  1.00  0.00     0.021 A 
ATOM     33  C   UNL     1      -8.755  -1.938   1.307  1.00  0.00     0.041 A 
ATOM     34  Cl  UNL     1      -9.805  -2.455   2.572  1.00  0.00    -0.084 Cl
ENDBRANCH  27  28
ENDBRANCH  18  27
ENDBRANCH   9  10
ENDBRANCH   6   9
ENDBRANCH   4   6
ENDBRANCH   3   4
ENDBRANCH   2   3
ENDBRANCH   1   2
BRANCH   1  35
ATOM     35  O   UNL     1      -7.827   0.425   2.835  1.00  0.00    -0.374 OA
BRANCH  35  36
ATOM     36  C   UNL     1      -8.436   1.588   2.281  1.00  0.00     0.202 C 
BRANCH  36  37
ATOM     37  C   UNL     1      -9.883   1.884   2.666  1.00  0.00     0.261 C 
BRANCH  37  38
ATOM     38  O   UNL     1      -9.857   2.871   3.718  1.00  0.00    -0.460 OA
BRANCH  38  39
ATOM     39  C   UNL     1     -10.208   2.377   4.933  1.00  0.00     0.338 C 
ATOM     40  O   UNL     1     -11.228   1.782   5.183  1.00  0.00    -0.246 OA
BRANCH  39  41
ATOM     41  C   UNL     1      -8.992   2.399   5.784  1.00  0.00     0.060 A 
ATOM     42  C   UNL     1      -8.032   3.417   5.681  1.00  0.00     0.016 A 
ATOM     43  C   UNL     1      -8.701   1.204   6.465  1.00  0.00     0.016 A 
ATOM     44  C   UNL     1      -6.753   3.188   6.188  1.00  0.00     0.010 A 
ATOM     45  C   UNL     1      -7.414   0.970   6.952  1.00  0.00     0.010 A 
ATOM     46  C   UNL     1      -6.426   1.943   6.778  1.00  0.00    -0.014 A 
BRANCH  46  47
ATOM     47  C   UNL     1      -5.139   1.842   7.480  1.00  0.00     0.031 A 
ATOM     48  C   UNL     1      -5.190   2.748   8.654  1.00  0.00     0.074 A 
ATOM     49  C   UNL     1      -4.090   1.007   7.291  1.00  0.00     0.049 A 
ATOM     50  N   UNL     1      -4.573   3.870   8.810  1.00  0.00    -0.248 NA
ATOM     51  C   UNL     1      -6.256   2.497   9.642  1.00  0.00     0.031 C 
ATOM     52  C   UNL     1      -3.994  -0.149   6.397  1.00  0.00     0.029 A 
ATOM     53  N   UNL     1      -2.881   0.973   7.945  1.00  0.00    -0.354 N 
ATOM     54  C   UNL     1      -5.003   4.338  10.046  1.00  0.00     0.074 A 
ATOM     55  C   UNL     1      -6.190   3.601  10.383  1.00  0.00     0.031 C 
ATOM     56  C   UNL     1      -2.899  -0.882   6.715  1.00  0.00     0.029 A 
ATOM     57  C   UNL     1      -2.151  -0.201   7.756  1.00  0.00     0.049 A 
ATOM     58  H   UNL     1      -2.557   1.718   8.501  1.00  0.00     0.167 HD
ATOM     59  C   UNL     1      -4.170   5.050  10.847  1.00  0.00     0.037 A 
ATOM     60  C   UNL     1      -1.045  -0.604   8.441  1.00  0.00     0.037 A 
ATOM     61  C   UNL     1      -3.030   5.535  10.119  1.00  0.00     0.049 A 
ATOM     62  C   UNL     1      -0.416   0.605   9.022  1.00  0.00     0.074 A 
ATOM     63  C   UNL     1      -2.768   6.547   9.223  1.00  0.00     0.029 A 
ATOM     64  N   UNL     1      -2.017   4.622  10.013  1.00  0.00    -0.354 N 
ATOM     65  N   UNL     1       0.139   1.546   8.311  1.00  0.00    -0.248 NA
ATOM     66  C   UNL     1      -0.661   0.938  10.422  1.00  0.00     0.031 C 
ATOM     67  C   UNL     1      -1.627   6.134   8.472  1.00  0.00     0.029 A 
ATOM     68  C   UNL     1      -1.203   4.896   8.947  1.00  0.00     0.049 A 
ATOM     69  H   UNL     1      -1.889   3.863  10.627  1.00  0.00     0.167 HD
ATOM     70  C   UNL     1      -0.085   2.695   9.039  1.00  0.00     0.074 A 
ATOM     71  C   UNL     1      -0.410   2.248  10.386  1.00  0.00     0.031 C 
ATOM     72  C   UNL     1      -0.323   3.881   8.412  1.00  0.00     0.037 A 
BRANCH  59  73
ATOM     73  C   UNL     1      -4.137   4.870  12.345  1.00  0.00     0.058 A 
ATOM     74  C   UNL     1      -3.441   5.796  13.142  1.00  0.00     0.135 A 
ATOM     75  C   UNL     1      -4.536   3.679  12.999  1.00  0.00     0.135 A 
ATOM     76  F   UNL     1      -2.972   6.935  12.609  1.00  0.00    -0.206 F 
ATOM     77  C   UNL     1      -3.156   5.552  14.487  1.00  0.00     0.059 A 
ATOM     78  C   UNL     1      -4.319   3.444  14.348  1.00  0.00     0.059 A 
ATOM     79  F   UNL     1      -5.064   2.643  12.337  1.00  0.00    -0.206 F 
ATOM     80  C   UNL     1      -3.604   4.373  15.081  1.00  0.00     0.060 A 
BRANCH  80  81
ATOM     81  S   UNL     1      -3.208   4.036  16.804  1.00  0.00     0.124 S 
ATOM     82  O   UNL     1      -1.764   3.843  16.741  1.00  0.00    -0.237 OA
ATOM     83  O   UNL     1      -3.664   5.257  17.460  1.00  0.00    -0.237 OA
ATOM     84  O   UNL     1      -3.994   2.842  17.102  1.00  0.00    -0.744 OA
ENDBRANCH  80  81
ENDBRANCH  59  73
BRANCH  60  85
ATOM     85  C   UNL     1      -0.634  -1.967   8.896  1.00  0.00     0.058 A 
ATOM     86  C   UNL     1       0.630  -2.180   9.488  1.00  0.00     0.135 A 
ATOM     87  C   UNL     1      -1.579  -2.991   9.084  1.00  0.00     0.135 A 
ATOM     88  F   UNL     1       1.603  -1.265   9.355  1.00  0.00    -0.206 F 
ATOM     89  C   UNL     1       0.901  -3.282  10.307  1.00  0.00     0.059 A 
ATOM     90  C   UNL     1      -1.329  -4.105   9.888  1.00  0.00     0.059 A 
ATOM     91  F   UNL     1      -2.816  -2.891   8.575  1.00  0.00    -0.206 F 
ATOM     92  C   UNL     1      -0.102  -4.221  10.533  1.00  0.00     0.060 A 
BRANCH  92  93
ATOM     93  S   UNL     1       0.154  -5.508  11.781  1.00  0.00     0.124 S 
ATOM     94  O   UNL     1       1.186  -6.332  11.161  1.00  0.00    -0.237 OA
ATOM     95  O   UNL     1       0.573  -4.729  12.942  1.00  0.00    -0.237 OA
ATOM     96  O   UNL     1      -1.161  -6.134  11.895  1.00  0.00    -0.744 OA
ENDBRANCH  92  93
ENDBRANCH  60  85
BRANCH  72  97
ATOM     97  C   UNL     1       0.265   4.074   7.048  1.00  0.00     0.058 A 
ATOM     98  C   UNL     1      -0.108   3.369   5.891  1.00  0.00     0.135 A 
ATOM     99  C   UNL     1       1.235   5.079   6.908  1.00  0.00     0.135 A 
ATOM    100  F   UNL     1      -1.079   2.444   5.929  1.00  0.00    -0.206 F 
ATOM    101  C   UNL     1       0.488   3.632   4.655  1.00  0.00     0.059 A 
ATOM    102  C   UNL     1       1.817   5.379   5.684  1.00  0.00     0.059 A 
ATOM    103  F   UNL     1       1.605   5.809   7.973  1.00  0.00    -0.206 F 
ATOM    104  C   UNL     1       1.449   4.642   4.562  1.00  0.00     0.060 A 
BRANCH 104 105
ATOM    105  S   UNL     1       2.183   5.023   2.957  1.00  0.00     0.124 S 
ATOM    106  O   UNL     1       2.958   3.818   2.678  1.00  0.00    -0.237 OA
ATOM    107  O   UNL     1       1.008   5.233   2.118  1.00  0.00    -0.237 OA
ATOM    108  O   UNL     1       2.974   6.224   3.219  1.00  0.00    -0.744 OA
ENDBRANCH 104 105
ENDBRANCH  72  97
ENDBRANCH  46  47
ENDBRANCH  39  41
ENDBRANCH  38  39
ENDBRANCH  37  38
ENDBRANCH  36  37
ENDBRANCH  35  36
ENDBRANCH   1  35
TORSDOF 24
