REMARK SMILES Cc1cccn2c(=O)cc(C[N@@H+](C)CC(=O)OCCOCCOC(=O)c3ccc(-c4c5nc(c(-c6c(F)cc(S(=O)(=O)[O-])cc6F)c6ccc([nH]6)c(-c6c(F)cc(S(=O)(=O)[O-])cc6F)c6nc(c(-c7c(F)cc(S(=O)(=O)[O-])cc7F)c7ccc4[nH]7)C=C6)C=C5)cc3)nc12
REMARK SMILES IDX 20 1 19 2 18 3 17 4 15 5 16 6 14 7 12 8 13 9 11 11 10 12
REMARK SMILES IDX 1 13 2 14 3 15 93 16 4 17 6 18 92 19 5 20 7 21 8 22 9 23
REMARK SMILES IDX 21 24 22 25 23 26 24 27 25 28 26 29 27 30 91 31 28 32 90 33
REMARK SMILES IDX 29 34 30 35 31 36 84 37 32 38 89 39 83 40 85 41 33 42 88 43
REMARK SMILES IDX 82 44 81 45 34 47 68 48 47 49 67 50 48 51 51 52 66 53 86 54
REMARK SMILES IDX 49 55 50 56 65 58 87 59 52 60 35 61 36 62 45 63 37 64 38 65
REMARK SMILES IDX 44 66 46 67 39 68 40 69 41 70 42 71 43 72 69 73 70 74 79 75
REMARK SMILES IDX 71 76 72 77 78 78 80 79 73 80 74 81 75 82 76 83 77 84 53 85
REMARK SMILES IDX 54 86 63 87 55 88 56 89 62 90 64 91 57 92 58 93 59 94 60 95
REMARK SMILES IDX 61 96
REMARK H PARENT 12 10 85 46 51 57
REMARK Flexibility Score: inf
ROOT
ATOM      1  O   UNL     1       3.510   8.883   0.508  1.00  0.00    -0.374 OA
ENDROOT
BRANCH   1   2
ATOM      2  C   UNL     1       3.922   8.847   1.875  1.00  0.00     0.202 C 
BRANCH   2   3
ATOM      3  C   UNL     1       2.902   8.268   2.860  1.00  0.00     0.261 C 
BRANCH   3   4
ATOM      4  O   UNL     1       2.957   6.824   2.912  1.00  0.00    -0.459 OA
BRANCH   4   5
ATOM      5  C   UNL     1       1.883   6.146   2.424  1.00  0.00     0.361 C 
ATOM      6  O   UNL     1       0.930   6.677   1.863  1.00  0.00    -0.245 OA
BRANCH   5   7
ATOM      7  C   UNL     1       1.927   4.651   2.721  1.00  0.00     0.386 C 
BRANCH   7   8
ATOM      8  N   UNL     1       3.127   3.888   2.330  1.00  0.00    -0.323 N 
ATOM      9  C   UNL     1       4.296   4.180   3.157  1.00  0.00     0.333 C 
ATOM     10  H   UNL     1       2.823   2.932   2.518  1.00  0.00     0.348 HD
BRANCH   8  11
ATOM     11  C   UNL     1       3.480   3.879   0.906  1.00  0.00     0.320 C 
BRANCH  11  12
ATOM     12  C   UNL     1       2.384   3.565  -0.110  1.00  0.00     0.103 A 
ATOM     13  C   UNL     1       0.860  -0.361   0.027  1.00  0.00     0.048 C 
ATOM     14  C   UNL     1       0.389   0.598  -1.019  1.00  0.00    -0.008 A 
ATOM     15  C   UNL     1      -0.496   0.275  -1.976  1.00  0.00     0.009 A 
ATOM     16  C   UNL     1       0.975   1.985  -1.000  1.00  0.00     0.143 A 
ATOM     17  C   UNL     1      -0.896   1.228  -2.975  1.00  0.00     0.019 A 
ATOM     18  N   UNL     1       0.559   2.847  -2.013  1.00  0.00    -0.268 N 
ATOM     19  N   UNL     1       1.833   2.308  -0.076  1.00  0.00    -0.229 NA
ATOM     20  C   UNL     1      -0.368   2.455  -2.969  1.00  0.00     0.096 A 
ATOM     21  C   UNL     1       1.083   4.123  -2.085  1.00  0.00     0.258 A 
ATOM     22  O   UNL     1       0.817   4.967  -2.941  1.00  0.00    -0.269 OA
ATOM     23  C   UNL     1       2.071   4.457  -1.056  1.00  0.00     0.102 A 
ENDBRANCH  11  12
ENDBRANCH   8  11
ENDBRANCH   7   8
ENDBRANCH   5   7
ENDBRANCH   4   5
ENDBRANCH   3   4
ENDBRANCH   2   3
ENDBRANCH   1   2
BRANCH   1  24
ATOM     24  C   UNL     1       3.566   7.644  -0.188  1.00  0.00     0.202 C 
BRANCH  24  25
ATOM     25  C   UNL     1       4.925   7.302  -0.810  1.00  0.00     0.261 C 
BRANCH  25  26
ATOM     26  O   UNL     1       5.916   7.113   0.213  1.00  0.00    -0.460 OA
BRANCH  26  27
ATOM     27  C   UNL     1       6.899   8.041   0.206  1.00  0.00     0.338 C 
ATOM     28  O   UNL     1       7.129   8.873  -0.661  1.00  0.00    -0.246 OA
BRANCH  27  29
ATOM     29  C   UNL     1       7.564   8.066   1.516  1.00  0.00     0.060 A 
ATOM     30  C   UNL     1       7.489   9.263   2.238  1.00  0.00     0.016 A 
ATOM     31  C   UNL     1       8.316   6.987   1.989  1.00  0.00     0.016 A 
ATOM     32  C   UNL     1       8.222   9.413   3.408  1.00  0.00     0.010 A 
ATOM     33  C   UNL     1       9.070   7.148   3.156  1.00  0.00     0.010 A 
ATOM     34  C   UNL     1       9.064   8.379   3.837  1.00  0.00    -0.014 A 
BRANCH  34  35
ATOM     35  C   UNL     1      10.104   8.703   4.840  1.00  0.00     0.031 A 
ATOM     36  C   UNL     1      11.444   9.172   4.341  1.00  0.00     0.074 A 
ATOM     37  C   UNL     1       9.832   8.685   6.156  1.00  0.00     0.049 A 
ATOM     38  N   UNL     1      12.482   9.588   5.018  1.00  0.00    -0.248 NA
ATOM     39  C   UNL     1      11.633   9.188   2.880  1.00  0.00     0.031 C 
ATOM     40  C   UNL     1       8.549   8.311   6.748  1.00  0.00     0.029 A 
ATOM     41  N   UNL     1      10.620   9.007   7.231  1.00  0.00    -0.354 N 
ATOM     42  C   UNL     1      13.435   9.934   4.068  1.00  0.00     0.074 A 
ATOM     43  C   UNL     1      12.873   9.639   2.769  1.00  0.00     0.031 C 
ATOM     44  C   UNL     1       8.636   8.430   8.085  1.00  0.00     0.029 A 
ATOM     45  C   UNL     1       9.986   8.866   8.441  1.00  0.00     0.049 A 
ATOM     46  H   UNL     1      11.553   9.310   7.143  1.00  0.00     0.167 HD
ATOM     47  C   UNL     1      14.664  10.469   4.260  1.00  0.00     0.037 A 
ATOM     48  C   UNL     1      10.448   9.063   9.692  1.00  0.00     0.037 A 
ATOM     49  C   UNL     1      15.225  10.745   5.554  1.00  0.00     0.049 A 
ATOM     50  C   UNL     1      11.861   9.550   9.887  1.00  0.00     0.074 A 
ATOM     51  C   UNL     1      16.466  11.274   5.859  1.00  0.00     0.029 A 
ATOM     52  N   UNL     1      14.584  10.503   6.760  1.00  0.00    -0.354 N 
ATOM     53  N   UNL     1      12.751   9.881   8.981  1.00  0.00    -0.248 NA
ATOM     54  C   UNL     1      12.335   9.687  11.272  1.00  0.00     0.031 C 
ATOM     55  C   UNL     1      16.594  11.306   7.251  1.00  0.00     0.029 A 
ATOM     56  C   UNL     1      15.415  10.843   7.814  1.00  0.00     0.049 A 
ATOM     57  H   UNL     1      13.672  10.142   6.854  1.00  0.00     0.167 HD
ATOM     58  C   UNL     1      13.882  10.283   9.685  1.00  0.00     0.074 A 
ATOM     59  C   UNL     1      13.560  10.164  11.093  1.00  0.00     0.031 C 
ATOM     60  C   UNL     1      15.077  10.712   9.210  1.00  0.00     0.037 A 
BRANCH  47  61
ATOM     61  C   UNL     1      15.487  10.770   3.040  1.00  0.00     0.058 A 
ATOM     62  C   UNL     1      15.179  11.847   2.194  1.00  0.00     0.135 A 
ATOM     63  C   UNL     1      16.611   9.990   2.726  1.00  0.00     0.135 A 
ATOM     64  F   UNL     1      14.102  12.611   2.436  1.00  0.00    -0.206 F 
ATOM     65  C   UNL     1      15.946  12.129   1.068  1.00  0.00     0.059 A 
ATOM     66  C   UNL     1      17.407  10.268   1.619  1.00  0.00     0.059 A 
ATOM     67  F   UNL     1      16.944   8.943   3.498  1.00  0.00    -0.206 F 
ATOM     68  C   UNL     1      17.059  11.334   0.790  1.00  0.00     0.060 A 
BRANCH  68  69
ATOM     69  S   UNL     1      18.047  11.718  -0.672  1.00  0.00     0.124 S 
ATOM     70  O   UNL     1      17.144  11.321  -1.747  1.00  0.00    -0.237 OA
ATOM     71  O   UNL     1      18.270  13.153  -0.528  1.00  0.00    -0.237 OA
ATOM     72  O   UNL     1      19.233  10.883  -0.510  1.00  0.00    -0.744 OA
ENDBRANCH  68  69
ENDBRANCH  47  61
BRANCH  48  73
ATOM     73  C   UNL     1       9.562   8.801  10.857  1.00  0.00     0.058 A 
ATOM     74  C   UNL     1       9.068   9.851  11.644  1.00  0.00     0.135 A 
ATOM     75  C   UNL     1       9.171   7.494  11.190  1.00  0.00     0.135 A 
ATOM     76  F   UNL     1       9.424  11.116  11.373  1.00  0.00    -0.206 F 
ATOM     77  C   UNL     1       8.217   9.617  12.719  1.00  0.00     0.059 A 
ATOM     78  C   UNL     1       8.303   7.237  12.247  1.00  0.00     0.059 A 
ATOM     79  F   UNL     1       9.611   6.455  10.464  1.00  0.00    -0.206 F 
ATOM     80  C   UNL     1       7.833   8.306  13.007  1.00  0.00     0.060 A 
BRANCH  80  81
ATOM     81  S   UNL     1       6.670   8.023  14.360  1.00  0.00     0.124 S 
ATOM     82  O   UNL     1       7.491   8.332  15.525  1.00  0.00    -0.237 OA
ATOM     83  O   UNL     1       5.610   8.978  14.053  1.00  0.00    -0.237 OA
ATOM     84  O   UNL     1       6.303   6.619  14.200  1.00  0.00    -0.744 OA
ENDBRANCH  80  81
ENDBRANCH  48  73
BRANCH  60  85
ATOM     85  C   UNL     1      16.134  11.092  10.210  1.00  0.00     0.058 A 
ATOM     86  C   UNL     1      16.840  10.118  10.932  1.00  0.00     0.135 A 
ATOM     87  C   UNL     1      16.507  12.435  10.379  1.00  0.00     0.135 A 
ATOM     88  F   UNL     1      16.518   8.821  10.810  1.00  0.00    -0.206 F 
ATOM     89  C   UNL     1      17.877  10.464  11.792  1.00  0.00     0.059 A 
ATOM     90  C   UNL     1      17.558  12.801  11.215  1.00  0.00     0.059 A 
ATOM     91  F   UNL     1      15.870  13.405   9.703  1.00  0.00    -0.206 F 
ATOM     92  C   UNL     1      18.234  11.808  11.921  1.00  0.00     0.060 A 
BRANCH  92  93
ATOM     93  S   UNL     1      19.620  12.232  12.997  1.00  0.00     0.124 S 
ATOM     94  O   UNL     1      19.052  11.989  14.319  1.00  0.00    -0.237 OA
ATOM     95  O   UNL     1      20.648  11.289  12.566  1.00  0.00    -0.237 OA
ATOM     96  O   UNL     1      19.886  13.631  12.676  1.00  0.00    -0.744 OA
ENDBRANCH  92  93
ENDBRANCH  60  85
ENDBRANCH  34  35
ENDBRANCH  27  29
ENDBRANCH  26  27
ENDBRANCH  25  26
ENDBRANCH  24  25
ENDBRANCH   1  24
TORSDOF 20
