REMARK SMILES Cc1cc(N2N=C(C(=O)OCCOCCOC(=O)c3ccc(-c4c5nc(c(-c6c(F)cc(S(=O)(=O)[O-])cc6F)c6ccc([nH]6)c(-c6c(F)cc(S(=O)(=O)[O-])cc6F)c6nc(c(-c7c(F)cc(S(=O)(=O)[O-])cc7F)c7ccc4[nH]7)C=C6)C=C5)cc3)C[C@H]2c2ccccc2)c([N+](=O)[O-])cc1C
REMARK SMILES IDX 14 1 13 2 12 3 11 4 10 5 8 6 9 7 7 8 5 9 6 10 86 11 85 12
REMARK SMILES IDX 4 13 1 14 2 15 3 16 98 17 97 18 99 19 93 20 94 21 95 22
REMARK SMILES IDX 96 23 87 24 88 25 92 26 89 27 91 28 90 29 15 30 16 31 17 32
REMARK SMILES IDX 18 33 19 34 20 35 84 36 21 37 83 38 22 39 23 40 24 41 77 42
REMARK SMILES IDX 25 43 82 44 76 45 78 46 26 47 81 48 75 49 74 50 27 52 61 53
REMARK SMILES IDX 40 54 60 55 41 56 44 57 59 58 79 59 42 60 43 61 58 63 80 64
REMARK SMILES IDX 45 65 28 66 29 67 38 68 30 69 31 70 37 71 39 72 32 73 33 74
REMARK SMILES IDX 34 75 35 76 36 77 62 78 63 79 72 80 64 81 65 82 71 83 73 84
REMARK SMILES IDX 66 85 67 86 68 87 69 88 70 89 46 90 47 91 56 92 48 93 49 94
REMARK SMILES IDX 55 95 57 96 50 97 51 98 52 99 53 100 54 101
REMARK H PARENT 78 51 44 62
REMARK Flexibility Score: inf
ROOT
ATOM      1  C   UNL     1      -7.359   0.107   1.815  1.00  0.00     0.202 C 
ENDROOT
BRANCH   1   2
ATOM      2  O   UNL     1      -7.991   0.674   2.968  1.00  0.00    -0.374 OA
BRANCH   2   3
ATOM      3  C   UNL     1      -8.638   1.937   2.791  1.00  0.00     0.202 C 
BRANCH   3   4
ATOM      4  C   UNL     1      -7.702   3.141   2.909  1.00  0.00     0.261 C 
BRANCH   4   5
ATOM      5  O   UNL     1      -6.732   3.089   1.853  1.00  0.00    -0.459 OA
BRANCH   5   6
ATOM      6  C   UNL     1      -5.450   3.168   2.252  1.00  0.00     0.354 C 
ATOM      7  O   UNL     1      -5.020   3.525   3.332  1.00  0.00    -0.245 OA
BRANCH   6   8
ATOM      8  C   UNL     1      -4.559   2.626   1.162  1.00  0.00     0.148 C 
ATOM      9  N   UNL     1      -2.921   1.708   0.206  1.00  0.00    -0.250 N 
ATOM     10  N   UNL     1      -3.475   1.957   1.420  1.00  0.00    -0.169 NA
ATOM     11  C   UNL     1      -3.537   2.474  -0.889  1.00  0.00     0.144 C 
ATOM     12  C   UNL     1      -4.924   2.748  -0.289  1.00  0.00     0.098 C 
BRANCH   9  13
ATOM     13  C   UNL     1      -1.811   0.891   0.118  1.00  0.00     0.138 A 
ATOM     14  C   UNL     1       1.966   1.419   0.289  1.00  0.00     0.045 C 
ATOM     15  C   UNL     1       0.650   0.700   0.172  1.00  0.00    -0.046 A 
ATOM     16  C   UNL     1      -0.534   1.457   0.254  1.00  0.00     0.039 A 
ATOM     17  C   UNL     1       0.565  -0.691  -0.007  1.00  0.00    -0.041 A 
ATOM     18  C   UNL     1      -0.704  -1.284  -0.102  1.00  0.00     0.091 A 
ATOM     19  C   UNL     1       1.772  -1.588  -0.051  1.00  0.00     0.045 C 
ATOM     20  C   UNL     1      -1.869  -0.496  -0.045  1.00  0.00     0.294 A 
BRANCH  20  21
ATOM     21  N   UNL     1      -3.153  -1.183  -0.139  1.00  0.00     0.065 N 
ATOM     22  O   UNL     1      -3.263  -2.263   0.463  1.00  0.00    -0.258 OA
ATOM     23  O   UNL     1      -4.030  -0.696  -0.870  1.00  0.00    -0.258 OA
ENDBRANCH  20  21
ENDBRANCH   9  13
BRANCH  11  24
ATOM     24  C   UNL     1      -2.716   3.717  -1.229  1.00  0.00    -0.023 A 
ATOM     25  C   UNL     1      -3.019   5.002  -0.747  1.00  0.00     0.006 A 
ATOM     26  C   UNL     1      -1.572   3.578  -2.038  1.00  0.00     0.006 A 
ATOM     27  C   UNL     1      -2.209   6.099  -1.052  1.00  0.00     0.000 A 
ATOM     28  C   UNL     1      -0.745   4.668  -2.316  1.00  0.00     0.000 A 
ATOM     29  C   UNL     1      -1.066   5.930  -1.825  1.00  0.00     0.000 A 
ENDBRANCH  11  24
ENDBRANCH   6   8
ENDBRANCH   5   6
ENDBRANCH   4   5
ENDBRANCH   3   4
ENDBRANCH   2   3
ENDBRANCH   1   2
BRANCH   1  30
ATOM     30  C   UNL     1      -8.299  -0.615   0.842  1.00  0.00     0.261 C 
BRANCH  30  31
ATOM     31  O   UNL     1      -9.149   0.315   0.141  1.00  0.00    -0.460 OA
BRANCH  31  32
ATOM     32  C   UNL     1     -10.466   0.239   0.455  1.00  0.00     0.338 C 
ATOM     33  O   UNL     1     -11.002  -0.574   1.189  1.00  0.00    -0.246 OA
BRANCH  32  34
ATOM     34  C   UNL     1     -11.177   1.420  -0.079  1.00  0.00     0.060 A 
ATOM     35  C   UNL     1     -11.999   2.132   0.804  1.00  0.00     0.016 A 
ATOM     36  C   UNL     1     -11.082   1.804  -1.419  1.00  0.00     0.016 A 
ATOM     37  C   UNL     1     -12.753   3.211   0.343  1.00  0.00     0.010 A 
ATOM     38  C   UNL     1     -11.848   2.880  -1.882  1.00  0.00     0.010 A 
ATOM     39  C   UNL     1     -12.705   3.575  -1.009  1.00  0.00    -0.014 A 
BRANCH  39  40
ATOM     40  C   UNL     1     -13.621   4.621  -1.524  1.00  0.00     0.031 A 
ATOM     41  C   UNL     1     -14.900   4.215  -2.204  1.00  0.00     0.074 A 
ATOM     42  C   UNL     1     -13.320   5.925  -1.377  1.00  0.00     0.049 A 
ATOM     43  N   UNL     1     -15.821   4.966  -2.750  1.00  0.00    -0.248 NA
ATOM     44  C   UNL     1     -15.176   2.771  -2.279  1.00  0.00     0.031 C 
ATOM     45  C   UNL     1     -12.123   6.445  -0.719  1.00  0.00     0.029 A 
ATOM     46  N   UNL     1     -13.994   7.048  -1.787  1.00  0.00    -0.354 N 
ATOM     47  C   UNL     1     -16.783   4.090  -3.238  1.00  0.00     0.074 A 
ATOM     48  C   UNL     1     -16.324   2.750  -2.942  1.00  0.00     0.031 C 
ATOM     49  C   UNL     1     -12.136   7.787  -0.788  1.00  0.00     0.029 A 
ATOM     50  C   UNL     1     -13.328   8.219  -1.515  1.00  0.00     0.049 A 
ATOM     51  H   UNL     1     -14.871   7.018  -2.233  1.00  0.00     0.167 HD
ATOM     52  C   UNL     1     -17.946   4.378  -3.869  1.00  0.00     0.037 A 
ATOM     53  C   UNL     1     -13.632   9.492  -1.838  1.00  0.00     0.037 A 
ATOM     54  C   UNL     1     -18.405   5.712  -4.158  1.00  0.00     0.049 A 
ATOM     55  C   UNL     1     -14.904   9.784  -2.589  1.00  0.00     0.074 A 
ATOM     56  C   UNL     1     -19.594   6.104  -4.749  1.00  0.00     0.029 A 
ATOM     57  N   UNL     1     -17.691   6.870  -3.890  1.00  0.00    -0.354 N 
ATOM     58  N   UNL     1     -15.827   8.948  -3.002  1.00  0.00    -0.248 NA
ATOM     59  C   UNL     1     -15.176  11.191  -2.920  1.00  0.00     0.031 C 
ATOM     60  C   UNL     1     -19.579   7.497  -4.880  1.00  0.00     0.029 A 
ATOM     61  C   UNL     1     -18.399   7.976  -4.334  1.00  0.00     0.049 A 
ATOM     62  H   UNL     1     -16.811   6.902  -3.450  1.00  0.00     0.167 HD
ATOM     63  C   UNL     1     -16.793   9.728  -3.630  1.00  0.00     0.074 A 
ATOM     64  C   UNL     1     -16.351  11.103  -3.529  1.00  0.00     0.031 C 
ATOM     65  C   UNL     1     -17.943   9.339  -4.235  1.00  0.00     0.037 A 
BRANCH  52  66
ATOM     66  C   UNL     1     -18.802   3.225  -4.310  1.00  0.00     0.058 A 
ATOM     67  C   UNL     1     -19.560   2.479  -3.395  1.00  0.00     0.135 A 
ATOM     68  C   UNL     1     -18.897   2.890  -5.670  1.00  0.00     0.135 A 
ATOM     69  F   UNL     1     -19.493   2.749  -2.082  1.00  0.00    -0.206 F 
ATOM     70  C   UNL     1     -20.370   1.427  -3.811  1.00  0.00     0.059 A 
ATOM     71  C   UNL     1     -19.715   1.855  -6.111  1.00  0.00     0.059 A 
ATOM     72  F   UNL     1     -18.189   3.572  -6.584  1.00  0.00    -0.206 F 
ATOM     73  C   UNL     1     -20.439   1.121  -5.172  1.00  0.00     0.060 A 
BRANCH  73  74
ATOM     74  S   UNL     1     -21.499  -0.241  -5.700  1.00  0.00     0.124 S 
ATOM     75  O   UNL     1     -20.710  -1.399  -5.291  1.00  0.00    -0.237 OA
ATOM     76  O   UNL     1     -22.719  -0.004  -4.934  1.00  0.00    -0.237 OA
ATOM     77  O   UNL     1     -21.619  -0.040  -7.141  1.00  0.00    -0.744 OA
ENDBRANCH  73  74
ENDBRANCH  52  66
BRANCH  53  78
ATOM     78  C   UNL     1     -12.697  10.589  -1.477  1.00  0.00     0.058 A 
ATOM     79  C   UNL     1     -13.012  11.512  -0.471  1.00  0.00     0.135 A 
ATOM     80  C   UNL     1     -11.465  10.730  -2.135  1.00  0.00     0.135 A 
ATOM     81  F   UNL     1     -14.184  11.424   0.177  1.00  0.00    -0.206 F 
ATOM     82  C   UNL     1     -12.143  12.544  -0.133  1.00  0.00     0.059 A 
ATOM     83  C   UNL     1     -10.570  11.740  -1.801  1.00  0.00     0.059 A 
ATOM     84  F   UNL     1     -11.114   9.865  -3.099  1.00  0.00    -0.206 F 
ATOM     85  C   UNL     1     -10.922  12.648  -0.803  1.00  0.00     0.060 A 
BRANCH  85  86
ATOM     86  S   UNL     1      -9.770  13.953  -0.319  1.00  0.00     0.124 S 
ATOM     87  O   UNL     1     -10.366  15.121  -0.957  1.00  0.00    -0.237 OA
ATOM     88  O   UNL     1      -9.848  13.909   1.138  1.00  0.00    -0.237 OA
ATOM     89  O   UNL     1      -8.501  13.502  -0.883  1.00  0.00    -0.744 OA
ENDBRANCH  85  86
ENDBRANCH  53  78
BRANCH  65  90
ATOM     90  C   UNL     1     -18.809  10.413  -4.831  1.00  0.00     0.058 A 
ATOM     91  C   UNL     1     -18.468  11.041  -6.038  1.00  0.00     0.135 A 
ATOM     92  C   UNL     1     -20.018  10.779  -4.219  1.00  0.00     0.135 A 
ATOM     93  F   UNL     1     -17.318  10.732  -6.659  1.00  0.00    -0.206 F 
ATOM     94  C   UNL     1     -19.288  12.008  -6.611  1.00  0.00     0.059 A 
ATOM     95  C   UNL     1     -20.865  11.727  -4.785  1.00  0.00     0.059 A 
ATOM     96  F   UNL     1     -20.395  10.201  -3.067  1.00  0.00    -0.206 F 
ATOM     97  C   UNL     1     -20.486  12.344  -5.977  1.00  0.00     0.060 A 
BRANCH  97  98
ATOM     98  S   UNL     1     -21.561  13.573  -6.748  1.00  0.00     0.124 S 
ATOM     99  O   UNL     1     -20.870  14.815  -6.419  1.00  0.00    -0.237 OA
ATOM    100  O   UNL     1     -21.528  13.183  -8.154  1.00  0.00    -0.237 OA
ATOM    101  O   UNL     1     -22.842  13.369  -6.078  1.00  0.00    -0.744 OA
ENDBRANCH  97  98
ENDBRANCH  65  90
ENDBRANCH  39  40
ENDBRANCH  32  34
ENDBRANCH  31  32
ENDBRANCH  30  31
ENDBRANCH   1  30
TORSDOF 20
