REMARK SMILES CCCc1cc(OCC(=O)OCCOCCOC(=O)c2ccc(-c3c4nc(c(-c5c(F)cc(S(=O)(=O)[O-])cc5F)c5ccc([nH]5)c(-c5c(F)cc(S(=O)(=O)[O-])cc5F)c5nc(c(-c6c(F)cc(S(=O)(=O)[O-])cc6F)c6ccc3[nH]6)C=C5)C=C4)cc2)nc(Nc2ccc(C#N)cc2)n1
REMARK SMILES IDX 13 1 12 2 11 3 9 4 10 5 8 6 7 7 6 8 4 9 5 10 97 11 87 12
REMARK SMILES IDX 86 13 3 14 2 15 1 16 88 17 89 19 90 20 96 21 91 22 95 23
REMARK SMILES IDX 92 24 93 25 94 26 14 27 15 28 16 29 17 30 18 31 19 32 20 33
REMARK SMILES IDX 21 34 85 35 22 36 84 37 23 38 24 39 25 40 78 41 26 42 83 43
REMARK SMILES IDX 77 44 79 45 27 46 82 47 76 48 75 49 28 51 62 52 41 53 61 54
REMARK SMILES IDX 42 55 45 56 60 57 80 58 43 59 44 60 59 62 81 63 46 64 29 65
REMARK SMILES IDX 30 66 39 67 31 68 32 69 38 70 40 71 33 72 34 73 35 74 36 75
REMARK SMILES IDX 37 76 63 77 64 78 73 79 65 80 66 81 72 82 74 83 67 84 68 85
REMARK SMILES IDX 69 86 70 87 71 88 47 89 48 90 57 91 49 92 50 93 56 94 58 95
REMARK SMILES IDX 51 96 52 97 53 98 54 99 55 100
REMARK H PARENT 88 18 79 50 45 61
REMARK Flexibility Score: inf
ROOT
ATOM      1  C   UNL     1      -4.128  -3.571   2.786  1.00  0.00     0.202 C 
ENDROOT
BRANCH   1   2
ATOM      2  C   UNL     1      -3.992  -3.829   4.295  1.00  0.00     0.261 C 
BRANCH   2   3
ATOM      3  O   UNL     1      -2.924  -3.101   4.947  1.00  0.00    -0.461 OA
BRANCH   3   4
ATOM      4  C   UNL     1      -1.919  -3.865   5.461  1.00  0.00     0.344 C 
ATOM      5  O   UNL     1      -1.870  -5.090   5.392  1.00  0.00    -0.248 OA
BRANCH   4   6
ATOM      6  C   UNL     1      -0.808  -3.065   6.160  1.00  0.00     0.353 C 
BRANCH   6   7
ATOM      7  O   UNL     1      -0.581  -1.694   5.918  1.00  0.00    -0.466 OA
BRANCH   7   8
ATOM      8  C   UNL     1       0.269  -1.260   4.942  1.00  0.00     0.218 A 
ATOM      9  C   UNL     1       1.377  -1.370   2.869  1.00  0.00     0.050 A 
ATOM     10  C   UNL     1       0.857  -2.046   3.966  1.00  0.00     0.092 A 
ATOM     11  N   UNL     1       1.441  -0.031   2.847  1.00  0.00    -0.218 NA
ATOM     12  C   UNL     1       0.923   0.666   3.868  1.00  0.00     0.230 A 
ATOM     13  N   UNL     1       0.338   0.087   4.920  1.00  0.00    -0.177 NA
BRANCH   9  14
ATOM     14  C   UNL     1       1.815  -2.079   1.604  1.00  0.00     0.056 C 
BRANCH  14  15
ATOM     15  C   UNL     1       1.142  -1.655   0.276  1.00  0.00     0.003 C 
ATOM     16  C   UNL     1       1.296  -0.197  -0.132  1.00  0.00     0.004 C 
ENDBRANCH  14  15
ENDBRANCH   9  14
BRANCH  12  17
ATOM     17  N   UNL     1       0.947   2.058   3.813  1.00  0.00    -0.324 N 
ATOM     18  H   UNL     1       0.698   2.543   4.633  1.00  0.00     0.170 HD
BRANCH  17  19
ATOM     19  C   UNL     1       1.292   2.825   2.699  1.00  0.00     0.041 A 
ATOM     20  C   UNL     1       2.506   3.516   2.670  1.00  0.00     0.027 A 
ATOM     21  C   UNL     1       0.444   2.906   1.587  1.00  0.00     0.027 A 
ATOM     22  C   UNL     1       2.928   4.159   1.502  1.00  0.00     0.021 A 
ATOM     23  C   UNL     1       0.858   3.551   0.416  1.00  0.00     0.021 A 
ATOM     24  C   UNL     1       2.118   4.149   0.361  1.00  0.00     0.052 A 
BRANCH  24  25
ATOM     25  C   UNL     1       2.604   4.707  -0.866  1.00  0.00     0.099 C 
ATOM     26  N   UNL     1       3.031   5.134  -1.861  1.00  0.00    -0.192 NA
ENDBRANCH  24  25
ENDBRANCH  17  19
ENDBRANCH  12  17
ENDBRANCH   7   8
ENDBRANCH   6   7
ENDBRANCH   4   6
ENDBRANCH   3   4
ENDBRANCH   2   3
ENDBRANCH   1   2
BRANCH   1  27
ATOM     27  O   UNL     1      -2.990  -3.737   1.948  1.00  0.00    -0.374 OA
BRANCH  27  28
ATOM     28  C   UNL     1      -1.835  -2.974   2.243  1.00  0.00     0.202 C 
BRANCH  28  29
ATOM     29  C   UNL     1      -1.896  -1.444   2.198  1.00  0.00     0.261 C 
BRANCH  29  30
ATOM     30  O   UNL     1      -3.108  -0.856   2.602  1.00  0.00    -0.460 OA
BRANCH  30  31
ATOM     31  C   UNL     1      -3.799  -0.351   1.563  1.00  0.00     0.338 C 
ATOM     32  O   UNL     1      -3.552  -0.405   0.374  1.00  0.00    -0.246 OA
BRANCH  31  33
ATOM     33  C   UNL     1      -5.015   0.193   2.136  1.00  0.00     0.060 A 
ATOM     34  C   UNL     1      -6.208  -0.449   1.811  1.00  0.00     0.016 A 
ATOM     35  C   UNL     1      -4.953   1.309   2.973  1.00  0.00     0.016 A 
ATOM     36  C   UNL     1      -7.388   0.085   2.280  1.00  0.00     0.010 A 
ATOM     37  C   UNL     1      -6.140   1.837   3.450  1.00  0.00     0.010 A 
ATOM     38  C   UNL     1      -7.354   1.250   3.060  1.00  0.00    -0.014 A 
BRANCH  38  39
ATOM     39  C   UNL     1      -8.622   1.931   3.343  1.00  0.00     0.031 A 
ATOM     40  C   UNL     1      -8.956   3.164   2.560  1.00  0.00     0.074 A 
ATOM     41  C   UNL     1      -9.459   1.396   4.245  1.00  0.00     0.049 A 
ATOM     42  N   UNL     1     -10.017   3.917   2.635  1.00  0.00    -0.248 NA
ATOM     43  C   UNL     1      -7.966   3.614   1.562  1.00  0.00     0.031 C 
ATOM     44  C   UNL     1      -9.200   0.178   5.018  1.00  0.00     0.029 A 
ATOM     45  N   UNL     1     -10.695   1.802   4.659  1.00  0.00    -0.354 N 
ATOM     46  C   UNL     1      -9.816   4.938   1.715  1.00  0.00     0.074 A 
ATOM     47  C   UNL     1      -8.525   4.726   1.106  1.00  0.00     0.031 C 
ATOM     48  C   UNL     1     -10.253  -0.064   5.814  1.00  0.00     0.029 A 
ATOM     49  C   UNL     1     -11.231   1.004   5.639  1.00  0.00     0.049 A 
ATOM     50  H   UNL     1     -11.156   2.590   4.290  1.00  0.00     0.167 HD
ATOM     51  C   UNL     1     -10.651   5.956   1.415  1.00  0.00     0.037 A 
ATOM     52  C   UNL     1     -12.373   1.152   6.332  1.00  0.00     0.037 A 
ATOM     53  C   UNL     1     -11.941   6.122   2.029  1.00  0.00     0.049 A 
ATOM     54  C   UNL     1     -13.258   2.325   6.001  1.00  0.00     0.074 A 
ATOM     55  C   UNL     1     -12.895   7.088   1.768  1.00  0.00     0.029 A 
ATOM     56  N   UNL     1     -12.450   5.311   3.033  1.00  0.00    -0.354 N 
ATOM     57  N   UNL     1     -13.086   3.256   5.090  1.00  0.00    -0.248 NA
ATOM     58  C   UNL     1     -14.491   2.467   6.782  1.00  0.00     0.031 C 
ATOM     59  C   UNL     1     -13.946   6.909   2.670  1.00  0.00     0.029 A 
ATOM     60  C   UNL     1     -13.687   5.780   3.434  1.00  0.00     0.049 A 
ATOM     61  H   UNL     1     -11.997   4.520   3.405  1.00  0.00     0.167 HD
ATOM     62  C   UNL     1     -14.209   4.072   5.166  1.00  0.00     0.074 A 
ATOM     63  C   UNL     1     -15.058   3.511   6.197  1.00  0.00     0.031 C 
ATOM     64  C   UNL     1     -14.515   5.185   4.453  1.00  0.00     0.037 A 
BRANCH  51  65
ATOM     65  C   UNL     1     -10.201   6.984   0.417  1.00  0.00     0.058 A 
ATOM     66  C   UNL     1     -10.111   6.708  -0.955  1.00  0.00     0.135 A 
ATOM     67  C   UNL     1      -9.950   8.300   0.840  1.00  0.00     0.135 A 
ATOM     68  F   UNL     1     -10.311   5.461  -1.410  1.00  0.00    -0.206 F 
ATOM     69  C   UNL     1      -9.802   7.704  -1.876  1.00  0.00     0.059 A 
ATOM     70  C   UNL     1      -9.668   9.317  -0.065  1.00  0.00     0.059 A 
ATOM     71  F   UNL     1     -10.003   8.612   2.144  1.00  0.00    -0.206 F 
ATOM     72  C   UNL     1      -9.600   9.009  -1.422  1.00  0.00     0.060 A 
BRANCH  72  73
ATOM     73  S   UNL     1      -9.284  10.306  -2.638  1.00  0.00     0.124 S 
ATOM     74  O   UNL     1      -7.958   9.937  -3.122  1.00  0.00    -0.237 OA
ATOM     75  O   UNL     1     -10.380  10.114  -3.583  1.00  0.00    -0.237 OA
ATOM     76  O   UNL     1      -9.345  11.534  -1.851  1.00  0.00    -0.744 OA
ENDBRANCH  72  73
ENDBRANCH  51  65
BRANCH  52  77
ATOM     77  C   UNL     1     -12.726   0.200   7.418  1.00  0.00     0.058 A 
ATOM     78  C   UNL     1     -13.873  -0.602   7.339  1.00  0.00     0.135 A 
ATOM     79  C   UNL     1     -11.941   0.104   8.579  1.00  0.00     0.135 A 
ATOM     80  F   UNL     1     -14.653  -0.553   6.248  1.00  0.00    -0.206 F 
ATOM     81  C   UNL     1     -14.262  -1.422   8.393  1.00  0.00     0.059 A 
ATOM     82  C   UNL     1     -12.287  -0.738   9.629  1.00  0.00     0.059 A 
ATOM     83  F   UNL     1     -10.818   0.830   8.697  1.00  0.00    -0.206 F 
ATOM     84  C   UNL     1     -13.464  -1.477   9.537  1.00  0.00     0.060 A 
BRANCH  84  85
ATOM     85  S   UNL     1     -13.988  -2.527  10.907  1.00  0.00     0.124 S 
ATOM     86  O   UNL     1     -15.145  -1.796  11.410  1.00  0.00    -0.237 OA
ATOM     87  O   UNL     1     -14.272  -3.790  10.232  1.00  0.00    -0.237 OA
ATOM     88  O   UNL     1     -12.821  -2.542  11.784  1.00  0.00    -0.744 OA
ENDBRANCH  84  85
ENDBRANCH  52  77
BRANCH  64  89
ATOM     89  C   UNL     1     -15.844   5.832   4.725  1.00  0.00     0.058 A 
ATOM     90  C   UNL     1     -16.111   6.505   5.928  1.00  0.00     0.135 A 
ATOM     91  C   UNL     1     -16.846   5.821   3.741  1.00  0.00     0.135 A 
ATOM     92  F   UNL     1     -15.190   6.539   6.903  1.00  0.00    -0.206 F 
ATOM     93  C   UNL     1     -17.339   7.114   6.158  1.00  0.00     0.059 A 
ATOM     94  C   UNL     1     -18.065   6.461   3.933  1.00  0.00     0.059 A 
ATOM     95  F   UNL     1     -16.637   5.203   2.567  1.00  0.00    -0.206 F 
ATOM     96  C   UNL     1     -18.307   7.092   5.152  1.00  0.00     0.060 A 
BRANCH  96  97
ATOM     97  S   UNL     1     -19.882   7.917   5.453  1.00  0.00     0.124 S 
ATOM     98  O   UNL     1     -20.492   7.034   6.442  1.00  0.00    -0.237 OA
ATOM     99  O   UNL     1     -19.457   9.223   5.946  1.00  0.00    -0.237 OA
ATOM    100  O   UNL     1     -20.520   7.924   4.141  1.00  0.00    -0.744 OA
ENDBRANCH  96  97
ENDBRANCH  64  89
ENDBRANCH  38  39
ENDBRANCH  31  33
ENDBRANCH  30  31
ENDBRANCH  29  30
ENDBRANCH  28  29
ENDBRANCH  27  28
ENDBRANCH   1  27
TORSDOF 24
