REMARK SMILES CSc1nc(C2CC2)nc(C)c1C(=O)OCCOCCOC(=O)c1ccc(-c2c3nc(c(-c4c(F)cc(S(=O)(=O)[O-])cc4F)c4ccc([nH]4)c(-c4c(F)cc(S(=O)(=O)[O-])cc4F)c4nc(c(-c5c(F)cc(S(=O)(=O)[O-])cc5F)c5ccc2[nH]5)C=C4)C=C3)cc1
REMARK SMILES IDX 19 1 18 2 17 3 16 4 15 5 13 6 14 7 12 8 3 9 4 10 5 11 10 12
REMARK SMILES IDX 9 13 11 14 2 15 1 16 6 17 7 18 8 19 20 20 21 21 22 22 23 23
REMARK SMILES IDX 24 24 25 25 89 26 26 27 88 28 27 29 28 30 29 31 82 32 30 33
REMARK SMILES IDX 87 34 81 35 83 36 31 37 86 38 80 39 79 40 32 42 66 43 45 44
REMARK SMILES IDX 65 45 46 46 49 47 64 48 84 49 47 50 48 51 63 53 85 54 50 55
REMARK SMILES IDX 33 56 34 57 43 58 35 59 36 60 42 61 44 62 37 63 38 64 39 65
REMARK SMILES IDX 40 66 41 67 67 68 68 69 77 70 69 71 70 72 76 73 78 74 71 75
REMARK SMILES IDX 72 76 73 77 74 78 75 79 51 80 52 81 61 82 53 83 54 84 60 85
REMARK SMILES IDX 62 86 55 87 56 88 57 89 58 90 59 91
REMARK H PARENT 83 41 49 52
REMARK Flexibility Score: inf
ROOT
ATOM      1  C   UNL     1       3.851  -0.049   0.523  1.00  0.00     0.202 C 
ENDROOT
BRANCH   1   2
ATOM      2  O   UNL     1       4.603   0.820   1.364  1.00  0.00    -0.374 OA
BRANCH   2   3
ATOM      3  C   UNL     1       5.420   0.226   2.378  1.00  0.00     0.202 C 
BRANCH   3   4
ATOM      4  C   UNL     1       4.682  -0.412   3.554  1.00  0.00     0.261 C 
BRANCH   4   5
ATOM      5  O   UNL     1       4.021  -1.601   3.088  1.00  0.00    -0.460 OA
BRANCH   5   6
ATOM      6  C   UNL     1       2.725  -1.742   3.434  1.00  0.00     0.342 C 
ATOM      7  O   UNL     1       2.122  -1.069   4.254  1.00  0.00    -0.246 OA
BRANCH   6   8
ATOM      8  C   UNL     1       2.094  -2.781   2.603  1.00  0.00     0.113 A 
ATOM      9  C   UNL     1       0.864  -2.558   1.996  1.00  0.00     0.114 A 
ATOM     10  N   UNL     1       0.133  -3.545   1.429  1.00  0.00    -0.225 NA
ATOM     11  C   UNL     1       0.636  -4.789   1.465  1.00  0.00     0.133 A 
ATOM     12  C   UNL     1       2.630  -4.042   2.407  1.00  0.00     0.057 A 
ATOM     13  N   UNL     1       1.897  -5.039   1.856  1.00  0.00    -0.237 NA
ATOM     14  C   UNL     1       4.007  -4.463   2.826  1.00  0.00     0.068 C 
BRANCH   9  15
ATOM     15  S   UNL     1       0.123  -0.933   1.832  1.00  0.00    -0.109 SA
ATOM     16  C   UNL     1       0.242  -0.735   0.033  1.00  0.00     0.092 C 
ENDBRANCH   9  15
BRANCH  11  17
ATOM     17  C   UNL     1      -0.249  -5.983   1.199  1.00  0.00     0.058 C 
ATOM     18  C   UNL     1      -1.755  -5.840   1.188  1.00  0.00     0.012 C 
ATOM     19  C   UNL     1      -1.019  -6.152  -0.084  1.00  0.00     0.012 C 
ENDBRANCH  11  17
ENDBRANCH   6   8
ENDBRANCH   5   6
ENDBRANCH   4   5
ENDBRANCH   3   4
ENDBRANCH   2   3
ENDBRANCH   1   2
BRANCH   1  20
ATOM     20  C   UNL     1       4.578  -0.729  -0.644  1.00  0.00     0.261 C 
BRANCH  20  21
ATOM     21  O   UNL     1       5.763  -1.427  -0.247  1.00  0.00    -0.460 OA
BRANCH  21  22
ATOM     22  C   UNL     1       6.904  -0.722  -0.458  1.00  0.00     0.338 C 
ATOM     23  O   UNL     1       7.008   0.369  -0.994  1.00  0.00    -0.246 OA
BRANCH  22  24
ATOM     24  C   UNL     1       8.026  -1.383   0.229  1.00  0.00     0.060 A 
ATOM     25  C   UNL     1       8.766  -0.614   1.135  1.00  0.00     0.016 A 
ATOM     26  C   UNL     1       8.380  -2.705  -0.044  1.00  0.00     0.016 A 
ATOM     27  C   UNL     1       9.895  -1.153   1.742  1.00  0.00     0.010 A 
ATOM     28  C   UNL     1       9.520  -3.241   0.561  1.00  0.00     0.010 A 
ATOM     29  C   UNL     1      10.300  -2.457   1.429  1.00  0.00    -0.014 A 
BRANCH  29  30
ATOM     30  C   UNL     1      11.616  -2.942   1.908  1.00  0.00     0.031 A 
ATOM     31  C   UNL     1      12.775  -2.965   0.950  1.00  0.00     0.074 A 
ATOM     32  C   UNL     1      11.779  -3.318   3.189  1.00  0.00     0.049 A 
ATOM     33  N   UNL     1      14.001  -3.374   1.145  1.00  0.00    -0.248 NA
ATOM     34  C   UNL     1      12.518  -2.462  -0.409  1.00  0.00     0.031 C 
ATOM     35  C   UNL     1      10.735  -3.299   4.214  1.00  0.00     0.029 A 
ATOM     36  N   UNL     1      12.885  -3.794   3.846  1.00  0.00    -0.354 N 
ATOM     37  C   UNL     1      14.659  -3.187  -0.065  1.00  0.00     0.074 A 
ATOM     38  C   UNL     1      13.689  -2.657  -0.998  1.00  0.00     0.031 C 
ATOM     39  C   UNL     1      11.249  -3.753   5.369  1.00  0.00     0.029 A 
ATOM     40  C   UNL     1      12.645  -4.129   5.157  1.00  0.00     0.049 A 
ATOM     41  H   UNL     1      13.767  -3.888   3.418  1.00  0.00     0.167 HD
ATOM     42  C   UNL     1      15.957  -3.428  -0.366  1.00  0.00     0.037 A 
ATOM     43  C   UNL     1      13.455  -4.697   6.073  1.00  0.00     0.037 A 
ATOM     44  C   UNL     1      16.915  -3.950   0.574  1.00  0.00     0.049 A 
ATOM     45  C   UNL     1      14.879  -5.015   5.694  1.00  0.00     0.074 A 
ATOM     46  C   UNL     1      18.260  -4.209   0.376  1.00  0.00     0.029 A 
ATOM     47  N   UNL     1      16.630  -4.303   1.886  1.00  0.00    -0.354 N 
ATOM     48  N   UNL     1      15.496  -4.809   4.554  1.00  0.00    -0.248 NA
ATOM     49  C   UNL     1      15.719  -5.639   6.726  1.00  0.00     0.031 C 
ATOM     50  C   UNL     1      18.773  -4.773   1.548  1.00  0.00     0.029 A 
ATOM     51  C   UNL     1      17.766  -4.804   2.499  1.00  0.00     0.049 A 
ATOM     52  H   UNL     1      15.750  -4.210   2.317  1.00  0.00     0.167 HD
ATOM     53  C   UNL     1      16.803  -5.248   4.742  1.00  0.00     0.074 A 
ATOM     54  C   UNL     1      16.890  -5.718   6.109  1.00  0.00     0.031 C 
ATOM     55  C   UNL     1      17.838  -5.260   3.865  1.00  0.00     0.037 A 
BRANCH  42  56
ATOM     56  C   UNL     1      16.417  -3.154  -1.772  1.00  0.00     0.058 A 
ATOM     57  C   UNL     1      16.550  -1.849  -2.270  1.00  0.00     0.135 A 
ATOM     58  C   UNL     1      16.782  -4.216  -2.617  1.00  0.00     0.135 A 
ATOM     59  F   UNL     1      16.197  -0.797  -1.515  1.00  0.00    -0.206 F 
ATOM     60  C   UNL     1      17.012  -1.606  -3.560  1.00  0.00     0.059 A 
ATOM     61  C   UNL     1      17.275  -3.995  -3.899  1.00  0.00     0.059 A 
ATOM     62  F   UNL     1      16.670  -5.485  -2.194  1.00  0.00    -0.206 F 
ATOM     63  C   UNL     1      17.377  -2.686  -4.366  1.00  0.00     0.060 A 
BRANCH  63  64
ATOM     64  S   UNL     1      18.000  -2.352  -6.027  1.00  0.00     0.124 S 
ATOM     65  O   UNL     1      16.791  -1.892  -6.704  1.00  0.00    -0.237 OA
ATOM     66  O   UNL     1      19.014  -1.332  -5.779  1.00  0.00    -0.237 OA
ATOM     67  O   UNL     1      18.510  -3.646  -6.467  1.00  0.00    -0.744 OA
ENDBRANCH  63  64
ENDBRANCH  42  56
BRANCH  43  68
ATOM     68  C   UNL     1      12.937  -5.019   7.430  1.00  0.00     0.058 A 
ATOM     69  C   UNL     1      13.414  -4.354   8.569  1.00  0.00     0.135 A 
ATOM     70  C   UNL     1      11.961  -6.012   7.615  1.00  0.00     0.135 A 
ATOM     71  F   UNL     1      14.354  -3.405   8.447  1.00  0.00    -0.206 F 
ATOM     72  C   UNL     1      12.959  -4.675   9.845  1.00  0.00     0.059 A 
ATOM     73  C   UNL     1      11.468  -6.329   8.877  1.00  0.00     0.059 A 
ATOM     74  F   UNL     1      11.461  -6.670   6.558  1.00  0.00    -0.206 F 
ATOM     75  C   UNL     1      11.984  -5.664   9.987  1.00  0.00     0.060 A 
BRANCH  75  76
ATOM     76  S   UNL     1      11.375  -6.047  11.643  1.00  0.00     0.124 S 
ATOM     77  O   UNL     1      12.521  -6.737  12.225  1.00  0.00    -0.237 OA
ATOM     78  O   UNL     1      11.089  -4.720  12.178  1.00  0.00    -0.237 OA
ATOM     79  O   UNL     1      10.202  -6.877  11.385  1.00  0.00    -0.744 OA
ENDBRANCH  75  76
ENDBRANCH  43  68
BRANCH  55  80
ATOM     80  C   UNL     1      19.169  -5.758   4.365  1.00  0.00     0.058 A 
ATOM     81  C   UNL     1      19.395  -7.114   4.648  1.00  0.00     0.135 A 
ATOM     82  C   UNL     1      20.247  -4.870   4.514  1.00  0.00     0.135 A 
ATOM     83  F   UNL     1      18.399  -8.006   4.528  1.00  0.00    -0.206 F 
ATOM     84  C   UNL     1      20.635  -7.567   5.088  1.00  0.00     0.059 A 
ATOM     85  C   UNL     1      21.504  -5.306   4.919  1.00  0.00     0.059 A 
ATOM     86  F   UNL     1      20.090  -3.564   4.245  1.00  0.00    -0.206 F 
ATOM     87  C   UNL     1      21.685  -6.655   5.217  1.00  0.00     0.060 A 
BRANCH  87  88
ATOM     88  S   UNL     1      23.296  -7.263   5.760  1.00  0.00     0.124 S 
ATOM     89  O   UNL     1      23.044  -7.548   7.168  1.00  0.00    -0.237 OA
ATOM     90  O   UNL     1      23.494  -8.428   4.903  1.00  0.00    -0.237 OA
ATOM     91  O   UNL     1      24.190  -6.139   5.497  1.00  0.00    -0.744 OA
ENDBRANCH  87  88
ENDBRANCH  55  80
ENDBRANCH  29  30
ENDBRANCH  22  24
ENDBRANCH  21  22
ENDBRANCH  20  21
ENDBRANCH   1  20
TORSDOF 19
