REMARK SMILES O=C(OCCOCCOC(=O)c1ccc(C[NH2+]Cc2cc(F)ccc2F)nc1)c1ccc(-c2c3nc(c(-c4c(F)cc(S(=O)(=O)[O-])cc4F)c4ccc([nH]4)c(-c4c(F)cc(S(=O)(=O)[O-])cc4F)c4nc(c(-c5c(F)cc(S(=O)(=O)[O-])cc5F)c5ccc2[nH]5)C=C4)C=C3)cc1
REMARK SMILES IDX 7 1 6 2 5 3 4 4 3 5 2 6 1 7 29 8 30 9 94 10 31 11 93 12
REMARK SMILES IDX 32 13 33 14 34 15 87 16 35 17 92 18 86 19 88 20 36 21 91 22
REMARK SMILES IDX 85 23 84 24 37 26 71 27 50 28 70 29 51 30 54 31 69 32 89 33
REMARK SMILES IDX 52 34 53 35 68 37 90 38 55 39 38 40 39 41 48 42 40 43 41 44
REMARK SMILES IDX 47 45 49 46 42 47 43 48 44 49 45 50 46 51 72 52 73 53 82 54
REMARK SMILES IDX 74 55 75 56 81 57 83 58 76 59 77 60 78 61 79 62 80 63 56 64
REMARK SMILES IDX 57 65 66 66 58 67 59 68 65 69 67 70 60 71 61 72 62 73 63 74
REMARK SMILES IDX 64 75 8 76 9 77 10 78 11 79 12 80 13 81 28 82 14 83 27 84
REMARK SMILES IDX 15 85 16 86 17 87 18 90 19 91 20 92 25 93 21 94 24 95 26 96
REMARK SMILES IDX 22 97 23 98
REMARK H PARENT 88 25 54 36 17 88 17 89
REMARK Flexibility Score: inf
ROOT
ATOM      1  C   UNL     1       2.659  -0.055  -2.317  1.00  0.00     0.202 C 
ENDROOT
BRANCH   1   2
ATOM      2  O   UNL     1       4.011  -0.261  -1.882  1.00  0.00    -0.374 OA
BRANCH   2   3
ATOM      3  C   UNL     1       4.226  -1.405  -1.052  1.00  0.00     0.202 C 
BRANCH   3   4
ATOM      4  C   UNL     1       3.889  -1.202   0.429  1.00  0.00     0.261 C 
BRANCH   4   5
ATOM      5  O   UNL     1       2.500  -0.856   0.580  1.00  0.00    -0.460 OA
BRANCH   5   6
ATOM      6  C   UNL     1       1.962   0.339   0.921  1.00  0.00     0.338 C 
ATOM      7  O   UNL     1       0.745   0.411   1.082  1.00  0.00    -0.246 OA
BRANCH   6   8
ATOM      8  C   UNL     1       2.771   1.580   1.112  1.00  0.00     0.060 A 
ATOM      9  C   UNL     1       3.965   1.858   0.444  1.00  0.00     0.016 A 
ATOM     10  C   UNL     1       2.239   2.570   1.954  1.00  0.00     0.016 A 
ATOM     11  C   UNL     1       4.667   3.033   0.675  1.00  0.00     0.010 A 
ATOM     12  C   UNL     1       2.909   3.782   2.148  1.00  0.00     0.010 A 
ATOM     13  C   UNL     1       4.143   4.002   1.526  1.00  0.00    -0.014 A 
BRANCH  13  14
ATOM     14  C   UNL     1       4.962   5.195   1.807  1.00  0.00     0.031 A 
ATOM     15  C   UNL     1       5.665   5.286   3.127  1.00  0.00     0.074 A 
ATOM     16  C   UNL     1       5.161   6.104   0.835  1.00  0.00     0.049 A 
ATOM     17  N   UNL     1       6.432   6.233   3.592  1.00  0.00    -0.248 NA
ATOM     18  C   UNL     1       5.488   4.146   4.043  1.00  0.00     0.031 C 
ATOM     19  C   UNL     1       4.598   6.027  -0.516  1.00  0.00     0.029 A 
ATOM     20  N   UNL     1       5.916   7.245   0.816  1.00  0.00    -0.354 N 
ATOM     21  C   UNL     1       6.807   5.819   4.864  1.00  0.00     0.074 A 
ATOM     22  C   UNL     1       6.181   4.538   5.100  1.00  0.00     0.031 C 
ATOM     23  C   UNL     1       5.059   7.057  -1.243  1.00  0.00     0.029 A 
ATOM     24  C   UNL     1       5.894   7.898  -0.393  1.00  0.00     0.049 A 
ATOM     25  H   UNL     1       6.427   7.567   1.594  1.00  0.00     0.167 HD
ATOM     26  C   UNL     1       7.598   6.464   5.753  1.00  0.00     0.037 A 
ATOM     27  C   UNL     1       6.470   9.060  -0.758  1.00  0.00     0.037 A 
ATOM     28  C   UNL     1       8.200   7.742   5.486  1.00  0.00     0.049 A 
ATOM     29  C   UNL     1       7.283   9.795   0.272  1.00  0.00     0.074 A 
ATOM     30  C   UNL     1       8.964   8.534   6.322  1.00  0.00     0.029 A 
ATOM     31  N   UNL     1       8.099   8.416   4.274  1.00  0.00    -0.354 N 
ATOM     32  N   UNL     1       7.574   9.433   1.502  1.00  0.00    -0.248 NA
ATOM     33  C   UNL     1       7.830  11.098  -0.119  1.00  0.00     0.031 C 
ATOM     34  C   UNL     1       9.293   9.704   5.627  1.00  0.00     0.029 A 
ATOM     35  C   UNL     1       8.774   9.621   4.342  1.00  0.00     0.049 A 
ATOM     36  H   UNL     1       7.618   8.084   3.482  1.00  0.00     0.167 HD
ATOM     37  C   UNL     1       8.350  10.457   2.027  1.00  0.00     0.074 A 
ATOM     38  C   UNL     1       8.494  11.447   0.976  1.00  0.00     0.031 C 
ATOM     39  C   UNL     1       8.894  10.575   3.265  1.00  0.00     0.037 A 
BRANCH  26  40
ATOM     40  C   UNL     1       7.763   5.823   7.103  1.00  0.00     0.058 A 
ATOM     41  C   UNL     1       8.523   4.657   7.288  1.00  0.00     0.135 A 
ATOM     42  C   UNL     1       7.082   6.343   8.215  1.00  0.00     0.135 A 
ATOM     43  F   UNL     1       9.171   4.100   6.253  1.00  0.00    -0.206 F 
ATOM     44  C   UNL     1       8.560   4.000   8.516  1.00  0.00     0.059 A 
ATOM     45  C   UNL     1       7.124   5.716   9.457  1.00  0.00     0.059 A 
ATOM     46  F   UNL     1       6.334   7.450   8.093  1.00  0.00    -0.206 F 
ATOM     47  C   UNL     1       7.843   4.530   9.591  1.00  0.00     0.060 A 
BRANCH  47  48
ATOM     48  S   UNL     1       7.835   3.632  11.158  1.00  0.00     0.124 S 
ATOM     49  O   UNL     1       6.927   2.530  10.855  1.00  0.00    -0.237 OA
ATOM     50  O   UNL     1       9.239   3.268  11.319  1.00  0.00    -0.237 OA
ATOM     51  O   UNL     1       7.333   4.617  12.110  1.00  0.00    -0.744 OA
ENDBRANCH  47  48
ENDBRANCH  26  40
BRANCH  27  52
ATOM     52  C   UNL     1       6.273   9.593  -2.133  1.00  0.00     0.058 A 
ATOM     53  C   UNL     1       7.334   9.661  -3.048  1.00  0.00     0.135 A 
ATOM     54  C   UNL     1       5.007  10.013  -2.575  1.00  0.00     0.135 A 
ATOM     55  F   UNL     1       8.566   9.281  -2.676  1.00  0.00    -0.206 F 
ATOM     56  C   UNL     1       7.149  10.127  -4.348  1.00  0.00     0.059 A 
ATOM     57  C   UNL     1       4.792  10.458  -3.876  1.00  0.00     0.059 A 
ATOM     58  F   UNL     1       3.954   9.961  -1.744  1.00  0.00    -0.206 F 
ATOM     59  C   UNL     1       5.872  10.518  -4.754  1.00  0.00     0.060 A 
BRANCH  59  60
ATOM     60  S   UNL     1       5.628  11.063  -6.460  1.00  0.00     0.124 S 
ATOM     61  O   UNL     1       6.248  12.383  -6.438  1.00  0.00    -0.237 OA
ATOM     62  O   UNL     1       6.338  10.036  -7.216  1.00  0.00    -0.237 OA
ATOM     63  O   UNL     1       4.176  11.051  -6.612  1.00  0.00    -0.744 OA
ENDBRANCH  59  60
ENDBRANCH  27  52
BRANCH  39  64
ATOM     64  C   UNL     1       9.716  11.802   3.530  1.00  0.00     0.058 A 
ATOM     65  C   UNL     1       9.118  13.052   3.751  1.00  0.00     0.135 A 
ATOM     66  C   UNL     1      11.113  11.709   3.623  1.00  0.00     0.135 A 
ATOM     67  F   UNL     1       7.786  13.190   3.665  1.00  0.00    -0.206 F 
ATOM     68  C   UNL     1       9.883  14.176   4.041  1.00  0.00     0.059 A 
ATOM     69  C   UNL     1      11.895  12.815   3.936  1.00  0.00     0.059 A 
ATOM     70  F   UNL     1      11.727  10.531   3.429  1.00  0.00    -0.206 F 
ATOM     71  C   UNL     1      11.270  14.046   4.133  1.00  0.00     0.060 A 
BRANCH  71  72
ATOM     72  S   UNL     1      12.250  15.501   4.556  1.00  0.00     0.124 S 
ATOM     73  O   UNL     1      12.258  16.227   3.290  1.00  0.00    -0.237 OA
ATOM     74  O   UNL     1      11.468  16.106   5.630  1.00  0.00    -0.237 OA
ATOM     75  O   UNL     1      13.533  14.937   4.966  1.00  0.00    -0.744 OA
ENDBRANCH  71  72
ENDBRANCH  39  64
ENDBRANCH  13  14
ENDBRANCH   6   8
ENDBRANCH   5   6
ENDBRANCH   4   5
ENDBRANCH   3   4
ENDBRANCH   2   3
ENDBRANCH   1   2
BRANCH   1  76
ATOM     76  C   UNL     1       2.642   0.271  -3.814  1.00  0.00     0.261 C 
BRANCH  76  77
ATOM     77  O   UNL     1       3.148  -0.875  -4.519  1.00  0.00    -0.460 OA
BRANCH  77  78
ATOM     78  C   UNL     1       4.495  -0.867  -4.681  1.00  0.00     0.339 C 
ATOM     79  O   UNL     1       5.231   0.102  -4.736  1.00  0.00    -0.246 OA
BRANCH  78  80
ATOM     80  C   UNL     1       4.974  -2.247  -4.536  1.00  0.00     0.078 A 
ATOM     81  C   UNL     1       4.258  -3.361  -4.972  1.00  0.00     0.019 A 
ATOM     82  C   UNL     1       6.153  -2.448  -3.839  1.00  0.00     0.127 A 
ATOM     83  C   UNL     1       4.753  -4.635  -4.695  1.00  0.00     0.031 A 
ATOM     84  N   UNL     1       6.644  -3.674  -3.548  1.00  0.00    -0.254 NA
ATOM     85  C   UNL     1       5.946  -4.755  -3.981  1.00  0.00     0.094 A 
BRANCH  85  86
ATOM     86  C   UNL     1       6.557  -6.121  -3.710  1.00  0.00     0.318 C 
BRANCH  86  87
ATOM     87  N   UNL     1       7.960  -6.153  -4.127  1.00  0.00    -0.337 N 
ATOM     88  H   UNL     1       8.530  -5.850  -3.337  1.00  0.00     0.346 HD
ATOM     89  H   UNL     1       8.026  -5.540  -4.939  1.00  0.00     0.346 HD
BRANCH  87  90
ATOM     90  C   UNL     1       8.450  -7.448  -4.563  1.00  0.00     0.300 C 
BRANCH  90  91
ATOM     91  C   UNL     1       7.823  -8.015  -5.815  1.00  0.00     0.045 A 
ATOM     92  C   UNL     1       7.247  -7.225  -6.823  1.00  0.00     0.051 A 
ATOM     93  C   UNL     1       7.859  -9.402  -6.009  1.00  0.00     0.132 A 
ATOM     94  C   UNL     1       6.682  -7.827  -7.945  1.00  0.00     0.123 A 
ATOM     95  C   UNL     1       7.305 -10.001  -7.139  1.00  0.00     0.043 A 
ATOM     96  F   UNL     1       8.438 -10.188  -5.090  1.00  0.00    -0.206 F 
ATOM     97  F   UNL     1       6.103  -7.063  -8.880  1.00  0.00    -0.207 F 
ATOM     98  C   UNL     1       6.702  -9.207  -8.110  1.00  0.00     0.042 A 
ENDBRANCH  90  91
ENDBRANCH  87  90
ENDBRANCH  86  87
ENDBRANCH  85  86
ENDBRANCH  78  80
ENDBRANCH  77  78
ENDBRANCH  76  77
ENDBRANCH   1  76
TORSDOF 21
