REMARK SMILES CC1=C(C)C(=O)N(C[C@H](CC(C)C)C(=O)OCCOCCOC(=O)c2ccc(-c3c4nc(c(-c5c(F)cc(S(=O)(=O)[O-])cc5F)c5ccc([nH]5)c(-c5c(F)cc(S(=O)(=O)[O-])cc5F)c5nc(c(-c6c(F)cc(S(=O)(=O)[O-])cc6F)c6ccc3[nH]6)C=C5)C=C4)cc2)C1=O
REMARK SMILES IDX 20 1 19 2 18 3 17 4 16 5 14 6 15 7 9 8 8 9 7 10 1 11 2 12
REMARK SMILES IDX 3 13 91 14 4 15 5 16 92 17 6 18 10 19 11 20 12 21 13 22
REMARK SMILES IDX 21 23 22 24 23 25 24 26 25 27 26 28 90 29 27 30 89 31 28 32
REMARK SMILES IDX 29 33 30 34 83 35 31 36 88 37 82 38 84 39 32 40 87 41 81 42
REMARK SMILES IDX 80 43 33 45 67 46 46 47 66 48 47 49 50 50 65 51 85 52 48 53
REMARK SMILES IDX 49 54 64 56 86 57 51 58 34 59 35 60 44 61 36 62 37 63 43 64
REMARK SMILES IDX 45 65 38 66 39 67 40 68 41 69 42 70 68 71 69 72 78 73 70 74
REMARK SMILES IDX 71 75 77 76 79 77 72 78 73 79 74 80 75 81 76 82 52 83 53 84
REMARK SMILES IDX 62 85 54 86 55 87 61 88 63 89 56 90 57 91 58 92 59 93 60 94
REMARK H PARENT 84 44 50 55
REMARK Flexibility Score: inf
ROOT
ATOM      1  C   UNL     1       1.756  -7.988  -2.719  1.00  0.00     0.202 C 
ENDROOT
BRANCH   1   2
ATOM      2  O   UNL     1       2.899  -8.838  -2.745  1.00  0.00    -0.374 OA
BRANCH   2   3
ATOM      3  C   UNL     1       3.413  -9.311  -1.509  1.00  0.00     0.202 C 
BRANCH   3   4
ATOM      4  C   UNL     1       4.025  -8.300  -0.538  1.00  0.00     0.261 C 
BRANCH   4   5
ATOM      5  O   UNL     1       3.221  -7.144  -0.263  1.00  0.00    -0.463 OA
BRANCH   5   6
ATOM      6  C   UNL     1       3.646  -5.978  -0.824  1.00  0.00     0.310 C 
ATOM      7  O   UNL     1       4.546  -5.892  -1.652  1.00  0.00    -0.252 OA
BRANCH   6   8
ATOM      8  C   UNL     1       2.969  -4.753  -0.219  1.00  0.00     0.119 C 
BRANCH   8   9
ATOM      9  C   UNL     1       3.799  -4.204   0.970  1.00  0.00     0.144 C 
BRANCH   9  10
ATOM     10  N   UNL     1       4.949  -5.002   1.342  1.00  0.00    -0.274 N 
ATOM     11  C   UNL     1       6.445  -8.111   2.596  1.00  0.00     0.051 C 
ATOM     12  C   UNL     1       6.210  -6.755   2.050  1.00  0.00     0.023 C 
ATOM     13  C   UNL     1       7.026  -5.921   1.393  1.00  0.00     0.023 C 
ATOM     14  C   UNL     1       4.873  -6.141   2.078  1.00  0.00     0.256 C 
ATOM     15  C   UNL     1       8.458  -6.071   1.056  1.00  0.00     0.051 C 
ATOM     16  C   UNL     1       6.227  -4.762   0.959  1.00  0.00     0.256 C 
ATOM     17  O   UNL     1       3.893  -6.626   2.607  1.00  0.00    -0.269 OA
ATOM     18  O   UNL     1       6.666  -3.796   0.356  1.00  0.00    -0.269 OA
ENDBRANCH   9  10
ENDBRANCH   8   9
BRANCH   8  19
ATOM     19  C   UNL     1       1.432  -4.937  -0.044  1.00  0.00     0.020 C 
BRANCH  19  20
ATOM     20  C   UNL     1       0.785  -4.534   1.295  1.00  0.00    -0.017 C 
ATOM     21  C   UNL     1       0.764  -3.016   1.500  1.00  0.00     0.007 C 
ATOM     22  C   UNL     1      -0.654  -5.059   1.373  1.00  0.00     0.007 C 
ENDBRANCH  19  20
ENDBRANCH   8  19
ENDBRANCH   6   8
ENDBRANCH   5   6
ENDBRANCH   4   5
ENDBRANCH   3   4
ENDBRANCH   2   3
ENDBRANCH   1   2
BRANCH   1  23
ATOM     23  C   UNL     1       0.451  -8.514  -2.103  1.00  0.00     0.261 C 
BRANCH  23  24
ATOM     24  O   UNL     1       0.545  -8.859  -0.708  1.00  0.00    -0.460 OA
BRANCH  24  25
ATOM     25  C   UNL     1       0.328 -10.173  -0.444  1.00  0.00     0.338 C 
ATOM     26  O   UNL     1       0.083 -11.051  -1.257  1.00  0.00    -0.246 OA
BRANCH  25  27
ATOM     27  C   UNL     1       0.569 -10.492   0.974  1.00  0.00     0.060 A 
ATOM     28  C   UNL     1       1.598 -11.394   1.270  1.00  0.00     0.016 A 
ATOM     29  C   UNL     1      -0.328 -10.089   1.964  1.00  0.00     0.016 A 
ATOM     30  C   UNL     1       1.692 -11.950   2.545  1.00  0.00     0.010 A 
ATOM     31  C   UNL     1      -0.229 -10.648   3.246  1.00  0.00     0.010 A 
ATOM     32  C   UNL     1       0.749 -11.620   3.528  1.00  0.00    -0.014 A 
BRANCH  32  33
ATOM     33  C   UNL     1       0.714 -12.406   4.791  1.00  0.00     0.031 A 
ATOM     34  C   UNL     1      -0.363 -13.443   4.992  1.00  0.00     0.074 A 
ATOM     35  C   UNL     1       1.671 -12.243   5.723  1.00  0.00     0.049 A 
ATOM     36  N   UNL     1      -0.565 -14.243   6.007  1.00  0.00    -0.248 NA
ATOM     37  C   UNL     1      -1.344 -13.597   3.905  1.00  0.00     0.031 C 
ATOM     38  C   UNL     1       2.781 -11.296   5.634  1.00  0.00     0.029 A 
ATOM     39  N   UNL     1       1.861 -12.871   6.929  1.00  0.00    -0.354 N 
ATOM     40  C   UNL     1      -1.698 -14.986   5.690  1.00  0.00     0.074 A 
ATOM     41  C   UNL     1      -2.158 -14.518   4.400  1.00  0.00     0.031 C 
ATOM     42  C   UNL     1       3.537 -11.405   6.740  1.00  0.00     0.029 A 
ATOM     43  C   UNL     1       2.946 -12.402   7.630  1.00  0.00     0.049 A 
ATOM     44  H   UNL     1       1.276 -13.590   7.261  1.00  0.00     0.167 HD
ATOM     45  C   UNL     1      -2.294 -15.973   6.402  1.00  0.00     0.037 A 
ATOM     46  C   UNL     1       3.399 -12.722   8.859  1.00  0.00     0.037 A 
ATOM     47  C   UNL     1      -1.824 -16.444   7.681  1.00  0.00     0.049 A 
ATOM     48  C   UNL     1       2.689 -13.788   9.654  1.00  0.00     0.074 A 
ATOM     49  C   UNL     1      -2.338 -17.464   8.463  1.00  0.00     0.029 A 
ATOM     50  N   UNL     1      -0.740 -15.922   8.372  1.00  0.00    -0.354 N 
ATOM     51  N   UNL     1       1.643 -14.507   9.323  1.00  0.00    -0.248 NA
ATOM     52  C   UNL     1       3.227 -14.091  10.988  1.00  0.00     0.031 C 
ATOM     53  C   UNL     1      -1.606 -17.516   9.653  1.00  0.00     0.029 A 
ATOM     54  C   UNL     1      -0.591 -16.576   9.585  1.00  0.00     0.049 A 
ATOM     55  H   UNL     1      -0.161 -15.195   8.047  1.00  0.00     0.167 HD
ATOM     56  C   UNL     1       1.413 -15.363  10.396  1.00  0.00     0.074 A 
ATOM     57  C   UNL     1       2.442 -15.086  11.376  1.00  0.00     0.031 C 
ATOM     58  C   UNL     1       0.437 -16.292  10.557  1.00  0.00     0.037 A 
BRANCH  45  59
ATOM     59  C   UNL     1      -3.539 -16.602   5.831  1.00  0.00     0.058 A 
ATOM     60  C   UNL     1      -3.503 -17.438   4.704  1.00  0.00     0.135 A 
ATOM     61  C   UNL     1      -4.782 -16.406   6.458  1.00  0.00     0.135 A 
ATOM     62  F   UNL     1      -2.346 -17.650   4.056  1.00  0.00    -0.206 F 
ATOM     63  C   UNL     1      -4.655 -18.038   4.205  1.00  0.00     0.059 A 
ATOM     64  C   UNL     1      -5.941 -17.021   5.995  1.00  0.00     0.059 A 
ATOM     65  F   UNL     1      -4.876 -15.617   7.539  1.00  0.00    -0.206 F 
ATOM     66  C   UNL     1      -5.870 -17.826   4.860  1.00  0.00     0.060 A 
BRANCH  66  67
ATOM     67  S   UNL     1      -7.352 -18.627   4.209  1.00  0.00     0.124 S 
ATOM     68  O   UNL     1      -7.567 -17.882   2.972  1.00  0.00    -0.237 OA
ATOM     69  O   UNL     1      -6.914 -20.009   4.048  1.00  0.00    -0.237 OA
ATOM     70  O   UNL     1      -8.347 -18.405   5.254  1.00  0.00    -0.744 OA
ENDBRANCH  66  67
ENDBRANCH  45  59
BRANCH  46  71
ATOM     71  C   UNL     1       4.579 -12.012   9.424  1.00  0.00     0.058 A 
ATOM     72  C   UNL     1       5.793 -12.678   9.651  1.00  0.00     0.135 A 
ATOM     73  C   UNL     1       4.512 -10.649   9.755  1.00  0.00     0.135 A 
ATOM     74  F   UNL     1       5.906 -13.983   9.364  1.00  0.00    -0.206 F 
ATOM     75  C   UNL     1       6.891 -12.024  10.200  1.00  0.00     0.059 A 
ATOM     76  C   UNL     1       5.606  -9.966  10.275  1.00  0.00     0.059 A 
ATOM     77  F   UNL     1       3.377  -9.962   9.549  1.00  0.00    -0.206 F 
ATOM     78  C   UNL     1       6.789 -10.665  10.504  1.00  0.00     0.060 A 
BRANCH  78  79
ATOM     79  S   UNL     1       8.237  -9.815  11.168  1.00  0.00     0.124 S 
ATOM     80  O   UNL     1       8.314 -10.371  12.514  1.00  0.00    -0.237 OA
ATOM     81  O   UNL     1       9.286 -10.232  10.242  1.00  0.00    -0.237 OA
ATOM     82  O   UNL     1       7.865  -8.405  11.087  1.00  0.00    -0.744 OA
ENDBRANCH  78  79
ENDBRANCH  46  71
BRANCH  58  83
ATOM     83  C   UNL     1       0.451 -17.103  11.827  1.00  0.00     0.058 A 
ATOM     84  C   UNL     1       0.142 -16.535  13.073  1.00  0.00     0.135 A 
ATOM     85  C   UNL     1       0.745 -18.477  11.792  1.00  0.00     0.135 A 
ATOM     86  F   UNL     1      -0.143 -15.227  13.168  1.00  0.00    -0.206 F 
ATOM     87  C   UNL     1       0.160 -17.290  14.243  1.00  0.00     0.059 A 
ATOM     88  C   UNL     1       0.735 -19.258  12.944  1.00  0.00     0.059 A 
ATOM     89  F   UNL     1       1.036 -19.078  10.627  1.00  0.00    -0.206 F 
ATOM     90  C   UNL     1       0.458 -18.652  14.167  1.00  0.00     0.060 A 
BRANCH  90  91
ATOM     91  S   UNL     1       0.465 -19.622  15.690  1.00  0.00     0.124 S 
ATOM     92  O   UNL     1       1.680 -19.140  16.340  1.00  0.00    -0.237 OA
ATOM     93  O   UNL     1      -0.790 -19.223  16.319  1.00  0.00    -0.237 OA
ATOM     94  O   UNL     1       0.512 -21.001  15.216  1.00  0.00    -0.744 OA
ENDBRANCH  90  91
ENDBRANCH  58  83
ENDBRANCH  32  33
ENDBRANCH  25  27
ENDBRANCH  24  25
ENDBRANCH  23  24
ENDBRANCH   1  23
TORSDOF 21
