REMARK SMILES COc1cc(C(=O)N[C@H]2CCCC[C@H]2C(=O)OCCOCCOC(=O)c2ccc(-c3c4nc(c(-c5c(F)cc(S(=O)(=O)[O-])cc5F)c5ccc([nH]5)c(-c5c(F)cc(S(=O)(=O)[O-])cc5F)c5nc(c(-c6c(F)cc(S(=O)(=O)[O-])cc6F)c6ccc3[nH]6)C=C5)C=C4)cc2)cc(Cl)c1OC
REMARK SMILES IDX 20 1 19 2 18 3 17 4 15 5 16 6 14 7 9 8 10 9 11 10 13 11
REMARK SMILES IDX 12 12 8 13 6 14 7 15 5 17 3 18 4 19 95 20 93 21 92 22 94 23
REMARK SMILES IDX 2 24 1 25 96 26 97 27 21 28 22 29 23 30 24 31 25 32 26 33
REMARK SMILES IDX 27 34 91 35 28 36 90 37 29 38 30 39 31 40 84 41 32 42 89 43
REMARK SMILES IDX 83 44 85 45 33 46 88 47 82 48 81 49 34 51 68 52 47 53 67 54
REMARK SMILES IDX 48 55 51 56 66 57 86 58 49 59 50 60 65 62 87 63 52 64 35 65
REMARK SMILES IDX 36 66 45 67 37 68 38 69 44 70 46 71 39 72 40 73 41 74 42 75
REMARK SMILES IDX 43 76 69 77 70 78 79 79 71 80 72 81 78 82 80 83 73 84 74 85
REMARK SMILES IDX 75 86 76 87 77 88 53 89 54 90 63 91 55 92 56 93 62 94 64 95
REMARK SMILES IDX 57 96 58 97 59 98 60 99 61 100
REMARK H PARENT 8 16 85 50 51 61
REMARK Flexibility Score: inf
ROOT
ATOM      1  O   UNL     1       6.290  -6.903  -2.116  1.00  0.00    -0.374 OA
ENDROOT
BRANCH   1   2
ATOM      2  C   UNL     1       5.219  -7.842  -2.023  1.00  0.00     0.202 C 
BRANCH   2   3
ATOM      3  C   UNL     1       5.088  -8.579  -0.693  1.00  0.00     0.261 C 
BRANCH   3   4
ATOM      4  O   UNL     1       4.455  -7.746   0.305  1.00  0.00    -0.463 OA
BRANCH   4   5
ATOM      5  C   UNL     1       4.981  -7.748   1.560  1.00  0.00     0.311 C 
ATOM      6  O   UNL     1       6.077  -8.208   1.856  1.00  0.00    -0.252 OA
BRANCH   5   7
ATOM      7  C   UNL     1       4.016  -7.190   2.596  1.00  0.00     0.121 C 
ATOM      8  C   UNL     1       2.706  -6.636   2.040  1.00  0.00     0.096 C 
ATOM      9  C   UNL     1       2.031  -5.810   3.162  1.00  0.00     0.026 C 
ATOM     10  C   UNL     1       1.764  -6.640   4.416  1.00  0.00     0.002 C 
ATOM     11  C   UNL     1       3.758  -8.082   3.823  1.00  0.00     0.017 C 
ATOM     12  C   UNL     1       3.027  -7.328   4.932  1.00  0.00     0.001 C 
BRANCH   8  13
ATOM     13  N   UNL     1       1.681  -7.477   1.370  1.00  0.00    -0.348 N 
ATOM     14  C   UNL     1       1.254  -8.710   0.967  1.00  0.00     0.251 C 
ATOM     15  O   UNL     1       0.193  -8.665   0.330  1.00  0.00    -0.269 OA
ATOM     16  H   UNL     1       0.978  -6.851   1.080  1.00  0.00     0.164 HD
BRANCH  14  17
ATOM     17  C   UNL     1       1.839 -10.071   1.157  1.00  0.00     0.045 A 
ATOM     18  C   UNL     1       1.549 -12.486   0.897  1.00  0.00     0.163 A 
ATOM     19  C   UNL     1       1.048 -11.175   0.810  1.00  0.00     0.064 A 
ATOM     20  C   UNL     1       2.823 -12.754   1.408  1.00  0.00     0.179 A 
ATOM     21  C   UNL     1       3.636 -11.664   1.684  1.00  0.00     0.087 A 
ATOM     22  C   UNL     1       3.131 -10.363   1.553  1.00  0.00     0.038 A 
ATOM     23  Cl  UNL     1       5.313 -11.795   2.093  1.00  0.00    -0.080 Cl
BRANCH  18  24
ATOM     24  O   UNL     1       0.763 -13.528   0.473  1.00  0.00    -0.493 OA
ATOM     25  C   UNL     1       0.746 -13.559  -0.959  1.00  0.00     0.278 C 
ENDBRANCH  18  24
BRANCH  20  26
ATOM     26  O   UNL     1       3.214 -14.063   1.495  1.00  0.00    -0.491 OA
ATOM     27  C   UNL     1       3.794 -14.424   2.749  1.00  0.00     0.278 C 
ENDBRANCH  20  26
ENDBRANCH  14  17
ENDBRANCH   8  13
ENDBRANCH   5   7
ENDBRANCH   4   5
ENDBRANCH   3   4
ENDBRANCH   2   3
ENDBRANCH   1   2
BRANCH   1  28
ATOM     28  C   UNL     1       6.375  -5.906  -1.108  1.00  0.00     0.202 C 
BRANCH  28  29
ATOM     29  C   UNL     1       5.382  -4.735  -1.170  1.00  0.00     0.261 C 
BRANCH  29  30
ATOM     30  O   UNL     1       4.058  -5.062  -1.614  1.00  0.00    -0.460 OA
BRANCH  30  31
ATOM     31  C   UNL     1       3.880  -4.893  -2.949  1.00  0.00     0.338 C 
ATOM     32  O   UNL     1       4.727  -4.530  -3.758  1.00  0.00    -0.246 OA
BRANCH  31  33
ATOM     33  C   UNL     1       2.517  -5.272  -3.366  1.00  0.00     0.060 A 
ATOM     34  C   UNL     1       2.387  -6.143  -4.454  1.00  0.00     0.016 A 
ATOM     35  C   UNL     1       1.388  -4.664  -2.809  1.00  0.00     0.016 A 
ATOM     36  C   UNL     1       1.135  -6.360  -5.030  1.00  0.00     0.010 A 
ATOM     37  C   UNL     1       0.133  -4.880  -3.393  1.00  0.00     0.010 A 
ATOM     38  C   UNL     1       0.006  -5.693  -4.534  1.00  0.00    -0.014 A 
BRANCH  38  39
ATOM     39  C   UNL     1      -1.264  -5.731  -5.305  1.00  0.00     0.031 A 
ATOM     40  C   UNL     1      -1.616  -4.570  -6.200  1.00  0.00     0.074 A 
ATOM     41  C   UNL     1      -2.082  -6.798  -5.237  1.00  0.00     0.049 A 
ATOM     42  N   UNL     1      -2.674  -4.391  -6.950  1.00  0.00    -0.248 NA
ATOM     43  C   UNL     1      -0.650  -3.460  -6.254  1.00  0.00     0.031 C 
ATOM     44  C   UNL     1      -1.848  -7.992  -4.425  1.00  0.00     0.029 A 
ATOM     45  N   UNL     1      -3.281  -7.045  -5.859  1.00  0.00    -0.354 N 
ATOM     46  C   UNL     1      -2.509  -3.148  -7.551  1.00  0.00     0.074 A 
ATOM     47  C   UNL     1      -1.257  -2.608  -7.068  1.00  0.00     0.031 C 
ATOM     48  C   UNL     1      -2.878  -8.839  -4.589  1.00  0.00     0.029 A 
ATOM     49  C   UNL     1      -3.856  -8.240  -5.496  1.00  0.00     0.049 A 
ATOM     50  H   UNL     1      -3.691  -6.424  -6.504  1.00  0.00     0.167 HD
ATOM     51  C   UNL     1      -3.324  -2.518  -8.431  1.00  0.00     0.037 A 
ATOM     52  C   UNL     1      -5.044  -8.778  -5.839  1.00  0.00     0.037 A 
ATOM     53  C   UNL     1      -4.556  -3.067  -8.933  1.00  0.00     0.049 A 
ATOM     54  C   UNL     1      -5.946  -8.041  -6.796  1.00  0.00     0.074 A 
ATOM     55  C   UNL     1      -5.418  -2.526  -9.872  1.00  0.00     0.029 A 
ATOM     56  N   UNL     1      -5.107  -4.275  -8.536  1.00  0.00    -0.354 N 
ATOM     57  N   UNL     1      -5.750  -6.891  -7.397  1.00  0.00    -0.248 NA
ATOM     58  C   UNL     1      -7.231  -8.676  -7.125  1.00  0.00     0.031 C 
ATOM     59  C   UNL     1      -6.513  -3.385 -10.008  1.00  0.00     0.029 A 
ATOM     60  C   UNL     1      -6.311  -4.482  -9.188  1.00  0.00     0.049 A 
ATOM     61  H   UNL     1      -4.702  -4.894  -7.886  1.00  0.00     0.167 HD
ATOM     62  C   UNL     1      -6.873  -6.679  -8.191  1.00  0.00     0.074 A 
ATOM     63  C   UNL     1      -7.740  -7.824  -8.004  1.00  0.00     0.031 C 
ATOM     64  C   UNL     1      -7.160  -5.632  -9.003  1.00  0.00     0.037 A 
BRANCH  51  65
ATOM     65  C   UNL     1      -2.927  -1.147  -8.901  1.00  0.00     0.058 A 
ATOM     66  C   UNL     1      -1.901  -0.953  -9.838  1.00  0.00     0.135 A 
ATOM     67  C   UNL     1      -3.635  -0.017  -8.459  1.00  0.00     0.135 A 
ATOM     68  F   UNL     1      -1.185  -1.998 -10.281  1.00  0.00    -0.206 F 
ATOM     69  C   UNL     1      -1.583   0.316 -10.314  1.00  0.00     0.059 A 
ATOM     70  C   UNL     1      -3.348   1.258  -8.937  1.00  0.00     0.059 A 
ATOM     71  F   UNL     1      -4.623  -0.148  -7.560  1.00  0.00    -0.206 F 
ATOM     72  C   UNL     1      -2.314   1.415  -9.859  1.00  0.00     0.060 A 
BRANCH  72  73
ATOM     73  S   UNL     1      -1.911   3.051 -10.508  1.00  0.00     0.124 S 
ATOM     74  O   UNL     1      -0.660   3.340  -9.814  1.00  0.00    -0.237 OA
ATOM     75  O   UNL     1      -1.798   2.801 -11.941  1.00  0.00    -0.237 OA
ATOM     76  O   UNL     1      -3.053   3.867 -10.107  1.00  0.00    -0.744 OA
ENDBRANCH  72  73
ENDBRANCH  51  65
BRANCH  52  77
ATOM     77  C   UNL     1      -5.471 -10.078  -5.256  1.00  0.00     0.058 A 
ATOM     78  C   UNL     1      -5.569 -11.233  -6.045  1.00  0.00     0.135 A 
ATOM     79  C   UNL     1      -5.821 -10.180  -3.901  1.00  0.00     0.135 A 
ATOM     80  F   UNL     1      -5.257 -11.183  -7.349  1.00  0.00    -0.206 F 
ATOM     81  C   UNL     1      -6.021 -12.439  -5.518  1.00  0.00     0.059 A 
ATOM     82  C   UNL     1      -6.252 -11.380  -3.345  1.00  0.00     0.059 A 
ATOM     83  F   UNL     1      -5.739  -9.105  -3.101  1.00  0.00    -0.206 F 
ATOM     84  C   UNL     1      -6.364 -12.501  -4.166  1.00  0.00     0.060 A 
BRANCH  84  85
ATOM     85  S   UNL     1      -6.928 -14.075  -3.483  1.00  0.00     0.124 S 
ATOM     86  O   UNL     1      -8.296 -14.138  -3.985  1.00  0.00    -0.237 OA
ATOM     87  O   UNL     1      -5.987 -15.023  -4.072  1.00  0.00    -0.237 OA
ATOM     88  O   UNL     1      -6.792 -13.881  -2.042  1.00  0.00    -0.744 OA
ENDBRANCH  84  85
ENDBRANCH  52  77
BRANCH  64  89
ATOM     89  C   UNL     1      -8.446  -5.685  -9.781  1.00  0.00     0.058 A 
ATOM     90  C   UNL     1      -9.689  -5.472  -9.165  1.00  0.00     0.135 A 
ATOM     91  C   UNL     1      -8.429  -5.896 -11.169  1.00  0.00     0.135 A 
ATOM     92  F   UNL     1      -9.761  -5.270  -7.840  1.00  0.00    -0.206 F 
ATOM     93  C   UNL     1     -10.873  -5.488  -9.896  1.00  0.00     0.059 A 
ATOM     94  C   UNL     1      -9.598  -5.892 -11.923  1.00  0.00     0.059 A 
ATOM     95  F   UNL     1      -7.265  -6.093 -11.809  1.00  0.00    -0.206 F 
ATOM     96  C   UNL     1     -10.818  -5.699 -11.275  1.00  0.00     0.060 A 
BRANCH  96  97
ATOM     97  S   UNL     1     -12.357  -5.684 -12.220  1.00  0.00     0.124 S 
ATOM     98  O   UNL     1     -12.915  -6.991 -11.892  1.00  0.00    -0.237 OA
ATOM     99  O   UNL     1     -13.060  -4.535 -11.658  1.00  0.00    -0.237 OA
ATOM    100  O   UNL     1     -11.907  -5.521 -13.599  1.00  0.00    -0.744 OA
ENDBRANCH  96  97
ENDBRANCH  64  89
ENDBRANCH  38  39
ENDBRANCH  31  33
ENDBRANCH  30  31
ENDBRANCH  29  30
ENDBRANCH  28  29
ENDBRANCH   1  28
TORSDOF 21
