REMARK SMILES CC(C)Cc1ccc([C@H](C)C(=O)OCCOCCOC(=O)c2ccc(-c3c4nc(c(-c5c(F)cc(S(=O)(=O)[O-])cc5F)c5ccc([nH]5)c(-c5c(F)cc(S(=O)(=O)[O-])cc5F)c5nc(c(-c6c(F)cc(S(=O)(=O)[O-])cc6F)c6ccc3[nH]6)C=C5)C=C4)cc2)cc1
REMARK SMILES IDX 16 1 15 2 14 3 13 4 11 5 12 6 9 7 10 8 8 9 5 10 6 11 89 12
REMARK SMILES IDX 7 13 88 14 4 15 2 16 1 17 3 18 17 19 18 20 19 21 20 22 21 23
REMARK SMILES IDX 22 24 23 25 87 26 24 27 86 28 25 29 26 30 27 31 80 32 28 33
REMARK SMILES IDX 85 34 79 35 81 36 29 37 84 38 78 39 77 40 30 42 64 43 43 44
REMARK SMILES IDX 63 45 44 46 47 47 62 48 82 49 45 50 46 51 61 53 83 54 48 55
REMARK SMILES IDX 31 56 32 57 41 58 33 59 34 60 40 61 42 62 35 63 36 64 37 65
REMARK SMILES IDX 38 66 39 67 65 68 66 69 75 70 67 71 68 72 74 73 76 74 69 75
REMARK SMILES IDX 70 76 71 77 72 78 73 79 49 80 50 81 59 82 51 83 52 84 58 85
REMARK SMILES IDX 60 86 53 87 54 88 55 89 56 90 57 91
REMARK H PARENT 81 41 47 52
REMARK Flexibility Score: inf
ROOT
ATOM      1  O   UNL     1       0.680  -0.456  -6.840  1.00  0.00    -0.374 OA
ENDROOT
BRANCH   1   2
ATOM      2  C   UNL     1       0.548   0.957  -6.690  1.00  0.00     0.202 C 
BRANCH   2   3
ATOM      3  C   UNL     1      -0.874   1.525  -6.666  1.00  0.00     0.261 C 
BRANCH   3   4
ATOM      4  O   UNL     1      -1.635   1.014  -5.561  1.00  0.00    -0.463 OA
BRANCH   4   5
ATOM      5  C   UNL     1      -2.675   0.201  -5.893  1.00  0.00     0.313 C 
ATOM      6  O   UNL     1      -3.034  -0.039  -7.042  1.00  0.00    -0.252 OA
BRANCH   5   7
ATOM      7  C   UNL     1      -3.321  -0.459  -4.673  1.00  0.00     0.126 C 
ATOM      8  C   UNL     1      -2.623  -0.229  -3.331  1.00  0.00     0.025 C 
BRANCH   7   9
ATOM      9  C   UNL     1      -4.793  -0.109  -4.628  1.00  0.00    -0.034 A 
ATOM     10  C   UNL     1      -7.501   0.605  -4.853  1.00  0.00    -0.048 A 
ATOM     11  C   UNL     1      -7.086  -0.701  -5.140  1.00  0.00     0.004 A 
ATOM     12  C   UNL     1      -6.560   1.540  -4.412  1.00  0.00     0.004 A 
ATOM     13  C   UNL     1      -5.743  -1.054  -5.036  1.00  0.00     0.005 A 
ATOM     14  C   UNL     1      -5.216   1.186  -4.298  1.00  0.00     0.005 A 
BRANCH  10  15
ATOM     15  C   UNL     1      -8.930   1.015  -5.098  1.00  0.00     0.038 C 
BRANCH  15  16
ATOM     16  C   UNL     1      -9.155   1.642  -6.490  1.00  0.00    -0.013 C 
ATOM     17  C   UNL     1      -8.823   0.682  -7.636  1.00  0.00     0.008 C 
ATOM     18  C   UNL     1     -10.610   2.099  -6.613  1.00  0.00     0.008 C 
ENDBRANCH  15  16
ENDBRANCH  10  15
ENDBRANCH   7   9
ENDBRANCH   5   7
ENDBRANCH   4   5
ENDBRANCH   3   4
ENDBRANCH   2   3
ENDBRANCH   1   2
BRANCH   1  19
ATOM     19  C   UNL     1       0.356  -1.288  -5.727  1.00  0.00     0.202 C 
BRANCH  19  20
ATOM     20  C   UNL     1       1.283  -1.235  -4.507  1.00  0.00     0.261 C 
BRANCH  20  21
ATOM     21  O   UNL     1       1.260   0.046  -3.849  1.00  0.00    -0.460 OA
BRANCH  21  22
ATOM     22  C   UNL     1       2.458   0.678  -3.825  1.00  0.00     0.338 C 
ATOM     23  O   UNL     1       3.528   0.237  -4.223  1.00  0.00    -0.246 OA
BRANCH  22  24
ATOM     24  C   UNL     1       2.307   2.084  -3.411  1.00  0.00     0.060 A 
ATOM     25  C   UNL     1       2.824   3.058  -4.274  1.00  0.00     0.016 A 
ATOM     26  C   UNL     1       1.807   2.439  -2.156  1.00  0.00     0.016 A 
ATOM     27  C   UNL     1       2.924   4.380  -3.853  1.00  0.00     0.010 A 
ATOM     28  C   UNL     1       1.914   3.771  -1.732  1.00  0.00     0.010 A 
ATOM     29  C   UNL     1       2.526   4.732  -2.557  1.00  0.00    -0.014 A 
BRANCH  29  30
ATOM     30  C   UNL     1       2.966   6.044  -2.018  1.00  0.00     0.031 A 
ATOM     31  C   UNL     1       4.216   6.095  -1.177  1.00  0.00     0.074 A 
ATOM     32  C   UNL     1       2.330   7.181  -2.351  1.00  0.00     0.049 A 
ATOM     33  N   UNL     1       4.832   7.129  -0.664  1.00  0.00    -0.248 NA
ATOM     34  C   UNL     1       4.862   4.805  -0.880  1.00  0.00     0.031 C 
ATOM     35  C   UNL     1       1.140   7.268  -3.195  1.00  0.00     0.029 A 
ATOM     36  N   UNL     1       2.612   8.485  -2.029  1.00  0.00    -0.354 N 
ATOM     37  C   UNL     1       5.936   6.617   0.009  1.00  0.00     0.074 A 
ATOM     38  C   UNL     1       5.884   5.178  -0.126  1.00  0.00     0.031 C 
ATOM     39  C   UNL     1       0.797   8.560  -3.331  1.00  0.00     0.029 A 
ATOM     40  C   UNL     1       1.731   9.390  -2.571  1.00  0.00     0.049 A 
ATOM     41  H   UNL     1       3.373   8.748  -1.462  1.00  0.00     0.167 HD
ATOM     42  C   UNL     1       6.916   7.283   0.665  1.00  0.00     0.037 A 
ATOM     43  C   UNL     1       1.686  10.733  -2.465  1.00  0.00     0.037 A 
ATOM     44  C   UNL     1       6.969   8.715   0.800  1.00  0.00     0.049 A 
ATOM     45  C   UNL     1       2.754  11.450  -1.681  1.00  0.00     0.074 A 
ATOM     46  C   UNL     1       7.913   9.485   1.455  1.00  0.00     0.029 A 
ATOM     47  N   UNL     1       6.035   9.592   0.270  1.00  0.00    -0.354 N 
ATOM     48  N   UNL     1       3.795  10.953  -1.056  1.00  0.00    -0.248 NA
ATOM     49  C   UNL     1       2.647  12.914  -1.598  1.00  0.00     0.031 C 
ATOM     50  C   UNL     1       7.531  10.828   1.350  1.00  0.00     0.029 A 
ATOM     51  C   UNL     1       6.373  10.896   0.592  1.00  0.00     0.049 A 
ATOM     52  H   UNL     1       5.247   9.327  -0.259  1.00  0.00     0.167 HD
ATOM     53  C   UNL     1       4.485  12.044  -0.536  1.00  0.00     0.074 A 
ATOM     54  C   UNL     1       3.744  13.227  -0.921  1.00  0.00     0.031 C 
ATOM     55  C   UNL     1       5.631  12.065   0.189  1.00  0.00     0.037 A 
BRANCH  42  56
ATOM     56  C   UNL     1       7.997   6.458   1.306  1.00  0.00     0.058 A 
ATOM     57  C   UNL     1       8.976   5.802   0.542  1.00  0.00     0.135 A 
ATOM     58  C   UNL     1       8.055   6.320   2.702  1.00  0.00     0.135 A 
ATOM     59  F   UNL     1       8.955   5.886  -0.798  1.00  0.00    -0.206 F 
ATOM     60  C   UNL     1       9.952   5.009   1.136  1.00  0.00     0.059 A 
ATOM     61  C   UNL     1       9.038   5.552   3.320  1.00  0.00     0.059 A 
ATOM     62  F   UNL     1       7.143   6.924   3.480  1.00  0.00    -0.206 F 
ATOM     63  C   UNL     1       9.970   4.885   2.526  1.00  0.00     0.060 A 
BRANCH  63  64
ATOM     64  S   UNL     1      11.229   3.836   3.286  1.00  0.00     0.124 S 
ATOM     65  O   UNL     1      10.710   2.503   2.994  1.00  0.00    -0.237 OA
ATOM     66  O   UNL     1      12.436   4.218   2.561  1.00  0.00    -0.237 OA
ATOM     67  O   UNL     1      11.194   4.229   4.691  1.00  0.00    -0.744 OA
ENDBRANCH  63  64
ENDBRANCH  42  56
BRANCH  43  68
ATOM     68  C   UNL     1       0.596  11.492  -3.134  1.00  0.00     0.058 A 
ATOM     69  C   UNL     1       0.854  12.297  -4.252  1.00  0.00     0.135 A 
ATOM     70  C   UNL     1      -0.725  11.422  -2.667  1.00  0.00     0.135 A 
ATOM     71  F   UNL     1       2.103  12.404  -4.729  1.00  0.00    -0.206 F 
ATOM     72  C   UNL     1      -0.159  13.017  -4.880  1.00  0.00     0.059 A 
ATOM     73  C   UNL     1      -1.758  12.114  -3.291  1.00  0.00     0.059 A 
ATOM     74  F   UNL     1      -1.024  10.658  -1.605  1.00  0.00    -0.206 F 
ATOM     75  C   UNL     1      -1.463  12.916  -4.393  1.00  0.00     0.060 A 
BRANCH  75  76
ATOM     76  S   UNL     1      -2.780  13.809  -5.246  1.00  0.00     0.124 S 
ATOM     77  O   UNL     1      -2.533  15.180  -4.816  1.00  0.00    -0.237 OA
ATOM     78  O   UNL     1      -2.492  13.517  -6.647  1.00  0.00    -0.237 OA
ATOM     79  O   UNL     1      -3.996  13.192  -4.723  1.00  0.00    -0.744 OA
ENDBRANCH  75  76
ENDBRANCH  43  68
BRANCH  55  80
ATOM     80  C   UNL     1       6.184  13.409   0.575  1.00  0.00     0.058 A 
ATOM     81  C   UNL     1       5.594  14.192   1.579  1.00  0.00     0.135 A 
ATOM     82  C   UNL     1       7.347  13.899  -0.041  1.00  0.00     0.135 A 
ATOM     83  F   UNL     1       4.479  13.771   2.196  1.00  0.00    -0.206 F 
ATOM     84  C   UNL     1       6.123  15.428   1.940  1.00  0.00     0.059 A 
ATOM     85  C   UNL     1       7.907  15.120   0.322  1.00  0.00     0.059 A 
ATOM     86  F   UNL     1       7.958  13.183  -0.999  1.00  0.00    -0.206 F 
ATOM     87  C   UNL     1       7.279  15.884   1.304  1.00  0.00     0.060 A 
BRANCH  87  88
ATOM     88  S   UNL     1       7.971  17.478   1.795  1.00  0.00     0.124 S 
ATOM     89  O   UNL     1       7.063  18.408   1.132  1.00  0.00    -0.237 OA
ATOM     90  O   UNL     1       7.874  17.428   3.251  1.00  0.00    -0.237 OA
ATOM     91  O   UNL     1       9.329  17.437   1.262  1.00  0.00    -0.744 OA
ENDBRANCH  87  88
ENDBRANCH  55  80
ENDBRANCH  29  30
ENDBRANCH  22  24
ENDBRANCH  21  22
ENDBRANCH  20  21
ENDBRANCH  19  20
ENDBRANCH   1  19
TORSDOF 20
