REMARK SMILES COc1cccc(-c2nn(-c3cc4c(cc3C(N)=O)OCO4)cc2C(=O)OCCOCCOC(=O)c2ccc(-c3c4nc(c(-c5c(F)cc(S(=O)(=O)[O-])cc5F)c5ccc([nH]5)c(-c5c(F)cc(S(=O)(=O)[O-])cc5F)c5nc(c(-c6c(F)cc(S(=O)(=O)[O-])cc6F)c6ccc3[nH]6)C=C5)C=C4)cc2)c1
REMARK SMILES IDX 31 1 30 2 29 3 28 4 27 5 25 6 26 7 24 8 8 9 9 10 10 11 23 12
REMARK SMILES IDX 7 13 3 14 4 15 102 16 5 17 6 18 2 19 1 20 11 21 12 22 16 23
REMARK SMILES IDX 13 24 15 25 14 26 22 27 20 28 21 29 17 30 18 31 19 32 32 35
REMARK SMILES IDX 33 36 34 37 35 38 36 39 37 40 101 41 38 42 100 43 39 44
REMARK SMILES IDX 40 45 41 46 94 47 42 48 99 49 93 50 95 51 43 52 98 53 92 54
REMARK SMILES IDX 91 55 44 57 78 58 57 59 77 60 58 61 61 62 76 63 96 64 59 65
REMARK SMILES IDX 60 66 75 68 97 69 62 70 45 71 46 72 55 73 47 74 48 75 54 76
REMARK SMILES IDX 56 77 49 78 50 79 51 80 52 81 53 82 79 83 80 84 89 85 81 86
REMARK SMILES IDX 82 87 88 88 90 89 83 90 84 91 85 92 86 93 87 94 63 95 64 96
REMARK SMILES IDX 73 97 65 98 66 99 72 100 74 101 67 102 68 103 69 104 70 105
REMARK SMILES IDX 71 106
REMARK H PARENT 18 33 18 34 95 56 61 67
REMARK Flexibility Score: inf
ROOT
ATOM      1  C   UNL     1       1.693   3.061   6.570  1.00  0.00     0.202 C 
ENDROOT
BRANCH   1   2
ATOM      2  O   UNL     1       1.398   2.123   7.597  1.00  0.00    -0.374 OA
BRANCH   2   3
ATOM      3  C   UNL     1       2.448   1.406   8.246  1.00  0.00     0.202 C 
BRANCH   3   4
ATOM      4  C   UNL     1       3.320   0.465   7.415  1.00  0.00     0.261 C 
BRANCH   4   5
ATOM      5  O   UNL     1       4.164   1.172   6.495  1.00  0.00    -0.460 OA
BRANCH   5   6
ATOM      6  C   UNL     1       3.834   1.031   5.176  1.00  0.00     0.342 C 
ATOM      7  O   UNL     1       2.941   0.313   4.755  1.00  0.00    -0.246 OA
BRANCH   6   8
ATOM      8  C   UNL     1       4.605   1.905   4.322  1.00  0.00     0.106 A 
ATOM      9  C   UNL     1       4.204   2.578   3.135  1.00  0.00     0.107 A 
ATOM     10  N   UNL     1       5.256   3.162   2.532  1.00  0.00    -0.167 NA
ATOM     11  N   UNL     1       6.319   2.686   3.233  1.00  0.00    -0.239 N 
ATOM     12  C   UNL     1       5.929   2.249   4.476  1.00  0.00     0.131 A 
BRANCH   9  13
ATOM     13  C   UNL     1       2.840   2.709   2.633  1.00  0.00     0.007 A 
ATOM     14  C   UNL     1       0.987   1.870   1.315  1.00  0.00     0.119 A 
ATOM     15  C   UNL     1       0.154   2.835   1.891  1.00  0.00     0.046 A 
ATOM     16  C   UNL     1       2.330   1.798   1.700  1.00  0.00     0.056 A 
ATOM     17  C   UNL     1       0.657   3.749   2.814  1.00  0.00     0.005 A 
ATOM     18  C   UNL     1       2.005   3.702   3.161  1.00  0.00     0.011 A 
BRANCH  14  19
ATOM     19  O   UNL     1       0.367   1.083   0.383  1.00  0.00    -0.497 OA
ATOM     20  C   UNL     1       1.062  -0.078  -0.048  1.00  0.00     0.278 C 
ENDBRANCH  14  19
ENDBRANCH   9  13
BRANCH  11  21
ATOM     21  C   UNL     1       7.638   2.692   2.714  1.00  0.00     0.081 A 
ATOM     22  C   UNL     1       8.011   3.765   1.881  1.00  0.00     0.079 A 
ATOM     23  C   UNL     1       8.569   1.652   3.024  1.00  0.00     0.069 A 
ATOM     24  C   UNL     1       9.319   3.813   1.451  1.00  0.00     0.167 A 
ATOM     25  C   UNL     1       9.917   1.821   2.667  1.00  0.00     0.066 A 
ATOM     26  C   UNL     1      10.247   2.889   1.865  1.00  0.00     0.166 A 
ATOM     27  O   UNL     1       9.856   4.719   0.591  1.00  0.00    -0.454 OA
ATOM     28  O   UNL     1      11.477   3.101   1.325  1.00  0.00    -0.454 OA
ATOM     29  C   UNL     1      11.165   4.146   0.382  1.00  0.00     0.468 C 
BRANCH  23  30
ATOM     30  C   UNL     1       8.118   0.275   3.453  1.00  0.00     0.251 C 
ATOM     31  N   UNL     1       9.043  -0.726   3.567  1.00  0.00    -0.366 N 
ATOM     32  O   UNL     1       6.946  -0.041   3.610  1.00  0.00    -0.269 OA
ATOM     33  H   UNL     1      10.000  -0.527   3.449  1.00  0.00     0.159 HD
ATOM     34  H   UNL     1       8.752  -1.645   3.766  1.00  0.00     0.159 HD
ENDBRANCH  23  30
ENDBRANCH  11  21
ENDBRANCH   6   8
ENDBRANCH   5   6
ENDBRANCH   4   5
ENDBRANCH   3   4
ENDBRANCH   2   3
ENDBRANCH   1   2
BRANCH   1  35
ATOM     35  C   UNL     1       2.414   4.357   6.918  1.00  0.00     0.261 C 
BRANCH  35  36
ATOM     36  O   UNL     1       3.534   4.157   7.753  1.00  0.00    -0.460 OA
BRANCH  36  37
ATOM     37  C   UNL     1       3.238   4.332   9.062  1.00  0.00     0.338 C 
ATOM     38  O   UNL     1       2.135   4.330   9.577  1.00  0.00    -0.246 OA
BRANCH  37  39
ATOM     39  C   UNL     1       4.467   4.706   9.761  1.00  0.00     0.060 A 
ATOM     40  C   UNL     1       4.312   5.051  11.104  1.00  0.00     0.016 A 
ATOM     41  C   UNL     1       5.602   5.055   9.013  1.00  0.00     0.016 A 
ATOM     42  C   UNL     1       5.175   5.980  11.627  1.00  0.00     0.010 A 
ATOM     43  C   UNL     1       6.447   5.998   9.529  1.00  0.00     0.010 A 
ATOM     44  C   UNL     1       6.160   6.512  10.791  1.00  0.00    -0.014 A 
BRANCH  44  45
ATOM     45  C   UNL     1       6.988   7.571  11.309  1.00  0.00     0.031 A 
ATOM     46  C   UNL     1       7.987   7.053  12.265  1.00  0.00     0.074 A 
ATOM     47  C   UNL     1       6.891   8.833  10.854  1.00  0.00     0.049 A 
ATOM     48  N   UNL     1       7.991   7.206  13.546  1.00  0.00    -0.248 NA
ATOM     49  C   UNL     1       8.936   6.036  11.778  1.00  0.00     0.031 C 
ATOM     50  C   UNL     1       6.082   9.343   9.744  1.00  0.00     0.029 A 
ATOM     51  N   UNL     1       7.602   9.924  11.239  1.00  0.00    -0.354 N 
ATOM     52  C   UNL     1       9.117   6.522  13.983  1.00  0.00     0.074 A 
ATOM     53  C   UNL     1       9.484   5.625  12.921  1.00  0.00     0.031 C 
ATOM     54  C   UNL     1       6.522  10.576   9.403  1.00  0.00     0.029 A 
ATOM     55  C   UNL     1       7.556  10.984  10.336  1.00  0.00     0.049 A 
ATOM     56  H   UNL     1       8.107   9.962  12.083  1.00  0.00     0.167 HD
ATOM     57  C   UNL     1       9.838   6.979  15.041  1.00  0.00     0.037 A 
ATOM     58  C   UNL     1       8.404  12.047  10.337  1.00  0.00     0.037 A 
ATOM     59  C   UNL     1       9.067   7.914  15.824  1.00  0.00     0.049 A 
ATOM     60  C   UNL     1       8.992  12.119  11.709  1.00  0.00     0.074 A 
ATOM     61  C   UNL     1       7.859   7.841  16.492  1.00  0.00     0.029 A 
ATOM     62  N   UNL     1       9.323   9.255  15.649  1.00  0.00    -0.354 N 
ATOM     63  N   UNL     1       8.289  12.404  12.774  1.00  0.00    -0.248 NA
ATOM     64  C   UNL     1      10.215  11.366  11.961  1.00  0.00     0.031 C 
ATOM     65  C   UNL     1       7.230   9.098  16.259  1.00  0.00     0.029 A 
ATOM     66  C   UNL     1       8.116   9.899  15.537  1.00  0.00     0.049 A 
ATOM     67  H   UNL     1      10.212   9.676  15.611  1.00  0.00     0.167 HD
ATOM     68  C   UNL     1       8.735  11.519  13.749  1.00  0.00     0.074 A 
ATOM     69  C   UNL     1       9.967  10.946  13.207  1.00  0.00     0.031 C 
ATOM     70  C   UNL     1       7.915  11.104  14.761  1.00  0.00     0.037 A 
BRANCH  57  71
ATOM     71  C   UNL     1      11.342   6.896  15.117  1.00  0.00     0.058 A 
ATOM     72  C   UNL     1      11.982   7.257  16.317  1.00  0.00     0.135 A 
ATOM     73  C   UNL     1      12.191   6.746  13.995  1.00  0.00     0.135 A 
ATOM     74  F   UNL     1      11.273   7.432  17.444  1.00  0.00    -0.206 F 
ATOM     75  C   UNL     1      13.349   7.526  16.380  1.00  0.00     0.059 A 
ATOM     76  C   UNL     1      13.561   6.951  14.049  1.00  0.00     0.059 A 
ATOM     77  F   UNL     1      11.732   6.492  12.764  1.00  0.00    -0.206 F 
ATOM     78  C   UNL     1      14.126   7.383  15.234  1.00  0.00     0.060 A 
BRANCH  78  79
ATOM     79  S   UNL     1      15.868   7.826  15.281  1.00  0.00     0.124 S 
ATOM     80  O   UNL     1      15.795   9.272  15.449  1.00  0.00    -0.237 OA
ATOM     81  O   UNL     1      16.338   7.067  16.435  1.00  0.00    -0.237 OA
ATOM     82  O   UNL     1      16.367   7.364  13.989  1.00  0.00    -0.744 OA
ENDBRANCH  78  79
ENDBRANCH  57  71
BRANCH  58  83
ATOM     83  C   UNL     1       9.003  12.730   9.155  1.00  0.00     0.058 A 
ATOM     84  C   UNL     1       9.727  13.930   9.284  1.00  0.00     0.135 A 
ATOM     85  C   UNL     1       9.107  12.084   7.905  1.00  0.00     0.135 A 
ATOM     86  F   UNL     1       9.709  14.606  10.443  1.00  0.00    -0.206 F 
ATOM     87  C   UNL     1      10.538  14.432   8.255  1.00  0.00     0.059 A 
ATOM     88  C   UNL     1       9.897  12.569   6.864  1.00  0.00     0.059 A 
ATOM     89  F   UNL     1       8.516  10.901   7.682  1.00  0.00    -0.206 F 
ATOM     90  C   UNL     1      10.632  13.731   7.053  1.00  0.00     0.060 A 
BRANCH  90  91
ATOM     91  S   UNL     1      11.811  14.263   5.787  1.00  0.00     0.124 S 
ATOM     92  O   UNL     1      11.205  15.501   5.309  1.00  0.00    -0.237 OA
ATOM     93  O   UNL     1      13.043  14.409   6.554  1.00  0.00    -0.237 OA
ATOM     94  O   UNL     1      11.805  13.157   4.832  1.00  0.00    -0.744 OA
ENDBRANCH  90  91
ENDBRANCH  58  83
BRANCH  70  95
ATOM     95  C   UNL     1       6.598  11.816  14.953  1.00  0.00     0.058 A 
ATOM     96  C   UNL     1       5.551  11.823  14.012  1.00  0.00     0.135 A 
ATOM     97  C   UNL     1       6.328  12.376  16.209  1.00  0.00     0.135 A 
ATOM     98  F   UNL     1       5.685  11.208  12.829  1.00  0.00    -0.206 F 
ATOM     99  C   UNL     1       4.312  12.405  14.291  1.00  0.00     0.059 A 
ATOM    100  C   UNL     1       5.090  12.931  16.522  1.00  0.00     0.059 A 
ATOM    101  F   UNL     1       7.260  12.338  17.176  1.00  0.00    -0.206 F 
ATOM    102  C   UNL     1       4.092  12.960  15.551  1.00  0.00     0.060 A 
BRANCH 102 103
ATOM    103  S   UNL     1       2.475  13.666  15.936  1.00  0.00     0.124 S 
ATOM    104  O   UNL     1       2.476  14.886  15.135  1.00  0.00    -0.237 OA
ATOM    105  O   UNL     1       1.557  12.619  15.496  1.00  0.00    -0.237 OA
ATOM    106  O   UNL     1       2.527  13.869  17.382  1.00  0.00    -0.744 OA
ENDBRANCH 102 103
ENDBRANCH  70  95
ENDBRANCH  44  45
ENDBRANCH  37  39
ENDBRANCH  36  37
ENDBRANCH  35  36
ENDBRANCH   1  35
TORSDOF 21
