REMARK SMILES O=C(OCCOCCOC(=O)[C@@H](c1ccccc1)[C@H](C(=O)c1ccccc1)c1ccccc1)c1ccc(-c2c3nc(c(-c4c(F)cc(S(=O)(=O)[O-])cc4F)c4ccc([nH]4)c(-c4c(F)cc(S(=O)(=O)[O-])cc4F)c4nc(c(-c5c(F)cc(S(=O)(=O)[O-])cc5F)c5ccc2[nH]5)C=C4)C=C3)cc1
REMARK SMILES IDX 6 1 5 2 4 3 3 4 2 5 1 6 34 7 35 8 99 9 36 10 98 11 37 12
REMARK SMILES IDX 38 13 39 14 92 15 40 16 97 17 91 18 93 19 41 20 96 21 90 22
REMARK SMILES IDX 89 23 42 25 76 26 55 27 75 28 56 29 59 30 74 31 94 32 57 33
REMARK SMILES IDX 58 34 73 36 95 37 60 38 43 39 44 40 53 41 45 42 46 43 52 44
REMARK SMILES IDX 54 45 47 46 48 47 49 48 50 49 51 50 77 51 78 52 87 53 79 54
REMARK SMILES IDX 80 55 86 56 88 57 81 58 82 59 83 60 84 61 85 62 61 63 62 64
REMARK SMILES IDX 71 65 63 66 64 67 70 68 72 69 65 70 66 71 67 72 68 73 69 74
REMARK SMILES IDX 7 75 8 76 9 77 10 78 11 79 12 80 13 81 14 82 18 83 15 84
REMARK SMILES IDX 17 85 16 86 19 87 28 88 29 89 33 90 30 91 32 92 31 93 20 94
REMARK SMILES IDX 21 95 22 96 23 97 27 98 24 99 26 100 25 101
REMARK H PARENT 93 24 59 35
REMARK Flexibility Score: inf
ROOT
ATOM      1  O   UNL     1       3.636   5.245   2.620  1.00  0.00    -0.374 OA
ENDROOT
BRANCH   1   2
ATOM      2  C   UNL     1       4.876   5.943   2.570  1.00  0.00     0.202 C 
BRANCH   2   3
ATOM      3  C   UNL     1       5.849   5.850   3.752  1.00  0.00     0.261 C 
BRANCH   3   4
ATOM      4  O   UNL     1       6.239   4.478   4.026  1.00  0.00    -0.460 OA
BRANCH   4   5
ATOM      5  C   UNL     1       5.912   3.752   5.140  1.00  0.00     0.338 C 
ATOM      6  O   UNL     1       6.445   2.687   5.387  1.00  0.00    -0.246 OA
BRANCH   5   7
ATOM      7  C   UNL     1       4.868   4.302   6.034  1.00  0.00     0.060 A 
ATOM      8  C   UNL     1       3.767   4.864   5.439  1.00  0.00     0.016 A 
ATOM      9  C   UNL     1       4.916   4.292   7.416  1.00  0.00     0.016 A 
ATOM     10  C   UNL     1       2.967   5.763   6.062  1.00  0.00     0.010 A 
ATOM     11  C   UNL     1       3.889   4.939   8.123  1.00  0.00     0.010 A 
ATOM     12  C   UNL     1       2.931   5.709   7.433  1.00  0.00    -0.014 A 
BRANCH  12  13
ATOM     13  C   UNL     1       1.881   6.536   8.036  1.00  0.00     0.031 A 
ATOM     14  C   UNL     1       2.317   7.675   8.887  1.00  0.00     0.074 A 
ATOM     15  C   UNL     1       0.603   6.373   7.625  1.00  0.00     0.049 A 
ATOM     16  N   UNL     1       1.593   8.463   9.624  1.00  0.00    -0.248 NA
ATOM     17  C   UNL     1       3.763   7.968   8.918  1.00  0.00     0.031 C 
ATOM     18  C   UNL     1       0.142   5.388   6.627  1.00  0.00     0.029 A 
ATOM     19  N   UNL     1      -0.536   7.063   7.930  1.00  0.00    -0.354 N 
ATOM     20  C   UNL     1       2.496   9.302  10.256  1.00  0.00     0.074 A 
ATOM     21  C   UNL     1       3.822   8.933   9.821  1.00  0.00     0.031 C 
ATOM     22  C   UNL     1      -1.157   5.582   6.367  1.00  0.00     0.029 A 
ATOM     23  C   UNL     1      -1.656   6.588   7.284  1.00  0.00     0.049 A 
ATOM     24  H   UNL     1      -0.555   7.826   8.551  1.00  0.00     0.167 HD
ATOM     25  C   UNL     1       2.212  10.286  11.135  1.00  0.00     0.037 A 
ATOM     26  C   UNL     1      -2.953   6.881   7.481  1.00  0.00     0.037 A 
ATOM     27  C   UNL     1       0.862  10.606  11.507  1.00  0.00     0.049 A 
ATOM     28  C   UNL     1      -3.242   7.895   8.551  1.00  0.00     0.074 A 
ATOM     29  C   UNL     1       0.411  11.490  12.464  1.00  0.00     0.029 A 
ATOM     30  N   UNL     1      -0.263  10.046  10.907  1.00  0.00    -0.354 N 
ATOM     31  N   UNL     1      -2.388   8.586   9.276  1.00  0.00    -0.248 NA
ATOM     32  C   UNL     1      -4.649   8.156   8.855  1.00  0.00     0.031 C 
ATOM     33  C   UNL     1      -0.988  11.433  12.470  1.00  0.00     0.029 A 
ATOM     34  C   UNL     1      -1.410  10.560  11.476  1.00  0.00     0.049 A 
ATOM     35  H   UNL     1      -0.243   9.380  10.182  1.00  0.00     0.167 HD
ATOM     36  C   UNL     1      -3.155   9.374  10.118  1.00  0.00     0.074 A 
ATOM     37  C   UNL     1      -4.542   9.094   9.786  1.00  0.00     0.031 C 
ATOM     38  C   UNL     1      -2.763  10.241  11.086  1.00  0.00     0.037 A 
BRANCH  25  39
ATOM     39  C   UNL     1       3.373  10.980  11.779  1.00  0.00     0.058 A 
ATOM     40  C   UNL     1       4.209  11.855  11.068  1.00  0.00     0.135 A 
ATOM     41  C   UNL     1       3.691  10.716  13.121  1.00  0.00     0.135 A 
ATOM     42  F   UNL     1       3.984  12.098   9.767  1.00  0.00    -0.206 F 
ATOM     43  C   UNL     1       5.327  12.433  11.660  1.00  0.00     0.059 A 
ATOM     44  C   UNL     1       4.789  11.304  13.741  1.00  0.00     0.059 A 
ATOM     45  F   UNL     1       2.946   9.859  13.836  1.00  0.00    -0.206 F 
ATOM     46  C   UNL     1       5.606  12.154  12.999  1.00  0.00     0.060 A 
BRANCH  46  47
ATOM     47  S   UNL     1       7.052  12.925  13.756  1.00  0.00     0.124 S 
ATOM     48  O   UNL     1       8.143  12.216  13.093  1.00  0.00    -0.237 OA
ATOM     49  O   UNL     1       6.886  14.326  13.381  1.00  0.00    -0.237 OA
ATOM     50  O   UNL     1       6.888  12.635  15.177  1.00  0.00    -0.744 OA
ENDBRANCH  46  47
ENDBRANCH  25  39
BRANCH  26  51
ATOM     51  C   UNL     1      -4.031   6.140   6.766  1.00  0.00     0.058 A 
ATOM     52  C   UNL     1      -4.951   6.794   5.934  1.00  0.00     0.135 A 
ATOM     53  C   UNL     1      -4.179   4.748   6.916  1.00  0.00     0.135 A 
ATOM     54  F   UNL     1      -4.862   8.120   5.749  1.00  0.00    -0.206 F 
ATOM     55  C   UNL     1      -5.992   6.109   5.309  1.00  0.00     0.059 A 
ATOM     56  C   UNL     1      -5.187   4.036   6.274  1.00  0.00     0.059 A 
ATOM     57  F   UNL     1      -3.324   4.057   7.687  1.00  0.00    -0.206 F 
ATOM     58  C   UNL     1      -6.104   4.729   5.490  1.00  0.00     0.060 A 
BRANCH  58  59
ATOM     59  S   UNL     1      -7.462   3.849   4.687  1.00  0.00     0.124 S 
ATOM     60  O   UNL     1      -8.606   4.298   5.472  1.00  0.00    -0.237 OA
ATOM     61  O   UNL     1      -7.389   4.354   3.319  1.00  0.00    -0.237 OA
ATOM     62  O   UNL     1      -7.097   2.445   4.850  1.00  0.00    -0.744 OA
ENDBRANCH  58  59
ENDBRANCH  26  51
BRANCH  38  63
ATOM     63  C   UNL     1      -3.859  10.967  11.801  1.00  0.00     0.058 A 
ATOM     64  C   UNL     1      -4.691  10.319  12.725  1.00  0.00     0.135 A 
ATOM     65  C   UNL     1      -4.046  12.340  11.581  1.00  0.00     0.135 A 
ATOM     66  F   UNL     1      -4.551   9.004  12.957  1.00  0.00    -0.206 F 
ATOM     67  C   UNL     1      -5.699  11.004  13.386  1.00  0.00     0.059 A 
ATOM     68  C   UNL     1      -5.023  13.053  12.259  1.00  0.00     0.059 A 
ATOM     69  F   UNL     1      -3.262  13.001  10.714  1.00  0.00    -0.206 F 
ATOM     70  C   UNL     1      -5.855  12.372  13.147  1.00  0.00     0.060 A 
BRANCH  70  71
ATOM     71  S   UNL     1      -7.150  13.257  14.033  1.00  0.00     0.124 S 
ATOM     72  O   UNL     1      -8.348  12.785  13.346  1.00  0.00    -0.237 OA
ATOM     73  O   UNL     1      -6.973  12.780  15.401  1.00  0.00    -0.237 OA
ATOM     74  O   UNL     1      -6.812  14.660  13.815  1.00  0.00    -0.744 OA
ENDBRANCH  70  71
ENDBRANCH  38  63
ENDBRANCH  12  13
ENDBRANCH   5   7
ENDBRANCH   4   5
ENDBRANCH   3   4
ENDBRANCH   2   3
ENDBRANCH   1   2
BRANCH   1  75
ATOM     75  C   UNL     1       3.635   3.854   2.277  1.00  0.00     0.202 C 
BRANCH  75  76
ATOM     76  C   UNL     1       2.908   3.662   0.960  1.00  0.00     0.261 C 
BRANCH  76  77
ATOM     77  O   UNL     1       3.709   4.197  -0.099  1.00  0.00    -0.463 OA
BRANCH  77  78
ATOM     78  C   UNL     1       3.745   5.542  -0.295  1.00  0.00     0.314 C 
ATOM     79  O   UNL     1       3.004   6.357   0.235  1.00  0.00    -0.252 OA
BRANCH  78  80
ATOM     80  C   UNL     1       4.801   5.910  -1.327  1.00  0.00     0.144 C 
BRANCH  80  81
ATOM     81  C   UNL     1       6.194   6.418  -0.919  1.00  0.00    -0.033 A 
ATOM     82  C   UNL     1       7.348   6.077  -1.649  1.00  0.00     0.004 A 
ATOM     83  C   UNL     1       6.388   7.314   0.139  1.00  0.00     0.004 A 
ATOM     84  C   UNL     1       8.634   6.388  -1.206  1.00  0.00     0.000 A 
ATOM     85  C   UNL     1       7.676   7.633   0.597  1.00  0.00     0.000 A 
ATOM     86  C   UNL     1       8.801   7.133  -0.052  1.00  0.00     0.000 A 
ENDBRANCH  80  81
BRANCH  80  87
ATOM     87  C   UNL     1       4.715   4.813  -2.433  1.00  0.00     0.110 C 
BRANCH  87  88
ATOM     88  C   UNL     1       4.993   5.448  -3.808  1.00  0.00    -0.036 A 
ATOM     89  C   UNL     1       5.796   4.831  -4.768  1.00  0.00     0.004 A 
ATOM     90  C   UNL     1       4.483   6.734  -4.106  1.00  0.00     0.004 A 
ATOM     91  C   UNL     1       6.206   5.538  -5.900  1.00  0.00     0.000 A 
ATOM     92  C   UNL     1       4.930   7.455  -5.207  1.00  0.00     0.000 A 
ATOM     93  C   UNL     1       5.812   6.861  -6.094  1.00  0.00     0.000 A 
ENDBRANCH  87  88
BRANCH  87  94
ATOM     94  C   UNL     1       5.419   3.420  -2.156  1.00  0.00     0.171 C 
ATOM     95  O   UNL     1       5.062   2.419  -2.792  1.00  0.00    -0.293 OA
BRANCH  94  96
ATOM     96  C   UNL     1       6.600   3.192  -1.240  1.00  0.00     0.018 A 
ATOM     97  C   UNL     1       7.745   2.588  -1.772  1.00  0.00     0.012 A 
ATOM     98  C   UNL     1       6.628   3.512   0.119  1.00  0.00     0.012 A 
ATOM     99  C   UNL     1       8.899   2.418  -0.989  1.00  0.00     0.001 A 
ATOM    100  C   UNL     1       7.773   3.354   0.907  1.00  0.00     0.001 A 
ATOM    101  C   UNL     1       8.920   2.822   0.345  1.00  0.00     0.000 A 
ENDBRANCH  94  96
ENDBRANCH  87  94
ENDBRANCH  80  87
ENDBRANCH  78  80
ENDBRANCH  77  78
ENDBRANCH  76  77
ENDBRANCH  75  76
ENDBRANCH   1  75
TORSDOF 22
