REMARK SMILES Cc1c(CC(=O)OCCOCCOC(=O)c2ccc(-c3c4nc(c(-c5c(F)cc(S(=O)(=O)[O-])cc5F)c5ccc([nH]5)c(-c5c(F)cc(S(=O)(=O)[O-])cc5F)c5nc(c(-c6c(F)cc(S(=O)(=O)[O-])cc6F)c6ccc3[nH]6)C=C5)C=C4)cc2)c2cc(O)ccc2n1C(=O)c1ccc(Cl)cc1
REMARK SMILES IDX 10 1 9 2 8 3 7 4 5 5 6 6 4 7 3 8 1 9 2 10 89 11 82 12 88 13
REMARK SMILES IDX 83 14 87 15 84 16 86 17 90 18 91 19 92 20 93 21 98 22 94 23
REMARK SMILES IDX 97 24 95 25 96 26 85 27 11 29 12 30 13 31 14 32 15 33 16 34
REMARK SMILES IDX 17 35 81 36 18 37 80 38 19 39 20 40 21 41 74 42 22 43 79 44
REMARK SMILES IDX 73 45 75 46 23 47 78 48 72 49 71 50 24 52 58 53 37 54 57 55
REMARK SMILES IDX 38 56 41 57 56 58 76 59 39 60 40 61 55 63 77 64 42 65 25 66
REMARK SMILES IDX 26 67 35 68 27 69 28 70 34 71 36 72 29 73 30 74 31 75 32 76
REMARK SMILES IDX 33 77 59 78 60 79 69 80 61 81 62 82 68 83 70 84 63 85 64 86
REMARK SMILES IDX 65 87 66 88 67 89 43 90 44 91 53 92 45 93 46 94 52 95 54 96
REMARK SMILES IDX 47 97 48 98 49 99 50 100 51 101
REMARK H PARENT 85 28 75 51 41 62
REMARK Flexibility Score: inf
ROOT
ATOM      1  O   UNL     1       2.898  -5.137   3.903  1.00  0.00    -0.374 OA
ENDROOT
BRANCH   1   2
ATOM      2  C   UNL     1       4.011  -4.577   3.213  1.00  0.00     0.202 C 
BRANCH   2   3
ATOM      3  C   UNL     1       3.847  -4.010   1.793  1.00  0.00     0.261 C 
BRANCH   3   4
ATOM      4  O   UNL     1       2.701  -3.160   1.601  1.00  0.00    -0.463 OA
BRANCH   4   5
ATOM      5  C   UNL     1       1.676  -3.744   0.922  1.00  0.00     0.310 C 
ATOM      6  O   UNL     1       1.690  -4.904   0.513  1.00  0.00    -0.252 OA
BRANCH   5   7
ATOM      7  C   UNL     1       0.477  -2.858   0.670  1.00  0.00     0.160 C 
BRANCH   7   8
ATOM      8  C   UNL     1       0.251  -1.657   1.555  1.00  0.00    -0.008 A 
ATOM      9  C   UNL     1       1.174   0.202   0.008  1.00  0.00     0.065 C 
ATOM     10  C   UNL     1       0.529  -0.330   1.252  1.00  0.00     0.028 A 
ATOM     11  N   UNL     1       0.089   0.493   2.304  1.00  0.00    -0.280 N 
ATOM     12  C   UNL     1      -0.395  -1.663   2.827  1.00  0.00     0.008 A 
ATOM     13  C   UNL     1      -0.451  -0.344   3.299  1.00  0.00     0.057 A 
ATOM     14  C   UNL     1      -0.931  -2.702   3.625  1.00  0.00     0.056 A 
ATOM     15  C   UNL     1      -1.005  -0.081   4.573  1.00  0.00     0.031 A 
ATOM     16  C   UNL     1      -1.375  -2.430   4.914  1.00  0.00     0.116 A 
ATOM     17  C   UNL     1      -1.423  -1.136   5.389  1.00  0.00     0.048 A 
BRANCH  11  18
ATOM     18  C   UNL     1       0.150   1.920   2.326  1.00  0.00     0.262 C 
ATOM     19  O   UNL     1       0.631   2.519   1.364  1.00  0.00    -0.268 OA
BRANCH  18  20
ATOM     20  C   UNL     1      -0.366   2.792   3.393  1.00  0.00     0.040 A 
ATOM     21  C   UNL     1       0.347   2.950   4.587  1.00  0.00     0.015 A 
ATOM     22  C   UNL     1      -1.557   3.495   3.173  1.00  0.00     0.015 A 
ATOM     23  C   UNL     1      -0.183   3.756   5.598  1.00  0.00     0.021 A 
ATOM     24  C   UNL     1      -2.072   4.312   4.181  1.00  0.00     0.021 A 
ATOM     25  C   UNL     1      -1.392   4.426   5.394  1.00  0.00     0.041 A 
ATOM     26  Cl  UNL     1      -2.053   5.397   6.652  1.00  0.00    -0.084 Cl
ENDBRANCH  18  20
ENDBRANCH  11  18
BRANCH  16  27
ATOM     27  O   UNL     1      -1.699  -3.486   5.714  1.00  0.00    -0.508 OA
ATOM     28  H   UNL     1      -1.662  -4.359   5.376  1.00  0.00     0.293 HD
ENDBRANCH  16  27
ENDBRANCH   7   8
ENDBRANCH   5   7
ENDBRANCH   4   5
ENDBRANCH   3   4
ENDBRANCH   2   3
ENDBRANCH   1   2
BRANCH   1  29
ATOM     29  C   UNL     1       1.863  -4.244   4.307  1.00  0.00     0.202 C 
BRANCH  29  30
ATOM     30  C   UNL     1       2.167  -3.213   5.405  1.00  0.00     0.261 C 
BRANCH  30  31
ATOM     31  O   UNL     1       3.153  -2.268   4.988  1.00  0.00    -0.460 OA
BRANCH  31  32
ATOM     32  C   UNL     1       3.988  -1.870   5.987  1.00  0.00     0.338 C 
ATOM     33  O   UNL     1       3.739  -1.772   7.168  1.00  0.00    -0.246 OA
BRANCH  32  34
ATOM     34  C   UNL     1       5.330  -2.005   5.395  1.00  0.00     0.060 A 
ATOM     35  C   UNL     1       5.611  -1.394   4.170  1.00  0.00     0.016 A 
ATOM     36  C   UNL     1       6.123  -3.045   5.904  1.00  0.00     0.016 A 
ATOM     37  C   UNL     1       6.642  -1.908   3.402  1.00  0.00     0.010 A 
ATOM     38  C   UNL     1       7.148  -3.562   5.124  1.00  0.00     0.010 A 
ATOM     39  C   UNL     1       7.375  -3.020   3.857  1.00  0.00    -0.014 A 
BRANCH  39  40
ATOM     40  C   UNL     1       8.497  -3.452   3.028  1.00  0.00     0.031 A 
ATOM     41  C   UNL     1       9.577  -2.434   2.971  1.00  0.00     0.074 A 
ATOM     42  C   UNL     1       8.656  -4.666   2.466  1.00  0.00     0.049 A 
ATOM     43  N   UNL     1       9.997  -1.764   1.950  1.00  0.00    -0.248 NA
ATOM     44  C   UNL     1      10.155  -2.009   4.256  1.00  0.00     0.031 C 
ATOM     45  C   UNL     1       7.874  -5.876   2.722  1.00  0.00     0.029 A 
ATOM     46  N   UNL     1       9.635  -5.101   1.615  1.00  0.00    -0.354 N 
ATOM     47  C   UNL     1      11.034  -0.971   2.433  1.00  0.00     0.074 A 
ATOM     48  C   UNL     1      10.969  -1.029   3.869  1.00  0.00     0.031 C 
ATOM     49  C   UNL     1       8.530  -6.944   2.214  1.00  0.00     0.029 A 
ATOM     50  C   UNL     1       9.707  -6.482   1.496  1.00  0.00     0.049 A 
ATOM     51  H   UNL     1      10.235  -4.489   1.130  1.00  0.00     0.167 HD
ATOM     52  C   UNL     1      12.029  -0.523   1.624  1.00  0.00     0.037 A 
ATOM     53  C   UNL     1      10.709  -7.196   0.926  1.00  0.00     0.037 A 
ATOM     54  C   UNL     1      11.704  -0.676   0.234  1.00  0.00     0.049 A 
ATOM     55  C   UNL     1      11.418  -6.315  -0.036  1.00  0.00     0.074 A 
ATOM     56  C   UNL     1      10.975   0.014  -0.708  1.00  0.00     0.029 A 
ATOM     57  N   UNL     1      11.940  -1.928  -0.266  1.00  0.00    -0.354 N 
ATOM     58  N   UNL     1      10.864  -5.806  -1.103  1.00  0.00    -0.248 NA
ATOM     59  C   UNL     1      12.713  -5.742   0.325  1.00  0.00     0.031 C 
ATOM     60  C   UNL     1      10.639  -0.928  -1.725  1.00  0.00     0.029 A 
ATOM     61  C   UNL     1      11.177  -2.165  -1.380  1.00  0.00     0.049 A 
ATOM     62  H   UNL     1      12.574  -2.573   0.123  1.00  0.00     0.167 HD
ATOM     63  C   UNL     1      11.524  -4.609  -1.296  1.00  0.00     0.074 A 
ATOM     64  C   UNL     1      12.746  -4.705  -0.514  1.00  0.00     0.031 C 
ATOM     65  C   UNL     1      10.879  -3.519  -1.797  1.00  0.00     0.037 A 
BRANCH  52  66
ATOM     66  C   UNL     1      13.455  -0.340   2.080  1.00  0.00     0.058 A 
ATOM     67  C   UNL     1      14.360   0.387   1.283  1.00  0.00     0.135 A 
ATOM     68  C   UNL     1      14.029  -1.089   3.132  1.00  0.00     0.135 A 
ATOM     69  F   UNL     1      13.923   1.107   0.237  1.00  0.00    -0.206 F 
ATOM     70  C   UNL     1      15.739   0.347   1.500  1.00  0.00     0.059 A 
ATOM     71  C   UNL     1      15.391  -1.096   3.402  1.00  0.00     0.059 A 
ATOM     72  F   UNL     1      13.302  -1.926   3.885  1.00  0.00    -0.206 F 
ATOM     73  C   UNL     1      16.244  -0.404   2.559  1.00  0.00     0.060 A 
BRANCH  73  74
ATOM     74  S   UNL     1      18.027  -0.523   2.794  1.00  0.00     0.124 S 
ATOM     75  O   UNL     1      18.421  -1.327   1.643  1.00  0.00    -0.237 OA
ATOM     76  O   UNL     1      18.431   0.879   2.764  1.00  0.00    -0.237 OA
ATOM     77  O   UNL     1      18.151  -1.175   4.094  1.00  0.00    -0.744 OA
ENDBRANCH  73  74
ENDBRANCH  52  66
BRANCH  53  78
ATOM     78  C   UNL     1      11.304  -8.468   1.421  1.00  0.00     0.058 A 
ATOM     79  C   UNL     1      12.213  -9.194   0.630  1.00  0.00     0.135 A 
ATOM     80  C   UNL     1      11.237  -8.831   2.782  1.00  0.00     0.135 A 
ATOM     81  F   UNL     1      12.349  -8.912  -0.675  1.00  0.00    -0.206 F 
ATOM     82  C   UNL     1      13.065 -10.161   1.172  1.00  0.00     0.059 A 
ATOM     83  C   UNL     1      12.063  -9.803   3.341  1.00  0.00     0.059 A 
ATOM     84  F   UNL     1      10.435  -8.180   3.637  1.00  0.00    -0.206 F 
ATOM     85  C   UNL     1      13.003 -10.436   2.538  1.00  0.00     0.060 A 
BRANCH  85  86
ATOM     86  S   UNL     1      14.248 -11.514   3.283  1.00  0.00     0.124 S 
ATOM     87  O   UNL     1      13.901 -12.812   2.715  1.00  0.00    -0.237 OA
ATOM     88  O   UNL     1      15.491 -10.919   2.803  1.00  0.00    -0.237 OA
ATOM     89  O   UNL     1      14.004 -11.373   4.716  1.00  0.00    -0.744 OA
ENDBRANCH  85  86
ENDBRANCH  53  78
BRANCH  65  90
ATOM     90  C   UNL     1       9.691  -3.750  -2.680  1.00  0.00     0.058 A 
ATOM     91  C   UNL     1       8.456  -4.259  -2.246  1.00  0.00     0.135 A 
ATOM     92  C   UNL     1       9.791  -3.351  -4.022  1.00  0.00     0.135 A 
ATOM     93  F   UNL     1       8.262  -4.593  -0.962  1.00  0.00    -0.206 F 
ATOM     94  C   UNL     1       7.374  -4.386  -3.119  1.00  0.00     0.059 A 
ATOM     95  C   UNL     1       8.717  -3.440  -4.900  1.00  0.00     0.059 A 
ATOM     96  F   UNL     1      10.936  -2.820  -4.482  1.00  0.00    -0.206 F 
ATOM     97  C   UNL     1       7.512  -3.966  -4.443  1.00  0.00     0.060 A 
BRANCH  97  98
ATOM     98  S   UNL     1       6.083  -4.042  -5.545  1.00  0.00     0.124 S 
ATOM     99  O   UNL     1       5.922  -5.478  -5.742  1.00  0.00    -0.237 OA
ATOM    100  O   UNL     1       5.044  -3.387  -4.756  1.00  0.00    -0.237 OA
ATOM    101  O   UNL     1       6.521  -3.297  -6.723  1.00  0.00    -0.744 OA
ENDBRANCH  97  98
ENDBRANCH  65  90
ENDBRANCH  39  40
ENDBRANCH  32  34
ENDBRANCH  31  32
ENDBRANCH  30  31
ENDBRANCH  29  30
ENDBRANCH   1  29
TORSDOF 21
