REMARK SMILES O=C(OCCOCCOC(=O)[C@H]1CC[C@@H]2CCCC[C@H]2[NH2+]1)c1ccc(-c2c3nc(c(-c4c(F)cc(S(=O)(=O)[O-])cc4F)c4ccc([nH]4)c(-c4c(F)cc(S(=O)(=O)[O-])cc4F)c4nc(c(-c5c(F)cc(S(=O)(=O)[O-])cc5F)c5ccc2[nH]5)C=C4)C=C3)cc1
REMARK SMILES IDX 4 1 3 2 2 3 1 4 22 5 23 6 87 7 24 8 86 9 25 10 26 11 27 12
REMARK SMILES IDX 80 13 28 14 85 15 79 16 81 17 29 18 84 19 78 20 77 21 30 23
REMARK SMILES IDX 64 24 43 25 63 26 44 27 47 28 62 29 82 30 45 31 46 32 61 34
REMARK SMILES IDX 83 35 48 36 31 37 32 38 41 39 33 40 34 41 40 42 42 43 35 44
REMARK SMILES IDX 36 45 37 46 38 47 39 48 65 49 66 50 75 51 67 52 68 53 74 54
REMARK SMILES IDX 76 55 69 56 70 57 71 58 72 59 73 60 49 61 50 62 59 63 51 64
REMARK SMILES IDX 52 65 58 66 60 67 53 68 54 69 55 70 56 71 57 72 5 73 6 74
REMARK SMILES IDX 7 75 8 76 9 77 10 78 11 79 12 80 13 81 21 82 14 83 20 84
REMARK SMILES IDX 15 87 19 88 16 89 18 90 17 91
REMARK H PARENT 81 22 47 33 21 85 21 86
REMARK Flexibility Score: inf
ROOT
ATOM      1  C   UNL     1       4.939   7.201  -3.086  1.00  0.00     0.261 C 
ENDROOT
BRANCH   1   2
ATOM      2  O   UNL     1       4.830   8.524  -2.538  1.00  0.00    -0.460 OA
BRANCH   2   3
ATOM      3  C   UNL     1       3.757   9.351  -2.609  1.00  0.00     0.338 C 
ATOM      4  O   UNL     1       3.868  10.498  -2.178  1.00  0.00    -0.246 OA
BRANCH   3   5
ATOM      5  C   UNL     1       2.444   8.945  -3.199  1.00  0.00     0.060 A 
ATOM      6  C   UNL     1       1.960   7.639  -3.208  1.00  0.00     0.016 A 
ATOM      7  C   UNL     1       1.607   9.955  -3.700  1.00  0.00     0.016 A 
ATOM      8  C   UNL     1       0.732   7.317  -3.750  1.00  0.00     0.010 A 
ATOM      9  C   UNL     1       0.330   9.650  -4.193  1.00  0.00     0.010 A 
ATOM     10  C   UNL     1      -0.105   8.321  -4.221  1.00  0.00    -0.014 A 
BRANCH  10  11
ATOM     11  C   UNL     1      -1.393   7.886  -4.786  1.00  0.00     0.031 A 
ATOM     12  C   UNL     1      -1.562   7.895  -6.271  1.00  0.00     0.074 A 
ATOM     13  C   UNL     1      -2.292   7.303  -3.968  1.00  0.00     0.049 A 
ATOM     14  N   UNL     1      -2.588   7.522  -6.984  1.00  0.00    -0.248 NA
ATOM     15  C   UNL     1      -0.414   8.368  -7.065  1.00  0.00     0.031 C 
ATOM     16  C   UNL     1      -2.128   7.141  -2.517  1.00  0.00     0.029 A 
ATOM     17  N   UNL     1      -3.485   6.690  -4.233  1.00  0.00    -0.354 N 
ATOM     18  C   UNL     1      -2.218   7.728  -8.306  1.00  0.00     0.074 A 
ATOM     19  C   UNL     1      -0.880   8.273  -8.301  1.00  0.00     0.031 C 
ATOM     20  C   UNL     1      -3.165   6.442  -2.030  1.00  0.00     0.029 A 
ATOM     21  C   UNL     1      -4.101   6.178  -3.114  1.00  0.00     0.049 A 
ATOM     22  H   UNL     1      -3.867   6.621  -5.138  1.00  0.00     0.167 HD
ATOM     23  C   UNL     1      -2.943   7.477  -9.420  1.00  0.00     0.037 A 
ATOM     24  C   UNL     1      -5.308   5.595  -2.983  1.00  0.00     0.037 A 
ATOM     25  C   UNL     1      -4.274   6.935  -9.382  1.00  0.00     0.049 A 
ATOM     26  C   UNL     1      -6.132   5.422  -4.229  1.00  0.00     0.074 A 
ATOM     27  C   UNL     1      -5.155   6.725 -10.425  1.00  0.00     0.029 A 
ATOM     28  N   UNL     1      -4.913   6.507  -8.223  1.00  0.00    -0.354 N 
ATOM     29  N   UNL     1      -5.815   5.712  -5.472  1.00  0.00    -0.248 NA
ATOM     30  C   UNL     1      -7.477   4.862  -4.064  1.00  0.00     0.031 C 
ATOM     31  C   UNL     1      -6.340   6.205  -9.893  1.00  0.00     0.029 A 
ATOM     32  C   UNL     1      -6.181   6.043  -8.524  1.00  0.00     0.049 A 
ATOM     33  H   UNL     1      -4.521   6.532  -7.320  1.00  0.00     0.167 HD
ATOM     34  C   UNL     1      -6.919   5.363  -6.238  1.00  0.00     0.074 A 
ATOM     35  C   UNL     1      -7.897   4.809  -5.321  1.00  0.00     0.031 C 
ATOM     36  C   UNL     1      -7.119   5.498  -7.573  1.00  0.00     0.037 A 
BRANCH  23  37
ATOM     37  C   UNL     1      -2.327   7.844 -10.739  1.00  0.00     0.058 A 
ATOM     38  C   UNL     1      -1.272   7.106 -11.298  1.00  0.00     0.135 A 
ATOM     39  C   UNL     1      -2.786   8.967 -11.446  1.00  0.00     0.135 A 
ATOM     40  F   UNL     1      -0.768   6.046 -10.646  1.00  0.00    -0.206 F 
ATOM     41  C   UNL     1      -0.681   7.479 -12.502  1.00  0.00     0.059 A 
ATOM     42  C   UNL     1      -2.227   9.345 -12.663  1.00  0.00     0.059 A 
ATOM     43  F   UNL     1      -3.780   9.719 -10.947  1.00  0.00    -0.206 F 
ATOM     44  C   UNL     1      -1.166   8.601 -13.177  1.00  0.00     0.060 A 
BRANCH  44  45
ATOM     45  S   UNL     1      -0.391   9.071 -14.739  1.00  0.00     0.124 S 
ATOM     46  O   UNL     1       0.900   9.577 -14.283  1.00  0.00    -0.237 OA
ATOM     47  O   UNL     1      -0.355   7.804 -15.462  1.00  0.00    -0.237 OA
ATOM     48  O   UNL     1      -1.301  10.074 -15.282  1.00  0.00    -0.744 OA
ENDBRANCH  44  45
ENDBRANCH  23  37
BRANCH  24  49
ATOM     49  C   UNL     1      -5.831   5.223  -1.637  1.00  0.00     0.058 A 
ATOM     50  C   UNL     1      -6.126   3.895  -1.296  1.00  0.00     0.135 A 
ATOM     51  C   UNL     1      -6.074   6.209  -0.665  1.00  0.00     0.135 A 
ATOM     52  F   UNL     1      -5.919   2.912  -2.185  1.00  0.00    -0.206 F 
ATOM     53  C   UNL     1      -6.671   3.562  -0.057  1.00  0.00     0.059 A 
ATOM     54  C   UNL     1      -6.585   5.898   0.591  1.00  0.00     0.059 A 
ATOM     55  F   UNL     1      -5.802   7.497  -0.928  1.00  0.00    -0.206 F 
ATOM     56  C   UNL     1      -6.901   4.573   0.878  1.00  0.00     0.060 A 
BRANCH  56  57
ATOM     57  S   UNL     1      -7.612   4.138   2.481  1.00  0.00     0.124 S 
ATOM     58  O   UNL     1      -8.999   3.867   2.122  1.00  0.00    -0.237 OA
ATOM     59  O   UNL     1      -6.814   2.979   2.869  1.00  0.00    -0.237 OA
ATOM     60  O   UNL     1      -7.391   5.338   3.283  1.00  0.00    -0.744 OA
ENDBRANCH  56  57
ENDBRANCH  24  49
BRANCH  36  61
ATOM     61  C   UNL     1      -8.435   5.013  -8.105  1.00  0.00     0.058 A 
ATOM     62  C   UNL     1      -9.627   5.712  -7.862  1.00  0.00     0.135 A 
ATOM     63  C   UNL     1      -8.497   3.853  -8.892  1.00  0.00     0.135 A 
ATOM     64  F   UNL     1      -9.619   6.824  -7.110  1.00  0.00    -0.206 F 
ATOM     65  C   UNL     1     -10.845   5.256  -8.352  1.00  0.00     0.059 A 
ATOM     66  C   UNL     1      -9.698   3.396  -9.418  1.00  0.00     0.059 A 
ATOM     67  F   UNL     1      -7.380   3.158  -9.162  1.00  0.00    -0.206 F 
ATOM     68  C   UNL     1     -10.869   4.096  -9.128  1.00  0.00     0.060 A 
BRANCH  68  69
ATOM     69  S   UNL     1     -12.453   3.522  -9.773  1.00  0.00     0.124 S 
ATOM     70  O   UNL     1     -13.066   2.953  -8.578  1.00  0.00    -0.237 OA
ATOM     71  O   UNL     1     -13.054   4.755 -10.270  1.00  0.00    -0.237 OA
ATOM     72  O   UNL     1     -12.071   2.560 -10.802  1.00  0.00    -0.744 OA
ENDBRANCH  68  69
ENDBRANCH  36  61
ENDBRANCH  10  11
ENDBRANCH   3   5
ENDBRANCH   2   3
ENDBRANCH   1   2
BRANCH   1  73
ATOM     73  C   UNL     1       4.781   6.132  -2.001  1.00  0.00     0.202 C 
BRANCH  73  74
ATOM     74  O   UNL     1       3.662   6.321  -1.134  1.00  0.00    -0.374 OA
BRANCH  74  75
ATOM     75  C   UNL     1       3.893   7.168  -0.007  1.00  0.00     0.202 C 
BRANCH  75  76
ATOM     76  C   UNL     1       3.636   6.389   1.283  1.00  0.00     0.261 C 
BRANCH  76  77
ATOM     77  O   UNL     1       4.432   5.193   1.269  1.00  0.00    -0.459 OA
BRANCH  77  78
ATOM     78  C   UNL     1       3.819   4.116   0.688  1.00  0.00     0.364 C 
ATOM     79  O   UNL     1       2.607   3.999   0.531  1.00  0.00    -0.245 OA
BRANCH  78  80
ATOM     80  C   UNL     1       4.825   3.030   0.291  1.00  0.00     0.293 C 
ATOM     81  C   UNL     1       4.540   2.509  -1.121  1.00  0.00     0.078 C 
ATOM     82  N   UNL     1       6.232   3.515   0.336  1.00  0.00    -0.332 N 
ATOM     83  C   UNL     1       5.491   1.378  -1.500  1.00  0.00     0.016 C 
ATOM     84  C   UNL     1       7.140   2.383   0.150  1.00  0.00     0.186 C 
ATOM     85  H   UNL     1       6.414   3.951   1.240  1.00  0.00     0.347 HD
ATOM     86  H   UNL     1       6.382   4.198  -0.406  1.00  0.00     0.347 HD
ATOM     87  C   UNL     1       6.954   1.775  -1.255  1.00  0.00     0.048 C 
ATOM     88  C   UNL     1       8.595   2.816   0.350  1.00  0.00     0.065 C 
ATOM     89  C   UNL     1       7.882   0.567  -1.436  1.00  0.00     0.010 C 
ATOM     90  C   UNL     1       9.520   1.609   0.203  1.00  0.00     0.006 C 
ATOM     91  C   UNL     1       9.341   0.917  -1.147  1.00  0.00     0.001 C 
ENDBRANCH  78  80
ENDBRANCH  77  78
ENDBRANCH  76  77
ENDBRANCH  75  76
ENDBRANCH  74  75
ENDBRANCH  73  74
ENDBRANCH   1  73
TORSDOF 17
