REMARK SMILES CC(C)[NH2+][C@]1(C(=O)OCCOCCOC(=O)c2ccc(-c3c4nc(c(-c5c(F)cc(S(=O)(=O)[O-])cc5F)c5ccc([nH]5)c(-c5c(F)cc(S(=O)(=O)[O-])cc5F)c5nc(c(-c6c(F)cc(S(=O)(=O)[O-])cc6F)c6ccc3[nH]6)C=C5)C=C4)cc2)CC[C@H]([NH+]2CCC(C)(C)CC2)C1
REMARK SMILES IDX 12 1 11 2 10 3 9 4 8 5 6 6 7 7 5 8 83 9 94 10 84 11 85 12
REMARK SMILES IDX 4 13 2 16 1 17 3 18 86 19 87 20 93 21 88 23 92 24 89 25
REMARK SMILES IDX 90 26 91 27 13 28 14 29 15 30 16 31 17 32 18 33 82 34 19 35
REMARK SMILES IDX 81 36 20 37 21 38 22 39 75 40 23 41 80 42 74 43 76 44 24 45
REMARK SMILES IDX 79 46 73 47 72 48 25 50 59 51 38 52 58 53 39 54 42 55 57 56
REMARK SMILES IDX 77 57 40 58 41 59 56 61 78 62 43 63 26 64 27 65 36 66 28 67
REMARK SMILES IDX 29 68 35 69 37 70 30 71 31 72 32 73 33 74 34 75 60 76 61 77
REMARK SMILES IDX 70 78 62 79 63 80 69 81 71 82 64 83 65 84 66 85 67 86 68 87
REMARK SMILES IDX 44 88 45 89 54 90 46 91 47 92 53 93 55 94 48 95 49 96 50 97
REMARK SMILES IDX 51 98 52 99
REMARK H PARENT 4 14 4 15 86 22 76 49 42 60
REMARK Flexibility Score: inf
ROOT
ATOM      1  C   UNL     1       0.748  -1.054   1.944  1.00  0.00     0.202 C 
ENDROOT
BRANCH   1   2
ATOM      2  O   UNL     1       1.254   0.181   1.440  1.00  0.00    -0.374 OA
BRANCH   2   3
ATOM      3  C   UNL     1       0.305   1.077   0.855  1.00  0.00     0.202 C 
BRANCH   3   4
ATOM      4  C   UNL     1       0.001   0.820  -0.626  1.00  0.00     0.261 C 
BRANCH   4   5
ATOM      5  O   UNL     1      -0.965  -0.238  -0.763  1.00  0.00    -0.459 OA
BRANCH   5   6
ATOM      6  C   UNL     1      -0.513  -1.470  -1.077  1.00  0.00     0.368 C 
ATOM      7  O   UNL     1       0.652  -1.692  -1.403  1.00  0.00    -0.245 OA
BRANCH   6   8
ATOM      8  C   UNL     1      -1.551  -2.607  -0.910  1.00  0.00     0.200 C 
ATOM      9  C   UNL     1      -1.576  -3.385  -2.243  1.00  0.00     0.087 C 
ATOM     10  C   UNL     1      -0.987  -3.705   0.050  1.00  0.00     0.146 C 
ATOM     11  C   UNL     1      -1.971  -4.816  -1.901  1.00  0.00     0.072 C 
ATOM     12  C   UNL     1      -1.474  -5.087  -0.464  1.00  0.00     0.191 C 
BRANCH   8  13
ATOM     13  N   UNL     1      -2.956  -2.322  -0.506  1.00  0.00    -0.330 N 
ATOM     14  H   UNL     1      -3.531  -2.697  -1.261  1.00  0.00     0.347 HD
ATOM     15  H   UNL     1      -2.948  -2.719   0.433  1.00  0.00     0.347 HD
BRANCH  13  16
ATOM     16  C   UNL     1      -3.520  -1.011  -0.213  1.00  0.00     0.176 C 
ATOM     17  C   UNL     1      -5.046  -1.197  -0.149  1.00  0.00     0.075 C 
ATOM     18  C   UNL     1      -3.096  -0.503   1.164  1.00  0.00     0.075 C 
ENDBRANCH  13  16
ENDBRANCH   8  13
BRANCH  12  19
ATOM     19  N   UNL     1      -2.412  -5.862   0.404  1.00  0.00    -0.332 N 
ATOM     20  C   UNL     1      -2.716  -7.177  -0.195  1.00  0.00     0.263 C 
ATOM     21  C   UNL     1      -3.605  -5.102   0.790  1.00  0.00     0.263 C 
ATOM     22  H   UNL     1      -1.932  -6.040   1.286  1.00  0.00     0.348 HD
ATOM     23  C   UNL     1      -3.873  -7.948   0.464  1.00  0.00     0.068 C 
ATOM     24  C   UNL     1      -4.740  -5.878   1.445  1.00  0.00     0.068 C 
ATOM     25  C   UNL     1      -5.146  -7.096   0.611  1.00  0.00    -0.025 C 
ATOM     26  C   UNL     1      -6.240  -7.868   1.362  1.00  0.00     0.011 C 
ATOM     27  C   UNL     1      -5.719  -6.685  -0.762  1.00  0.00     0.011 C 
ENDBRANCH  12  19
ENDBRANCH   6   8
ENDBRANCH   5   6
ENDBRANCH   4   5
ENDBRANCH   3   4
ENDBRANCH   2   3
ENDBRANCH   1   2
BRANCH   1  28
ATOM     28  C   UNL     1       0.275  -1.038   3.403  1.00  0.00     0.261 C 
BRANCH  28  29
ATOM     29  O   UNL     1      -0.926  -0.264   3.577  1.00  0.00    -0.460 OA
BRANCH  29  30
ATOM     30  C   UNL     1      -0.729   1.007   4.002  1.00  0.00     0.338 C 
ATOM     31  O   UNL     1       0.338   1.513   4.315  1.00  0.00    -0.246 OA
BRANCH  30  32
ATOM     32  C   UNL     1      -1.978   1.788   3.875  1.00  0.00     0.060 A 
ATOM     33  C   UNL     1      -1.876   3.074   3.330  1.00  0.00     0.016 A 
ATOM     34  C   UNL     1      -3.215   1.309   4.316  1.00  0.00     0.016 A 
ATOM     35  C   UNL     1      -2.992   3.908   3.285  1.00  0.00     0.010 A 
ATOM     36  C   UNL     1      -4.337   2.147   4.264  1.00  0.00     0.010 A 
ATOM     37  C   UNL     1      -4.223   3.467   3.790  1.00  0.00    -0.014 A 
BRANCH  37  38
ATOM     38  C   UNL     1      -5.332   4.443   3.964  1.00  0.00     0.031 A 
ATOM     39  C   UNL     1      -5.631   4.972   5.344  1.00  0.00     0.074 A 
ATOM     40  C   UNL     1      -6.030   4.901   2.908  1.00  0.00     0.049 A 
ATOM     41  N   UNL     1      -6.535   5.838   5.723  1.00  0.00    -0.248 NA
ATOM     42  C   UNL     1      -4.799   4.454   6.442  1.00  0.00     0.031 C 
ATOM     43  C   UNL     1      -5.821   4.499   1.518  1.00  0.00     0.029 A 
ATOM     44  N   UNL     1      -7.058   5.809   2.844  1.00  0.00    -0.354 N 
ATOM     45  C   UNL     1      -6.388   5.963   7.100  1.00  0.00     0.074 A 
ATOM     46  C   UNL     1      -5.332   5.055   7.495  1.00  0.00     0.031 C 
ATOM     47  C   UNL     1      -6.693   5.160   0.738  1.00  0.00     0.029 A 
ATOM     48  C   UNL     1      -7.543   6.008   1.573  1.00  0.00     0.049 A 
ATOM     49  H   UNL     1      -7.415   6.275   3.635  1.00  0.00     0.167 HD
ATOM     50  C   UNL     1      -7.057   6.770   7.958  1.00  0.00     0.037 A 
ATOM     51  C   UNL     1      -8.562   6.775   1.133  1.00  0.00     0.037 A 
ATOM     52  C   UNL     1      -8.103   7.680   7.566  1.00  0.00     0.049 A 
ATOM     53  C   UNL     1      -9.338   7.616   2.115  1.00  0.00     0.074 A 
ATOM     54  C   UNL     1      -8.818   8.559   8.360  1.00  0.00     0.029 A 
ATOM     55  N   UNL     1      -8.591   7.821   6.276  1.00  0.00    -0.354 N 
ATOM     56  N   UNL     1      -9.163   7.750   3.409  1.00  0.00    -0.248 NA
ATOM     57  C   UNL     1     -10.448   8.415   1.576  1.00  0.00     0.031 C 
ATOM     58  C   UNL     1      -9.779   9.188   7.561  1.00  0.00     0.029 A 
ATOM     59  C   UNL     1      -9.621   8.748   6.257  1.00  0.00     0.049 A 
ATOM     60  H   UNL     1      -8.255   7.334   5.488  1.00  0.00     0.167 HD
ATOM     61  C   UNL     1     -10.120   8.669   3.831  1.00  0.00     0.074 A 
ATOM     62  C   UNL     1     -10.864   9.066   2.655  1.00  0.00     0.031 C 
ATOM     63  C   UNL     1     -10.357   9.143   5.080  1.00  0.00     0.037 A 
BRANCH  50  64
ATOM     64  C   UNL     1      -6.698   6.685   9.418  1.00  0.00     0.058 A 
ATOM     65  C   UNL     1      -5.472   7.161   9.910  1.00  0.00     0.135 A 
ATOM     66  C   UNL     1      -7.607   6.143  10.341  1.00  0.00     0.135 A 
ATOM     67  F   UNL     1      -4.559   7.674   9.071  1.00  0.00    -0.206 F 
ATOM     68  C   UNL     1      -5.146   7.071  11.260  1.00  0.00     0.059 A 
ATOM     69  C   UNL     1      -7.315   6.072  11.700  1.00  0.00     0.059 A 
ATOM     70  F   UNL     1      -8.794   5.674   9.926  1.00  0.00    -0.206 F 
ATOM     71  C   UNL     1      -6.075   6.523  12.147  1.00  0.00     0.060 A 
BRANCH  71  72
ATOM     72  S   UNL     1      -5.635   6.407  13.894  1.00  0.00     0.124 S 
ATOM     73  O   UNL     1      -4.640   5.339  13.873  1.00  0.00    -0.237 OA
ATOM     74  O   UNL     1      -5.122   7.744  14.176  1.00  0.00    -0.237 OA
ATOM     75  O   UNL     1      -6.899   6.074  14.543  1.00  0.00    -0.744 OA
ENDBRANCH  71  72
ENDBRANCH  50  64
BRANCH  51  76
ATOM     76  C   UNL     1      -8.913   6.783  -0.313  1.00  0.00     0.058 A 
ATOM     77  C   UNL     1      -8.700   7.920  -1.107  1.00  0.00     0.135 A 
ATOM     78  C   UNL     1      -9.468   5.651  -0.930  1.00  0.00     0.135 A 
ATOM     79  F   UNL     1      -8.187   9.032  -0.560  1.00  0.00    -0.206 F 
ATOM     80  C   UNL     1      -9.030   7.938  -2.458  1.00  0.00     0.059 A 
ATOM     81  C   UNL     1      -9.781   5.635  -2.286  1.00  0.00     0.059 A 
ATOM     82  F   UNL     1      -9.686   4.535  -0.217  1.00  0.00    -0.206 F 
ATOM     83  C   UNL     1      -9.565   6.787  -3.040  1.00  0.00     0.060 A 
BRANCH  83  84
ATOM     84  S   UNL     1      -9.931   6.801  -4.809  1.00  0.00     0.124 S 
ATOM     85  O   UNL     1     -11.100   7.671  -4.861  1.00  0.00    -0.237 OA
ATOM     86  O   UNL     1      -8.700   7.349  -5.370  1.00  0.00    -0.237 OA
ATOM     87  O   UNL     1     -10.177   5.394  -5.112  1.00  0.00    -0.744 OA
ENDBRANCH  83  84
ENDBRANCH  51  76
BRANCH  63  88
ATOM     88  C   UNL     1     -11.444  10.173   5.246  1.00  0.00     0.058 A 
ATOM     89  C   UNL     1     -12.803   9.844   5.129  1.00  0.00     0.135 A 
ATOM     90  C   UNL     1     -11.120  11.498   5.585  1.00  0.00     0.135 A 
ATOM     91  F   UNL     1     -13.170   8.594   4.803  1.00  0.00    -0.206 F 
ATOM     92  C   UNL     1     -13.802  10.795   5.317  1.00  0.00     0.059 A 
ATOM     93  C   UNL     1     -12.103  12.459   5.808  1.00  0.00     0.059 A 
ATOM     94  F   UNL     1      -9.837  11.867   5.722  1.00  0.00    -0.206 F 
ATOM     95  C   UNL     1     -13.442  12.100   5.660  1.00  0.00     0.060 A 
BRANCH  95  96
ATOM     96  S   UNL     1     -14.749  13.316   5.934  1.00  0.00     0.124 S 
ATOM     97  O   UNL     1     -15.221  13.553   4.574  1.00  0.00    -0.237 OA
ATOM     98  O   UNL     1     -15.668  12.593   6.808  1.00  0.00    -0.237 OA
ATOM     99  O   UNL     1     -14.048  14.434   6.559  1.00  0.00    -0.744 OA
ENDBRANCH  95  96
ENDBRANCH  63  88
ENDBRANCH  37  38
ENDBRANCH  30  32
ENDBRANCH  29  30
ENDBRANCH  28  29
ENDBRANCH   1  28
TORSDOF 20
