REMARK SMILES C[C@H](Cc1ccc2c(c1)OCCCO2)C(=O)OCCOCCOC(=O)c1ccc(-c2c3nc(c(-c4c(F)cc(S(=O)(=O)[O-])cc4F)c4ccc([nH]4)c(-c4c(F)cc(S(=O)(=O)[O-])cc4F)c4nc(c(-c5c(F)cc(S(=O)(=O)[O-])cc5F)c5ccc2[nH]5)C=C4)C=C3)cc1
REMARK SMILES IDX 19 1 18 2 17 3 15 4 16 5 2 6 1 7 3 8 4 9 5 10 9 11 6 12 8 13
REMARK SMILES IDX 7 14 10 15 11 16 14 18 13 19 12 20 20 22 21 23 22 24 23 25
REMARK SMILES IDX 24 26 25 27 26 28 27 29 91 30 28 31 90 32 29 33 30 34 31 35
REMARK SMILES IDX 84 36 32 37 89 38 83 39 85 40 33 41 88 42 82 43 81 44 34 46
REMARK SMILES IDX 68 47 47 48 67 49 48 50 51 51 66 52 86 53 49 54 50 55 65 57
REMARK SMILES IDX 87 58 52 59 35 60 36 61 45 62 37 63 38 64 44 65 46 66 39 67
REMARK SMILES IDX 40 68 41 69 42 70 43 71 69 72 70 73 79 74 71 75 72 76 78 77
REMARK SMILES IDX 80 78 73 79 74 80 75 81 76 82 77 83 53 84 54 85 63 86 55 87
REMARK SMILES IDX 56 88 62 89 64 90 57 91 58 92 59 93 60 94 61 95
REMARK H PARENT 85 45 51 56
REMARK Flexibility Score: 90.00
ROOT
ATOM      1  C   UNL     1      -3.444   0.114   1.307  1.00  0.00     0.202 C 
ENDROOT
BRANCH   1   2
ATOM      2  C   UNL     1      -2.652   0.737   2.463  1.00  0.00     0.261 C 
BRANCH   2   3
ATOM      3  O   UNL     1      -1.320   1.118   2.059  1.00  0.00    -0.463 OA
BRANCH   3   4
ATOM      4  C   UNL     1      -0.330   0.206   2.206  1.00  0.00     0.309 C 
ATOM      5  O   UNL     1      -0.471  -0.912   2.688  1.00  0.00    -0.252 OA
BRANCH   4   6
ATOM      6  C   UNL     1       0.999   0.694   1.648  1.00  0.00     0.100 C 
ATOM      7  C   UNL     1       1.324   2.138   2.002  1.00  0.00     0.020 C 
BRANCH   6   8
ATOM      8  C   UNL     1       1.235   0.319   0.170  1.00  0.00     0.050 C 
BRANCH   8   9
ATOM      9  C   UNL     1       0.679   1.139  -0.980  1.00  0.00    -0.043 A 
ATOM     10  C   UNL     1      -0.593   1.711  -0.976  1.00  0.00     0.008 A 
ATOM     11  C   UNL     1       1.434   1.257  -2.164  1.00  0.00     0.054 A 
ATOM     12  C   UNL     1      -1.108   2.342  -2.111  1.00  0.00     0.051 A 
ATOM     13  C   UNL     1       0.913   1.870  -3.314  1.00  0.00     0.161 A 
ATOM     14  C   UNL     1      -0.380   2.383  -3.295  1.00  0.00     0.161 A 
BRANCH  13  15
ATOM     15  O   UNL     1       1.780   2.052  -4.357  1.00  0.00    -0.490 OA
BRANCH  15  16
ATOM     16  C   UNL     1       1.351   1.459  -5.581  1.00  0.00     0.233 CG0
ATOM     17  G   UNL     1       0.263   2.245  -6.293  1.00  0.00     0.000 G0
ENDBRANCH  15  16
ENDBRANCH  13  15
BRANCH  14  18
ATOM     18  O   UNL     1      -0.975   3.010  -4.351  1.00  0.00    -0.490 OA
BRANCH  18  19
ATOM     19  C   UNL     1      -1.031   2.182  -5.513  1.00  0.00     0.233 C 
BRANCH  19  20
ATOM     20  C   UNL     1       0.263   2.245  -6.293  1.00  0.00     0.083 CG0
ATOM     21  G   UNL     1       1.351   1.459  -5.581  1.00  0.00     0.000 G0
ENDBRANCH  19  20
ENDBRANCH  18  19
ENDBRANCH  14  18
ENDBRANCH   8   9
ENDBRANCH   6   8
ENDBRANCH   4   6
ENDBRANCH   3   4
ENDBRANCH   2   3
ENDBRANCH   1   2
BRANCH   1  22
ATOM     22  O   UNL     1      -3.229  -1.293   1.193  1.00  0.00    -0.374 OA
BRANCH  22  23
ATOM     23  C   UNL     1      -2.253  -1.678   0.225  1.00  0.00     0.202 C 
BRANCH  23  24
ATOM     24  C   UNL     1      -2.871  -2.037  -1.128  1.00  0.00     0.261 C 
BRANCH  24  25
ATOM     25  O   UNL     1      -3.286  -0.853  -1.830  1.00  0.00    -0.460 OA
BRANCH  25  26
ATOM     26  C   UNL     1      -4.595  -0.511  -1.733  1.00  0.00     0.338 C 
ATOM     27  O   UNL     1      -5.482  -1.125  -1.166  1.00  0.00    -0.246 OA
BRANCH  26  28
ATOM     28  C   UNL     1      -4.753   0.841  -2.310  1.00  0.00     0.060 A 
ATOM     29  C   UNL     1      -4.107   1.178  -3.495  1.00  0.00     0.016 A 
ATOM     30  C   UNL     1      -5.512   1.803  -1.632  1.00  0.00     0.016 A 
ATOM     31  C   UNL     1      -4.176   2.490  -3.962  1.00  0.00     0.010 A 
ATOM     32  C   UNL     1      -5.596   3.116  -2.126  1.00  0.00     0.010 A 
ATOM     33  C   UNL     1      -4.915   3.483  -3.295  1.00  0.00    -0.014 A 
BRANCH  33  34
ATOM     34  C   UNL     1      -4.954   4.871  -3.854  1.00  0.00     0.031 A 
ATOM     35  C   UNL     1      -4.456   6.060  -3.065  1.00  0.00     0.074 A 
ATOM     36  C   UNL     1      -5.356   5.067  -5.128  1.00  0.00     0.049 A 
ATOM     37  N   UNL     1      -4.535   7.335  -3.362  1.00  0.00    -0.248 NA
ATOM     38  C   UNL     1      -3.780   5.790  -1.787  1.00  0.00     0.031 C 
ATOM     39  C   UNL     1      -5.797   4.016  -6.048  1.00  0.00     0.029 A 
ATOM     40  N   UNL     1      -5.419   6.211  -5.889  1.00  0.00    -0.354 N 
ATOM     41  C   UNL     1      -3.952   8.019  -2.300  1.00  0.00     0.074 A 
ATOM     42  C   UNL     1      -3.517   7.017  -1.349  1.00  0.00     0.031 C 
ATOM     43  C   UNL     1      -5.989   4.544  -7.265  1.00  0.00     0.029 A 
ATOM     44  C   UNL     1      -5.810   5.989  -7.189  1.00  0.00     0.049 A 
ATOM     45  H   UNL     1      -5.204   7.104  -5.537  1.00  0.00     0.167 HD
ATOM     46  C   UNL     1      -3.798   9.356  -2.133  1.00  0.00     0.037 A 
ATOM     47  C   UNL     1      -6.046   6.844  -8.204  1.00  0.00     0.037 A 
ATOM     48  C   UNL     1      -4.190  10.357  -3.097  1.00  0.00     0.049 A 
ATOM     49  C   UNL     1      -5.938   8.323  -7.966  1.00  0.00     0.074 A 
ATOM     50  C   UNL     1      -4.132  11.737  -2.976  1.00  0.00     0.029 A 
ATOM     51  N   UNL     1      -4.673  10.093  -4.368  1.00  0.00    -0.354 N 
ATOM     52  N   UNL     1      -5.533   8.957  -6.893  1.00  0.00    -0.248 NA
ATOM     53  C   UNL     1      -6.364   9.203  -9.063  1.00  0.00     0.031 C 
ATOM     54  C   UNL     1      -4.603  12.307  -4.164  1.00  0.00     0.029 A 
ATOM     55  C   UNL     1      -4.918  11.282  -5.038  1.00  0.00     0.049 A 
ATOM     56  H   UNL     1      -4.822   9.194  -4.740  1.00  0.00     0.167 HD
ATOM     57  C   UNL     1      -5.658  10.310  -7.186  1.00  0.00     0.074 A 
ATOM     58  C   UNL     1      -6.147  10.404  -8.545  1.00  0.00     0.031 C 
ATOM     59  C   UNL     1      -5.405  11.376  -6.390  1.00  0.00     0.037 A 
BRANCH  46  60
ATOM     60  C   UNL     1      -3.204   9.852  -0.844  1.00  0.00     0.058 A 
ATOM     61  C   UNL     1      -1.820   9.842  -0.616  1.00  0.00     0.135 A 
ATOM     62  C   UNL     1      -4.023  10.468   0.118  1.00  0.00     0.135 A 
ATOM     63  F   UNL     1      -0.995   9.254  -1.496  1.00  0.00    -0.206 F 
ATOM     64  C   UNL     1      -1.267  10.436   0.515  1.00  0.00     0.059 A 
ATOM     65  C   UNL     1      -3.491  11.085   1.246  1.00  0.00     0.059 A 
ATOM     66  F   UNL     1      -5.354  10.506  -0.055  1.00  0.00    -0.206 F 
ATOM     67  C   UNL     1      -2.110  11.065   1.436  1.00  0.00     0.060 A 
BRANCH  67  68
ATOM     68  S   UNL     1      -1.373  11.885   2.866  1.00  0.00     0.124 S 
ATOM     69  O   UNL     1      -0.934  10.743   3.663  1.00  0.00    -0.237 OA
ATOM     70  O   UNL     1      -0.311  12.679   2.258  1.00  0.00    -0.237 OA
ATOM     71  O   UNL     1      -2.481  12.651   3.429  1.00  0.00    -0.744 OA
ENDBRANCH  67  68
ENDBRANCH  46  60
BRANCH  47  72
ATOM     72  C   UNL     1      -6.481   6.327  -9.528  1.00  0.00     0.058 A 
ATOM     73  C   UNL     1      -5.661   6.455 -10.659  1.00  0.00     0.135 A 
ATOM     74  C   UNL     1      -7.728   5.703  -9.690  1.00  0.00     0.135 A 
ATOM     75  F   UNL     1      -4.468   7.060 -10.558  1.00  0.00    -0.206 F 
ATOM     76  C   UNL     1      -6.064   5.987 -11.905  1.00  0.00     0.059 A 
ATOM     77  C   UNL     1      -8.138   5.197 -10.917  1.00  0.00     0.059 A 
ATOM     78  F   UNL     1      -8.547   5.552  -8.638  1.00  0.00    -0.206 F 
ATOM     79  C   UNL     1      -7.304   5.356 -12.023  1.00  0.00     0.060 A 
BRANCH  79  80
ATOM     80  S   UNL     1      -7.803   4.699 -13.628  1.00  0.00     0.124 S 
ATOM     81  O   UNL     1      -8.251   5.907 -14.310  1.00  0.00    -0.237 OA
ATOM     82  O   UNL     1      -6.564   4.107 -14.122  1.00  0.00    -0.237 OA
ATOM     83  O   UNL     1      -8.850   3.741 -13.283  1.00  0.00    -0.744 OA
ENDBRANCH  79  80
ENDBRANCH  47  72
BRANCH  59  84
ATOM     84  C   UNL     1      -5.635  12.741  -6.975  1.00  0.00     0.058 A 
ATOM     85  C   UNL     1      -6.930  13.249  -7.160  1.00  0.00     0.135 A 
ATOM     86  C   UNL     1      -4.551  13.555  -7.340  1.00  0.00     0.135 A 
ATOM     87  F   UNL     1      -8.000  12.507  -6.833  1.00  0.00    -0.206 F 
ATOM     88  C   UNL     1      -7.144  14.507  -7.714  1.00  0.00     0.059 A 
ATOM     89  C   UNL     1      -4.741  14.825  -7.876  1.00  0.00     0.059 A 
ATOM     90  F   UNL     1      -3.292  13.118  -7.177  1.00  0.00    -0.206 F 
ATOM     91  C   UNL     1      -6.043  15.287  -8.074  1.00  0.00     0.060 A 
BRANCH  91  92
ATOM     92  S   UNL     1      -6.334  16.919  -8.789  1.00  0.00     0.124 S 
ATOM     93  O   UNL     1      -6.786  16.575 -10.133  1.00  0.00    -0.237 OA
ATOM     94  O   UNL     1      -7.352  17.473  -7.900  1.00  0.00    -0.237 OA
ATOM     95  O   UNL     1      -5.026  17.563  -8.712  1.00  0.00    -0.744 OA
ENDBRANCH  91  92
ENDBRANCH  59  84
ENDBRANCH  33  34
ENDBRANCH  26  28
ENDBRANCH  25  26
ENDBRANCH  24  25
ENDBRANCH  23  24
ENDBRANCH  22  23
ENDBRANCH   1  22
TORSDOF 19
