REMARK SMILES COC(=O)c1c(NC(=O)[C@@H]2C[C@@H]2C(=O)OCCOCCOC(=O)c2ccc(-c3c4nc(c(-c5c(F)cc(S(=O)(=O)[O-])cc5F)c5ccc([nH]5)c(-c5c(F)cc(S(=O)(=O)[O-])cc5F)c5nc(c(-c6c(F)cc(S(=O)(=O)[O-])cc6F)c6ccc3[nH]6)C=C5)C=C4)cc2)sc2c1CC[N@@H+](Cc1ccccc1)C2
REMARK SMILES IDX 17 1 16 2 15 3 13 4 14 5 12 6 10 7 11 8 8 9 7 10 9 12 6 13
REMARK SMILES IDX 5 14 92 15 90 16 91 17 93 18 103 19 94 20 95 21 3 23 4 24
REMARK SMILES IDX 2 25 1 26 96 27 97 28 98 29 102 30 99 31 101 32 100 33 18 34
REMARK SMILES IDX 19 35 20 36 21 37 22 38 23 39 24 40 25 41 89 42 26 43 88 44
REMARK SMILES IDX 27 45 28 46 29 47 82 48 30 49 87 50 81 51 83 52 31 53 86 54
REMARK SMILES IDX 80 55 79 56 32 58 66 59 45 60 65 61 46 62 49 63 64 64 84 65
REMARK SMILES IDX 47 66 48 67 63 69 85 70 50 71 33 72 34 73 43 74 35 75 36 76
REMARK SMILES IDX 42 77 44 78 37 79 38 80 39 81 40 82 41 83 67 84 68 85 77 86
REMARK SMILES IDX 69 87 70 88 76 89 78 90 71 91 72 92 73 93 74 94 75 95 51 96
REMARK SMILES IDX 52 97 61 98 53 99 54 100 60 101 62 102 55 103 56 104 57 105
REMARK SMILES IDX 58 106 59 107
REMARK H PARENT 7 11 95 22 83 57 49 68
REMARK Flexibility Score: inf
ROOT
ATOM      1  C   UNL     1      -2.420  -1.865  -4.636  1.00  0.00     0.202 C 
ENDROOT
BRANCH   1   2
ATOM      2  C   UNL     1      -2.743  -2.207  -3.183  1.00  0.00     0.261 C 
BRANCH   2   3
ATOM      3  O   UNL     1      -2.739  -1.064  -2.291  1.00  0.00    -0.463 OA
BRANCH   3   4
ATOM      4  C   UNL     1      -1.927  -1.212  -1.211  1.00  0.00     0.309 C 
ATOM      5  O   UNL     1      -1.129  -2.128  -1.052  1.00  0.00    -0.252 OA
BRANCH   4   6
ATOM      6  C   UNL     1      -2.038  -0.188  -0.139  1.00  0.00     0.112 C 
ATOM      7  C   UNL     1      -2.026   1.341  -0.066  1.00  0.00     0.094 C 
ATOM      8  C   UNL     1      -0.750   0.606  -0.077  1.00  0.00     0.030 C 
BRANCH   7   9
ATOM      9  C   UNL     1      -2.663   2.130  -1.117  1.00  0.00     0.229 C 
ATOM     10  N   UNL     1      -2.128   3.232  -1.713  1.00  0.00    -0.317 N 
ATOM     11  H   UNL     1      -2.821   3.716  -2.219  1.00  0.00     0.170 HD
ATOM     12  O   UNL     1      -3.830   1.845  -1.391  1.00  0.00    -0.274 OA
BRANCH  10  13
ATOM     13  C   UNL     1      -0.920   3.878  -1.827  1.00  0.00     0.110 A 
ATOM     14  C   UNL     1       0.389   3.870  -1.367  1.00  0.00     0.098 A 
ATOM     15  C   UNL     1       1.221   4.767  -2.173  1.00  0.00    -0.006 A 
ATOM     16  S   UNL     1      -1.149   5.074  -3.050  1.00  0.00    -0.116 S 
ATOM     17  C   UNL     1       0.504   5.368  -3.186  1.00  0.00     0.065 A 
ATOM     18  C   UNL     1       2.717   4.972  -2.099  1.00  0.00     0.099 C 
ATOM     19  C   UNL     1       1.078   6.179  -4.312  1.00  0.00     0.310 C 
ATOM     20  C   UNL     1       3.244   5.947  -3.193  1.00  0.00     0.267 C 
ATOM     21  N   UNL     1       2.524   5.962  -4.475  1.00  0.00    -0.326 N 
ATOM     22  H   UNL     1       2.869   6.804  -4.935  1.00  0.00     0.348 HD
BRANCH  14  23
ATOM     23  C   UNL     1       0.928   3.044  -0.296  1.00  0.00     0.341 C 
ATOM     24  O   UNL     1       0.536   3.067   0.850  1.00  0.00    -0.246 OA
BRANCH  23  25
ATOM     25  O   UNL     1       1.911   2.220  -0.779  1.00  0.00    -0.465 OA
ATOM     26  C   UNL     1       2.453   1.226   0.095  1.00  0.00     0.282 C 
ENDBRANCH  23  25
ENDBRANCH  14  23
BRANCH  21  27
ATOM     27  C   UNL     1       2.933   4.986  -5.496  1.00  0.00     0.299 C 
BRANCH  27  28
ATOM     28  C   UNL     1       3.170   3.561  -5.043  1.00  0.00     0.006 A 
ATOM     29  C   UNL     1       4.448   2.983  -5.088  1.00  0.00     0.009 A 
ATOM     30  C   UNL     1       2.128   2.799  -4.520  1.00  0.00     0.009 A 
ATOM     31  C   UNL     1       4.684   1.720  -4.535  1.00  0.00     0.001 A 
ATOM     32  C   UNL     1       2.387   1.587  -3.881  1.00  0.00     0.001 A 
ATOM     33  C   UNL     1       3.658   1.036  -3.896  1.00  0.00     0.000 A 
ENDBRANCH  27  28
ENDBRANCH  21  27
ENDBRANCH  10  13
ENDBRANCH   7   9
ENDBRANCH   4   6
ENDBRANCH   3   4
ENDBRANCH   2   3
ENDBRANCH   1   2
BRANCH   1  34
ATOM     34  O   UNL     1      -1.037  -1.674  -4.941  1.00  0.00    -0.374 OA
BRANCH  34  35
ATOM     35  C   UNL     1      -0.372  -0.583  -4.325  1.00  0.00     0.202 C 
BRANCH  35  36
ATOM     36  C   UNL     1      -0.711   0.798  -4.856  1.00  0.00     0.261 C 
BRANCH  36  37
ATOM     37  O   UNL     1      -2.097   1.050  -4.855  1.00  0.00    -0.460 OA
BRANCH  37  38
ATOM     38  C   UNL     1      -2.679   1.026  -6.074  1.00  0.00     0.338 C 
ATOM     39  O   UNL     1      -2.272   0.483  -7.083  1.00  0.00    -0.246 OA
BRANCH  38  40
ATOM     40  C   UNL     1      -3.781   1.989  -6.005  1.00  0.00     0.060 A 
ATOM     41  C   UNL     1      -4.269   2.471  -7.216  1.00  0.00     0.016 A 
ATOM     42  C   UNL     1      -4.087   2.601  -4.779  1.00  0.00     0.016 A 
ATOM     43  C   UNL     1      -4.921   3.682  -7.212  1.00  0.00     0.010 A 
ATOM     44  C   UNL     1      -4.673   3.838  -4.779  1.00  0.00     0.010 A 
ATOM     45  C   UNL     1      -5.039   4.380  -6.005  1.00  0.00    -0.014 A 
BRANCH  45  46
ATOM     46  C   UNL     1      -5.694   5.660  -6.040  1.00  0.00     0.031 A 
ATOM     47  C   UNL     1      -7.165   5.564  -5.947  1.00  0.00     0.074 A 
ATOM     48  C   UNL     1      -5.022   6.819  -6.010  1.00  0.00     0.049 A 
ATOM     49  N   UNL     1      -8.036   5.719  -6.887  1.00  0.00    -0.248 NA
ATOM     50  C   UNL     1      -7.715   5.021  -4.695  1.00  0.00     0.031 C 
ATOM     51  C   UNL     1      -3.617   7.056  -5.684  1.00  0.00     0.029 A 
ATOM     52  N   UNL     1      -5.528   8.064  -6.157  1.00  0.00    -0.354 N 
ATOM     53  C   UNL     1      -9.267   5.498  -6.279  1.00  0.00     0.074 A 
ATOM     54  C   UNL     1      -8.986   4.831  -5.039  1.00  0.00     0.031 C 
ATOM     55  C   UNL     1      -3.450   8.377  -5.437  1.00  0.00     0.029 A 
ATOM     56  C   UNL     1      -4.703   9.071  -5.698  1.00  0.00     0.049 A 
ATOM     57  H   UNL     1      -6.410   8.237  -6.559  1.00  0.00     0.167 HD
ATOM     58  C   UNL     1     -10.399   6.120  -6.708  1.00  0.00     0.037 A 
ATOM     59  C   UNL     1      -5.109  10.338  -5.436  1.00  0.00     0.037 A 
ATOM     60  C   UNL     1     -10.221   6.660  -8.036  1.00  0.00     0.049 A 
ATOM     61  C   UNL     1      -6.408  10.545  -6.151  1.00  0.00     0.074 A 
ATOM     62  C   UNL     1      -9.859   6.121  -9.257  1.00  0.00     0.029 A 
ATOM     63  N   UNL     1     -10.043   8.019  -8.166  1.00  0.00    -0.354 N 
ATOM     64  N   UNL     1      -6.542  10.554  -7.453  1.00  0.00    -0.248 NA
ATOM     65  C   UNL     1      -7.639  10.293  -5.412  1.00  0.00     0.031 C 
ATOM     66  C   UNL     1      -9.036   7.110  -9.873  1.00  0.00     0.029 A 
ATOM     67  C   UNL     1      -8.978   8.207  -9.012  1.00  0.00     0.049 A 
ATOM     68  H   UNL     1     -10.578   8.723  -7.734  1.00  0.00     0.167 HD
ATOM     69  C   UNL     1      -7.763   9.937  -7.704  1.00  0.00     0.074 A 
ATOM     70  C   UNL     1      -8.429   9.879  -6.406  1.00  0.00     0.031 C 
ATOM     71  C   UNL     1      -8.012   9.278  -8.877  1.00  0.00     0.037 A 
BRANCH  58  72
ATOM     72  C   UNL     1     -11.517   6.565  -5.785  1.00  0.00     0.058 A 
ATOM     73  C   UNL     1     -12.673   7.140  -6.352  1.00  0.00     0.135 A 
ATOM     74  C   UNL     1     -11.399   6.712  -4.382  1.00  0.00     0.135 A 
ATOM     75  F   UNL     1     -12.909   7.046  -7.670  1.00  0.00    -0.206 F 
ATOM     76  C   UNL     1     -13.570   7.905  -5.606  1.00  0.00     0.059 A 
ATOM     77  C   UNL     1     -12.314   7.417  -3.612  1.00  0.00     0.059 A 
ATOM     78  F   UNL     1     -10.347   6.275  -3.684  1.00  0.00    -0.206 F 
ATOM     79  C   UNL     1     -13.361   8.062  -4.240  1.00  0.00     0.060 A 
BRANCH  79  80
ATOM     80  S   UNL     1     -14.400   9.190  -3.301  1.00  0.00     0.124 S 
ATOM     81  O   UNL     1     -13.958  10.480  -3.817  1.00  0.00    -0.237 OA
ATOM     82  O   UNL     1     -15.740   8.765  -3.693  1.00  0.00    -0.237 OA
ATOM     83  O   UNL     1     -14.038   8.904  -1.916  1.00  0.00    -0.744 OA
ENDBRANCH  79  80
ENDBRANCH  58  72
BRANCH  59  84
ATOM     84  C   UNL     1      -4.655  11.191  -4.305  1.00  0.00     0.058 A 
ATOM     85  C   UNL     1      -4.983  12.556  -4.254  1.00  0.00     0.135 A 
ATOM     86  C   UNL     1      -4.100  10.643  -3.128  1.00  0.00     0.135 A 
ATOM     87  F   UNL     1      -5.546  13.154  -5.315  1.00  0.00    -0.206 F 
ATOM     88  C   UNL     1      -4.798  13.324  -3.098  1.00  0.00     0.059 A 
ATOM     89  C   UNL     1      -3.886  11.392  -1.975  1.00  0.00     0.059 A 
ATOM     90  F   UNL     1      -3.826   9.335  -3.026  1.00  0.00    -0.206 F 
ATOM     91  C   UNL     1      -4.259  12.728  -1.958  1.00  0.00     0.060 A 
BRANCH  91  92
ATOM     92  S   UNL     1      -4.151  13.671  -0.421  1.00  0.00     0.124 S 
ATOM     93  O   UNL     1      -3.114  14.646  -0.740  1.00  0.00    -0.237 OA
ATOM     94  O   UNL     1      -5.504  14.198  -0.287  1.00  0.00    -0.237 OA
ATOM     95  O   UNL     1      -3.776  12.664   0.569  1.00  0.00    -0.744 OA
ENDBRANCH  91  92
ENDBRANCH  59  84
BRANCH  71  96
ATOM     96  C   UNL     1      -7.058   9.466 -10.028  1.00  0.00     0.058 A 
ATOM     97  C   UNL     1      -5.711   9.065 -10.002  1.00  0.00     0.135 A 
ATOM     98  C   UNL     1      -7.571   9.896 -11.262  1.00  0.00     0.135 A 
ATOM     99  F   UNL     1      -5.173   8.533  -8.896  1.00  0.00    -0.206 F 
ATOM    100  C   UNL     1      -4.901   9.126 -11.136  1.00  0.00     0.059 A 
ATOM    101  C   UNL     1      -6.790   9.936 -12.416  1.00  0.00     0.059 A 
ATOM    102  F   UNL     1      -8.868  10.229 -11.373  1.00  0.00    -0.206 F 
ATOM    103  C   UNL     1      -5.451   9.558 -12.342  1.00  0.00     0.060 A 
BRANCH 103 104
ATOM    104  S   UNL     1      -4.427   9.533 -13.830  1.00  0.00     0.124 S 
ATOM    105  O   UNL     1      -3.543  10.673 -13.614  1.00  0.00    -0.237 OA
ATOM    106  O   UNL     1      -3.794   8.219 -13.759  1.00  0.00    -0.237 OA
ATOM    107  O   UNL     1      -5.395   9.689 -14.914  1.00  0.00    -0.744 OA
ENDBRANCH 103 104
ENDBRANCH  71  96
ENDBRANCH  45  46
ENDBRANCH  38  40
ENDBRANCH  37  38
ENDBRANCH  36  37
ENDBRANCH  35  36
ENDBRANCH  34  35
ENDBRANCH   1  34
TORSDOF 23
