REMARK SMILES C[C@@H](C(=O)OCCOCCOC(=O)c1ccc(-c2c3nc(c(-c4c(F)cc(S(=O)(=O)[O-])cc4F)c4ccc([nH]4)c(-c4c(F)cc(S(=O)(=O)[O-])cc4F)c4nc(c(-c5c(F)cc(S(=O)(=O)[O-])cc5F)c5ccc2[nH]5)C=C4)C=C3)cc1)[C@H](C)[N@@H+]1C[C@H]2C[NH2+]C[C@@H]2[C@@H]1C
REMARK SMILES IDX 9 1 8 2 7 3 6 4 5 5 3 6 4 7 2 8 1 9 80 10 81 11 82 12 83 13
REMARK SMILES IDX 89 14 84 16 88 17 90 18 85 19 87 20 86 21 10 24 11 25 12 26
REMARK SMILES IDX 13 27 14 28 15 29 79 30 16 31 78 32 17 33 18 34 19 35 72 36
REMARK SMILES IDX 20 37 77 38 71 39 73 40 21 41 76 42 70 43 69 44 22 46 56 47
REMARK SMILES IDX 35 48 55 49 36 50 39 51 54 52 74 53 37 54 38 55 53 57 75 58
REMARK SMILES IDX 40 59 23 60 24 61 33 62 25 63 26 64 32 65 34 66 27 67 28 68
REMARK SMILES IDX 29 69 30 70 31 71 57 72 58 73 67 74 59 75 60 76 66 77 68 78
REMARK SMILES IDX 61 79 62 80 63 81 64 82 65 83 41 84 42 85 51 86 43 87 44 88
REMARK SMILES IDX 50 89 52 90 45 91 46 92 47 93 48 94 49 95
REMARK H PARENT 82 15 86 22 86 23 73 45 39 56
REMARK Flexibility Score: inf
ROOT
ATOM      1  C   UNL     1      -4.180   0.828   0.577  1.00  0.00     0.202 C 
ENDROOT
BRANCH   1   2
ATOM      2  O   UNL     1      -3.923   2.139   1.069  1.00  0.00    -0.374 OA
BRANCH   2   3
ATOM      3  C   UNL     1      -3.463   3.108   0.123  1.00  0.00     0.202 C 
BRANCH   3   4
ATOM      4  C   UNL     1      -2.027   2.945  -0.384  1.00  0.00     0.261 C 
BRANCH   4   5
ATOM      5  O   UNL     1      -1.894   1.753  -1.184  1.00  0.00    -0.463 OA
BRANCH   5   6
ATOM      6  C   UNL     1      -0.883   0.914  -0.835  1.00  0.00     0.314 C 
ATOM      7  O   UNL     1      -0.024   1.188  -0.004  1.00  0.00    -0.252 OA
BRANCH   6   8
ATOM      8  C   UNL     1      -0.928  -0.431  -1.569  1.00  0.00     0.154 C 
ATOM      9  C   UNL     1      -2.180  -0.646  -2.425  1.00  0.00     0.026 C 
BRANCH   8  10
ATOM     10  C   UNL     1      -0.574  -1.561  -0.513  1.00  0.00     0.195 C 
ATOM     11  C   UNL     1       0.957  -1.717  -0.589  1.00  0.00     0.076 C 
BRANCH  10  12
ATOM     12  N   UNL     1      -1.381  -2.801  -0.647  1.00  0.00    -0.329 N 
ATOM     13  C   UNL     1      -2.739  -2.630  -0.034  1.00  0.00     0.272 C 
ATOM     14  C   UNL     1      -0.887  -4.169  -0.247  1.00  0.00     0.190 C 
ATOM     15  H   UNL     1      -1.335  -2.858  -1.664  1.00  0.00     0.348 HD
ATOM     16  C   UNL     1      -2.708  -3.587   1.119  1.00  0.00     0.114 C 
ATOM     17  C   UNL     1      -2.105  -4.785   0.445  1.00  0.00     0.116 C 
ATOM     18  C   UNL     1       0.373  -4.368   0.589  1.00  0.00     0.076 C 
ATOM     19  C   UNL     1      -3.925  -4.186   1.766  1.00  0.00     0.270 C 
ATOM     20  C   UNL     1      -2.124  -5.770   1.590  1.00  0.00     0.271 C 
ATOM     21  N   UNL     1      -3.413  -5.485   2.279  1.00  0.00    -0.345 N 
ATOM     22  H   UNL     1      -4.084  -6.226   2.078  1.00  0.00     0.346 HD
ATOM     23  H   UNL     1      -3.275  -5.441   3.288  1.00  0.00     0.346 HD
ENDBRANCH  10  12
ENDBRANCH   8  10
ENDBRANCH   6   8
ENDBRANCH   5   6
ENDBRANCH   4   5
ENDBRANCH   3   4
ENDBRANCH   2   3
ENDBRANCH   1   2
BRANCH   1  24
ATOM     24  C   UNL     1      -5.497   0.601  -0.178  1.00  0.00     0.261 C 
BRANCH  24  25
ATOM     25  O   UNL     1      -5.629   1.444  -1.332  1.00  0.00    -0.460 OA
BRANCH  25  26
ATOM     26  C   UNL     1      -6.542   2.435  -1.194  1.00  0.00     0.338 C 
ATOM     27  O   UNL     1      -7.309   2.603  -0.254  1.00  0.00    -0.246 OA
BRANCH  26  28
ATOM     28  C   UNL     1      -6.377   3.435  -2.263  1.00  0.00     0.060 A 
ATOM     29  C   UNL     1      -6.217   4.770  -1.868  1.00  0.00     0.016 A 
ATOM     30  C   UNL     1      -6.443   3.096  -3.616  1.00  0.00     0.016 A 
ATOM     31  C   UNL     1      -6.178   5.779  -2.825  1.00  0.00     0.010 A 
ATOM     32  C   UNL     1      -6.414   4.114  -4.576  1.00  0.00     0.010 A 
ATOM     33  C   UNL     1      -6.320   5.462  -4.181  1.00  0.00    -0.014 A 
BRANCH  33  34
ATOM     34  C   UNL     1      -6.532   6.556  -5.159  1.00  0.00     0.031 A 
ATOM     35  C   UNL     1      -7.936   6.882  -5.591  1.00  0.00     0.074 A 
ATOM     36  C   UNL     1      -5.495   7.284  -5.612  1.00  0.00     0.049 A 
ATOM     37  N   UNL     1      -8.355   7.791  -6.431  1.00  0.00    -0.248 NA
ATOM     38  C   UNL     1      -9.011   6.073  -4.993  1.00  0.00     0.031 C 
ATOM     39  C   UNL     1      -4.097   7.086  -5.234  1.00  0.00     0.029 A 
ATOM     40  N   UNL     1      -5.462   8.335  -6.492  1.00  0.00    -0.354 N 
ATOM     41  C   UNL     1      -9.739   7.666  -6.464  1.00  0.00     0.074 A 
ATOM     42  C   UNL     1     -10.086   6.570  -5.586  1.00  0.00     0.031 C 
ATOM     43  C   UNL     1      -3.338   7.982  -5.889  1.00  0.00     0.029 A 
ATOM     44  C   UNL     1      -4.194   8.797  -6.750  1.00  0.00     0.049 A 
ATOM     45  H   UNL     1      -6.270   8.722  -6.901  1.00  0.00     0.167 HD
ATOM     46  C   UNL     1     -10.639   8.405  -7.155  1.00  0.00     0.037 A 
ATOM     47  C   UNL     1      -3.771   9.754  -7.600  1.00  0.00     0.037 A 
ATOM     48  C   UNL     1     -10.287   9.492  -8.031  1.00  0.00     0.049 A 
ATOM     49  C   UNL     1      -4.785  10.523  -8.406  1.00  0.00     0.074 A 
ATOM     50  C   UNL     1     -11.124  10.307  -8.772  1.00  0.00     0.029 A 
ATOM     51  N   UNL     1      -8.990   9.912  -8.287  1.00  0.00    -0.354 N 
ATOM     52  N   UNL     1      -6.092  10.405  -8.416  1.00  0.00    -0.248 NA
ATOM     53  C   UNL     1      -4.269  11.558  -9.313  1.00  0.00     0.031 C 
ATOM     54  C   UNL     1     -10.330  11.192  -9.511  1.00  0.00     0.029 A 
ATOM     55  C   UNL     1      -9.001  10.961  -9.192  1.00  0.00     0.049 A 
ATOM     56  H   UNL     1      -8.180   9.522  -7.886  1.00  0.00     0.167 HD
ATOM     57  C   UNL     1      -6.555  11.365  -9.310  1.00  0.00     0.074 A 
ATOM     58  C   UNL     1      -5.389  12.062  -9.813  1.00  0.00     0.031 C 
ATOM     59  C   UNL     1      -7.830  11.646  -9.680  1.00  0.00     0.037 A 
BRANCH  46  60
ATOM     60  C   UNL     1     -12.091   8.043  -7.009  1.00  0.00     0.058 A 
ATOM     61  C   UNL     1     -12.803   8.309  -5.828  1.00  0.00     0.135 A 
ATOM     62  C   UNL     1     -12.785   7.439  -8.069  1.00  0.00     0.135 A 
ATOM     63  F   UNL     1     -12.182   8.868  -4.776  1.00  0.00    -0.206 F 
ATOM     64  C   UNL     1     -14.144   7.964  -5.693  1.00  0.00     0.059 A 
ATOM     65  C   UNL     1     -14.133   7.108  -7.966  1.00  0.00     0.059 A 
ATOM     66  F   UNL     1     -12.152   7.160  -9.219  1.00  0.00    -0.206 F 
ATOM     67  C   UNL     1     -14.800   7.361  -6.768  1.00  0.00     0.060 A 
BRANCH  67  68
ATOM     68  S   UNL     1     -16.539   6.913  -6.578  1.00  0.00     0.124 S 
ATOM     69  O   UNL     1     -16.445   5.749  -5.703  1.00  0.00    -0.237 OA
ATOM     70  O   UNL     1     -17.107   8.115  -5.975  1.00  0.00    -0.237 OA
ATOM     71  O   UNL     1     -16.970   6.638  -7.944  1.00  0.00    -0.744 OA
ENDBRANCH  67  68
ENDBRANCH  46  60
BRANCH  47  72
ATOM     72  C   UNL     1      -2.317  10.028  -7.740  1.00  0.00     0.058 A 
ATOM     73  C   UNL     1      -1.749  11.217  -7.261  1.00  0.00     0.135 A 
ATOM     74  C   UNL     1      -1.463   9.094  -8.348  1.00  0.00     0.135 A 
ATOM     75  F   UNL     1      -2.526  12.145  -6.682  1.00  0.00    -0.206 F 
ATOM     76  C   UNL     1      -0.388  11.477  -7.387  1.00  0.00     0.059 A 
ATOM     77  C   UNL     1      -0.095   9.320  -8.464  1.00  0.00     0.059 A 
ATOM     78  F   UNL     1      -1.955   7.936  -8.814  1.00  0.00    -0.206 F 
ATOM     79  C   UNL     1       0.432  10.519  -7.987  1.00  0.00     0.060 A 
BRANCH  79  80
ATOM     80  S   UNL     1       2.207  10.838  -8.093  1.00  0.00     0.124 S 
ATOM     81  O   UNL     1       2.263  11.833  -9.157  1.00  0.00    -0.237 OA
ATOM     82  O   UNL     1       2.513  11.319  -6.749  1.00  0.00    -0.237 OA
ATOM     83  O   UNL     1       2.763   9.528  -8.421  1.00  0.00    -0.744 OA
ENDBRANCH  79  80
ENDBRANCH  47  72
BRANCH  59  84
ATOM     84  C   UNL     1      -8.037  12.773 -10.654  1.00  0.00     0.058 A 
ATOM     85  C   UNL     1      -7.721  12.639 -12.015  1.00  0.00     0.135 A 
ATOM     86  C   UNL     1      -8.613  13.982 -10.230  1.00  0.00     0.135 A 
ATOM     87  F   UNL     1      -7.165  11.506 -12.471  1.00  0.00    -0.206 F 
ATOM     88  C   UNL     1      -7.948  13.673 -12.918  1.00  0.00     0.059 A 
ATOM     89  C   UNL     1      -8.873  15.019 -11.120  1.00  0.00     0.059 A 
ATOM     90  F   UNL     1      -8.945  14.157  -8.941  1.00  0.00    -0.206 F 
ATOM     91  C   UNL     1      -8.526  14.859 -12.461  1.00  0.00     0.060 A 
BRANCH  91  92
ATOM     92  S   UNL     1      -8.847  16.181 -13.649  1.00  0.00     0.124 S 
ATOM     93  O   UNL     1      -7.505  16.707 -13.873  1.00  0.00    -0.237 OA
ATOM     94  O   UNL     1      -9.440  15.458 -14.769  1.00  0.00    -0.237 OA
ATOM     95  O   UNL     1      -9.758  17.068 -12.931  1.00  0.00    -0.744 OA
ENDBRANCH  91  92
ENDBRANCH  59  84
ENDBRANCH  33  34
ENDBRANCH  26  28
ENDBRANCH  25  26
ENDBRANCH  24  25
ENDBRANCH   1  24
TORSDOF 19
