REMARK SMILES C[C@@H](CCCO)Nc1ccc(C(=O)OCCOCCOC(=O)c2ccc(-c3c4nc(c(-c5c(F)cc(S(=O)(=O)[O-])cc5F)c5ccc([nH]5)c(-c5c(F)cc(S(=O)(=O)[O-])cc5F)c5nc(c(-c6c(F)cc(S(=O)(=O)[O-])cc6F)c6ccc3[nH]6)C=C5)C=C4)cc2)o1
REMARK SMILES IDX 15 1 14 2 12 3 13 4 11 5 8 6 9 7 89 8 10 9 7 10 2 12 1 13
REMARK SMILES IDX 3 14 4 15 5 16 6 17 16 19 17 20 18 21 19 22 20 23 21 24
REMARK SMILES IDX 22 25 23 26 24 27 88 28 25 29 87 30 26 31 27 32 28 33 81 34
REMARK SMILES IDX 29 35 86 36 80 37 82 38 30 39 85 40 79 41 78 42 31 44 65 45
REMARK SMILES IDX 44 46 64 47 45 48 48 49 63 50 83 51 46 52 47 53 62 55 84 56
REMARK SMILES IDX 49 57 32 58 33 59 42 60 34 61 35 62 41 63 43 64 36 65 37 66
REMARK SMILES IDX 38 67 39 68 40 69 66 70 67 71 76 72 68 73 69 74 75 75 77 76
REMARK SMILES IDX 70 77 71 78 72 79 73 80 74 81 50 82 51 83 60 84 52 85 53 86
REMARK SMILES IDX 59 87 61 88 54 89 55 90 56 91 57 92 58 93
REMARK H PARENT 7 11 6 18 82 43 48 54
REMARK Flexibility Score: inf
ROOT
ATOM      1  C   UNL     1      -5.027  -6.020   1.110  1.00  0.00     0.261 C 
ENDROOT
BRANCH   1   2
ATOM      2  O   UNL     1      -3.899  -5.332   1.677  1.00  0.00    -0.457 OA
BRANCH   2   3
ATOM      3  C   UNL     1      -3.264  -4.461   0.843  1.00  0.00     0.374 C 
ATOM      4  O   UNL     1      -3.456  -4.378  -0.365  1.00  0.00    -0.242 OA
BRANCH   3   5
ATOM      5  C   UNL     1      -2.414  -3.585   1.613  1.00  0.00     0.214 A 
ATOM      6  C   UNL     1      -1.260  -1.739   1.896  1.00  0.00     0.194 A 
ATOM      7  C   UNL     1      -1.121  -2.450   3.063  1.00  0.00     0.070 A 
ATOM      8  O   UNL     1      -2.051  -2.404   1.028  1.00  0.00    -0.434 OA
ATOM      9  C   UNL     1      -1.892  -3.632   2.895  1.00  0.00     0.060 A 
BRANCH   6  10
ATOM     10  N   UNL     1      -0.780  -0.576   1.427  1.00  0.00    -0.354 N 
ATOM     11  H   UNL     1      -1.395   0.097   1.055  1.00  0.00     0.163 HD
BRANCH  10  12
ATOM     12  C   UNL     1       0.654  -0.308   1.470  1.00  0.00     0.079 C 
ATOM     13  C   UNL     1       1.137   0.006   0.053  1.00  0.00     0.031 C 
BRANCH  12  14
ATOM     14  C   UNL     1       0.988   0.798   2.478  1.00  0.00     0.027 C 
BRANCH  14  15
ATOM     15  C   UNL     1       0.517   2.221   2.149  1.00  0.00     0.030 C 
BRANCH  15  16
ATOM     16  C   UNL     1      -0.992   2.427   2.078  1.00  0.00     0.156 C 
BRANCH  16  17
ATOM     17  O   UNL     1      -1.642   1.848   3.198  1.00  0.00    -0.396 OA
ATOM     18  H   UNL     1      -1.471   0.894   3.212  1.00  0.00     0.210 HD
ENDBRANCH  16  17
ENDBRANCH  15  16
ENDBRANCH  14  15
ENDBRANCH  12  14
ENDBRANCH  10  12
ENDBRANCH   6  10
ENDBRANCH   3   5
ENDBRANCH   2   3
ENDBRANCH   1   2
BRANCH   1  19
ATOM     19  C   UNL     1      -6.331  -5.453   1.680  1.00  0.00     0.202 C 
BRANCH  19  20
ATOM     20  O   UNL     1      -6.646  -4.135   1.222  1.00  0.00    -0.374 OA
BRANCH  20  21
ATOM     21  C   UNL     1      -6.104  -3.054   1.985  1.00  0.00     0.202 C 
BRANCH  21  22
ATOM     22  C   UNL     1      -6.933  -2.645   3.207  1.00  0.00     0.261 C 
BRANCH  22  23
ATOM     23  O   UNL     1      -6.855  -3.647   4.237  1.00  0.00    -0.460 OA
BRANCH  23  24
ATOM     24  C   UNL     1      -7.990  -4.364   4.422  1.00  0.00     0.338 C 
ATOM     25  O   UNL     1      -9.072  -4.175   3.892  1.00  0.00    -0.246 OA
BRANCH  24  26
ATOM     26  C   UNL     1      -7.702  -5.558   5.245  1.00  0.00     0.060 A 
ATOM     27  C   UNL     1      -8.240  -6.776   4.813  1.00  0.00     0.016 A 
ATOM     28  C   UNL     1      -6.965  -5.492   6.431  1.00  0.00     0.016 A 
ATOM     29  C   UNL     1      -8.090  -7.921   5.591  1.00  0.00     0.010 A 
ATOM     30  C   UNL     1      -6.819  -6.644   7.215  1.00  0.00     0.010 A 
ATOM     31  C   UNL     1      -7.411  -7.855   6.815  1.00  0.00    -0.014 A 
BRANCH  31  32
ATOM     32  C   UNL     1      -7.449  -9.025   7.727  1.00  0.00     0.031 A 
ATOM     33  C   UNL     1      -8.453  -9.049   8.847  1.00  0.00     0.074 A 
ATOM     34  C   UNL     1      -6.637 -10.079   7.525  1.00  0.00     0.049 A 
ATOM     35  N   UNL     1      -8.685  -9.983   9.732  1.00  0.00    -0.248 NA
ATOM     36  C   UNL     1      -9.311  -7.861   8.985  1.00  0.00     0.031 C 
ATOM     37  C   UNL     1      -5.644 -10.188   6.457  1.00  0.00     0.029 A 
ATOM     38  N   UNL     1      -6.527 -11.262   8.210  1.00  0.00    -0.354 N 
ATOM     39  C   UNL     1      -9.718  -9.502  10.528  1.00  0.00     0.074 A 
ATOM     40  C   UNL     1     -10.041  -8.176  10.044  1.00  0.00     0.031 C 
ATOM     41  C   UNL     1      -5.026 -11.377   6.558  1.00  0.00     0.029 A 
ATOM     42  C   UNL     1      -5.565 -12.103   7.707  1.00  0.00     0.049 A 
ATOM     43  H   UNL     1      -7.085 -11.487   8.989  1.00  0.00     0.167 HD
ATOM     44  C   UNL     1     -10.350 -10.112  11.559  1.00  0.00     0.037 A 
ATOM     45  C   UNL     1      -5.161 -13.318   8.130  1.00  0.00     0.037 A 
ATOM     46  C   UNL     1     -10.024 -11.427  12.046  1.00  0.00     0.049 A 
ATOM     47  C   UNL     1      -5.835 -13.950   9.318  1.00  0.00     0.074 A 
ATOM     48  C   UNL     1     -10.614 -12.136  13.078  1.00  0.00     0.029 A 
ATOM     49  N   UNL     1      -9.012 -12.229  11.539  1.00  0.00    -0.354 N 
ATOM     50  N   UNL     1      -6.826 -13.493  10.046  1.00  0.00    -0.248 NA
ATOM     51  C   UNL     1      -5.338 -15.268   9.739  1.00  0.00     0.031 C 
ATOM     52  C   UNL     1      -9.933 -13.351  13.220  1.00  0.00     0.029 A 
ATOM     53  C   UNL     1      -8.945 -13.416  12.251  1.00  0.00     0.049 A 
ATOM     54  H   UNL     1      -8.427 -11.990  10.784  1.00  0.00     0.167 HD
ATOM     55  C   UNL     1      -7.083 -14.474  10.998  1.00  0.00     0.074 A 
ATOM     56  C   UNL     1      -6.153 -15.555  10.745  1.00  0.00     0.031 C 
ATOM     57  C   UNL     1      -8.008 -14.481  11.992  1.00  0.00     0.037 A 
BRANCH  44  58
ATOM     58  C   UNL     1     -11.449  -9.345  12.241  1.00  0.00     0.058 A 
ATOM     59  C   UNL     1     -12.694  -9.139  11.624  1.00  0.00     0.135 A 
ATOM     60  C   UNL     1     -11.257  -8.813  13.526  1.00  0.00     0.135 A 
ATOM     61  F   UNL     1     -12.922  -9.611  10.389  1.00  0.00    -0.206 F 
ATOM     62  C   UNL     1     -13.698  -8.402  12.244  1.00  0.00     0.059 A 
ATOM     63  C   UNL     1     -12.257  -8.094  14.174  1.00  0.00     0.059 A 
ATOM     64  F   UNL     1     -10.085  -8.981  14.159  1.00  0.00    -0.206 F 
ATOM     65  C   UNL     1     -13.467  -7.878  13.517  1.00  0.00     0.060 A 
BRANCH  65  66
ATOM     66  S   UNL     1     -14.771  -6.907  14.303  1.00  0.00     0.124 S 
ATOM     67  O   UNL     1     -14.675  -5.647  13.571  1.00  0.00    -0.237 OA
ATOM     68  O   UNL     1     -15.963  -7.705  14.034  1.00  0.00    -0.237 OA
ATOM     69  O   UNL     1     -14.358  -6.854  15.701  1.00  0.00    -0.744 OA
ENDBRANCH  65  66
ENDBRANCH  44  58
BRANCH  45  70
ATOM     70  C   UNL     1      -4.062 -14.020   7.418  1.00  0.00     0.058 A 
ATOM     71  C   UNL     1      -4.317 -15.151   6.629  1.00  0.00     0.135 A 
ATOM     72  C   UNL     1      -2.736 -13.569   7.508  1.00  0.00     0.135 A 
ATOM     73  F   UNL     1      -5.567 -15.626   6.522  1.00  0.00    -0.206 F 
ATOM     74  C   UNL     1      -3.296 -15.815   5.958  1.00  0.00     0.059 A 
ATOM     75  C   UNL     1      -1.701 -14.204   6.830  1.00  0.00     0.059 A 
ATOM     76  F   UNL     1      -2.442 -12.486   8.245  1.00  0.00    -0.206 F 
ATOM     77  C   UNL     1      -1.990 -15.332   6.062  1.00  0.00     0.060 A 
BRANCH  77  78
ATOM     78  S   UNL     1      -0.680 -16.162   5.137  1.00  0.00     0.124 S 
ATOM     79  O   UNL     1      -0.476 -17.366   5.933  1.00  0.00    -0.237 OA
ATOM     80  O   UNL     1      -1.301 -16.356   3.831  1.00  0.00    -0.237 OA
ATOM     81  O   UNL     1       0.412 -15.193   5.164  1.00  0.00    -0.744 OA
ENDBRANCH  77  78
ENDBRANCH  45  70
BRANCH  57  82
ATOM     82  C   UNL     1      -8.068 -15.703  12.866  1.00  0.00     0.058 A 
ATOM     83  C   UNL     1      -7.083 -15.967  13.830  1.00  0.00     0.135 A 
ATOM     84  C   UNL     1      -9.137 -16.607  12.756  1.00  0.00     0.135 A 
ATOM     85  F   UNL     1      -6.038 -15.136  13.972  1.00  0.00    -0.206 F 
ATOM     86  C   UNL     1      -7.138 -17.101  14.634  1.00  0.00     0.059 A 
ATOM     87  C   UNL     1      -9.225 -17.735  13.566  1.00  0.00     0.059 A 
ATOM     88  F   UNL     1     -10.112 -16.395  11.858  1.00  0.00    -0.206 F 
ATOM     89  C   UNL     1      -8.212 -17.983  14.491  1.00  0.00     0.060 A 
BRANCH  89  90
ATOM     90  S   UNL     1      -8.281 -19.447  15.545  1.00  0.00     0.124 S 
ATOM     91  O   UNL     1      -7.303 -20.318  14.901  1.00  0.00    -0.237 OA
ATOM     92  O   UNL     1      -7.894 -18.916  16.849  1.00  0.00    -0.237 OA
ATOM     93  O   UNL     1      -9.672 -19.875  15.439  1.00  0.00    -0.744 OA
ENDBRANCH  89  90
ENDBRANCH  57  82
ENDBRANCH  31  32
ENDBRANCH  24  26
ENDBRANCH  23  24
ENDBRANCH  22  23
ENDBRANCH  21  22
ENDBRANCH  20  21
ENDBRANCH  19  20
ENDBRANCH   1  19
TORSDOF 23
