REMARK SMILES CC(C)[C@@H]([NH2+][C@@H]1CSCC(C)(C)C1)C(=O)OCCOCCOC(=O)c1ccc(-c2c3nc(c(-c4c(F)cc(S(=O)(=O)[O-])cc4F)c4ccc([nH]4)c(-c4c(F)cc(S(=O)(=O)[O-])cc4F)c4nc(c(-c5c(F)cc(S(=O)(=O)[O-])cc5F)c5ccc2[nH]5)C=C4)C=C3)cc1
REMARK SMILES IDX 20 1 19 2 18 3 17 4 16 5 14 6 15 7 4 8 2 9 1 10 3 11 5 12
REMARK SMILES IDX 6 15 7 16 13 17 8 18 10 19 9 20 11 21 12 22 21 23 22 24
REMARK SMILES IDX 23 25 24 26 25 27 26 28 90 29 27 30 89 31 28 32 29 33 30 34
REMARK SMILES IDX 83 35 31 36 88 37 82 38 84 39 32 40 87 41 81 42 80 43 33 45
REMARK SMILES IDX 67 46 46 47 66 48 47 49 50 50 65 51 85 52 48 53 49 54 64 56
REMARK SMILES IDX 86 57 51 58 34 59 35 60 44 61 36 62 37 63 43 64 45 65 38 66
REMARK SMILES IDX 39 67 40 68 41 69 42 70 68 71 69 72 78 73 70 74 71 75 77 76
REMARK SMILES IDX 79 77 72 78 73 79 74 80 75 81 76 82 52 83 53 84 62 85 54 86
REMARK SMILES IDX 55 87 61 88 63 89 56 90 57 91 58 92 59 93 60 94
REMARK H PARENT 5 13 5 14 84 44 50 55
REMARK Flexibility Score: inf
ROOT
ATOM      1  C   UNL     1      -0.312  -0.047  -5.374  1.00  0.00     0.202 C 
ENDROOT
BRANCH   1   2
ATOM      2  O   UNL     1      -1.422   0.687  -5.881  1.00  0.00    -0.374 OA
BRANCH   2   3
ATOM      3  C   UNL     1      -1.544   2.043  -5.472  1.00  0.00     0.202 C 
BRANCH   3   4
ATOM      4  C   UNL     1      -2.077   2.316  -4.065  1.00  0.00     0.261 C 
BRANCH   4   5
ATOM      5  O   UNL     1      -1.257   1.868  -2.973  1.00  0.00    -0.459 OA
BRANCH   5   6
ATOM      6  C   UNL     1      -1.667   0.708  -2.385  1.00  0.00     0.365 C 
ATOM      7  O   UNL     1      -2.418  -0.110  -2.908  1.00  0.00    -0.245 OA
BRANCH   6   8
ATOM      8  C   UNL     1      -1.142   0.539  -0.948  1.00  0.00     0.296 C 
BRANCH   8   9
ATOM      9  C   UNL     1       0.417   0.613  -0.841  1.00  0.00     0.053 C 
ATOM     10  C   UNL     1       0.909   0.034   0.498  1.00  0.00     0.014 C 
ATOM     11  C   UNL     1       1.164  -0.102  -1.967  1.00  0.00     0.014 C 
ENDBRANCH   8   9
BRANCH   8  12
ATOM     12  N   UNL     1      -1.704   1.581  -0.073  1.00  0.00    -0.331 N 
ATOM     13  H   UNL     1      -1.581   2.464  -0.567  1.00  0.00     0.347 HD
ATOM     14  H   UNL     1      -1.198   1.421   0.798  1.00  0.00     0.347 HD
BRANCH  12  15
ATOM     15  C   UNL     1      -3.095   1.556   0.377  1.00  0.00     0.193 C 
ATOM     16  C   UNL     1      -4.246   1.169  -0.566  1.00  0.00     0.134 C 
ATOM     17  C   UNL     1      -3.377   2.944   0.986  1.00  0.00     0.073 C 
ATOM     18  S   UNL     1      -5.097   2.466  -1.523  1.00  0.00    -0.155 SA
ATOM     19  C   UNL     1      -3.259   4.138  -0.003  1.00  0.00    -0.021 C 
ATOM     20  C   UNL     1      -4.007   3.913  -1.336  1.00  0.00     0.076 C 
ATOM     21  C   UNL     1      -1.782   4.487  -0.328  1.00  0.00     0.012 C 
ATOM     22  C   UNL     1      -3.833   5.384   0.705  1.00  0.00     0.012 C 
ENDBRANCH  12  15
ENDBRANCH   8  12
ENDBRANCH   6   8
ENDBRANCH   5   6
ENDBRANCH   4   5
ENDBRANCH   3   4
ENDBRANCH   2   3
ENDBRANCH   1   2
BRANCH   1  23
ATOM     23  C   UNL     1       1.064   0.324  -5.939  1.00  0.00     0.261 C 
BRANCH  23  24
ATOM     24  O   UNL     1       1.491   1.635  -5.514  1.00  0.00    -0.460 OA
BRANCH  24  25
ATOM     25  C   UNL     1       1.714   2.507  -6.526  1.00  0.00     0.338 C 
ATOM     26  O   UNL     1       1.692   2.259  -7.726  1.00  0.00    -0.246 OA
BRANCH  25  27
ATOM     27  C   UNL     1       1.825   3.889  -6.025  1.00  0.00     0.060 A 
ATOM     28  C   UNL     1       0.982   4.848  -6.605  1.00  0.00     0.016 A 
ATOM     29  C   UNL     1       2.817   4.274  -5.121  1.00  0.00     0.016 A 
ATOM     30  C   UNL     1       1.186   6.202  -6.353  1.00  0.00     0.010 A 
ATOM     31  C   UNL     1       3.026   5.638  -4.875  1.00  0.00     0.010 A 
ATOM     32  C   UNL     1       2.248   6.608  -5.534  1.00  0.00    -0.014 A 
BRANCH  32  33
ATOM     33  C   UNL     1       2.661   8.034  -5.557  1.00  0.00     0.031 A 
ATOM     34  C   UNL     1       3.795   8.441  -6.465  1.00  0.00     0.074 A 
ATOM     35  C   UNL     1       1.997   8.965  -4.849  1.00  0.00     0.049 A 
ATOM     36  N   UNL     1       4.317   9.624  -6.662  1.00  0.00    -0.248 NA
ATOM     37  C   UNL     1       4.418   7.371  -7.261  1.00  0.00     0.031 C 
ATOM     38  C   UNL     1       0.852   8.707  -3.978  1.00  0.00     0.029 A 
ATOM     39  N   UNL     1       2.192  10.321  -4.758  1.00  0.00    -0.354 N 
ATOM     40  C   UNL     1       5.327   9.441  -7.600  1.00  0.00     0.074 A 
ATOM     41  C   UNL     1       5.366   8.029  -7.911  1.00  0.00     0.031 C 
ATOM     42  C   UNL     1       0.449   9.869  -3.434  1.00  0.00     0.029 A 
ATOM     43  C   UNL     1       1.321  10.947  -3.898  1.00  0.00     0.049 A 
ATOM     44  H   UNL     1       2.889  10.800  -5.261  1.00  0.00     0.167 HD
ATOM     45  C   UNL     1       6.141  10.366  -8.162  1.00  0.00     0.037 A 
ATOM     46  C   UNL     1       1.248  12.239  -3.519  1.00  0.00     0.037 A 
ATOM     47  C   UNL     1       6.099  11.772  -7.859  1.00  0.00     0.049 A 
ATOM     48  C   UNL     1       2.211  13.239  -4.105  1.00  0.00     0.074 A 
ATOM     49  C   UNL     1       6.878  12.789  -8.381  1.00  0.00     0.029 A 
ATOM     50  N   UNL     1       5.232  12.359  -6.950  1.00  0.00    -0.354 N 
ATOM     51  N   UNL     1       3.155  13.052  -4.997  1.00  0.00    -0.248 NA
ATOM     52  C   UNL     1       2.099  14.627  -3.634  1.00  0.00     0.031 C 
ATOM     53  C   UNL     1       6.510  13.986  -7.757  1.00  0.00     0.029 A 
ATOM     54  C   UNL     1       5.471  13.721  -6.880  1.00  0.00     0.049 A 
ATOM     55  H   UNL     1       4.547  11.878  -6.431  1.00  0.00     0.167 HD
ATOM     56  C   UNL     1       3.731  14.301  -5.210  1.00  0.00     0.074 A 
ATOM     57  C   UNL     1       3.023  15.238  -4.363  1.00  0.00     0.031 C 
ATOM     58  C   UNL     1       4.753  14.642  -6.035  1.00  0.00     0.037 A 
BRANCH  45  59
ATOM     59  C   UNL     1       7.165   9.882  -9.151  1.00  0.00     0.058 A 
ATOM     60  C   UNL     1       6.805   9.479 -10.447  1.00  0.00     0.135 A 
ATOM     61  C   UNL     1       8.526   9.854  -8.809  1.00  0.00     0.135 A 
ATOM     62  F   UNL     1       5.515   9.468 -10.818  1.00  0.00    -0.206 F 
ATOM     63  C   UNL     1       7.758   9.046 -11.363  1.00  0.00     0.059 A 
ATOM     64  C   UNL     1       9.499   9.447  -9.717  1.00  0.00     0.059 A 
ATOM     65  F   UNL     1       8.922  10.225  -7.582  1.00  0.00    -0.206 F 
ATOM     66  C   UNL     1       9.103   9.033 -10.989  1.00  0.00     0.060 A 
BRANCH  66  67
ATOM     67  S   UNL     1      10.331   8.478 -12.191  1.00  0.00     0.124 S 
ATOM     68  O   UNL     1      10.104   7.036 -12.193  1.00  0.00    -0.237 OA
ATOM     69  O   UNL     1       9.926   9.184 -13.402  1.00  0.00    -0.237 OA
ATOM     70  O   UNL     1      11.597   8.912 -11.609  1.00  0.00    -0.744 OA
ENDBRANCH  66  67
ENDBRANCH  45  59
BRANCH  46  71
ATOM     71  C   UNL     1       0.235  12.663  -2.516  1.00  0.00     0.058 A 
ATOM     72  C   UNL     1      -0.848  13.479  -2.873  1.00  0.00     0.135 A 
ATOM     73  C   UNL     1       0.342  12.269  -1.173  1.00  0.00     0.135 A 
ATOM     74  F   UNL     1      -0.986  13.892  -4.142  1.00  0.00    -0.206 F 
ATOM     75  C   UNL     1      -1.783  13.901  -1.933  1.00  0.00     0.059 A 
ATOM     76  C   UNL     1      -0.593  12.658  -0.219  1.00  0.00     0.059 A 
ATOM     77  F   UNL     1       1.356  11.482  -0.781  1.00  0.00    -0.206 F 
ATOM     78  C   UNL     1      -1.646  13.485  -0.607  1.00  0.00     0.060 A 
BRANCH  78  79
ATOM     79  S   UNL     1      -2.887  14.000   0.600  1.00  0.00     0.124 S 
ATOM     80  O   UNL     1      -2.515  15.392   0.827  1.00  0.00    -0.237 OA
ATOM     81  O   UNL     1      -4.134  13.781  -0.126  1.00  0.00    -0.237 OA
ATOM     82  O   UNL     1      -2.657  13.094   1.722  1.00  0.00    -0.744 OA
ENDBRANCH  78  79
ENDBRANCH  46  71
BRANCH  58  83
ATOM     83  C   UNL     1       5.152  16.090  -6.084  1.00  0.00     0.058 A 
ATOM     84  C   UNL     1       5.867  16.693  -5.038  1.00  0.00     0.135 A 
ATOM     85  C   UNL     1       4.864  16.869  -7.217  1.00  0.00     0.135 A 
ATOM     86  F   UNL     1       6.164  15.993  -3.932  1.00  0.00    -0.206 F 
ATOM     87  C   UNL     1       6.264  18.025  -5.103  1.00  0.00     0.059 A 
ATOM     88  C   UNL     1       5.272  18.196  -7.314  1.00  0.00     0.059 A 
ATOM     89  F   UNL     1       4.192  16.337  -8.251  1.00  0.00    -0.206 F 
ATOM     90  C   UNL     1       5.962  18.769  -6.246  1.00  0.00     0.060 A 
BRANCH  90  91
ATOM     91  S   UNL     1       6.510  20.487  -6.333  1.00  0.00     0.124 S 
ATOM     92  O   UNL     1       5.553  21.146  -5.451  1.00  0.00    -0.237 OA
ATOM     93  O   UNL     1       7.880  20.405  -5.835  1.00  0.00    -0.237 OA
ATOM     94  O   UNL     1       6.385  20.812  -7.751  1.00  0.00    -0.744 OA
ENDBRANCH  90  91
ENDBRANCH  58  83
ENDBRANCH  32  33
ENDBRANCH  25  27
ENDBRANCH  24  25
ENDBRANCH  23  24
ENDBRANCH   1  23
TORSDOF 20
