REMARK SMILES COc1cccc(-c2c(C(=O)OCCOCCOC(=O)c3ccc(-c4c5nc(c(-c6c(F)cc(S(=O)(=O)[O-])cc6F)c6ccc([nH]6)c(-c6c(F)cc(S(=O)(=O)[O-])cc6F)c6nc(c(-c7c(F)cc(S(=O)(=O)[O-])cc7F)c7ccc4[nH]7)C=C6)C=C5)cc3)nnn2-c2ccc(OC(F)(F)F)cc2)c1
REMARK SMILES IDX 15 1 14 2 13 3 12 4 10 5 11 6 9 7 8 8 89 9 87 10 88 11 7 12
REMARK SMILES IDX 3 13 4 14 101 15 5 16 6 17 2 18 1 19 90 20 91 21 100 22
REMARK SMILES IDX 92 23 99 24 93 25 94 26 95 27 96 28 97 29 98 30 16 31 17 32
REMARK SMILES IDX 18 33 19 34 20 35 21 36 22 37 86 38 23 39 85 40 24 41 25 42
REMARK SMILES IDX 26 43 79 44 27 45 84 46 78 47 80 48 28 49 83 50 77 51 76 52
REMARK SMILES IDX 29 54 63 55 42 56 62 57 43 58 46 59 61 60 81 61 44 62 45 63
REMARK SMILES IDX 60 65 82 66 47 67 30 68 31 69 40 70 32 71 33 72 39 73 41 74
REMARK SMILES IDX 34 75 35 76 36 77 37 78 38 79 64 80 65 81 74 82 66 83 67 84
REMARK SMILES IDX 73 85 75 86 68 87 69 88 70 89 71 90 72 91 48 92 49 93 58 94
REMARK SMILES IDX 50 95 51 96 57 97 59 98 52 99 53 100 54 101 55 102 56 103
REMARK H PARENT 80 53 46 64
REMARK Flexibility Score: inf
ROOT
ATOM      1  O   UNL     1       4.072   0.148  -8.383  1.00  0.00    -0.374 OA
ENDROOT
BRANCH   1   2
ATOM      2  C   UNL     1       2.684  -0.102  -8.159  1.00  0.00     0.202 C 
BRANCH   2   3
ATOM      3  C   UNL     1       2.286  -1.510  -7.719  1.00  0.00     0.261 C 
BRANCH   3   4
ATOM      4  O   UNL     1       2.716  -1.792  -6.376  1.00  0.00    -0.458 OA
BRANCH   4   5
ATOM      5  C   UNL     1       3.668  -2.762  -6.261  1.00  0.00     0.361 C 
ATOM      6  O   UNL     1       4.065  -3.457  -7.192  1.00  0.00    -0.244 OA
BRANCH   5   7
ATOM      7  C   UNL     1       4.258  -2.832  -4.939  1.00  0.00     0.198 A 
ATOM      8  C   UNL     1       3.659  -2.860  -3.684  1.00  0.00     0.109 A 
ATOM      9  N   UNL     1       4.742  -3.151  -2.852  1.00  0.00    -0.212 N 
ATOM     10  N   UNL     1       5.626  -2.839  -4.789  1.00  0.00    -0.122 NA
ATOM     11  N   UNL     1       5.901  -2.893  -3.498  1.00  0.00    -0.061 NA
BRANCH   8  12
ATOM     12  C   UNL     1       2.277  -2.712  -3.220  1.00  0.00     0.007 A 
ATOM     13  C   UNL     1       0.708  -1.891  -1.545  1.00  0.00     0.119 A 
ATOM     14  C   UNL     1      -0.322  -2.580  -2.181  1.00  0.00     0.046 A 
ATOM     15  C   UNL     1       2.001  -1.952  -2.065  1.00  0.00     0.056 A 
ATOM     16  C   UNL     1      -0.072  -3.297  -3.351  1.00  0.00     0.005 A 
ATOM     17  C   UNL     1       1.223  -3.364  -3.870  1.00  0.00     0.011 A 
BRANCH  13  18
ATOM     18  O   UNL     1       0.367  -1.270  -0.375  1.00  0.00    -0.497 OA
ATOM     19  C   UNL     1       1.004  -0.018  -0.141  1.00  0.00     0.278 C 
ENDBRANCH  13  18
ENDBRANCH   8  12
BRANCH   9  20
ATOM     20  C   UNL     1       4.758  -3.790  -1.589  1.00  0.00     0.067 A 
ATOM     21  C   UNL     1       5.773  -3.502  -0.673  1.00  0.00     0.032 A 
ATOM     22  C   UNL     1       3.798  -4.762  -1.286  1.00  0.00     0.032 A 
ATOM     23  C   UNL     1       5.782  -4.150   0.565  1.00  0.00     0.049 A 
ATOM     24  C   UNL     1       3.841  -5.434  -0.062  1.00  0.00     0.049 A 
ATOM     25  C   UNL     1       4.823  -5.122   0.878  1.00  0.00     0.129 A 
BRANCH  25  26
ATOM     26  O   UNL     1       4.960  -5.681   2.116  1.00  0.00    -0.406 OA
BRANCH  26  27
ATOM     27  C   UNL     1       4.055  -6.711   2.474  1.00  0.00     0.573 C 
ATOM     28  F   UNL     1       2.776  -6.281   2.449  1.00  0.00    -0.132 F 
ATOM     29  F   UNL     1       4.186  -7.776   1.650  1.00  0.00    -0.132 F 
ATOM     30  F   UNL     1       4.336  -7.122   3.730  1.00  0.00    -0.132 F 
ENDBRANCH  26  27
ENDBRANCH  25  26
ENDBRANCH   9  20
ENDBRANCH   5   7
ENDBRANCH   4   5
ENDBRANCH   3   4
ENDBRANCH   2   3
ENDBRANCH   1   2
BRANCH   1  31
ATOM     31  C   UNL     1       4.978   0.167  -7.284  1.00  0.00     0.202 C 
BRANCH  31  32
ATOM     32  C   UNL     1       4.920   1.347  -6.323  1.00  0.00     0.261 C 
BRANCH  32  33
ATOM     33  O   UNL     1       3.642   1.491  -5.725  1.00  0.00    -0.460 OA
BRANCH  33  34
ATOM     34  C   UNL     1       2.875   2.454  -6.288  1.00  0.00     0.338 C 
ATOM     35  O   UNL     1       3.056   3.008  -7.359  1.00  0.00    -0.246 OA
BRANCH  34  36
ATOM     36  C   UNL     1       1.832   2.832  -5.331  1.00  0.00     0.060 A 
ATOM     37  C   UNL     1       1.052   3.941  -5.671  1.00  0.00     0.016 A 
ATOM     38  C   UNL     1       1.857   2.304  -4.032  1.00  0.00     0.016 A 
ATOM     39  C   UNL     1       0.478   4.670  -4.656  1.00  0.00     0.010 A 
ATOM     40  C   UNL     1       1.319   3.053  -3.019  1.00  0.00     0.010 A 
ATOM     41  C   UNL     1       0.710   4.265  -3.342  1.00  0.00    -0.014 A 
BRANCH  41  42
ATOM     42  C   UNL     1       0.315   5.157  -2.277  1.00  0.00     0.031 A 
ATOM     43  C   UNL     1      -1.101   5.017  -1.876  1.00  0.00     0.074 A 
ATOM     44  C   UNL     1       1.235   5.904  -1.638  1.00  0.00     0.049 A 
ATOM     45  N   UNL     1      -2.054   5.883  -1.962  1.00  0.00    -0.248 NA
ATOM     46  C   UNL     1      -1.545   3.671  -1.472  1.00  0.00     0.031 C 
ATOM     47  C   UNL     1       2.697   5.808  -1.753  1.00  0.00     0.029 A 
ATOM     48  N   UNL     1       1.065   6.814  -0.647  1.00  0.00    -0.354 N 
ATOM     49  C   UNL     1      -3.166   5.253  -1.411  1.00  0.00     0.074 A 
ATOM     50  C   UNL     1      -2.857   3.851  -1.348  1.00  0.00     0.031 C 
ATOM     51  C   UNL     1       3.263   6.450  -0.707  1.00  0.00     0.029 A 
ATOM     52  C   UNL     1       2.217   7.090   0.074  1.00  0.00     0.049 A 
ATOM     53  H   UNL     1       0.199   7.241  -0.456  1.00  0.00     0.167 HD
ATOM     54  C   UNL     1      -4.146   5.954  -0.782  1.00  0.00     0.037 A 
ATOM     55  C   UNL     1       2.275   7.702   1.283  1.00  0.00     0.037 A 
ATOM     56  C   UNL     1      -4.107   7.347  -1.136  1.00  0.00     0.049 A 
ATOM     57  C   UNL     1       0.966   8.378   1.503  1.00  0.00     0.074 A 
ATOM     58  C   UNL     1      -4.220   8.045  -2.322  1.00  0.00     0.029 A 
ATOM     59  N   UNL     1      -3.555   8.220  -0.229  1.00  0.00    -0.354 N 
ATOM     60  N   UNL     1       0.530   9.391   0.802  1.00  0.00    -0.248 NA
ATOM     61  C   UNL     1      -0.063   7.638   2.222  1.00  0.00     0.031 C 
ATOM     62  C   UNL     1      -3.329   9.148  -2.192  1.00  0.00     0.029 A 
ATOM     63  C   UNL     1      -2.753   9.089  -0.921  1.00  0.00     0.049 A 
ATOM     64  H   UNL     1      -3.709   8.220   0.744  1.00  0.00     0.167 HD
ATOM     65  C   UNL     1      -0.837   9.181   0.671  1.00  0.00     0.074 A 
ATOM     66  C   UNL     1      -1.157   8.142   1.643  1.00  0.00     0.031 C 
ATOM     67  C   UNL     1      -1.531   9.667  -0.400  1.00  0.00     0.037 A 
BRANCH  54  68
ATOM     68  C   UNL     1      -4.891   5.437   0.425  1.00  0.00     0.058 A 
ATOM     69  C   UNL     1      -6.023   6.134   0.887  1.00  0.00     0.135 A 
ATOM     70  C   UNL     1      -4.385   4.447   1.300  1.00  0.00     0.135 A 
ATOM     71  F   UNL     1      -6.576   7.107   0.145  1.00  0.00    -0.206 F 
ATOM     72  C   UNL     1      -6.571   5.909   2.150  1.00  0.00     0.059 A 
ATOM     73  C   UNL     1      -4.955   4.162   2.532  1.00  0.00     0.059 A 
ATOM     74  F   UNL     1      -3.251   3.779   1.057  1.00  0.00    -0.206 F 
ATOM     75  C   UNL     1      -6.018   4.930   2.970  1.00  0.00     0.060 A 
BRANCH  75  76
ATOM     76  S   UNL     1      -6.633   4.717   4.648  1.00  0.00     0.124 S 
ATOM     77  O   UNL     1      -6.126   5.922   5.293  1.00  0.00    -0.237 OA
ATOM     78  O   UNL     1      -8.076   4.660   4.437  1.00  0.00    -0.237 OA
ATOM     79  O   UNL     1      -6.018   3.464   5.073  1.00  0.00    -0.744 OA
ENDBRANCH  75  76
ENDBRANCH  54  68
BRANCH  55  80
ATOM     80  C   UNL     1       3.235   7.418   2.381  1.00  0.00     0.058 A 
ATOM     81  C   UNL     1       3.441   8.326   3.433  1.00  0.00     0.135 A 
ATOM     82  C   UNL     1       3.800   6.135   2.549  1.00  0.00     0.135 A 
ATOM     83  F   UNL     1       2.906   9.554   3.375  1.00  0.00    -0.206 F 
ATOM     84  C   UNL     1       4.154   7.979   4.588  1.00  0.00     0.059 A 
ATOM     85  C   UNL     1       4.526   5.772   3.681  1.00  0.00     0.059 A 
ATOM     86  F   UNL     1       3.590   5.162   1.649  1.00  0.00    -0.206 F 
ATOM     87  C   UNL     1       4.684   6.694   4.707  1.00  0.00     0.060 A 
BRANCH  87  88
ATOM     88  S   UNL     1       5.493   6.200   6.246  1.00  0.00     0.124 S 
ATOM     89  O   UNL     1       6.695   7.026   6.234  1.00  0.00    -0.237 OA
ATOM     90  O   UNL     1       4.489   6.546   7.246  1.00  0.00    -0.237 OA
ATOM     91  O   UNL     1       5.720   4.768   6.065  1.00  0.00    -0.744 OA
ENDBRANCH  87  88
ENDBRANCH  55  80
BRANCH  67  92
ATOM     92  C   UNL     1      -0.878  10.713  -1.263  1.00  0.00     0.058 A 
ATOM     93  C   UNL     1       0.236  10.473  -2.086  1.00  0.00     0.135 A 
ATOM     94  C   UNL     1      -1.538  11.943  -1.415  1.00  0.00     0.135 A 
ATOM     95  F   UNL     1       0.862   9.288  -2.069  1.00  0.00    -0.206 F 
ATOM     96  C   UNL     1       0.681  11.421  -3.009  1.00  0.00     0.059 A 
ATOM     97  C   UNL     1      -1.129  12.889  -2.349  1.00  0.00     0.059 A 
ATOM     98  F   UNL     1      -2.644  12.204  -0.698  1.00  0.00    -0.206 F 
ATOM     99  C   UNL     1      -0.016  12.623  -3.142  1.00  0.00     0.060 A 
BRANCH  99 100
ATOM    100  S   UNL     1       0.476  13.790  -4.431  1.00  0.00     0.124 S 
ATOM    101  O   UNL     1       1.699  14.360  -3.877  1.00  0.00    -0.237 OA
ATOM    102  O   UNL     1       0.649  12.925  -5.595  1.00  0.00    -0.237 OA
ATOM    103  O   UNL     1      -0.659  14.706  -4.512  1.00  0.00    -0.744 OA
ENDBRANCH  99 100
ENDBRANCH  67  92
ENDBRANCH  41  42
ENDBRANCH  34  36
ENDBRANCH  33  34
ENDBRANCH  32  33
ENDBRANCH  31  32
ENDBRANCH   1  31
TORSDOF 22
