REMARK SMILES O=C(Cc1ccn(-c2ccccc2F)c1)OCCOCCOC(=O)c1ccc(-c2c3nc(c(-c4c(F)cc(S(=O)(=O)[O-])cc4F)c4ccc([nH]4)c(-c4c(F)cc(S(=O)(=O)[O-])cc4F)c4nc(c(-c5c(F)cc(S(=O)(=O)[O-])cc5F)c5ccc2[nH]5)C=C4)C=C3)cc1
REMARK SMILES IDX 20 1 19 2 18 3 17 4 16 5 2 6 1 7 3 8 4 9 5 10 15 11 6 12
REMARK SMILES IDX 7 13 8 14 9 15 13 16 10 17 12 18 14 19 11 20 21 21 22 22
REMARK SMILES IDX 23 23 24 24 25 25 26 26 90 27 27 28 89 29 28 30 29 31 30 32
REMARK SMILES IDX 83 33 31 34 88 35 82 36 84 37 32 38 87 39 81 40 80 41 33 43
REMARK SMILES IDX 67 44 46 45 66 46 47 47 50 48 65 49 85 50 48 51 49 52 64 54
REMARK SMILES IDX 86 55 51 56 34 57 35 58 44 59 36 60 37 61 43 62 45 63 38 64
REMARK SMILES IDX 39 65 40 66 41 67 42 68 68 69 69 70 78 71 70 72 71 73 77 74
REMARK SMILES IDX 79 75 72 76 73 77 74 78 75 79 76 80 52 81 53 82 62 83 54 84
REMARK SMILES IDX 55 85 61 86 63 87 56 88 57 89 58 90 59 91 60 92
REMARK H PARENT 84 42 50 53
REMARK Flexibility Score: inf
ROOT
ATOM      1  C   UNL     1       3.102   2.073   1.085  1.00  0.00     0.202 C 
ENDROOT
BRANCH   1   2
ATOM      2  O   UNL     1       4.358   1.393   0.970  1.00  0.00    -0.374 OA
BRANCH   2   3
ATOM      3  C   UNL     1       4.757   0.883  -0.302  1.00  0.00     0.202 C 
BRANCH   3   4
ATOM      4  C   UNL     1       4.139  -0.424  -0.783  1.00  0.00     0.261 C 
BRANCH   4   5
ATOM      5  O   UNL     1       2.707  -0.474  -0.709  1.00  0.00    -0.463 OA
BRANCH   5   6
ATOM      6  C   UNL     1       1.982  -0.833   0.376  1.00  0.00     0.310 C 
ATOM      7  O   UNL     1       0.757  -0.928   0.268  1.00  0.00    -0.252 OA
BRANCH   6   8
ATOM      8  C   UNL     1       2.637  -1.004   1.736  1.00  0.00     0.159 C 
BRANCH   8   9
ATOM      9  C   UNL     1       3.701  -2.023   1.774  1.00  0.00    -0.019 A 
ATOM     10  C   UNL     1       5.066  -1.892   2.151  1.00  0.00     0.024 A 
ATOM     11  C   UNL     1       3.515  -3.325   1.388  1.00  0.00     0.095 A 
ATOM     12  C   UNL     1       5.644  -3.137   2.014  1.00  0.00     0.091 A 
ATOM     13  N   UNL     1       4.686  -4.012   1.548  1.00  0.00    -0.321 N 
BRANCH  13  14
ATOM     14  C   UNL     1       4.768  -5.405   1.412  1.00  0.00     0.081 A 
ATOM     15  C   UNL     1       5.407  -6.147   2.405  1.00  0.00     0.030 A 
ATOM     16  C   UNL     1       4.028  -6.039   0.410  1.00  0.00     0.147 A 
ATOM     17  C   UNL     1       5.225  -7.529   2.425  1.00  0.00     0.002 A 
ATOM     18  C   UNL     1       3.877  -7.415   0.414  1.00  0.00     0.041 A 
ATOM     19  F   UNL     1       3.454  -5.338  -0.581  1.00  0.00    -0.205 F 
ATOM     20  C   UNL     1       4.457  -8.160   1.440  1.00  0.00     0.003 A 
ENDBRANCH  13  14
ENDBRANCH   8   9
ENDBRANCH   6   8
ENDBRANCH   5   6
ENDBRANCH   4   5
ENDBRANCH   3   4
ENDBRANCH   2   3
ENDBRANCH   1   2
BRANCH   1  21
ATOM     21  C   UNL     1       2.998   3.489   0.585  1.00  0.00     0.261 C 
BRANCH  21  22
ATOM     22  O   UNL     1       3.253   3.508  -0.800  1.00  0.00    -0.460 OA
BRANCH  22  23
ATOM     23  C   UNL     1       4.534   3.833  -1.073  1.00  0.00     0.338 C 
ATOM     24  O   UNL     1       5.503   3.755  -0.342  1.00  0.00    -0.246 OA
BRANCH  23  25
ATOM     25  C   UNL     1       4.533   4.527  -2.350  1.00  0.00     0.060 A 
ATOM     26  C   UNL     1       5.793   4.956  -2.758  1.00  0.00     0.016 A 
ATOM     27  C   UNL     1       3.334   5.169  -2.700  1.00  0.00     0.016 A 
ATOM     28  C   UNL     1       5.867   6.199  -3.320  1.00  0.00     0.010 A 
ATOM     29  C   UNL     1       3.416   6.448  -3.167  1.00  0.00     0.010 A 
ATOM     30  C   UNL     1       4.684   6.944  -3.459  1.00  0.00    -0.014 A 
BRANCH  30  31
ATOM     31  C   UNL     1       4.789   8.167  -4.232  1.00  0.00     0.031 A 
ATOM     32  C   UNL     1       4.740   7.737  -5.717  1.00  0.00     0.074 A 
ATOM     33  C   UNL     1       5.054   9.291  -3.495  1.00  0.00     0.049 A 
ATOM     34  N   UNL     1       5.530   8.067  -6.684  1.00  0.00    -0.248 NA
ATOM     35  C   UNL     1       3.823   6.634  -6.157  1.00  0.00     0.031 C 
ATOM     36  C   UNL     1       4.968   9.407  -2.014  1.00  0.00     0.029 A 
ATOM     37  N   UNL     1       5.457  10.563  -3.821  1.00  0.00    -0.354 N 
ATOM     38  C   UNL     1       5.044   7.447  -7.856  1.00  0.00     0.074 A 
ATOM     39  C   UNL     1       4.143   6.427  -7.435  1.00  0.00     0.031 C 
ATOM     40  C   UNL     1       5.405  10.618  -1.590  1.00  0.00     0.029 A 
ATOM     41  C   UNL     1       5.813  11.412  -2.733  1.00  0.00     0.049 A 
ATOM     42  H   UNL     1       5.498  10.872  -4.755  1.00  0.00     0.167 HD
ATOM     43  C   UNL     1       5.270   7.962  -9.098  1.00  0.00     0.037 A 
ATOM     44  C   UNL     1       6.453  12.629  -2.780  1.00  0.00     0.037 A 
ATOM     45  C   UNL     1       6.033   9.159  -8.956  1.00  0.00     0.049 A 
ATOM     46  C   UNL     1       6.570  12.900  -4.221  1.00  0.00     0.074 A 
ATOM     47  C   UNL     1       7.340   9.353  -8.593  1.00  0.00     0.029 A 
ATOM     48  N   UNL     1       5.310  10.309  -8.722  1.00  0.00    -0.354 N 
ATOM     49  N   UNL     1       5.581  13.218  -5.003  1.00  0.00    -0.248 NA
ATOM     50  C   UNL     1       7.859  12.625  -4.871  1.00  0.00     0.031 C 
ATOM     51  C   UNL     1       7.249  10.423  -7.682  1.00  0.00     0.029 A 
ATOM     52  C   UNL     1       5.995  11.040  -7.785  1.00  0.00     0.049 A 
ATOM     53  H   UNL     1       4.459  10.560  -9.149  1.00  0.00     0.167 HD
ATOM     54  C   UNL     1       6.054  12.840  -6.235  1.00  0.00     0.074 A 
ATOM     55  C   UNL     1       7.500  12.817  -6.136  1.00  0.00     0.031 C 
ATOM     56  C   UNL     1       5.290  12.060  -7.044  1.00  0.00     0.037 A 
BRANCH  43  57
ATOM     57  C   UNL     1       4.664   7.698 -10.443  1.00  0.00     0.058 A 
ATOM     58  C   UNL     1       3.341   7.294 -10.660  1.00  0.00     0.135 A 
ATOM     59  C   UNL     1       5.357   8.209 -11.569  1.00  0.00     0.135 A 
ATOM     60  F   UNL     1       2.599   6.777  -9.672  1.00  0.00    -0.206 F 
ATOM     61  C   UNL     1       2.711   7.481 -11.894  1.00  0.00     0.059 A 
ATOM     62  C   UNL     1       4.737   8.449 -12.787  1.00  0.00     0.059 A 
ATOM     63  F   UNL     1       6.653   8.555 -11.482  1.00  0.00    -0.206 F 
ATOM     64  C   UNL     1       3.404   8.099 -12.936  1.00  0.00     0.060 A 
BRANCH  64  65
ATOM     65  S   UNL     1       2.537   8.500 -14.466  1.00  0.00     0.124 S 
ATOM     66  O   UNL     1       2.332   7.174 -15.040  1.00  0.00    -0.237 OA
ATOM     67  O   UNL     1       1.341   9.176 -13.977  1.00  0.00    -0.237 OA
ATOM     68  O   UNL     1       3.485   9.350 -15.181  1.00  0.00    -0.744 OA
ENDBRANCH  64  65
ENDBRANCH  43  57
BRANCH  44  69
ATOM     69  C   UNL     1       7.176  13.602  -1.857  1.00  0.00     0.058 A 
ATOM     70  C   UNL     1       8.081  14.554  -2.420  1.00  0.00     0.135 A 
ATOM     71  C   UNL     1       7.142  13.626  -0.457  1.00  0.00     0.135 A 
ATOM     72  F   UNL     1       8.094  14.834  -3.730  1.00  0.00    -0.206 F 
ATOM     73  C   UNL     1       9.039  15.252  -1.694  1.00  0.00     0.059 A 
ATOM     74  C   UNL     1       8.060  14.382   0.311  1.00  0.00     0.059 A 
ATOM     75  F   UNL     1       6.221  12.921   0.214  1.00  0.00    -0.206 F 
ATOM     76  C   UNL     1       9.062  15.119  -0.324  1.00  0.00     0.060 A 
BRANCH  76  77
ATOM     77  S   UNL     1      10.440  15.879   0.564  1.00  0.00     0.124 S 
ATOM     78  O   UNL     1      11.535  14.976   0.223  1.00  0.00    -0.237 OA
ATOM     79  O   UNL     1      10.516  17.209  -0.034  1.00  0.00    -0.237 OA
ATOM     80  O   UNL     1      10.007  15.844   1.956  1.00  0.00    -0.744 OA
ENDBRANCH  76  77
ENDBRANCH  44  69
BRANCH  56  81
ATOM     81  C   UNL     1       3.789  12.159  -6.826  1.00  0.00     0.058 A 
ATOM     82  C   UNL     1       2.969  11.119  -6.349  1.00  0.00     0.135 A 
ATOM     83  C   UNL     1       3.142  13.385  -7.042  1.00  0.00     0.135 A 
ATOM     84  F   UNL     1       3.479   9.911  -6.116  1.00  0.00    -0.206 F 
ATOM     85  C   UNL     1       1.600  11.273  -6.102  1.00  0.00     0.059 A 
ATOM     86  C   UNL     1       1.774  13.569  -6.809  1.00  0.00     0.059 A 
ATOM     87  F   UNL     1       3.841  14.432  -7.508  1.00  0.00    -0.206 F 
ATOM     88  C   UNL     1       1.006  12.506  -6.340  1.00  0.00     0.060 A 
BRANCH  88  89
ATOM     89  S   UNL     1      -0.778  12.682  -6.100  1.00  0.00     0.124 S 
ATOM     90  O   UNL     1      -1.309  11.581  -6.898  1.00  0.00    -0.237 OA
ATOM     91  O   UNL     1      -0.917  12.530  -4.654  1.00  0.00    -0.237 OA
ATOM     92  O   UNL     1      -1.064  14.018  -6.617  1.00  0.00    -0.744 OA
ENDBRANCH  88  89
ENDBRANCH  56  81
ENDBRANCH  30  31
ENDBRANCH  23  25
ENDBRANCH  22  23
ENDBRANCH  21  22
ENDBRANCH   1  21
TORSDOF 19
