REMARK SMILES CC(C)C[C@H](CNC(=O)c1cc(F)ccc1Br)C(=O)OCCOCCOC(=O)c1ccc(-c2c3nc(c(-c4c(F)cc(S(=O)(=O)[O-])cc4F)c4ccc([nH]4)c(-c4c(F)cc(S(=O)(=O)[O-])cc4F)c4nc(c(-c5c(F)cc(S(=O)(=O)[O-])cc5F)c5ccc2[nH]5)C=C4)C=C3)cc1
REMARK SMILES IDX 23 1 22 2 21 3 20 4 18 5 19 6 5 7 4 8 2 9 1 10 3 11 6 12
REMARK SMILES IDX 7 13 8 14 9 16 10 17 11 18 16 19 12 20 15 21 17 22 13 23
REMARK SMILES IDX 14 24 24 25 25 26 26 27 27 28 28 29 29 30 30 31 94 32 31 33
REMARK SMILES IDX 93 34 32 35 33 36 34 37 87 38 35 39 92 40 86 41 88 42 36 43
REMARK SMILES IDX 91 44 85 45 84 46 37 48 71 49 50 50 70 51 51 52 54 53 69 54
REMARK SMILES IDX 89 55 52 56 53 57 68 59 90 60 55 61 38 62 39 63 48 64 40 65
REMARK SMILES IDX 41 66 47 67 49 68 42 69 43 70 44 71 45 72 46 73 72 74 73 75
REMARK SMILES IDX 82 76 74 77 75 78 81 79 83 80 76 81 77 82 78 83 79 84 80 85
REMARK SMILES IDX 56 86 57 87 66 88 58 89 59 90 65 91 67 92 60 93 61 94 62 95
REMARK SMILES IDX 63 96 64 97
REMARK H PARENT 7 15 88 47 54 58
REMARK Flexibility Score: inf
ROOT
ATOM      1  O   UNL     1      -5.427   0.378  -0.175  1.00  0.00    -0.374 OA
ENDROOT
BRANCH   1   2
ATOM      2  C   UNL     1      -5.735  -0.588   0.830  1.00  0.00     0.202 C 
BRANCH   2   3
ATOM      3  C   UNL     1      -5.001  -1.927   0.730  1.00  0.00     0.261 C 
BRANCH   3   4
ATOM      4  O   UNL     1      -3.597  -1.823   1.042  1.00  0.00    -0.463 OA
BRANCH   4   5
ATOM      5  C   UNL     1      -2.761  -1.877  -0.027  1.00  0.00     0.310 C 
ATOM      6  O   UNL     1      -3.118  -1.896  -1.200  1.00  0.00    -0.252 OA
BRANCH   5   7
ATOM      7  C   UNL     1      -1.302  -1.923   0.365  1.00  0.00     0.118 C 
BRANCH   7   8
ATOM      8  C   UNL     1      -0.743  -3.291   0.795  1.00  0.00     0.020 C 
BRANCH   8   9
ATOM      9  C   UNL     1      -1.719  -4.445   1.101  1.00  0.00    -0.017 C 
ATOM     10  C   UNL     1      -2.444  -4.974  -0.141  1.00  0.00     0.007 C 
ATOM     11  C   UNL     1      -0.927  -5.600   1.729  1.00  0.00     0.007 C 
ENDBRANCH   8   9
ENDBRANCH   7   8
BRANCH   7  12
ATOM     12  C   UNL     1      -0.876  -0.754   1.266  1.00  0.00     0.131 C 
BRANCH  12  13
ATOM     13  N   UNL     1      -1.071  -0.951   2.692  1.00  0.00    -0.351 N 
ATOM     14  C   UNL     1      -0.178  -0.742   3.719  1.00  0.00     0.252 C 
ATOM     15  H   UNL     1      -1.961  -1.277   2.960  1.00  0.00     0.163 HD
ATOM     16  O   UNL     1      -0.512  -0.916   4.885  1.00  0.00    -0.269 OA
BRANCH  14  17
ATOM     17  C   UNL     1       1.189  -0.270   3.419  1.00  0.00     0.056 A 
ATOM     18  C   UNL     1       1.343   1.013   2.876  1.00  0.00     0.054 A 
ATOM     19  C   UNL     1       2.319  -1.048   3.706  1.00  0.00     0.030 A 
ATOM     20  C   UNL     1       2.618   1.483   2.585  1.00  0.00     0.124 A 
ATOM     21  C   UNL     1       3.598  -0.549   3.423  1.00  0.00     0.019 A 
ATOM     22  Br  UNL     1       2.208  -2.800   4.426  1.00  0.00    -0.050 Br
ATOM     23  F   UNL     1       2.763   2.692   2.027  1.00  0.00    -0.207 F 
ATOM     24  C   UNL     1       3.746   0.716   2.853  1.00  0.00     0.040 A 
ENDBRANCH  14  17
ENDBRANCH  12  13
ENDBRANCH   7  12
ENDBRANCH   5   7
ENDBRANCH   4   5
ENDBRANCH   3   4
ENDBRANCH   2   3
ENDBRANCH   1   2
BRANCH   1  25
ATOM     25  C   UNL     1      -4.227   1.128  -0.006  1.00  0.00     0.202 C 
BRANCH  25  26
ATOM     26  C   UNL     1      -4.290   2.300   0.979  1.00  0.00     0.261 C 
BRANCH  26  27
ATOM     27  O   UNL     1      -4.487   1.852   2.332  1.00  0.00    -0.460 OA
BRANCH  27  28
ATOM     28  C   UNL     1      -5.711   2.132   2.838  1.00  0.00     0.338 C 
ATOM     29  O   UNL     1      -6.592   2.791   2.299  1.00  0.00    -0.246 OA
BRANCH  28  30
ATOM     30  C   UNL     1      -5.948   1.384   4.087  1.00  0.00     0.060 A 
ATOM     31  C   UNL     1      -7.173   0.714   4.201  1.00  0.00     0.016 A 
ATOM     32  C   UNL     1      -5.051   1.406   5.158  1.00  0.00     0.016 A 
ATOM     33  C   UNL     1      -7.543   0.136   5.411  1.00  0.00     0.010 A 
ATOM     34  C   UNL     1      -5.428   0.829   6.377  1.00  0.00     0.010 A 
ATOM     35  C   UNL     1      -6.697   0.238   6.522  1.00  0.00    -0.014 A 
BRANCH  35  36
ATOM     36  C   UNL     1      -7.234  -0.104   7.862  1.00  0.00     0.031 A 
ATOM     37  C   UNL     1      -7.747   1.008   8.741  1.00  0.00     0.074 A 
ATOM     38  C   UNL     1      -7.338  -1.384   8.261  1.00  0.00     0.049 A 
ATOM     39  N   UNL     1      -8.289   0.944   9.930  1.00  0.00    -0.248 NA
ATOM     40  C   UNL     1      -7.637   2.374   8.204  1.00  0.00     0.031 C 
ATOM     41  C   UNL     1      -6.919  -2.547   7.481  1.00  0.00     0.029 A 
ATOM     42  N   UNL     1      -7.836  -1.918   9.422  1.00  0.00    -0.354 N 
ATOM     43  C   UNL     1      -8.581   2.256  10.284  1.00  0.00     0.074 A 
ATOM     44  C   UNL     1      -8.129   3.099   9.199  1.00  0.00     0.031 C 
ATOM     45  C   UNL     1      -7.175  -3.661   8.189  1.00  0.00     0.029 A 
ATOM     46  C   UNL     1      -7.753  -3.288   9.479  1.00  0.00     0.049 A 
ATOM     47  H   UNL     1      -8.217  -1.371  10.147  1.00  0.00     0.167 HD
ATOM     48  C   UNL     1      -9.182   2.718  11.407  1.00  0.00     0.037 A 
ATOM     49  C   UNL     1      -8.094  -4.141  10.465  1.00  0.00     0.037 A 
ATOM     50  C   UNL     1      -9.633   1.877  12.484  1.00  0.00     0.049 A 
ATOM     51  C   UNL     1      -8.705  -3.600  11.732  1.00  0.00     0.074 A 
ATOM     52  C   UNL     1     -10.264   2.246  13.659  1.00  0.00     0.029 A 
ATOM     53  N   UNL     1      -9.496   0.497  12.521  1.00  0.00    -0.354 N 
ATOM     54  N   UNL     1      -8.993  -2.358  12.045  1.00  0.00    -0.248 NA
ATOM     55  C   UNL     1      -9.043  -4.576  12.777  1.00  0.00     0.031 C 
ATOM     56  C   UNL     1     -10.470   1.094  14.426  1.00  0.00     0.029 A 
ATOM     57  C   UNL     1     -10.010   0.001  13.708  1.00  0.00     0.049 A 
ATOM     58  H   UNL     1      -9.091  -0.049  11.809  1.00  0.00     0.167 HD
ATOM     59  C   UNL     1      -9.570  -2.408  13.310  1.00  0.00     0.074 A 
ATOM     60  C   UNL     1      -9.598  -3.803  13.700  1.00  0.00     0.031 C 
ATOM     61  C   UNL     1     -10.036  -1.392  14.079  1.00  0.00     0.037 A 
BRANCH  48  62
ATOM     62  C   UNL     1      -9.363   4.205  11.535  1.00  0.00     0.058 A 
ATOM     63  C   UNL     1     -10.310   4.904  10.769  1.00  0.00     0.135 A 
ATOM     64  C   UNL     1      -8.592   4.939  12.450  1.00  0.00     0.135 A 
ATOM     65  F   UNL     1     -11.061   4.254   9.865  1.00  0.00    -0.206 F 
ATOM     66  C   UNL     1     -10.467   6.282  10.886  1.00  0.00     0.059 A 
ATOM     67  C   UNL     1      -8.749   6.314  12.602  1.00  0.00     0.059 A 
ATOM     68  F   UNL     1      -7.670   4.321  13.206  1.00  0.00    -0.206 F 
ATOM     69  C   UNL     1      -9.679   6.978  11.804  1.00  0.00     0.060 A 
BRANCH  69  70
ATOM     70  S   UNL     1      -9.890   8.766  11.944  1.00  0.00     0.124 S 
ATOM     71  O   UNL     1      -9.242   9.232  10.723  1.00  0.00    -0.237 OA
ATOM     72  O   UNL     1     -11.342   8.908  11.984  1.00  0.00    -0.237 OA
ATOM     73  O   UNL     1      -9.198   9.094  13.186  1.00  0.00    -0.744 OA
ENDBRANCH  69  70
ENDBRANCH  48  62
BRANCH  49  74
ATOM     74  C   UNL     1      -7.862  -5.601  10.297  1.00  0.00     0.058 A 
ATOM     75  C   UNL     1      -8.932  -6.494  10.144  1.00  0.00     0.135 A 
ATOM     76  C   UNL     1      -6.562  -6.130  10.285  1.00  0.00     0.135 A 
ATOM     77  F   UNL     1     -10.194  -6.038  10.161  1.00  0.00    -0.206 F 
ATOM     78  C   UNL     1      -8.724  -7.862   9.997  1.00  0.00     0.059 A 
ATOM     79  C   UNL     1      -6.327  -7.490  10.115  1.00  0.00     0.059 A 
ATOM     80  F   UNL     1      -5.504  -5.316  10.420  1.00  0.00    -0.206 F 
ATOM     81  C   UNL     1      -7.416  -8.350   9.981  1.00  0.00     0.060 A 
BRANCH  81  82
ATOM     82  S   UNL     1      -7.154 -10.120   9.737  1.00  0.00     0.124 S 
ATOM     83  O   UNL     1      -7.536 -10.657  11.037  1.00  0.00    -0.237 OA
ATOM     84  O   UNL     1      -8.060 -10.416   8.632  1.00  0.00    -0.237 OA
ATOM     85  O   UNL     1      -5.733 -10.206   9.411  1.00  0.00    -0.744 OA
ENDBRANCH  81  82
ENDBRANCH  49  74
BRANCH  61  86
ATOM     86  C   UNL     1     -10.651  -1.751  15.403  1.00  0.00     0.058 A 
ATOM     87  C   UNL     1      -9.868  -2.161  16.494  1.00  0.00     0.135 A 
ATOM     88  C   UNL     1     -12.037  -1.640  15.597  1.00  0.00     0.135 A 
ATOM     89  F   UNL     1      -8.538  -2.287  16.361  1.00  0.00    -0.206 F 
ATOM     90  C   UNL     1     -10.441  -2.474  17.722  1.00  0.00     0.059 A 
ATOM     91  C   UNL     1     -12.629  -1.923  16.823  1.00  0.00     0.059 A 
ATOM     92  F   UNL     1     -12.831  -1.240  14.590  1.00  0.00    -0.206 F 
ATOM     93  C   UNL     1     -11.824  -2.353  17.877  1.00  0.00     0.060 A 
BRANCH  93  94
ATOM     94  S   UNL     1     -12.555  -2.740  19.482  1.00  0.00     0.124 S 
ATOM     95  O   UNL     1     -12.517  -4.198  19.479  1.00  0.00    -0.237 OA
ATOM     96  O   UNL     1     -11.640  -2.084  20.411  1.00  0.00    -0.237 OA
ATOM     97  O   UNL     1     -13.886  -2.145  19.401  1.00  0.00    -0.744 OA
ENDBRANCH  93  94
ENDBRANCH  61  86
ENDBRANCH  35  36
ENDBRANCH  28  30
ENDBRANCH  27  28
ENDBRANCH  26  27
ENDBRANCH  25  26
ENDBRANCH   1  25
TORSDOF 22
