REMARK SMILES O=C(OCCOCCOC(=O)c1ccc(-c2c3nc(c(-c4c(F)cc(S(=O)(=O)[O-])cc4F)c4ccc([nH]4)c(-c4c(F)cc(S(=O)(=O)[O-])cc4F)c4nc(c(-c5c(F)cc(S(=O)(=O)[O-])cc5F)c5ccc2[nH]5)C=C4)C=C3)cc1)C1=Cc2cc(Cl)cc(-c3ccc(Cl)cc3)c2O[C@@H]1C(F)(F)F
REMARK SMILES IDX 7 1 6 2 5 3 4 4 3 5 2 6 1 7 78 8 79 9 95 10 80 11 94 12
REMARK SMILES IDX 81 13 93 14 82 15 85 16 83 17 84 18 96 19 97 20 98 21 99 22
REMARK SMILES IDX 86 23 87 24 92 25 88 26 91 27 89 28 90 29 8 30 9 31 10 32
REMARK SMILES IDX 11 33 12 34 13 35 77 36 14 37 76 38 15 39 16 40 17 41 70 42
REMARK SMILES IDX 18 43 75 44 69 45 71 46 19 47 74 48 68 49 67 50 20 52 54 53
REMARK SMILES IDX 33 54 53 55 34 56 37 57 52 58 72 59 35 60 36 61 51 63 73 64
REMARK SMILES IDX 38 65 21 66 22 67 31 68 23 69 24 70 30 71 32 72 25 73 26 74
REMARK SMILES IDX 27 75 28 76 29 77 55 78 56 79 65 80 57 81 58 82 64 83 66 84
REMARK SMILES IDX 59 85 60 86 61 87 62 88 63 89 39 90 40 91 49 92 41 93 42 94
REMARK SMILES IDX 48 95 50 96 43 97 44 98 45 99 46 100 47 101
REMARK H PARENT 71 51 37 62
REMARK Flexibility Score: inf
ROOT
ATOM      1  C   UNL     1       2.694  -1.888   2.561  1.00  0.00     0.202 C 
ENDROOT
BRANCH   1   2
ATOM      2  O   UNL     1       3.985  -1.682   1.924  1.00  0.00    -0.374 OA
BRANCH   2   3
ATOM      3  C   UNL     1       4.434  -1.044   0.473  1.00  0.00     0.202 C 
BRANCH   3   4
ATOM      4  C   UNL     1       3.575   0.633  -0.616  1.00  0.00     0.261 C 
BRANCH   4   5
ATOM      5  O   UNL     1       2.620   0.509  -1.863  1.00  0.00    -0.460 OA
BRANCH   5   6
ATOM      6  C   UNL     1       2.774  -0.631  -2.546  1.00  0.00     0.338 C 
ATOM      7  O   UNL     1       2.164  -1.085  -3.480  1.00  0.00    -0.246 OA
BRANCH   6   8
ATOM      8  C   UNL     1       3.647  -1.230  -1.573  1.00  0.00     0.087 C 
ATOM      9  C   UNL     1       5.016  -0.723  -1.712  1.00  0.00     0.027 C 
ATOM     10  C   UNL     1       2.518  -0.966  -0.022  1.00  0.00     0.316 C 
ATOM     11  C   UNL     1       5.779   0.410  -0.534  1.00  0.00     0.019 A 
ATOM     12  O   UNL     1       3.331   0.268   1.256  1.00  0.00    -0.475 OA
ATOM     13  C   UNL     1       6.955   0.975  -0.954  1.00  0.00     0.032 A 
ATOM     14  C   UNL     1       4.983   0.993   0.910  1.00  0.00     0.135 A 
ATOM     15  C   UNL     1       7.393   2.059  -0.196  1.00  0.00     0.042 A 
ATOM     16  C   UNL     1       5.586   2.047   1.669  1.00  0.00     0.026 A 
ATOM     17  Cl  UNL     1       8.853   2.837  -0.713  1.00  0.00    -0.084 Cl
ATOM     18  C   UNL     1       6.736   2.577   0.985  1.00  0.00     0.033 A 
BRANCH  10  19
ATOM     19  C   UNL     1       2.032  -2.504   0.049  1.00  0.00     0.430 C 
ATOM     20  F   UNL     1       1.007  -2.742   0.892  1.00  0.00    -0.167 F 
ATOM     21  F   UNL     1       1.537  -2.851  -1.178  1.00  0.00    -0.167 F 
ATOM     22  F   UNL     1       3.010  -3.411   0.279  1.00  0.00    -0.167 F 
ENDBRANCH  10  19
BRANCH  16  23
ATOM     23  C   UNL     1       5.231   2.712   3.095  1.00  0.00    -0.015 A 
ATOM     24  C   UNL     1       3.681   3.602   2.793  1.00  0.00     0.010 A 
ATOM     25  C   UNL     1       5.713   2.405   5.046  1.00  0.00     0.010 A 
ATOM     26  C   UNL     1       2.689   4.092   4.165  1.00  0.00     0.021 A 
ATOM     27  C   UNL     1       4.586   2.956   6.337  1.00  0.00     0.021 A 
ATOM     28  C   UNL     1       3.127   3.771   5.850  1.00  0.00     0.041 A 
ATOM     29  Cl  UNL     1       2.063   4.321   7.088  1.00  0.00    -0.084 Cl
ENDBRANCH  16  23
ENDBRANCH   6   8
ENDBRANCH   5   6
ENDBRANCH   4   5
ENDBRANCH   3   4
ENDBRANCH   2   3
ENDBRANCH   1   2
BRANCH   1  30
ATOM     30  C   UNL     1       2.607  -1.676   4.074  1.00  0.00     0.261 C 
BRANCH  30  31
ATOM     31  O   UNL     1       3.218  -0.455   4.394  1.00  0.00    -0.460 OA
BRANCH  31  32
ATOM     32  C   UNL     1       4.554  -0.562   4.302  1.00  0.00     0.338 C 
ATOM     33  O   UNL     1       5.266  -1.546   4.358  1.00  0.00    -0.246 OA
BRANCH  32  34
ATOM     34  C   UNL     1       5.006   0.773   4.029  1.00  0.00     0.060 A 
ATOM     35  C   UNL     1       6.736   1.025   3.696  1.00  0.00     0.016 A 
ATOM     36  C   UNL     1       3.967   2.214   4.413  1.00  0.00     0.016 A 
ATOM     37  C   UNL     1       7.508   2.629   3.784  1.00  0.00     0.010 A 
ATOM     38  C   UNL     1       4.905   4.002   4.484  1.00  0.00     0.010 A 
ATOM     39  C   UNL     1       6.658   4.105   4.188  1.00  0.00    -0.014 A 
BRANCH  39  40
ATOM     40  C   UNL     1       7.293   5.356   4.721  1.00  0.00     0.031 A 
ATOM     41  C   UNL     1       7.600   5.514   6.205  1.00  0.00     0.074 A 
ATOM     42  C   UNL     1       7.248   6.468   3.966  1.00  0.00     0.049 A 
ATOM     43  N   UNL     1       7.903   6.588   6.899  1.00  0.00    -0.248 NA
ATOM     44  C   UNL     1       7.460   4.319   7.040  1.00  0.00     0.031 C 
ATOM     45  C   UNL     1       6.785   6.523   2.583  1.00  0.00     0.029 A 
ATOM     46  N   UNL     1       7.540   7.773   4.277  1.00  0.00    -0.354 N 
ATOM     47  C   UNL     1       7.933   6.191   8.240  1.00  0.00     0.074 A 
ATOM     48  C   UNL     1       7.506   4.814   8.266  1.00  0.00     0.031 C 
ATOM     49  C   UNL     1       6.822   7.798   2.161  1.00  0.00     0.029 A 
ATOM     50  C   UNL     1       7.316   8.649   3.243  1.00  0.00     0.049 A 
ATOM     51  H   UNL     1       7.878   8.054   5.158  1.00  0.00     0.167 HD
ATOM     52  C   UNL     1       8.333   6.873   9.345  1.00  0.00     0.037 A 
ATOM     53  C   UNL     1       7.512   9.980   3.168  1.00  0.00     0.037 A 
ATOM     54  C   UNL     1       8.803   8.234   9.303  1.00  0.00     0.049 A 
ATOM     55  C   UNL     1       8.077  10.716   4.356  1.00  0.00     0.074 A 
ATOM     56  C   UNL     1       9.396   8.982  10.305  1.00  0.00     0.029 A 
ATOM     57  N   UNL     1       8.722   9.054   8.188  1.00  0.00    -0.354 N 
ATOM     58  N   UNL     1       8.303  10.279   5.572  1.00  0.00    -0.248 NA
ATOM     59  C   UNL     1       8.454  12.121   4.144  1.00  0.00     0.031 C 
ATOM     60  C   UNL     1       9.625  10.271   9.810  1.00  0.00     0.029 A 
ATOM     61  C   UNL     1       9.241  10.303   8.479  1.00  0.00     0.049 A 
ATOM     62  H   UNL     1       8.349   8.786   7.317  1.00  0.00     0.167 HD
ATOM     63  C   UNL     1       8.904  11.336   6.252  1.00  0.00     0.074 A 
ATOM     64  C   UNL     1       9.001  12.432   5.311  1.00  0.00     0.031 C 
ATOM     65  C   UNL     1       9.350  11.386   7.533  1.00  0.00     0.037 A 
BRANCH  52  66
ATOM     66  C   UNL     1       8.343   6.149  10.679  1.00  0.00     0.058 A 
ATOM     67  C   UNL     1       9.141   5.010  10.896  1.00  0.00     0.135 A 
ATOM     68  C   UNL     1       7.586   6.612  11.771  1.00  0.00     0.135 A 
ATOM     69  F   UNL     1       9.903   4.519   9.905  1.00  0.00    -0.206 F 
ATOM     70  C   UNL     1       9.135   4.322  12.106  1.00  0.00     0.059 A 
ATOM     71  C   UNL     1       7.601   5.965  13.009  1.00  0.00     0.059 A 
ATOM     72  F   UNL     1       6.820   7.707  11.649  1.00  0.00    -0.206 F 
ATOM     73  C   UNL     1       8.359   4.806  13.158  1.00  0.00     0.060 A 
BRANCH  73  74
ATOM     74  S   UNL     1       8.363   3.891  14.715  1.00  0.00     0.124 S 
ATOM     75  O   UNL     1       7.613   2.692  14.350  1.00  0.00    -0.237 OA
ATOM     76  O   UNL     1       9.789   3.694  14.957  1.00  0.00    -0.237 OA
ATOM     77  O   UNL     1       7.690   4.793  15.644  1.00  0.00    -0.744 OA
ENDBRANCH  73  74
ENDBRANCH  52  66
BRANCH  53  78
ATOM     78  C   UNL     1       7.326  10.668   1.864  1.00  0.00     0.058 A 
ATOM     79  C   UNL     1       8.449  11.036   1.106  1.00  0.00     0.135 A 
ATOM     80  C   UNL     1       6.059  10.927   1.323  1.00  0.00     0.135 A 
ATOM     81  F   UNL     1       9.682  10.806   1.583  1.00  0.00    -0.206 F 
ATOM     82  C   UNL     1       8.326  11.654  -0.131  1.00  0.00     0.059 A 
ATOM     83  C   UNL     1       5.909  11.523   0.073  1.00  0.00     0.059 A 
ATOM     84  F   UNL     1       4.954  10.567   1.995  1.00  0.00    -0.206 F 
ATOM     85  C   UNL     1       7.050  11.887  -0.643  1.00  0.00     0.060 A 
BRANCH  85  86
ATOM     86  S   UNL     1       6.913  12.628  -2.284  1.00  0.00     0.124 S 
ATOM     87  O   UNL     1       7.408  13.978  -2.041  1.00  0.00    -0.237 OA
ATOM     88  O   UNL     1       7.779  11.763  -3.079  1.00  0.00    -0.237 OA
ATOM     89  O   UNL     1       5.488  12.522  -2.583  1.00  0.00    -0.744 OA
ENDBRANCH  85  86
ENDBRANCH  53  78
BRANCH  65  90
ATOM     90  C   UNL     1      10.057  12.637   7.983  1.00  0.00     0.058 A 
ATOM     91  C   UNL     1       9.389  13.860   8.153  1.00  0.00     0.135 A 
ATOM     92  C   UNL     1      11.428  12.594   8.294  1.00  0.00     0.135 A 
ATOM     93  F   UNL     1       8.081  13.961   7.871  1.00  0.00    -0.206 F 
ATOM     94  C   UNL     1      10.062  15.002   8.576  1.00  0.00     0.059 A 
ATOM     95  C   UNL     1      12.111  13.714   8.754  1.00  0.00     0.059 A 
ATOM     96  F   UNL     1      12.116  11.448   8.164  1.00  0.00    -0.206 F 
ATOM     97  C   UNL     1      11.423  14.919   8.876  1.00  0.00     0.060 A 
BRANCH  97  98
ATOM     98  S   UNL     1      12.278  16.404   9.441  1.00  0.00     0.124 S 
ATOM     99  O   UNL     1      12.331  17.197   8.217  1.00  0.00    -0.237 OA
ATOM    100  O   UNL     1      11.383  16.902  10.481  1.00  0.00    -0.237 OA
ATOM    101  O   UNL     1      13.563  15.899   9.916  1.00  0.00    -0.744 OA
ENDBRANCH  97  98
ENDBRANCH  65  90
ENDBRANCH  39  40
ENDBRANCH  32  34
ENDBRANCH  31  32
ENDBRANCH  30  31
ENDBRANCH   1  30
TORSDOF 19
