REMARK SMILES CC/C=C/C/C=C/C/C=C/C/C=C/CCSCCCC(=O)OCCOCCOC(=O)c1ccc(-c2c3nc(c(-c4c(F)cc(S(=O)(=O)[O-])cc4F)c4ccc([nH]4)c(-c4c(F)cc(S(=O)(=O)[O-])cc4F)c4nc(c(-c5c(F)cc(S(=O)(=O)[O-])cc5F)c5ccc2[nH]5)C=C4)C=C3)cc1
REMARK SMILES IDX 19 1 18 2 17 3 16 4 15 5 14 6 13 7 12 8 11 9 10 10 9 11 8 12
REMARK SMILES IDX 7 13 6 14 5 15 4 16 3 17 2 18 1 19 20 20 21 21 22 22 23 23
REMARK SMILES IDX 24 24 25 25 26 26 27 27 28 28 29 29 30 30 31 31 32 32 96 33
REMARK SMILES IDX 33 34 95 35 34 36 35 37 36 38 89 39 37 40 94 41 88 42 90 43
REMARK SMILES IDX 38 44 93 45 87 46 86 47 39 49 73 50 52 51 72 52 53 53 56 54
REMARK SMILES IDX 71 55 91 56 54 57 55 58 70 60 92 61 57 62 40 63 41 64 50 65
REMARK SMILES IDX 42 66 43 67 49 68 51 69 44 70 45 71 46 72 47 73 48 74 74 75
REMARK SMILES IDX 75 76 84 77 76 78 77 79 83 80 85 81 78 82 79 83 80 84 81 85
REMARK SMILES IDX 82 86 58 87 59 88 68 89 60 90 61 91 67 92 69 93 62 94 63 95
REMARK SMILES IDX 64 96 65 97 66 98
REMARK H PARENT 90 48 56 59
REMARK Flexibility Score: inf
ROOT
ATOM      1  C   UNL     1      -4.133  -1.089  12.093  1.00  0.00     0.123 C 
ENDROOT
BRANCH   1   2
ATOM      2  C   UNL     1      -5.321  -0.709  12.964  1.00  0.00     0.023 C 
BRANCH   2   3
ATOM      3  C   UNL     1      -6.719  -1.205  12.565  1.00  0.00     0.070 C 
BRANCH   3   4
ATOM      4  S   UNL     1      -7.188  -2.955  12.796  1.00  0.00    -0.162 SA
BRANCH   4   5
ATOM      5  C   UNL     1      -6.072  -3.949  11.736  1.00  0.00     0.073 C 
BRANCH   5   6
ATOM      6  C   UNL     1      -6.572  -4.420  10.356  1.00  0.00     0.038 C 
BRANCH   6   7
ATOM      7  C   UNL     1      -6.151  -3.603   9.157  1.00  0.00    -0.030 C 
ATOM      8  C   UNL     1      -5.063  -3.830   8.387  1.00  0.00    -0.027 C 
BRANCH   8   9
ATOM      9  C   UNL     1      -4.619  -3.050   7.153  1.00  0.00     0.054 C 
BRANCH   9  10
ATOM     10  C   UNL     1      -3.196  -2.541   7.257  1.00  0.00    -0.027 C 
ATOM     11  C   UNL     1      -2.739  -1.346   6.829  1.00  0.00    -0.027 C 
BRANCH  11  12
ATOM     12  C   UNL     1      -1.327  -0.843   7.017  1.00  0.00     0.054 C 
BRANCH  12  13
ATOM     13  C   UNL     1      -0.381  -1.660   6.189  1.00  0.00    -0.027 C 
ATOM     14  C   UNL     1       0.278  -1.212   5.110  1.00  0.00    -0.027 C 
BRANCH  14  15
ATOM     15  C   UNL     1       0.980  -2.134   4.156  1.00  0.00     0.054 C 
BRANCH  15  16
ATOM     16  C   UNL     1       0.417  -1.948   2.775  1.00  0.00    -0.027 C 
ATOM     17  C   UNL     1       1.157  -1.695   1.686  1.00  0.00    -0.031 C 
BRANCH  17  18
ATOM     18  C   UNL     1       0.575  -1.426   0.330  1.00  0.00     0.023 C 
ATOM     19  C   UNL     1       1.003  -0.055  -0.170  1.00  0.00     0.008 C 
ENDBRANCH  17  18
ENDBRANCH  15  16
ENDBRANCH  14  15
ENDBRANCH  12  13
ENDBRANCH  11  12
ENDBRANCH   9  10
ENDBRANCH   8   9
ENDBRANCH   6   7
ENDBRANCH   5   6
ENDBRANCH   4   5
ENDBRANCH   3   4
ENDBRANCH   2   3
ENDBRANCH   1   2
BRANCH   1  20
ATOM     20  C   UNL     1      -4.351  -0.973  10.612  1.00  0.00     0.305 C 
ATOM     21  O   UNL     1      -3.643  -1.574   9.816  1.00  0.00    -0.252 OA
BRANCH  20  22
ATOM     22  O   UNL     1      -5.321  -0.088  10.296  1.00  0.00    -0.463 OA
BRANCH  22  23
ATOM     23  C   UNL     1      -5.892  -0.120   8.985  1.00  0.00     0.261 C 
BRANCH  23  24
ATOM     24  C   UNL     1      -5.385   0.830   7.894  1.00  0.00     0.202 C 
BRANCH  24  25
ATOM     25  O   UNL     1      -4.245   1.649   8.058  1.00  0.00    -0.374 OA
BRANCH  25  26
ATOM     26  C   UNL     1      -3.892   2.095   9.351  1.00  0.00     0.202 C 
BRANCH  26  27
ATOM     27  C   UNL     1      -4.889   2.948  10.158  1.00  0.00     0.261 C 
BRANCH  27  28
ATOM     28  O   UNL     1      -6.259   2.502  10.182  1.00  0.00    -0.460 OA
BRANCH  28  29
ATOM     29  C   UNL     1      -7.081   3.099   9.287  1.00  0.00     0.338 C 
ATOM     30  O   UNL     1      -6.764   3.946   8.460  1.00  0.00    -0.246 OA
BRANCH  29  31
ATOM     31  C   UNL     1      -8.427   2.485   9.319  1.00  0.00     0.060 A 
ATOM     32  C   UNL     1      -8.969   1.996   8.120  1.00  0.00     0.016 A 
ATOM     33  C   UNL     1      -9.193   2.481  10.486  1.00  0.00     0.016 A 
ATOM     34  C   UNL     1     -10.291   1.551   8.071  1.00  0.00     0.010 A 
ATOM     35  C   UNL     1     -10.528   2.060  10.429  1.00  0.00     0.010 A 
ATOM     36  C   UNL     1     -11.096   1.636   9.213  1.00  0.00    -0.014 A 
BRANCH  36  37
ATOM     37  C   UNL     1     -12.572   1.513   9.083  1.00  0.00     0.031 A 
ATOM     38  C   UNL     1     -13.382   2.780   8.976  1.00  0.00     0.074 A 
ATOM     39  C   UNL     1     -13.181   0.315   9.038  1.00  0.00     0.049 A 
ATOM     40  N   UNL     1     -14.679   2.939   8.943  1.00  0.00    -0.248 NA
ATOM     41  C   UNL     1     -12.621   4.039   8.899  1.00  0.00     0.031 C 
ATOM     42  C   UNL     1     -12.504  -0.980   9.064  1.00  0.00     0.029 A 
ATOM     43  N   UNL     1     -14.515  -0.004   8.971  1.00  0.00    -0.354 N 
ATOM     44  C   UNL     1     -14.890   4.312   8.865  1.00  0.00     0.074 A 
ATOM     45  C   UNL     1     -13.589   4.942   8.873  1.00  0.00     0.031 C 
ATOM     46  C   UNL     1     -13.428  -1.956   9.031  1.00  0.00     0.029 A 
ATOM     47  C   UNL     1     -14.762  -1.356   9.021  1.00  0.00     0.049 A 
ATOM     48  H   UNL     1     -15.227   0.671   8.894  1.00  0.00     0.167 HD
ATOM     49  C   UNL     1     -16.063   4.986   8.792  1.00  0.00     0.037 A 
ATOM     50  C   UNL     1     -15.931  -2.028   9.082  1.00  0.00     0.037 A 
ATOM     51  C   UNL     1     -17.354   4.349   8.778  1.00  0.00     0.049 A 
ATOM     52  C   UNL     1     -17.226  -1.253   9.076  1.00  0.00     0.074 A 
ATOM     53  C   UNL     1     -18.603   4.938   8.689  1.00  0.00     0.029 A 
ATOM     54  N   UNL     1     -17.562   2.980   8.864  1.00  0.00    -0.354 N 
ATOM     55  N   UNL     1     -17.414   0.043   8.997  1.00  0.00    -0.248 NA
ATOM     56  C   UNL     1     -18.469  -2.033   9.169  1.00  0.00     0.031 C 
ATOM     57  C   UNL     1     -19.567   3.930   8.782  1.00  0.00     0.029 A 
ATOM     58  C   UNL     1     -18.920   2.707   8.861  1.00  0.00     0.049 A 
ATOM     59  H   UNL     1     -16.850   2.302   8.920  1.00  0.00     0.167 HD
ATOM     60  C   UNL     1     -18.793   0.232   8.996  1.00  0.00     0.074 A 
ATOM     61  C   UNL     1     -19.392  -1.085   9.075  1.00  0.00     0.031 C 
ATOM     62  C   UNL     1     -19.500   1.388   8.931  1.00  0.00     0.037 A 
BRANCH  49  63
ATOM     63  C   UNL     1     -16.007   6.490   8.764  1.00  0.00     0.058 A 
ATOM     64  C   UNL     1     -15.534   7.200   7.649  1.00  0.00     0.135 A 
ATOM     65  C   UNL     1     -16.469   7.235   9.863  1.00  0.00     0.135 A 
ATOM     66  F   UNL     1     -15.061   6.541   6.579  1.00  0.00    -0.206 F 
ATOM     67  C   UNL     1     -15.496   8.591   7.633  1.00  0.00     0.059 A 
ATOM     68  C   UNL     1     -16.470   8.626   9.857  1.00  0.00     0.059 A 
ATOM     69  F   UNL     1     -16.928   6.609  10.958  1.00  0.00    -0.206 F 
ATOM     70  C   UNL     1     -15.969   9.296   8.742  1.00  0.00     0.060 A 
BRANCH  70  71
ATOM     71  S   UNL     1     -15.925  11.100   8.701  1.00  0.00     0.124 S 
ATOM     72  O   UNL     1     -14.493  11.360   8.809  1.00  0.00    -0.237 OA
ATOM     73  O   UNL     1     -16.527  11.397   7.405  1.00  0.00    -0.237 OA
ATOM     74  O   UNL     1     -16.721  11.487   9.862  1.00  0.00    -0.744 OA
ENDBRANCH  70  71
ENDBRANCH  49  63
BRANCH  50  75
ATOM     75  C   UNL     1     -15.935  -3.515   9.168  1.00  0.00     0.058 A 
ATOM     76  C   UNL     1     -16.416  -4.301   8.110  1.00  0.00     0.135 A 
ATOM     77  C   UNL     1     -15.459  -4.181  10.309  1.00  0.00     0.135 A 
ATOM     78  F   UNL     1     -16.898  -3.713   7.004  1.00  0.00    -0.206 F 
ATOM     79  C   UNL     1     -16.434  -5.691   8.181  1.00  0.00     0.059 A 
ATOM     80  C   UNL     1     -15.440  -5.571  10.392  1.00  0.00     0.059 A 
ATOM     81  F   UNL     1     -14.985  -3.479  11.349  1.00  0.00    -0.206 F 
ATOM     82  C   UNL     1     -15.937  -6.317   9.325  1.00  0.00     0.060 A 
BRANCH  82  83
ATOM     83  S   UNL     1     -15.910  -8.122   9.380  1.00  0.00     0.124 S 
ATOM     84  O   UNL     1     -17.329  -8.435   9.506  1.00  0.00    -0.237 OA
ATOM     85  O   UNL     1     -15.294  -8.457   8.100  1.00  0.00    -0.237 OA
ATOM     86  O   UNL     1     -15.093  -8.411  10.555  1.00  0.00    -0.744 OA
ENDBRANCH  82  83
ENDBRANCH  50  75
BRANCH  62  87
ATOM     87  C   UNL     1     -21.003   1.288   8.895  1.00  0.00     0.058 A 
ATOM     88  C   UNL     1     -21.750   0.918  10.023  1.00  0.00     0.135 A 
ATOM     89  C   UNL     1     -21.706   1.629   7.727  1.00  0.00     0.135 A 
ATOM     90  F   UNL     1     -21.129   0.578  11.164  1.00  0.00    -0.206 F 
ATOM     91  C   UNL     1     -23.141   0.865   9.989  1.00  0.00     0.059 A 
ATOM     92  C   UNL     1     -23.097   1.614   7.679  1.00  0.00     0.059 A 
ATOM     93  F   UNL     1     -21.042   2.003   6.622  1.00  0.00    -0.206 F 
ATOM     94  C   UNL     1     -23.805   1.218   8.812  1.00  0.00     0.060 A 
BRANCH  94  95
ATOM     95  S   UNL     1     -25.610   1.178   8.792  1.00  0.00     0.124 S 
ATOM     96  O   UNL     1     -25.872  -0.258   8.791  1.00  0.00    -0.237 OA
ATOM     97  O   UNL     1     -25.951   1.884  10.023  1.00  0.00    -0.237 OA
ATOM     98  O   UNL     1     -25.953   1.879   7.559  1.00  0.00    -0.744 OA
ENDBRANCH  94  95
ENDBRANCH  62  87
ENDBRANCH  36  37
ENDBRANCH  29  31
ENDBRANCH  28  29
ENDBRANCH  27  28
ENDBRANCH  26  27
ENDBRANCH  25  26
ENDBRANCH  24  25
ENDBRANCH  23  24
ENDBRANCH  22  23
ENDBRANCH  20  22
ENDBRANCH   1  20
TORSDOF 30
