REMARK SMILES C[C@@H]1CCC[C@H]1NC(=O)c1csc(/C=C/C(=O)OCCOCCOC(=O)c2ccc(-c3c4nc(c(-c5c(F)cc(S(=O)(=O)[O-])cc5F)c5ccc([nH]5)c(-c5c(F)cc(S(=O)(=O)[O-])cc5F)c5nc(c(-c6c(F)cc(S(=O)(=O)[O-])cc6F)c6ccc3[nH]6)C=C5)C=C4)cc2)c1
REMARK SMILES IDX 21 1 20 2 19 3 18 4 16 5 17 6 15 7 14 8 13 9 10 10 11 11
REMARK SMILES IDX 93 12 12 13 8 14 7 15 9 17 6 18 1 19 2 20 3 21 4 22 5 23
REMARK SMILES IDX 22 24 23 25 24 26 25 27 26 28 27 29 28 30 92 31 29 32 91 33
REMARK SMILES IDX 30 34 31 35 32 36 85 37 33 38 90 39 84 40 86 41 34 42 89 43
REMARK SMILES IDX 83 44 82 45 35 47 69 48 48 49 68 50 49 51 52 52 67 53 87 54
REMARK SMILES IDX 50 55 51 56 66 58 88 59 53 60 36 61 37 62 46 63 38 64 39 65
REMARK SMILES IDX 45 66 47 67 40 68 41 69 42 70 43 71 44 72 70 73 71 74 80 75
REMARK SMILES IDX 72 76 73 77 79 78 81 79 74 80 75 81 76 82 77 83 78 84 54 85
REMARK SMILES IDX 55 86 64 87 56 88 57 89 63 90 65 91 58 92 59 93 60 94 61 95
REMARK SMILES IDX 62 96
REMARK H PARENT 7 16 86 46 52 57
REMARK Flexibility Score: inf
ROOT
ATOM      1  O   UNL     1       6.245   9.862   1.491  1.00  0.00    -0.374 OA
ENDROOT
BRANCH   1   2
ATOM      2  C   UNL     1       6.080  10.046   2.898  1.00  0.00     0.202 C 
BRANCH   2   3
ATOM      3  C   UNL     1       4.650  10.354   3.348  1.00  0.00     0.261 C 
BRANCH   3   4
ATOM      4  O   UNL     1       3.776   9.242   3.086  1.00  0.00    -0.460 OA
BRANCH   4   5
ATOM      5  C   UNL     1       2.833   9.460   2.141  1.00  0.00     0.330 C 
ATOM      6  O   UNL     1       2.602  10.515   1.569  1.00  0.00    -0.247 OA
BRANCH   5   7
ATOM      7  C   UNL     1       2.107   8.229   1.773  1.00  0.00     0.095 C 
ATOM      8  C   UNL     1       2.216   7.026   2.360  1.00  0.00     0.026 C 
BRANCH   8   9
ATOM      9  C   UNL     1       1.450   5.894   1.929  1.00  0.00     0.028 A 
ATOM     10  C   UNL     1       0.289   3.817   1.957  1.00  0.00     0.051 A 
ATOM     11  C   UNL     1      -0.021   4.310   0.706  1.00  0.00     0.079 A 
ATOM     12  C   UNL     1       1.132   4.757   2.656  1.00  0.00     0.033 A 
ATOM     13  S   UNL     1       0.787   5.762   0.342  1.00  0.00    -0.144 S 
BRANCH  10  14
ATOM     14  C   UNL     1      -0.253   2.598   2.551  1.00  0.00     0.252 C 
ATOM     15  N   UNL     1      -0.467   1.476   1.791  1.00  0.00    -0.349 N 
ATOM     16  H   UNL     1      -1.015   0.785   2.228  1.00  0.00     0.164 HD
ATOM     17  O   UNL     1      -0.531   2.542   3.748  1.00  0.00    -0.269 OA
BRANCH  15  18
ATOM     18  C   UNL     1      -0.019   1.131   0.445  1.00  0.00     0.085 C 
ATOM     19  C   UNL     1       1.806  -0.164  -0.749  1.00  0.00     0.010 C 
ATOM     20  C   UNL     1       0.886  -0.111   0.472  1.00  0.00     0.008 C 
ATOM     21  C   UNL     1      -0.109  -1.272   0.483  1.00  0.00     0.005 C 
ATOM     22  C   UNL     1      -1.277  -0.810  -0.381  1.00  0.00     0.002 C 
ATOM     23  C   UNL     1      -1.211   0.719  -0.426  1.00  0.00     0.025 C 
ENDBRANCH  15  18
ENDBRANCH  10  14
ENDBRANCH   8   9
ENDBRANCH   5   7
ENDBRANCH   4   5
ENDBRANCH   3   4
ENDBRANCH   2   3
ENDBRANCH   1   2
BRANCH   1  24
ATOM     24  C   UNL     1       5.972   8.553   0.986  1.00  0.00     0.202 C 
BRANCH  24  25
ATOM     25  C   UNL     1       7.110   7.537   1.143  1.00  0.00     0.261 C 
BRANCH  25  26
ATOM     26  O   UNL     1       7.309   7.171   2.522  1.00  0.00    -0.460 OA
BRANCH  26  27
ATOM     27  C   UNL     1       8.454   7.633   3.075  1.00  0.00     0.338 C 
ATOM     28  O   UNL     1       9.358   8.232   2.504  1.00  0.00    -0.246 OA
BRANCH  27  29
ATOM     29  C   UNL     1       8.413   7.476   4.542  1.00  0.00     0.060 A 
ATOM     30  C   UNL     1       8.766   8.587   5.318  1.00  0.00     0.016 A 
ATOM     31  C   UNL     1       8.099   6.258   5.153  1.00  0.00     0.016 A 
ATOM     32  C   UNL     1       8.861   8.471   6.703  1.00  0.00     0.010 A 
ATOM     33  C   UNL     1       8.200   6.143   6.545  1.00  0.00     0.010 A 
ATOM     34  C   UNL     1       8.617   7.238   7.322  1.00  0.00    -0.014 A 
BRANCH  34  35
ATOM     35  C   UNL     1       8.942   7.072   8.761  1.00  0.00     0.031 A 
ATOM     36  C   UNL     1      10.249   6.431   9.146  1.00  0.00     0.074 A 
ATOM     37  C   UNL     1       8.108   7.531   9.712  1.00  0.00     0.049 A 
ATOM     38  N   UNL     1      10.741   6.202  10.336  1.00  0.00    -0.248 NA
ATOM     39  C   UNL     1      11.116   5.991   8.041  1.00  0.00     0.031 C 
ATOM     40  C   UNL     1       6.830   8.196   9.465  1.00  0.00     0.029 A 
ATOM     41  N   UNL     1       8.216   7.507  11.080  1.00  0.00    -0.354 N 
ATOM     42  C   UNL     1      11.973   5.593  10.126  1.00  0.00     0.074 A 
ATOM     43  C   UNL     1      12.139   5.457   8.695  1.00  0.00     0.031 C 
ATOM     44  C   UNL     1       6.269   8.514  10.645  1.00  0.00     0.029 A 
ATOM     45  C   UNL     1       7.136   8.056  11.729  1.00  0.00     0.049 A 
ATOM     46  H   UNL     1       8.994   7.131  11.552  1.00  0.00     0.167 HD
ATOM     47  C   UNL     1      12.889   5.196  11.041  1.00  0.00     0.037 A 
ATOM     48  C   UNL     1       6.873   8.165  13.046  1.00  0.00     0.037 A 
ATOM     49  C   UNL     1      12.723   5.332  12.464  1.00  0.00     0.049 A 
ATOM     50  C   UNL     1       7.883   7.665  14.046  1.00  0.00     0.074 A 
ATOM     51  C   UNL     1      13.601   4.972  13.473  1.00  0.00     0.029 A 
ATOM     52  N   UNL     1      11.603   5.868  13.083  1.00  0.00    -0.354 N 
ATOM     53  N   UNL     1       9.055   7.114  13.832  1.00  0.00    -0.248 NA
ATOM     54  C   UNL     1       7.538   7.808  15.468  1.00  0.00     0.031 C 
ATOM     55  C   UNL     1      12.994   5.252  14.702  1.00  0.00     0.029 A 
ATOM     56  C   UNL     1      11.758   5.829  14.459  1.00  0.00     0.049 A 
ATOM     57  H   UNL     1      10.814   6.223  12.613  1.00  0.00     0.167 HD
ATOM     58  C   UNL     1       9.597   6.870  15.090  1.00  0.00     0.074 A 
ATOM     59  C   UNL     1       8.630   7.341  16.059  1.00  0.00     0.031 C 
ATOM     60  C   UNL     1      10.788   6.308  15.412  1.00  0.00     0.037 A 
BRANCH  47  61
ATOM     61  C   UNL     1      14.150   4.557  10.528  1.00  0.00     0.058 A 
ATOM     62  C   UNL     1      15.151   5.309   9.893  1.00  0.00     0.135 A 
ATOM     63  C   UNL     1      14.372   3.181  10.697  1.00  0.00     0.135 A 
ATOM     64  F   UNL     1      14.981   6.625   9.690  1.00  0.00    -0.206 F 
ATOM     65  C   UNL     1      16.318   4.716   9.422  1.00  0.00     0.059 A 
ATOM     66  C   UNL     1      15.542   2.570  10.255  1.00  0.00     0.059 A 
ATOM     67  F   UNL     1      13.446   2.415  11.295  1.00  0.00    -0.206 F 
ATOM     68  C   UNL     1      16.503   3.344   9.606  1.00  0.00     0.060 A 
BRANCH  68  69
ATOM     69  S   UNL     1      18.022   2.587   8.990  1.00  0.00     0.124 S 
ATOM     70  O   UNL     1      17.774   2.567   7.552  1.00  0.00    -0.237 OA
ATOM     71  O   UNL     1      19.046   3.523   9.444  1.00  0.00    -0.237 OA
ATOM     72  O   UNL     1      18.039   1.281   9.642  1.00  0.00    -0.744 OA
ENDBRANCH  68  69
ENDBRANCH  47  61
BRANCH  48  73
ATOM     73  C   UNL     1       5.595   8.774  13.500  1.00  0.00     0.058 A 
ATOM     74  C   UNL     1       5.570  10.028  14.127  1.00  0.00     0.135 A 
ATOM     75  C   UNL     1       4.372   8.109  13.319  1.00  0.00     0.135 A 
ATOM     76  F   UNL     1       6.715  10.697  14.332  1.00  0.00    -0.206 F 
ATOM     77  C   UNL     1       4.381  10.598  14.570  1.00  0.00     0.059 A 
ATOM     78  C   UNL     1       3.167   8.668  13.733  1.00  0.00     0.059 A 
ATOM     79  F   UNL     1       4.341   6.910  12.716  1.00  0.00    -0.206 F 
ATOM     80  C   UNL     1       3.183   9.909  14.367  1.00  0.00     0.060 A 
BRANCH  80  81
ATOM     81  S   UNL     1       1.639  10.677  14.903  1.00  0.00     0.124 S 
ATOM     82  O   UNL     1       1.706  10.492  16.348  1.00  0.00    -0.237 OA
ATOM     83  O   UNL     1       1.795  12.047  14.426  1.00  0.00    -0.237 OA
ATOM     84  O   UNL     1       0.619   9.894  14.212  1.00  0.00    -0.744 OA
ENDBRANCH  80  81
ENDBRANCH  48  73
BRANCH  60  85
ATOM     85  C   UNL     1      11.131   6.201  16.873  1.00  0.00     0.058 A 
ATOM     86  C   UNL     1      10.512   5.259  17.709  1.00  0.00     0.135 A 
ATOM     87  C   UNL     1      12.124   7.022  17.432  1.00  0.00     0.135 A 
ATOM     88  F   UNL     1       9.553   4.454  17.226  1.00  0.00    -0.206 F 
ATOM     89  C   UNL     1      10.848   5.152  19.055  1.00  0.00     0.059 A 
ATOM     90  C   UNL     1      12.494   6.915  18.769  1.00  0.00     0.059 A 
ATOM     91  F   UNL     1      12.755   7.932  16.673  1.00  0.00    -0.206 F 
ATOM     92  C   UNL     1      11.840   5.985  19.576  1.00  0.00     0.060 A 
BRANCH  92  93
ATOM     93  S   UNL     1      12.287   5.819  21.318  1.00  0.00     0.124 S 
ATOM     94  O   UNL     1      11.163   6.479  21.974  1.00  0.00    -0.237 OA
ATOM     95  O   UNL     1      12.358   4.371  21.488  1.00  0.00    -0.237 OA
ATOM     96  O   UNL     1      13.566   6.517  21.408  1.00  0.00    -0.744 OA
ENDBRANCH  92  93
ENDBRANCH  60  85
ENDBRANCH  34  35
ENDBRANCH  27  29
ENDBRANCH  26  27
ENDBRANCH  25  26
ENDBRANCH  24  25
ENDBRANCH   1  24
TORSDOF 20
