REMARK SMILES O=C(OCCOCCOC(=O)c1[nH]ncc1C[N@H+]1CCC[C@@H](C(=O)c2ccc(Oc3ccccc3)cc2)C1)c1ccc(-c2c3nc(c(-c4c(F)cc(S(=O)(=O)[O-])cc4F)c4ccc([nH]4)c(-c4c(F)cc(S(=O)(=O)[O-])cc4F)c4nc(c(-c5c(F)cc(S(=O)(=O)[O-])cc5F)c5ccc2[nH]5)C=C4)C=C3)cc1
REMARK SMILES IDX 7 1 6 2 5 3 4 4 3 5 2 6 1 7 39 8 40 9 104 10 41 11 103 12
REMARK SMILES IDX 42 13 43 14 44 15 97 16 45 17 102 18 96 19 98 20 46 21
REMARK SMILES IDX 101 22 95 23 94 24 47 26 81 27 60 28 80 29 61 30 64 31 79 32
REMARK SMILES IDX 99 33 62 34 63 35 78 37 100 38 65 39 48 40 49 41 58 42 50 43
REMARK SMILES IDX 51 44 57 45 59 46 52 47 53 48 54 49 55 50 56 51 82 52 83 53
REMARK SMILES IDX 92 54 84 55 85 56 91 57 93 58 86 59 87 60 88 61 89 62 90 63
REMARK SMILES IDX 66 64 67 65 76 66 68 67 69 68 75 69 77 70 70 71 71 72 72 73
REMARK SMILES IDX 73 74 74 75 8 76 9 77 10 78 11 79 12 80 13 81 16 82 14 83
REMARK SMILES IDX 15 85 17 86 18 87 19 88 38 89 20 91 22 92 21 93 23 94 24 95
REMARK SMILES IDX 25 96 26 97 37 98 27 99 36 100 28 101 29 102 30 103 31 104
REMARK SMILES IDX 35 105 32 106 34 107 33 108
REMARK H PARENT 98 25 64 36 13 84 18 90
REMARK Flexibility Score: inf
ROOT
ATOM      1  C   UNL     1       2.836  -2.082  -0.356  1.00  0.00     0.202 C 
ENDROOT
BRANCH   1   2
ATOM      2  O   UNL     1       4.112  -1.557   0.032  1.00  0.00    -0.374 OA
BRANCH   2   3
ATOM      3  C   UNL     1       4.183  -0.934   1.314  1.00  0.00     0.202 C 
BRANCH   3   4
ATOM      4  C   UNL     1       3.892   0.565   1.301  1.00  0.00     0.261 C 
BRANCH   4   5
ATOM      5  O   UNL     1       2.511   0.777   0.972  1.00  0.00    -0.460 OA
BRANCH   5   6
ATOM      6  C   UNL     1       1.973   1.221  -0.184  1.00  0.00     0.338 C 
ATOM      7  O   UNL     1       0.753   1.367  -0.237  1.00  0.00    -0.246 OA
BRANCH   6   8
ATOM      8  C   UNL     1       2.768   1.537  -1.410  1.00  0.00     0.060 A 
ATOM      9  C   UNL     1       3.980   0.940  -1.768  1.00  0.00     0.016 A 
ATOM     10  C   UNL     1       2.179   2.429  -2.322  1.00  0.00     0.016 A 
ATOM     11  C   UNL     1       4.612   1.238  -2.969  1.00  0.00     0.010 A 
ATOM     12  C   UNL     1       2.794   2.718  -3.541  1.00  0.00     0.010 A 
ATOM     13  C   UNL     1       4.020   2.127  -3.857  1.00  0.00    -0.014 A 
BRANCH  13  14
ATOM     14  C   UNL     1       4.755   2.499  -5.075  1.00  0.00     0.031 A 
ATOM     15  C   UNL     1       5.503   3.793  -5.080  1.00  0.00     0.074 A 
ATOM     16  C   UNL     1       4.791   1.648  -6.114  1.00  0.00     0.049 A 
ATOM     17  N   UNL     1       6.146   4.370  -6.055  1.00  0.00    -0.248 NA
ATOM     18  C   UNL     1       5.536   4.531  -3.806  1.00  0.00     0.031 C 
ATOM     19  C   UNL     1       4.167   0.324  -6.138  1.00  0.00     0.029 A 
ATOM     20  N   UNL     1       5.376   1.766  -7.345  1.00  0.00    -0.354 N 
ATOM     21  C   UNL     1       6.636   5.556  -5.524  1.00  0.00     0.074 A 
ATOM     22  C   UNL     1       6.223   5.612  -4.140  1.00  0.00     0.031 C 
ATOM     23  C   UNL     1       4.392  -0.244  -7.334  1.00  0.00     0.029 A 
ATOM     24  C   UNL     1       5.124   0.700  -8.173  1.00  0.00     0.049 A 
ATOM     25  H   UNL     1       5.924   2.540  -7.611  1.00  0.00     0.167 HD
ATOM     26  C   UNL     1       7.351   6.516  -6.154  1.00  0.00     0.037 A 
ATOM     27  C   UNL     1       5.415   0.535  -9.478  1.00  0.00     0.037 A 
ATOM     28  C   UNL     1       7.721   6.431  -7.540  1.00  0.00     0.049 A 
ATOM     29  C   UNL     1       6.153   1.641 -10.180  1.00  0.00     0.074 A 
ATOM     30  C   UNL     1       8.392   7.355  -8.316  1.00  0.00     0.029 A 
ATOM     31  N   UNL     1       7.432   5.346  -8.361  1.00  0.00    -0.354 N 
ATOM     32  N   UNL     1       6.580   2.783  -9.687  1.00  0.00    -0.248 NA
ATOM     33  C   UNL     1       6.441   1.455 -11.606  1.00  0.00     0.031 C 
ATOM     34  C   UNL     1       8.475   6.844  -9.617  1.00  0.00     0.029 A 
ATOM     35  C   UNL     1       7.894   5.583  -9.641  1.00  0.00     0.049 A 
ATOM     36  H   UNL     1       6.967   4.528  -8.071  1.00  0.00     0.167 HD
ATOM     37  C   UNL     1       7.190   3.451 -10.740  1.00  0.00     0.074 A 
ATOM     38  C   UNL     1       7.090   2.577 -11.895  1.00  0.00     0.031 C 
ATOM     39  C   UNL     1       7.775   4.674 -10.758  1.00  0.00     0.037 A 
BRANCH  26  40
ATOM     40  C   UNL     1       7.676   7.747  -5.358  1.00  0.00     0.058 A 
ATOM     41  C   UNL     1       8.626   7.736  -4.324  1.00  0.00     0.135 A 
ATOM     42  C   UNL     1       6.959   8.934  -5.575  1.00  0.00     0.135 A 
ATOM     43  F   UNL     1       9.318   6.617  -4.053  1.00  0.00    -0.206 F 
ATOM     44  C   UNL     1       8.816   8.842  -3.500  1.00  0.00     0.059 A 
ATOM     45  C   UNL     1       7.148  10.059  -4.778  1.00  0.00     0.059 A 
ATOM     46  F   UNL     1       6.032   8.995  -6.544  1.00  0.00    -0.206 F 
ATOM     47  C   UNL     1       8.059   9.993  -3.725  1.00  0.00     0.060 A 
BRANCH  47  48
ATOM     48  S   UNL     1       8.252  11.393  -2.602  1.00  0.00     0.124 S 
ATOM     49  O   UNL     1       7.513  10.928  -1.431  1.00  0.00    -0.237 OA
ATOM     50  O   UNL     1       9.700  11.474  -2.444  1.00  0.00    -0.237 OA
ATOM     51  O   UNL     1       7.641  12.500  -3.331  1.00  0.00    -0.744 OA
ENDBRANCH  47  48
ENDBRANCH  26  40
BRANCH  27  52
ATOM     52  C   UNL     1       4.956  -0.691 -10.184  1.00  0.00     0.058 A 
ATOM     53  C   UNL     1       5.857  -1.681 -10.598  1.00  0.00     0.135 A 
ATOM     54  C   UNL     1       3.587  -0.926 -10.397  1.00  0.00     0.135 A 
ATOM     55  F   UNL     1       7.175  -1.503 -10.425  1.00  0.00    -0.206 F 
ATOM     56  C   UNL     1       5.419  -2.865 -11.187  1.00  0.00     0.059 A 
ATOM     57  C   UNL     1       3.123  -2.110 -10.962  1.00  0.00     0.059 A 
ATOM     58  F   UNL     1       2.680  -0.015 -10.010  1.00  0.00    -0.206 F 
ATOM     59  C   UNL     1       4.048  -3.075 -11.356  1.00  0.00     0.060 A 
BRANCH  59  60
ATOM     60  S   UNL     1       3.483  -4.651 -12.036  1.00  0.00     0.124 S 
ATOM     61  O   UNL     1       3.807  -4.495 -13.449  1.00  0.00    -0.237 OA
ATOM     62  O   UNL     1       4.293  -5.614 -11.297  1.00  0.00    -0.237 OA
ATOM     63  O   UNL     1       2.059  -4.664 -11.712  1.00  0.00    -0.744 OA
ENDBRANCH  59  60
ENDBRANCH  27  52
BRANCH  39  64
ATOM     64  C   UNL     1       8.366   5.132 -12.058  1.00  0.00     0.058 A 
ATOM     65  C   UNL     1       7.559   5.640 -13.085  1.00  0.00     0.135 A 
ATOM     66  C   UNL     1       9.759   5.165 -12.227  1.00  0.00     0.135 A 
ATOM     67  F   UNL     1       6.222   5.621 -12.968  1.00  0.00    -0.206 F 
ATOM     68  C   UNL     1       8.116   6.174 -14.241  1.00  0.00     0.059 A 
ATOM     69  C   UNL     1      10.337   5.712 -13.366  1.00  0.00     0.059 A 
ATOM     70  F   UNL     1      10.568   4.696 -11.264  1.00  0.00    -0.206 F 
ATOM     71  C   UNL     1       9.506   6.214 -14.367  1.00  0.00     0.060 A 
BRANCH  71  72
ATOM     72  S   UNL     1      10.220   6.988 -15.833  1.00  0.00     0.124 S 
ATOM     73  O   UNL     1      10.010   5.955 -16.842  1.00  0.00    -0.237 OA
ATOM     74  O   UNL     1       9.408   8.192 -15.979  1.00  0.00    -0.237 OA
ATOM     75  O   UNL     1      11.610   7.220 -15.450  1.00  0.00    -0.744 OA
ENDBRANCH  71  72
ENDBRANCH  39  64
ENDBRANCH  13  14
ENDBRANCH   6   8
ENDBRANCH   5   6
ENDBRANCH   4   5
ENDBRANCH   3   4
ENDBRANCH   2   3
ENDBRANCH   1   2
BRANCH   1  76
ATOM     76  C   UNL     1       3.068  -3.346  -1.199  1.00  0.00     0.261 C 
BRANCH  76  77
ATOM     77  O   UNL     1       3.605  -4.368  -0.344  1.00  0.00    -0.459 OA
BRANCH  77  78
ATOM     78  C   UNL     1       4.909  -4.181  -0.009  1.00  0.00     0.356 C 
ATOM     79  O   UNL     1       5.796  -3.818  -0.770  1.00  0.00    -0.244 OA
BRANCH  78  80
ATOM     80  C   UNL     1       5.046  -4.291   1.415  1.00  0.00     0.152 A 
ATOM     81  N   UNL     1       6.038  -3.642   2.093  1.00  0.00    -0.271 N 
ATOM     82  C   UNL     1       4.307  -4.957   2.382  1.00  0.00     0.059 A 
ATOM     83  N   UNL     1       5.900  -3.690   3.430  1.00  0.00    -0.183 NA
ATOM     84  H   UNL     1       6.785  -3.182   1.645  1.00  0.00     0.190 HD
ATOM     85  C   UNL     1       4.848  -4.492   3.603  1.00  0.00     0.145 A 
BRANCH  82  86
ATOM     86  C   UNL     1       3.216  -5.961   2.192  1.00  0.00     0.303 C 
BRANCH  86  87
ATOM     87  N   UNL     1       3.752  -7.325   2.012  1.00  0.00    -0.330 N 
ATOM     88  C   UNL     1       4.630  -7.469   0.842  1.00  0.00     0.262 C 
ATOM     89  C   UNL     1       4.359  -7.838   3.245  1.00  0.00     0.274 C 
ATOM     90  H   UNL     1       2.947  -7.916   1.806  1.00  0.00     0.348 HD
ATOM     91  C   UNL     1       5.098  -8.911   0.640  1.00  0.00     0.062 C 
ATOM     92  C   UNL     1       4.808  -9.291   3.093  1.00  0.00     0.116 C 
ATOM     93  C   UNL     1       5.762  -9.446   1.907  1.00  0.00     0.023 C 
BRANCH  92  94
ATOM     94  C   UNL     1       5.275  -9.782   4.458  1.00  0.00     0.171 C 
ATOM     95  O   UNL     1       4.470  -9.960   5.375  1.00  0.00    -0.294 OA
BRANCH  94  96
ATOM     96  C   UNL     1       6.697 -10.074   4.742  1.00  0.00     0.018 A 
ATOM     97  C   UNL     1       6.984 -11.277   5.390  1.00  0.00     0.015 A 
ATOM     98  C   UNL     1       7.725  -9.176   4.447  1.00  0.00     0.015 A 
ATOM     99  C   UNL     1       8.303 -11.601   5.702  1.00  0.00     0.048 A 
ATOM    100  C   UNL     1       9.052  -9.517   4.738  1.00  0.00     0.048 A 
ATOM    101  C   UNL     1       9.345 -10.729   5.371  1.00  0.00     0.127 A 
BRANCH 101 102
ATOM    102  O   UNL     1      10.595 -11.181   5.731  1.00  0.00    -0.457 OA
BRANCH 102 103
ATOM    103  C   UNL     1      11.699 -10.461   5.356  1.00  0.00     0.127 A 
ATOM    104  C   UNL     1      12.535 -11.003   4.380  1.00  0.00     0.047 A 
ATOM    105  C   UNL     1      12.044  -9.278   6.011  1.00  0.00     0.047 A 
ATOM    106  C   UNL     1      13.705 -10.332   4.024  1.00  0.00     0.004 A 
ATOM    107  C   UNL     1      13.207  -8.602   5.642  1.00  0.00     0.004 A 
ATOM    108  C   UNL     1      14.036  -9.129   4.649  1.00  0.00     0.000 A 
ENDBRANCH 102 103
ENDBRANCH 101 102
ENDBRANCH  94  96
ENDBRANCH  92  94
ENDBRANCH  86  87
ENDBRANCH  82  86
ENDBRANCH  78  80
ENDBRANCH  77  78
ENDBRANCH  76  77
ENDBRANCH   1  76
TORSDOF 23
