REMARK SMILES COc1cc(S(=O)(=O)Nc2cccc(C(=O)OCCOCCOC(=O)c3ccc(-c4c5nc(c(-c6c(F)cc(S(=O)(=O)[O-])cc6F)c6ccc([nH]6)c(-c6c(F)cc(S(=O)(=O)[O-])cc6F)c6nc(c(-c7c(F)cc(S(=O)(=O)[O-])cc7F)c7ccc4[nH]7)C=C6)C=C5)cc3)c2)c(OC)cc1C
REMARK SMILES IDX 19 1 18 2 17 3 15 4 16 5 14 6 10 7 11 8 92 9 12 10 13 11
REMARK SMILES IDX 9 12 6 14 7 15 8 16 5 17 3 18 4 19 97 20 96 21 98 22 93 23
REMARK SMILES IDX 2 24 1 25 94 26 95 27 20 28 21 29 22 30 23 31 24 32 25 33
REMARK SMILES IDX 26 34 27 35 91 36 28 37 90 38 29 39 30 40 31 41 84 42 32 43
REMARK SMILES IDX 89 44 83 45 85 46 33 47 88 48 82 49 81 50 34 52 68 53 47 54
REMARK SMILES IDX 67 55 48 56 51 57 66 58 86 59 49 60 50 61 65 63 87 64 52 65
REMARK SMILES IDX 35 66 36 67 45 68 37 69 38 70 44 71 46 72 39 73 40 74 41 75
REMARK SMILES IDX 42 76 43 77 69 78 70 79 79 80 71 81 72 82 78 83 80 84 73 85
REMARK SMILES IDX 74 86 75 87 76 88 77 89 53 90 54 91 63 92 55 93 56 94 62 95
REMARK SMILES IDX 64 96 57 97 58 98 59 99 60 100 61 101
REMARK H PARENT 9 13 85 51 51 62
REMARK Flexibility Score: inf
ROOT
ATOM      1  C   UNL     1       4.188   4.968  10.583  1.00  0.00     0.202 C 
ENDROOT
BRANCH   1   2
ATOM      2  C   UNL     1       4.781   3.810   9.822  1.00  0.00     0.261 C 
BRANCH   2   3
ATOM      3  O   UNL     1       4.159   3.627   8.542  1.00  0.00    -0.460 OA
BRANCH   3   4
ATOM      4  C   UNL     1       2.823   3.437   8.546  1.00  0.00     0.338 C 
ATOM      5  O   UNL     1       2.200   2.603   9.178  1.00  0.00    -0.246 OA
BRANCH   4   6
ATOM      6  C   UNL     1       2.235   4.321   7.525  1.00  0.00     0.062 A 
ATOM      7  C   UNL     1       0.390   4.614   6.030  1.00  0.00     0.050 A 
ATOM      8  C   UNL     1       1.132   5.528   5.280  1.00  0.00     0.027 A 
ATOM      9  C   UNL     1       0.899   4.099   7.216  1.00  0.00     0.042 A 
ATOM     10  C   UNL     1       2.442   5.835   5.657  1.00  0.00     0.003 A 
ATOM     11  C   UNL     1       3.006   5.209   6.765  1.00  0.00     0.016 A 
BRANCH   7  12
ATOM     12  N   UNL     1      -0.832   4.040   5.607  1.00  0.00    -0.279 N 
ATOM     13  H   UNL     1      -1.538   3.908   6.280  1.00  0.00     0.180 HD
BRANCH  12  14
ATOM     14  S   UNL     1      -1.149   3.576   4.037  1.00  0.00     0.265 S 
ATOM     15  O   UNL     1      -1.301   4.795   3.262  1.00  0.00    -0.201 OA
ATOM     16  O   UNL     1      -2.265   2.656   4.149  1.00  0.00    -0.201 OA
BRANCH  14  17
ATOM     17  C   UNL     1       0.163   2.666   3.246  1.00  0.00     0.133 A 
ATOM     18  C   UNL     1       0.861   1.786   1.083  1.00  0.00     0.123 A 
ATOM     19  C   UNL     1      -0.115   2.347   1.903  1.00  0.00     0.073 A 
ATOM     20  C   UNL     1       2.173   1.674   1.530  1.00  0.00    -0.005 A 
ATOM     21  C   UNL     1       2.421   1.913   2.883  1.00  0.00     0.055 A 
ATOM     22  C   UNL     1       3.312   1.246   0.655  1.00  0.00     0.048 C 
ATOM     23  C   UNL     1       1.407   2.316   3.769  1.00  0.00     0.139 A 
BRANCH  18  24
ATOM     24  O   UNL     1       0.477   1.398  -0.171  1.00  0.00    -0.496 OA
ATOM     25  C   UNL     1       0.538  -0.029  -0.288  1.00  0.00     0.278 C 
ENDBRANCH  18  24
BRANCH  23  26
ATOM     26  O   UNL     1       1.605   2.307   5.113  1.00  0.00    -0.495 OA
ATOM     27  C   UNL     1       2.807   1.699   5.587  1.00  0.00     0.278 C 
ENDBRANCH  23  26
ENDBRANCH  14  17
ENDBRANCH  12  14
ENDBRANCH   7  12
ENDBRANCH   4   6
ENDBRANCH   3   4
ENDBRANCH   2   3
ENDBRANCH   1   2
BRANCH   1  28
ATOM     28  O   UNL     1       2.874   4.566  10.960  1.00  0.00    -0.374 OA
BRANCH  28  29
ATOM     29  C   UNL     1       2.047   5.554  11.530  1.00  0.00     0.202 C 
BRANCH  29  30
ATOM     30  C   UNL     1       2.629   6.148  12.813  1.00  0.00     0.261 C 
BRANCH  30  31
ATOM     31  O   UNL     1       2.559   5.217  13.917  1.00  0.00    -0.460 OA
BRANCH  31  32
ATOM     32  C   UNL     1       3.710   4.544  14.216  1.00  0.00     0.338 C 
ATOM     33  O   UNL     1       4.568   4.974  14.971  1.00  0.00    -0.246 OA
BRANCH  32  34
ATOM     34  C   UNL     1       3.714   3.189  13.600  1.00  0.00     0.060 A 
ATOM     35  C   UNL     1       4.906   2.475  13.382  1.00  0.00     0.016 A 
ATOM     36  C   UNL     1       2.514   2.702  13.091  1.00  0.00     0.016 A 
ATOM     37  C   UNL     1       4.905   1.331  12.563  1.00  0.00     0.010 A 
ATOM     38  C   UNL     1       2.543   1.667  12.185  1.00  0.00     0.010 A 
ATOM     39  C   UNL     1       3.724   0.960  11.919  1.00  0.00    -0.014 A 
BRANCH  39  40
ATOM     40  C   UNL     1       3.560  -0.107  10.930  1.00  0.00     0.031 A 
ATOM     41  C   UNL     1       2.650  -1.238  11.258  1.00  0.00     0.074 A 
ATOM     42  C   UNL     1       3.981   0.044   9.650  1.00  0.00     0.049 A 
ATOM     43  N   UNL     1       2.623  -2.350  10.608  1.00  0.00    -0.248 NA
ATOM     44  C   UNL     1       1.677  -1.215  12.352  1.00  0.00     0.031 C 
ATOM     45  C   UNL     1       3.489  -0.661   8.469  1.00  0.00     0.029 A 
ATOM     46  N   UNL     1       4.979   0.875   9.124  1.00  0.00    -0.354 N 
ATOM     47  C   UNL     1       1.452  -2.996  10.933  1.00  0.00     0.074 A 
ATOM     48  C   UNL     1       0.939  -2.295  12.083  1.00  0.00     0.031 C 
ATOM     49  C   UNL     1       4.345  -0.480   7.451  1.00  0.00     0.029 A 
ATOM     50  C   UNL     1       5.477   0.273   7.961  1.00  0.00     0.049 A 
ATOM     51  H   UNL     1       5.278   1.732   9.506  1.00  0.00     0.167 HD
ATOM     52  C   UNL     1       0.965  -3.954  10.094  1.00  0.00     0.037 A 
ATOM     53  C   UNL     1       6.790  -0.055   7.827  1.00  0.00     0.037 A 
ATOM     54  C   UNL     1       1.838  -4.109   8.924  1.00  0.00     0.049 A 
ATOM     55  C   UNL     1       6.899  -1.548   7.680  1.00  0.00     0.074 A 
ATOM     56  C   UNL     1       1.736  -3.676   7.611  1.00  0.00     0.029 A 
ATOM     57  N   UNL     1       3.173  -4.476   9.104  1.00  0.00    -0.354 N 
ATOM     58  N   UNL     1       5.973  -2.356   8.124  1.00  0.00    -0.248 NA
ATOM     59  C   UNL     1       7.939  -2.247   6.936  1.00  0.00     0.031 C 
ATOM     60  C   UNL     1       3.021  -3.759   7.014  1.00  0.00     0.029 A 
ATOM     61  C   UNL     1       3.912  -4.244   7.958  1.00  0.00     0.049 A 
ATOM     62  H   UNL     1       3.540  -4.852   9.937  1.00  0.00     0.167 HD
ATOM     63  C   UNL     1       6.207  -3.616   7.668  1.00  0.00     0.074 A 
ATOM     64  C   UNL     1       7.476  -3.511   6.968  1.00  0.00     0.031 C 
ATOM     65  C   UNL     1       5.317  -4.630   7.869  1.00  0.00     0.037 A 
BRANCH  52  66
ATOM     66  C   UNL     1      -0.434  -4.530  10.210  1.00  0.00     0.058 A 
ATOM     67  C   UNL     1      -1.163  -4.931   9.069  1.00  0.00     0.135 A 
ATOM     68  C   UNL     1      -1.118  -4.713  11.433  1.00  0.00     0.135 A 
ATOM     69  F   UNL     1      -0.630  -4.885   7.842  1.00  0.00    -0.206 F 
ATOM     70  C   UNL     1      -2.477  -5.401   9.127  1.00  0.00     0.059 A 
ATOM     71  C   UNL     1      -2.453  -5.130  11.513  1.00  0.00     0.059 A 
ATOM     72  F   UNL     1      -0.494  -4.542  12.608  1.00  0.00    -0.206 F 
ATOM     73  C   UNL     1      -3.124  -5.481  10.351  1.00  0.00     0.060 A 
BRANCH  73  74
ATOM     74  S   UNL     1      -4.821  -6.090  10.397  1.00  0.00     0.124 S 
ATOM     75  O   UNL     1      -5.489  -5.224   9.431  1.00  0.00    -0.237 OA
ATOM     76  O   UNL     1      -4.652  -7.481   9.991  1.00  0.00    -0.237 OA
ATOM     77  O   UNL     1      -5.218  -5.888  11.787  1.00  0.00    -0.744 OA
ENDBRANCH  73  74
ENDBRANCH  52  66
BRANCH  53  78
ATOM     78  C   UNL     1       7.714   0.909   8.494  1.00  0.00     0.058 A 
ATOM     79  C   UNL     1       7.892   2.168   7.877  1.00  0.00     0.135 A 
ATOM     80  C   UNL     1       7.999   0.833   9.866  1.00  0.00     0.135 A 
ATOM     81  F   UNL     1       7.614   2.315   6.570  1.00  0.00    -0.206 F 
ATOM     82  C   UNL     1       8.205   3.321   8.603  1.00  0.00     0.059 A 
ATOM     83  C   UNL     1       8.287   1.982  10.618  1.00  0.00     0.059 A 
ATOM     84  F   UNL     1       7.851  -0.327  10.520  1.00  0.00    -0.206 F 
ATOM     85  C   UNL     1       8.337   3.229   9.988  1.00  0.00     0.060 A 
BRANCH  85  86
ATOM     86  S   UNL     1       8.228   4.755  10.986  1.00  0.00     0.124 S 
ATOM     87  O   UNL     1       9.625   5.149  11.101  1.00  0.00    -0.237 OA
ATOM     88  O   UNL     1       7.392   5.631  10.165  1.00  0.00    -0.237 OA
ATOM     89  O   UNL     1       7.580   4.288  12.207  1.00  0.00    -0.744 OA
ENDBRANCH  85  86
ENDBRANCH  53  78
BRANCH  65  90
ATOM     90  C   UNL     1       5.679  -6.090   7.880  1.00  0.00     0.058 A 
ATOM     91  C   UNL     1       6.988  -6.557   8.083  1.00  0.00     0.135 A 
ATOM     92  C   UNL     1       4.669  -7.084   7.877  1.00  0.00     0.135 A 
ATOM     93  F   UNL     1       8.023  -5.718   8.232  1.00  0.00    -0.206 F 
ATOM     94  C   UNL     1       7.287  -7.910   8.190  1.00  0.00     0.059 A 
ATOM     95  C   UNL     1       4.938  -8.434   8.056  1.00  0.00     0.059 A 
ATOM     96  F   UNL     1       3.372  -6.781   7.723  1.00  0.00    -0.206 F 
ATOM     97  C   UNL     1       6.255  -8.841   8.176  1.00  0.00     0.060 A 
BRANCH  97  98
ATOM     98  S   UNL     1       6.651 -10.583   8.349  1.00  0.00     0.124 S 
ATOM     99  O   UNL     1       7.038 -10.922   6.983  1.00  0.00    -0.237 OA
ATOM    100  O   UNL     1       7.735 -10.566   9.327  1.00  0.00    -0.237 OA
ATOM    101  O   UNL     1       5.401 -11.170   8.818  1.00  0.00    -0.744 OA
ENDBRANCH  97  98
ENDBRANCH  65  90
ENDBRANCH  39  40
ENDBRANCH  32  34
ENDBRANCH  31  32
ENDBRANCH  30  31
ENDBRANCH  29  30
ENDBRANCH  28  29
ENDBRANCH   1  28
TORSDOF 22
