REMARK SMILES CC(C)CSc1cc2c(cc1Cl)C=C(C(=O)OCCOCCOC(=O)c1ccc(-c3c4nc(c(-c5c(F)cc(S(=O)(=O)[O-])cc5F)c5ccc([nH]5)c(-c5c(F)cc(S(=O)(=O)[O-])cc5F)c5nc(c(-c6c(F)cc(S(=O)(=O)[O-])cc6F)c6ccc3[nH]6)C=C5)C=C4)cc1)[C@@H](C(F)(F)F)O2
REMARK SMILES IDX 20 1 19 2 18 3 17 4 15 5 16 6 14 7 6 8 7 9 11 10 8 11 10 12
REMARK SMILES IDX 12 13 9 14 97 15 13 16 92 17 5 18 4 19 2 20 1 21 3 22 93 23
REMARK SMILES IDX 94 24 95 25 96 26 21 27 22 28 23 29 24 30 25 31 26 32 27 33
REMARK SMILES IDX 91 34 28 35 90 36 29 37 30 38 31 39 84 40 32 41 89 42 83 43
REMARK SMILES IDX 85 44 33 45 88 46 82 47 81 48 34 50 68 51 47 52 67 53 48 54
REMARK SMILES IDX 51 55 66 56 86 57 49 58 50 59 65 61 87 62 52 63 35 64 36 65
REMARK SMILES IDX 45 66 37 67 38 68 44 69 46 70 39 71 40 72 41 73 42 74 43 75
REMARK SMILES IDX 69 76 70 77 79 78 71 79 72 80 78 81 80 82 73 83 74 84 75 85
REMARK SMILES IDX 76 86 77 87 53 88 54 89 63 90 55 91 56 92 62 93 64 94 57 95
REMARK SMILES IDX 58 96 59 97 60 98 61 99
REMARK H PARENT 85 49 51 60
REMARK Flexibility Score: inf
ROOT
ATOM      1  O   UNL     1       0.455   2.533   9.390  1.00  0.00    -0.374 OA
ENDROOT
BRANCH   1   2
ATOM      2  C   UNL     1       1.083   3.804   9.542  1.00  0.00     0.202 C 
BRANCH   2   3
ATOM      3  C   UNL     1       2.027   4.274   8.430  1.00  0.00     0.261 C 
BRANCH   3   4
ATOM      4  O   UNL     1       1.390   4.278   7.144  1.00  0.00    -0.460 OA
BRANCH   4   5
ATOM      5  C   UNL     1       1.853   3.338   6.287  1.00  0.00     0.338 C 
ATOM      6  O   UNL     1       2.784   2.571   6.467  1.00  0.00    -0.246 OA
BRANCH   5   7
ATOM      7  C   UNL     1       0.948   3.241   5.127  1.00  0.00     0.087 C 
ATOM      8  C   UNL     1      -1.418   1.427   1.089  1.00  0.00     0.030 A 
ATOM      9  C   UNL     1      -1.092   2.718   1.549  1.00  0.00     0.063 A 
ATOM     10  C   UNL     1      -1.279   0.356   1.985  1.00  0.00     0.055 A 
ATOM     11  C   UNL     1      -0.509   2.916   2.803  1.00  0.00     0.129 A 
ATOM     12  C   UNL     1      -0.647   0.548   3.219  1.00  0.00     0.033 A 
ATOM     13  Cl  UNL     1      -1.874  -1.237   1.682  1.00  0.00    -0.083 Cl
ATOM     14  C   UNL     1      -0.220   1.819   3.605  1.00  0.00     0.019 A 
ATOM     15  O   UNL     1      -0.221   4.204   3.147  1.00  0.00    -0.475 OA
ATOM     16  C   UNL     1       0.590   1.994   4.793  1.00  0.00     0.027 C 
ATOM     17  C   UNL     1       0.486   4.472   4.396  1.00  0.00     0.316 C 
BRANCH   8  18
ATOM     18  S   UNL     1      -1.952   1.352  -0.620  1.00  0.00    -0.124 SA
BRANCH  18  19
ATOM     19  C   UNL     1      -1.066  -0.084  -1.349  1.00  0.00     0.078 C 
BRANCH  19  20
ATOM     20  C   UNL     1       0.467  -0.049  -1.519  1.00  0.00    -0.007 C 
ATOM     21  C   UNL     1       1.276   0.119  -0.235  1.00  0.00     0.008 C 
ATOM     22  C   UNL     1       0.903  -1.361  -2.193  1.00  0.00     0.008 C 
ENDBRANCH  19  20
ENDBRANCH  18  19
ENDBRANCH   8  18
BRANCH  17  23
ATOM     23  C   UNL     1       1.626   5.450   4.073  1.00  0.00     0.430 C 
ATOM     24  F   UNL     1       1.163   6.525   3.392  1.00  0.00    -0.167 F 
ATOM     25  F   UNL     1       2.224   5.921   5.189  1.00  0.00    -0.167 F 
ATOM     26  F   UNL     1       2.580   4.865   3.312  1.00  0.00    -0.167 F 
ENDBRANCH  17  23
ENDBRANCH   5   7
ENDBRANCH   4   5
ENDBRANCH   3   4
ENDBRANCH   2   3
ENDBRANCH   1   2
BRANCH   1  27
ATOM     27  C   UNL     1      -0.622   2.414   8.463  1.00  0.00     0.202 C 
BRANCH  27  28
ATOM     28  C   UNL     1      -1.963   3.081   8.801  1.00  0.00     0.261 C 
BRANCH  28  29
ATOM     29  O   UNL     1      -1.878   4.513   8.873  1.00  0.00    -0.460 OA
BRANCH  29  30
ATOM     30  C   UNL     1      -1.990   5.028  10.124  1.00  0.00     0.338 C 
ATOM     31  O   UNL     1      -2.171   4.409  11.162  1.00  0.00    -0.246 OA
BRANCH  30  32
ATOM     32  C   UNL     1      -1.654   6.463  10.089  1.00  0.00     0.060 A 
ATOM     33  C   UNL     1      -2.341   7.344   9.255  1.00  0.00     0.016 A 
ATOM     34  C   UNL     1      -0.646   6.929  10.944  1.00  0.00     0.016 A 
ATOM     35  C   UNL     1      -2.028   8.705   9.295  1.00  0.00     0.010 A 
ATOM     36  C   UNL     1      -0.336   8.289  10.982  1.00  0.00     0.010 A 
ATOM     37  C   UNL     1      -1.037   9.190  10.170  1.00  0.00    -0.014 A 
BRANCH  37  38
ATOM     38  C   UNL     1      -0.825  10.652  10.314  1.00  0.00     0.031 A 
ATOM     39  C   UNL     1       0.397  11.324   9.761  1.00  0.00     0.074 A 
ATOM     40  C   UNL     1      -1.760  11.374  10.962  1.00  0.00     0.049 A 
ATOM     41  N   UNL     1       0.691  12.599   9.739  1.00  0.00    -0.248 NA
ATOM     42  C   UNL     1       1.423  10.458   9.163  1.00  0.00     0.031 C 
ATOM     43  C   UNL     1      -2.969  10.819  11.576  1.00  0.00     0.029 A 
ATOM     44  N   UNL     1      -1.851  12.720  11.204  1.00  0.00    -0.354 N 
ATOM     45  C   UNL     1       1.923  12.695   9.103  1.00  0.00     0.074 A 
ATOM     46  C   UNL     1       2.347  11.343   8.806  1.00  0.00     0.031 C 
ATOM     47  C   UNL     1      -3.700  11.821  12.088  1.00  0.00     0.029 A 
ATOM     48  C   UNL     1      -2.998  13.083  11.871  1.00  0.00     0.049 A 
ATOM     49  H   UNL     1      -1.162  13.366  10.928  1.00  0.00     0.167 HD
ATOM     50  C   UNL     1       2.619  13.812   8.778  1.00  0.00     0.037 A 
ATOM     51  C   UNL     1      -3.440  14.295  12.259  1.00  0.00     0.037 A 
ATOM     52  C   UNL     1       2.194  15.153   9.095  1.00  0.00     0.049 A 
ATOM     53  C   UNL     1      -2.621  15.514  11.931  1.00  0.00     0.074 A 
ATOM     54  C   UNL     1       2.819  16.348   8.781  1.00  0.00     0.029 A 
ATOM     55  N   UNL     1       1.049  15.480   9.808  1.00  0.00    -0.354 N 
ATOM     56  N   UNL     1      -1.494  15.593  11.265  1.00  0.00    -0.248 NA
ATOM     57  C   UNL     1      -3.134  16.807  12.403  1.00  0.00     0.031 C 
ATOM     58  C   UNL     1       2.083  17.392   9.351  1.00  0.00     0.029 A 
ATOM     59  C   UNL     1       0.966  16.855   9.970  1.00  0.00     0.049 A 
ATOM     60  H   UNL     1       0.392  14.831  10.149  1.00  0.00     0.167 HD
ATOM     61  C   UNL     1      -1.173  16.946  11.221  1.00  0.00     0.074 A 
ATOM     62  C   UNL     1      -2.235  17.649  11.911  1.00  0.00     0.031 C 
ATOM     63  C   UNL     1      -0.094  17.548  10.662  1.00  0.00     0.037 A 
BRANCH  50  64
ATOM     64  C   UNL     1       3.914  13.641   8.030  1.00  0.00     0.058 A 
ATOM     65  C   UNL     1       3.933  13.226   6.688  1.00  0.00     0.135 A 
ATOM     66  C   UNL     1       5.142  13.968   8.629  1.00  0.00     0.135 A 
ATOM     67  F   UNL     1       2.791  12.890   6.068  1.00  0.00    -0.206 F 
ATOM     68  C   UNL     1       5.123  13.123   5.974  1.00  0.00     0.059 A 
ATOM     69  C   UNL     1       6.341  13.900   7.925  1.00  0.00     0.059 A 
ATOM     70  F   UNL     1       5.183  14.373   9.908  1.00  0.00    -0.206 F 
ATOM     71  C   UNL     1       6.322  13.467   6.600  1.00  0.00     0.060 A 
BRANCH  71  72
ATOM     72  S   UNL     1       7.852  13.341   5.650  1.00  0.00     0.124 S 
ATOM     73  O   UNL     1       7.968  11.896   5.475  1.00  0.00    -0.237 OA
ATOM     74  O   UNL     1       7.532  14.101   4.447  1.00  0.00    -0.237 OA
ATOM     75  O   UNL     1       8.850  13.946   6.526  1.00  0.00    -0.744 OA
ENDBRANCH  71  72
ENDBRANCH  50  64
BRANCH  51  76
ATOM     76  C   UNL     1      -4.739  14.412  12.973  1.00  0.00     0.058 A 
ATOM     77  C   UNL     1      -5.849  15.008  12.357  1.00  0.00     0.135 A 
ATOM     78  C   UNL     1      -4.907  13.904  14.271  1.00  0.00     0.135 A 
ATOM     79  F   UNL     1      -5.738  15.515  11.120  1.00  0.00    -0.206 F 
ATOM     80  C   UNL     1      -7.077  15.105  13.004  1.00  0.00     0.059 A 
ATOM     81  C   UNL     1      -6.131  13.963  14.928  1.00  0.00     0.059 A 
ATOM     82  F   UNL     1      -3.879  13.310  14.899  1.00  0.00    -0.206 F 
ATOM     83  C   UNL     1      -7.209  14.572  14.288  1.00  0.00     0.060 A 
BRANCH  83  84
ATOM     84  S   UNL     1      -8.823  14.655  15.093  1.00  0.00     0.124 S 
ATOM     85  O   UNL     1      -8.960  16.087  15.331  1.00  0.00    -0.237 OA
ATOM     86  O   UNL     1      -9.700  14.091  14.072  1.00  0.00    -0.237 OA
ATOM     87  O   UNL     1      -8.649  13.831  16.285  1.00  0.00    -0.744 OA
ENDBRANCH  83  84
ENDBRANCH  51  76
BRANCH  63  88
ATOM     88  C   UNL     1      -0.003  19.047  10.758  1.00  0.00     0.058 A 
ATOM     89  C   UNL     1       0.281  19.691  11.973  1.00  0.00     0.135 A 
ATOM     90  C   UNL     1      -0.128  19.847   9.609  1.00  0.00     0.135 A 
ATOM     91  F   UNL     1       0.402  18.976  13.103  1.00  0.00    -0.206 F 
ATOM     92  C   UNL     1       0.421  21.073  12.049  1.00  0.00     0.059 A 
ATOM     93  C   UNL     1       0.040  21.228   9.656  1.00  0.00     0.059 A 
ATOM     94  F   UNL     1      -0.390  19.284   8.419  1.00  0.00    -0.206 F 
ATOM     95  C   UNL     1       0.307  21.832  10.884  1.00  0.00     0.060 A 
BRANCH  95  96
ATOM     96  S   UNL     1       0.539  23.619  10.995  1.00  0.00     0.124 S 
ATOM     97  O   UNL     1      -0.648  24.026  11.740  1.00  0.00    -0.237 OA
ATOM     98  O   UNL     1       1.805  23.723  11.713  1.00  0.00    -0.237 OA
ATOM     99  O   UNL     1       0.579  24.047   9.599  1.00  0.00    -0.744 OA
ENDBRANCH  95  96
ENDBRANCH  63  88
ENDBRANCH  37  38
ENDBRANCH  30  32
ENDBRANCH  29  30
ENDBRANCH  28  29
ENDBRANCH  27  28
ENDBRANCH   1  27
TORSDOF 21
