REMARK SMILES COC1CCN(c2nc(C(C)C)c(C(=O)OCCOCCOC(=O)c3ccc(-c4c5nc(c(-c6c(F)cc(S(=O)(=O)[O-])cc6F)c6ccc([nH]6)c(-c6c(F)cc(S(=O)(=O)[O-])cc6F)c6nc(c(-c7c(F)cc(S(=O)(=O)[O-])cc7F)c7ccc4[nH]7)C=C6)C=C5)cc3)s2)CC1
REMARK SMILES IDX 20 1 19 2 18 3 17 4 16 5 14 6 15 7 13 8 7 9 8 10 91 11 9 12
REMARK SMILES IDX 6 13 3 14 4 15 93 16 5 17 92 18 2 19 1 20 10 21 11 22 12 23
REMARK SMILES IDX 21 24 22 25 23 26 24 27 25 28 26 29 90 30 27 31 89 32 28 33
REMARK SMILES IDX 29 34 30 35 83 36 31 37 88 38 82 39 84 40 32 41 87 42 81 43
REMARK SMILES IDX 80 44 33 46 67 47 46 48 66 49 47 50 50 51 65 52 85 53 48 54
REMARK SMILES IDX 49 55 64 57 86 58 51 59 34 60 35 61 44 62 36 63 37 64 43 65
REMARK SMILES IDX 45 66 38 67 39 68 40 69 41 70 42 71 68 72 69 73 78 74 70 75
REMARK SMILES IDX 71 76 77 77 79 78 72 79 73 80 74 81 75 82 76 83 52 84 53 85
REMARK SMILES IDX 62 86 54 87 55 88 61 89 63 90 56 91 57 92 58 93 59 94 60 95
REMARK H PARENT 84 45 50 56
REMARK Flexibility Score: inf
ROOT
ATOM      1  C   UNL     1       2.858   9.139  -0.553  1.00  0.00     0.202 C 
ENDROOT
BRANCH   1   2
ATOM      2  O   UNL     1       3.163  10.187  -1.478  1.00  0.00    -0.374 OA
BRANCH   2   3
ATOM      3  C   UNL     1       2.078  11.056  -1.818  1.00  0.00     0.202 C 
BRANCH   3   4
ATOM      4  C   UNL     1       1.278  10.571  -3.026  1.00  0.00     0.261 C 
BRANCH   4   5
ATOM      5  O   UNL     1       0.522   9.411  -2.640  1.00  0.00    -0.459 OA
BRANCH   5   6
ATOM      6  C   UNL     1       0.814   8.259  -3.294  1.00  0.00     0.350 C 
ATOM      7  O   UNL     1       1.501   8.201  -4.309  1.00  0.00    -0.245 OA
BRANCH   6   8
ATOM      8  C   UNL     1       0.309   7.123  -2.559  1.00  0.00     0.137 A 
ATOM      9  C   UNL     1       0.103   4.847  -1.710  1.00  0.00     0.186 A 
ATOM     10  N   UNL     1      -0.838   5.603  -1.206  1.00  0.00    -0.224 NA
ATOM     11  S   UNL     1       1.181   5.651  -2.765  1.00  0.00    -0.089 S 
ATOM     12  C   UNL     1      -0.724   6.925  -1.647  1.00  0.00     0.071 A 
BRANCH   9  13
ATOM     13  N   UNL     1       0.224   3.521  -1.502  1.00  0.00    -0.348 N 
ATOM     14  C   UNL     1       0.945   0.800  -1.840  1.00  0.00     0.121 C 
ATOM     15  C   UNL     1       1.943   1.840  -1.306  1.00  0.00     0.053 C 
ATOM     16  C   UNL     1      -0.116   1.475  -2.722  1.00  0.00     0.053 C 
ATOM     17  C   UNL     1       1.227   2.990  -0.603  1.00  0.00     0.121 C 
ATOM     18  C   UNL     1      -0.807   2.614  -1.967  1.00  0.00     0.121 C 
BRANCH  14  19
ATOM     19  O   UNL     1       0.241   0.097  -0.808  1.00  0.00    -0.381 OA
ATOM     20  C   UNL     1       1.070  -0.595   0.112  1.00  0.00     0.195 C 
ENDBRANCH  14  19
ENDBRANCH   9  13
BRANCH  12  21
ATOM     21  C   UNL     1      -1.756   7.872  -1.076  1.00  0.00     0.034 C 
ATOM     22  C   UNL     1      -1.193   8.775   0.022  1.00  0.00     0.014 C 
ATOM     23  C   UNL     1      -2.532   8.659  -2.129  1.00  0.00     0.014 C 
ENDBRANCH  12  21
ENDBRANCH   6   8
ENDBRANCH   5   6
ENDBRANCH   4   5
ENDBRANCH   3   4
ENDBRANCH   2   3
ENDBRANCH   1   2
BRANCH   1  24
ATOM     24  C   UNL     1       2.981   9.543   0.919  1.00  0.00     0.261 C 
BRANCH  24  25
ATOM     25  O   UNL     1       1.889  10.397   1.309  1.00  0.00    -0.460 OA
BRANCH  25  26
ATOM     26  C   UNL     1       2.204  11.708   1.445  1.00  0.00     0.338 C 
ATOM     27  O   UNL     1       3.316  12.205   1.374  1.00  0.00    -0.246 OA
BRANCH  26  28
ATOM     28  C   UNL     1       0.967  12.515   1.515  1.00  0.00     0.060 A 
ATOM     29  C   UNL     1       0.944  13.717   0.798  1.00  0.00     0.016 A 
ATOM     30  C   UNL     1      -0.138  12.130   2.282  1.00  0.00     0.016 A 
ATOM     31  C   UNL     1      -0.161  14.563   0.885  1.00  0.00     0.010 A 
ATOM     32  C   UNL     1      -1.245  12.982   2.371  1.00  0.00     0.010 A 
ATOM     33  C   UNL     1      -1.247  14.217   1.700  1.00  0.00    -0.014 A 
BRANCH  33  34
ATOM     34  C   UNL     1      -2.317  15.215   1.943  1.00  0.00     0.031 A 
ATOM     35  C   UNL     1      -2.272  16.045   3.197  1.00  0.00     0.074 A 
ATOM     36  C   UNL     1      -3.293  15.410   1.040  1.00  0.00     0.049 A 
ATOM     37  N   UNL     1      -3.084  16.990   3.594  1.00  0.00    -0.248 NA
ATOM     38  C   UNL     1      -1.164  15.773   4.126  1.00  0.00     0.031 C 
ATOM     39  C   UNL     1      -3.434  14.685  -0.222  1.00  0.00     0.029 A 
ATOM     40  N   UNL     1      -4.354  16.281   1.048  1.00  0.00    -0.354 N 
ATOM     41  C   UNL     1      -2.587  17.427   4.816  1.00  0.00     0.074 A 
ATOM     42  C   UNL     1      -1.421  16.622   5.110  1.00  0.00     0.031 C 
ATOM     43  C   UNL     1      -4.525  15.137  -0.864  1.00  0.00     0.029 A 
ATOM     44  C   UNL     1      -5.169  16.168  -0.052  1.00  0.00     0.049 A 
ATOM     45  H   UNL     1      -4.516  16.925   1.775  1.00  0.00     0.167 HD
ATOM     46  C   UNL     1      -3.053  18.417   5.615  1.00  0.00     0.037 A 
ATOM     47  C   UNL     1      -6.309  16.816  -0.363  1.00  0.00     0.037 A 
ATOM     48  C   UNL     1      -4.212  19.218   5.323  1.00  0.00     0.049 A 
ATOM     49  C   UNL     1      -6.837  17.878   0.564  1.00  0.00     0.074 A 
ATOM     50  C   UNL     1      -4.744  20.264   6.056  1.00  0.00     0.029 A 
ATOM     51  N   UNL     1      -5.028  19.053   4.213  1.00  0.00    -0.354 N 
ATOM     52  N   UNL     1      -6.333  18.309   1.696  1.00  0.00    -0.248 NA
ATOM     53  C   UNL     1      -8.085  18.547   0.168  1.00  0.00     0.031 C 
ATOM     54  C   UNL     1      -5.905  20.706   5.411  1.00  0.00     0.029 A 
ATOM     55  C   UNL     1      -6.074  19.961   4.255  1.00  0.00     0.049 A 
ATOM     56  H   UNL     1      -4.885  18.389   3.501  1.00  0.00     0.167 HD
ATOM     57  C   UNL     1      -7.191  19.311   2.138  1.00  0.00     0.074 A 
ATOM     58  C   UNL     1      -8.240  19.430   1.146  1.00  0.00     0.031 C 
ATOM     59  C   UNL     1      -7.114  20.066   3.262  1.00  0.00     0.037 A 
BRANCH  46  60
ATOM     60  C   UNL     1      -2.311  18.671   6.897  1.00  0.00     0.058 A 
ATOM     61  C   UNL     1      -1.054  19.296   6.909  1.00  0.00     0.135 A 
ATOM     62  C   UNL     1      -2.869  18.294   8.128  1.00  0.00     0.135 A 
ATOM     63  F   UNL     1      -0.469  19.661   5.757  1.00  0.00    -0.206 F 
ATOM     64  C   UNL     1      -0.361  19.510   8.096  1.00  0.00     0.059 A 
ATOM     65  C   UNL     1      -2.203  18.518   9.330  1.00  0.00     0.059 A 
ATOM     66  F   UNL     1      -4.067  17.692   8.171  1.00  0.00    -0.206 F 
ATOM     67  C   UNL     1      -0.942  19.111   9.301  1.00  0.00     0.060 A 
BRANCH  67  68
ATOM     68  S   UNL     1      -0.025  19.378  10.834  1.00  0.00     0.124 S 
ATOM     69  O   UNL     1       0.971  18.313  10.765  1.00  0.00    -0.237 OA
ATOM     70  O   UNL     1       0.485  20.735  10.664  1.00  0.00    -0.237 OA
ATOM     71  O   UNL     1      -1.043  19.220  11.869  1.00  0.00    -0.744 OA
ENDBRANCH  67  68
ENDBRANCH  46  60
BRANCH  47  72
ATOM     72  C   UNL     1      -7.031  16.471  -1.615  1.00  0.00     0.058 A 
ATOM     73  C   UNL     1      -7.038  17.343  -2.712  1.00  0.00     0.135 A 
ATOM     74  C   UNL     1      -7.712  15.250  -1.743  1.00  0.00     0.135 A 
ATOM     75  F   UNL     1      -6.411  18.526  -2.632  1.00  0.00    -0.206 F 
ATOM     76  C   UNL     1      -7.695  17.018  -3.895  1.00  0.00     0.059 A 
ATOM     77  C   UNL     1      -8.358  14.894  -2.921  1.00  0.00     0.059 A 
ATOM     78  F   UNL     1      -7.726  14.378  -0.722  1.00  0.00    -0.206 F 
ATOM     79  C   UNL     1      -8.348  15.788  -3.991  1.00  0.00     0.060 A 
BRANCH  79  80
ATOM     80  S   UNL     1      -9.136  15.343  -5.554  1.00  0.00     0.124 S 
ATOM     81  O   UNL     1     -10.343  16.159  -5.518  1.00  0.00    -0.237 OA
ATOM     82  O   UNL     1      -8.126  15.738  -6.531  1.00  0.00    -0.237 OA
ATOM     83  O   UNL     1      -9.341  13.903  -5.426  1.00  0.00    -0.744 OA
ENDBRANCH  79  80
ENDBRANCH  47  72
BRANCH  59  84
ATOM     84  C   UNL     1      -8.184  21.101   3.476  1.00  0.00     0.058 A 
ATOM     85  C   UNL     1      -9.481  20.745   3.876  1.00  0.00     0.135 A 
ATOM     86  C   UNL     1      -7.894  22.467   3.326  1.00  0.00     0.135 A 
ATOM     87  F   UNL     1      -9.811  19.453   4.028  1.00  0.00    -0.206 F 
ATOM     88  C   UNL     1     -10.461  21.707   4.101  1.00  0.00     0.059 A 
ATOM     89  C   UNL     1      -8.852  23.447   3.568  1.00  0.00     0.059 A 
ATOM     90  F   UNL     1      -6.666  22.861   2.955  1.00  0.00    -0.206 F 
ATOM     91  C   UNL     1     -10.137  23.056   3.944  1.00  0.00     0.060 A 
BRANCH  91  92
ATOM     92  S   UNL     1     -11.407  24.299   4.268  1.00  0.00     0.124 S 
ATOM     93  O   UNL     1     -12.221  24.208   3.061  1.00  0.00    -0.237 OA
ATOM     94  O   UNL     1     -12.030  23.802   5.491  1.00  0.00    -0.237 OA
ATOM     95  O   UNL     1     -10.642  25.533   4.420  1.00  0.00    -0.744 OA
ENDBRANCH  91  92
ENDBRANCH  59  84
ENDBRANCH  33  34
ENDBRANCH  26  28
ENDBRANCH  25  26
ENDBRANCH  24  25
ENDBRANCH   1  24
TORSDOF 20
