REMARK SMILES O=C(C[C@H]1C[C@H]2CC[C@@H](C1)[N@H+]2[C@@H]1CCCSC1)OCCOCCOC(=O)c1ccc(-c2c3nc(c(-c4c(F)cc(S(=O)(=O)[O-])cc4F)c4ccc([nH]4)c(-c4c(F)cc(S(=O)(=O)[O-])cc4F)c4nc(c(-c5c(F)cc(S(=O)(=O)[O-])cc5F)c5ccc2[nH]5)C=C4)C=C3)cc1
REMARK SMILES IDX 22 1 21 2 20 3 19 4 18 5 2 6 1 7 3 8 4 9 5 10 10 11 6 12
REMARK SMILES IDX 9 13 7 14 11 15 8 16 12 18 13 19 17 20 14 21 16 22 15 23
REMARK SMILES IDX 23 24 24 25 25 26 26 27 27 28 28 29 92 30 29 31 91 32 30 33
REMARK SMILES IDX 31 34 32 35 85 36 33 37 90 38 84 39 86 40 34 41 89 42 83 43
REMARK SMILES IDX 82 44 35 46 69 47 48 48 68 49 49 50 52 51 67 52 87 53 50 54
REMARK SMILES IDX 51 55 66 57 88 58 53 59 36 60 37 61 46 62 38 63 39 64 45 65
REMARK SMILES IDX 47 66 40 67 41 68 42 69 43 70 44 71 70 72 71 73 80 74 72 75
REMARK SMILES IDX 73 76 79 77 81 78 74 79 75 80 76 81 77 82 78 83 54 84 55 85
REMARK SMILES IDX 64 86 56 87 57 88 63 89 65 90 58 91 59 92 60 93 61 94 62 95
REMARK H PARENT 11 17 86 45 52 56
REMARK Flexibility Score: inf
ROOT
ATOM      1  C   UNL     1       2.461   2.312   2.307  1.00  0.00     0.202 C 
ENDROOT
BRANCH   1   2
ATOM      2  O   UNL     1       3.615   2.215   1.475  1.00  0.00    -0.374 OA
BRANCH   2   3
ATOM      3  C   UNL     1       3.410   2.426   0.070  1.00  0.00     0.202 C 
BRANCH   3   4
ATOM      4  C   UNL     1       2.393   1.503  -0.609  1.00  0.00     0.261 C 
BRANCH   4   5
ATOM      5  O   UNL     1       2.268   0.324   0.188  1.00  0.00    -0.463 OA
BRANCH   5   6
ATOM      6  C   UNL     1       1.710  -0.774  -0.363  1.00  0.00     0.306 C 
ATOM      7  O   UNL     1       1.016  -0.801  -1.365  1.00  0.00    -0.252 OA
BRANCH   6   8
ATOM      8  C   UNL     1       2.255  -1.973   0.379  1.00  0.00     0.126 C 
BRANCH   8   9
ATOM      9  C   UNL     1       3.547  -2.546  -0.258  1.00  0.00     0.012 C 
ATOM     10  C   UNL     1       4.326  -1.582  -1.185  1.00  0.00     0.069 C 
ATOM     11  C   UNL     1       4.462  -3.246   0.792  1.00  0.00     0.069 C 
ATOM     12  C   UNL     1       5.583  -0.971  -0.566  1.00  0.00     0.185 C 
ATOM     13  C   UNL     1       5.881  -2.652   1.000  1.00  0.00     0.185 C 
ATOM     14  C   UNL     1       5.362  -0.330   0.815  1.00  0.00     0.071 C 
ATOM     15  N   UNL     1       6.472  -2.042  -0.179  1.00  0.00    -0.327 N 
ATOM     16  C   UNL     1       5.819  -1.375   1.831  1.00  0.00     0.071 C 
ATOM     17  H   UNL     1       7.402  -1.708   0.073  1.00  0.00     0.348 HD
BRANCH  15  18
ATOM     18  C   UNL     1       7.297  -2.746  -1.148  1.00  0.00     0.194 C 
ATOM     19  C   UNL     1       6.614  -3.973  -1.776  1.00  0.00     0.067 C 
ATOM     20  C   UNL     1       8.669  -2.969  -0.462  1.00  0.00     0.134 C 
ATOM     21  C   UNL     1       7.529  -4.992  -2.440  1.00  0.00     0.017 C 
ATOM     22  S   UNL     1       9.796  -4.151  -1.247  1.00  0.00    -0.156 SA
ATOM     23  C   UNL     1       8.605  -5.484  -1.492  1.00  0.00     0.070 C 
ENDBRANCH  15  18
ENDBRANCH   8   9
ENDBRANCH   6   8
ENDBRANCH   5   6
ENDBRANCH   4   5
ENDBRANCH   3   4
ENDBRANCH   2   3
ENDBRANCH   1   2
BRANCH   1  24
ATOM     24  C   UNL     1       2.284   3.680   2.970  1.00  0.00     0.261 C 
BRANCH  24  25
ATOM     25  O   UNL     1       2.692   4.726   2.091  1.00  0.00    -0.460 OA
BRANCH  25  26
ATOM     26  C   UNL     1       4.023   4.997   2.153  1.00  0.00     0.338 C 
ATOM     27  O   UNL     1       4.798   4.699   3.046  1.00  0.00    -0.246 OA
BRANCH  26  28
ATOM     28  C   UNL     1       4.431   5.520   0.835  1.00  0.00     0.060 A 
ATOM     29  C   UNL     1       5.651   5.085   0.293  1.00  0.00     0.016 A 
ATOM     30  C   UNL     1       3.578   6.350   0.101  1.00  0.00     0.016 A 
ATOM     31  C   UNL     1       6.050   5.526  -0.968  1.00  0.00     0.010 A 
ATOM     32  C   UNL     1       3.978   6.798  -1.149  1.00  0.00     0.010 A 
ATOM     33  C   UNL     1       5.236   6.431  -1.659  1.00  0.00    -0.014 A 
BRANCH  33  34
ATOM     34  C   UNL     1       5.784   7.295  -2.724  1.00  0.00     0.031 A 
ATOM     35  C   UNL     1       6.359   8.606  -2.270  1.00  0.00     0.074 A 
ATOM     36  C   UNL     1       5.604   7.010  -4.022  1.00  0.00     0.049 A 
ATOM     37  N   UNL     1       6.582   9.696  -2.948  1.00  0.00    -0.248 NA
ATOM     38  C   UNL     1       6.675   8.709  -0.834  1.00  0.00     0.031 C 
ATOM     39  C   UNL     1       5.079   5.753  -4.548  1.00  0.00     0.029 A 
ATOM     40  N   UNL     1       5.792   7.794  -5.130  1.00  0.00    -0.354 N 
ATOM     41  C   UNL     1       7.021  10.627  -2.013  1.00  0.00     0.074 A 
ATOM     42  C   UNL     1       7.028   9.977  -0.724  1.00  0.00     0.031 C 
ATOM     43  C   UNL     1       4.937   5.868  -5.881  1.00  0.00     0.029 A 
ATOM     44  C   UNL     1       5.309   7.223  -6.284  1.00  0.00     0.049 A 
ATOM     45  H   UNL     1       6.227   8.677  -5.103  1.00  0.00     0.167 HD
ATOM     46  C   UNL     1       7.365  11.919  -2.214  1.00  0.00     0.037 A 
ATOM     47  C   UNL     1       5.137   7.764  -7.507  1.00  0.00     0.037 A 
ATOM     48  C   UNL     1       7.318  12.546  -3.504  1.00  0.00     0.049 A 
ATOM     49  C   UNL     1       5.511   9.209  -7.718  1.00  0.00     0.074 A 
ATOM     50  C   UNL     1       7.647  13.841  -3.849  1.00  0.00     0.029 A 
ATOM     51  N   UNL     1       6.897  11.909  -4.665  1.00  0.00    -0.354 N 
ATOM     52  N   UNL     1       5.941  10.085  -6.838  1.00  0.00    -0.248 NA
ATOM     53  C   UNL     1       5.375   9.743  -9.079  1.00  0.00     0.031 C 
ATOM     54  C   UNL     1       7.388  14.000  -5.216  1.00  0.00     0.029 A 
ATOM     55  C   UNL     1       6.946  12.788  -5.730  1.00  0.00     0.049 A 
ATOM     56  H   UNL     1       6.606  10.970  -4.721  1.00  0.00     0.167 HD
ATOM     57  C   UNL     1       6.152  11.266  -7.541  1.00  0.00     0.074 A 
ATOM     58  C   UNL     1       5.798  10.992  -8.921  1.00  0.00     0.031 C 
ATOM     59  C   UNL     1       6.601  12.466  -7.094  1.00  0.00     0.037 A 
BRANCH  46  60
ATOM     60  C   UNL     1       7.746  12.718  -0.999  1.00  0.00     0.058 A 
ATOM     61  C   UNL     1       8.927  12.462  -0.282  1.00  0.00     0.135 A 
ATOM     62  C   UNL     1       6.881  13.705  -0.500  1.00  0.00     0.135 A 
ATOM     63  F   UNL     1       9.776  11.507  -0.698  1.00  0.00    -0.206 F 
ATOM     64  C   UNL     1       9.210  13.115   0.913  1.00  0.00     0.059 A 
ATOM     65  C   UNL     1       7.159  14.393   0.677  1.00  0.00     0.059 A 
ATOM     66  F   UNL     1       5.734  13.985  -1.138  1.00  0.00    -0.206 F 
ATOM     67  C   UNL     1       8.313  14.072   1.391  1.00  0.00     0.060 A 
BRANCH  67  68
ATOM     68  S   UNL     1       8.664  14.878   2.967  1.00  0.00     0.124 S 
ATOM     69  O   UNL     1       8.307  13.828   3.916  1.00  0.00    -0.237 OA
ATOM     70  O   UNL     1      10.089  15.175   2.858  1.00  0.00    -0.237 OA
ATOM     71  O   UNL     1       7.782  16.041   2.956  1.00  0.00    -0.744 OA
ENDBRANCH  67  68
ENDBRANCH  46  60
BRANCH  47  72
ATOM     72  C   UNL     1       4.567   6.934  -8.602  1.00  0.00     0.058 A 
ATOM     73  C   UNL     1       5.378   6.453  -9.639  1.00  0.00     0.135 A 
ATOM     74  C   UNL     1       3.218   6.541  -8.593  1.00  0.00     0.135 A 
ATOM     75  F   UNL     1       6.670   6.811  -9.700  1.00  0.00    -0.206 F 
ATOM     76  C   UNL     1       4.880   5.599 -10.620  1.00  0.00     0.059 A 
ATOM     77  C   UNL     1       2.701   5.673  -9.551  1.00  0.00     0.059 A 
ATOM     78  F   UNL     1       2.401   6.966  -7.617  1.00  0.00    -0.206 F 
ATOM     79  C   UNL     1       3.542   5.203 -10.559  1.00  0.00     0.060 A 
BRANCH  79  80
ATOM     80  S   UNL     1       2.938   4.004 -11.769  1.00  0.00     0.124 S 
ATOM     81  O   UNL     1       2.874   4.814 -12.980  1.00  0.00    -0.237 OA
ATOM     82  O   UNL     1       3.983   2.985 -11.736  1.00  0.00    -0.237 OA
ATOM     83  O   UNL     1       1.652   3.589 -11.217  1.00  0.00    -0.744 OA
ENDBRANCH  79  80
ENDBRANCH  47  72
BRANCH  59  84
ATOM     84  C   UNL     1       6.788  13.559  -8.105  1.00  0.00     0.058 A 
ATOM     85  C   UNL     1       5.705  14.289  -8.613  1.00  0.00     0.135 A 
ATOM     86  C   UNL     1       8.084  13.951  -8.478  1.00  0.00     0.135 A 
ATOM     87  F   UNL     1       4.448  13.950  -8.287  1.00  0.00    -0.206 F 
ATOM     88  C   UNL     1       5.900  15.374  -9.462  1.00  0.00     0.059 A 
ATOM     89  C   UNL     1       8.303  15.046  -9.306  1.00  0.00     0.059 A 
ATOM     90  F   UNL     1       9.153  13.290  -8.005  1.00  0.00    -0.206 F 
ATOM     91  C   UNL     1       7.204  15.749  -9.796  1.00  0.00     0.060 A 
BRANCH  91  92
ATOM     92  S   UNL     1       7.448  17.202 -10.838  1.00  0.00     0.124 S 
ATOM     93  O   UNL     1       7.073  16.686 -12.151  1.00  0.00    -0.237 OA
ATOM     94  O   UNL     1       6.526  18.169 -10.250  1.00  0.00    -0.237 OA
ATOM     95  O   UNL     1       8.864  17.510 -10.665  1.00  0.00    -0.744 OA
ENDBRANCH  91  92
ENDBRANCH  59  84
ENDBRANCH  33  34
ENDBRANCH  26  28
ENDBRANCH  25  26
ENDBRANCH  24  25
ENDBRANCH   1  24
TORSDOF 19
