REMARK SMILES O=C(/C=C/C(=O)OCCOCCOC(=O)c1ccc(-c2c3nc(c(-c4c(F)cc(S(=O)(=O)[O-])cc4F)c4ccc([nH]4)c(-c4c(F)cc(S(=O)(=O)[O-])cc4F)c4nc(c(-c5c(F)cc(S(=O)(=O)[O-])cc5F)c5ccc2[nH]5)C=C4)C=C3)cc1)Nc1ccccn1
REMARK SMILES IDX 11 1 10 2 9 3 8 4 7 5 5 6 6 7 4 8 3 9 2 10 1 11 82 12 83 14
REMARK SMILES IDX 84 15 88 16 85 17 87 18 86 19 12 20 13 21 14 22 15 23 16 24
REMARK SMILES IDX 17 25 81 26 18 27 80 28 19 29 20 30 21 31 74 32 22 33 79 34
REMARK SMILES IDX 73 35 75 36 23 37 78 38 72 39 71 40 24 42 58 43 37 44 57 45
REMARK SMILES IDX 38 46 41 47 56 48 76 49 39 50 40 51 55 53 77 54 42 55 25 56
REMARK SMILES IDX 26 57 35 58 27 59 28 60 34 61 36 62 29 63 30 64 31 65 32 66
REMARK SMILES IDX 33 67 59 68 60 69 69 70 61 71 62 72 68 73 70 74 63 75 64 76
REMARK SMILES IDX 65 77 66 78 67 79 43 80 44 81 53 82 45 83 46 84 52 85 54 86
REMARK SMILES IDX 47 87 48 88 49 89 50 90 51 91
REMARK H PARENT 82 13 75 41 41 52
REMARK Flexibility Score: inf
ROOT
ATOM      1  C   UNL     1       6.182  -3.352   0.254  1.00  0.00     0.202 C 
ENDROOT
BRANCH   1   2
ATOM      2  O   UNL     1       6.874  -3.732   1.444  1.00  0.00    -0.374 OA
BRANCH   2   3
ATOM      3  C   UNL     1       6.070  -4.109   2.563  1.00  0.00     0.202 C 
BRANCH   3   4
ATOM      4  C   UNL     1       5.548  -2.948   3.413  1.00  0.00     0.261 C 
BRANCH   4   5
ATOM      5  O   UNL     1       4.636  -2.126   2.664  1.00  0.00    -0.460 OA
BRANCH   5   6
ATOM      6  C   UNL     1       5.073  -0.881   2.365  1.00  0.00     0.331 C 
ATOM      7  O   UNL     1       6.125  -0.367   2.714  1.00  0.00    -0.247 OA
BRANCH   6   8
ATOM      8  C   UNL     1       4.138  -0.168   1.473  1.00  0.00     0.099 C 
ATOM      9  C   UNL     1       2.941  -0.637   1.095  1.00  0.00     0.079 C 
BRANCH   9  10
ATOM     10  C   UNL     1       2.011   0.213   0.316  1.00  0.00     0.249 C 
ATOM     11  O   UNL     1       0.838   0.261   0.660  1.00  0.00    -0.270 OA
ATOM     12  N   UNL     1       2.575   0.831  -0.769  1.00  0.00    -0.307 N 
ATOM     13  H   UNL     1       3.490   0.556  -1.008  1.00  0.00     0.171 HD
BRANCH  12  14
ATOM     14  C   UNL     1       1.984   1.812  -1.571  1.00  0.00     0.132 A 
ATOM     15  C   UNL     1       0.824   2.490  -1.218  1.00  0.00     0.047 A 
ATOM     16  N   UNL     1       2.666   2.083  -2.705  1.00  0.00    -0.239 NA
ATOM     17  C   UNL     1       0.324   3.467  -2.076  1.00  0.00     0.005 A 
ATOM     18  C   UNL     1       2.144   3.018  -3.532  1.00  0.00     0.113 A 
ATOM     19  C   UNL     1       0.988   3.732  -3.264  1.00  0.00     0.020 A 
ENDBRANCH  12  14
ENDBRANCH   9  10
ENDBRANCH   6   8
ENDBRANCH   5   6
ENDBRANCH   4   5
ENDBRANCH   3   4
ENDBRANCH   2   3
ENDBRANCH   1   2
BRANCH   1  20
ATOM     20  C   UNL     1       5.677  -4.502  -0.625  1.00  0.00     0.261 C 
BRANCH  20  21
ATOM     21  O   UNL     1       4.609  -5.232   0.005  1.00  0.00    -0.460 OA
BRANCH  21  22
ATOM     22  C   UNL     1       4.947  -6.472   0.431  1.00  0.00     0.338 C 
ATOM     23  O   UNL     1       6.024  -7.034   0.271  1.00  0.00    -0.246 OA
BRANCH  22  24
ATOM     24  C   UNL     1       3.885  -7.035   1.287  1.00  0.00     0.060 A 
ATOM     25  C   UNL     1       4.279  -7.625   2.495  1.00  0.00     0.016 A 
ATOM     26  C   UNL     1       2.546  -7.066   0.888  1.00  0.00     0.016 A 
ATOM     27  C   UNL     1       3.350  -8.311   3.274  1.00  0.00     0.010 A 
ATOM     28  C   UNL     1       1.615  -7.760   1.670  1.00  0.00     0.010 A 
ATOM     29  C   UNL     1       2.022  -8.423   2.843  1.00  0.00    -0.014 A 
BRANCH  29  30
ATOM     30  C   UNL     1       1.115  -9.381   3.524  1.00  0.00     0.031 A 
ATOM     31  C   UNL     1       0.892 -10.735   2.900  1.00  0.00     0.074 A 
ATOM     32  C   UNL     1       0.540  -9.076   4.702  1.00  0.00     0.049 A 
ATOM     33  N   UNL     1       0.122 -11.714   3.296  1.00  0.00    -0.248 NA
ATOM     34  C   UNL     1       1.640 -11.021   1.664  1.00  0.00     0.031 C 
ATOM     35  C   UNL     1       0.710  -7.815   5.425  1.00  0.00     0.029 A 
ATOM     36  N   UNL     1      -0.309  -9.806   5.495  1.00  0.00    -0.354 N 
ATOM     37  C   UNL     1       0.295 -12.732   2.365  1.00  0.00     0.074 A 
ATOM     38  C   UNL     1       1.213 -12.238   1.362  1.00  0.00     0.031 C 
ATOM     39  C   UNL     1      -0.029  -7.854   6.548  1.00  0.00     0.029 A 
ATOM     40  C   UNL     1      -0.740  -9.130   6.612  1.00  0.00     0.049 A 
ATOM     41  H   UNL     1      -0.584 -10.728   5.285  1.00  0.00     0.167 HD
ATOM     42  C   UNL     1      -0.248 -13.973   2.354  1.00  0.00     0.037 A 
ATOM     43  C   UNL     1      -1.623  -9.492   7.564  1.00  0.00     0.037 A 
ATOM     44  C   UNL     1      -1.162 -14.463   3.352  1.00  0.00     0.049 A 
ATOM     45  C   UNL     1      -2.258 -10.859   7.499  1.00  0.00     0.074 A 
ATOM     46  C   UNL     1      -1.790 -15.695   3.415  1.00  0.00     0.029 A 
ATOM     47  N   UNL     1      -1.572 -13.748   4.467  1.00  0.00    -0.354 N 
ATOM     48  N   UNL     1      -2.090 -11.807   6.608  1.00  0.00    -0.248 NA
ATOM     49  C   UNL     1      -3.196 -11.210   8.576  1.00  0.00     0.031 C 
ATOM     50  C   UNL     1      -2.602 -15.715   4.554  1.00  0.00     0.029 A 
ATOM     51  C   UNL     1      -2.444 -14.512   5.224  1.00  0.00     0.049 A 
ATOM     52  H   UNL     1      -1.286 -12.832   4.688  1.00  0.00     0.167 HD
ATOM     53  C   UNL     1      -2.868 -12.878   7.038  1.00  0.00     0.074 A 
ATOM     54  C   UNL     1      -3.503 -12.464   8.271  1.00  0.00     0.031 C 
ATOM     55  C   UNL     1      -3.042 -14.095   6.466  1.00  0.00     0.037 A 
BRANCH  42  56
ATOM     56  C   UNL     1       0.130 -14.891   1.226  1.00  0.00     0.058 A 
ATOM     57  C   UNL     1       1.400 -15.486   1.162  1.00  0.00     0.135 A 
ATOM     58  C   UNL     1      -0.801 -15.225   0.229  1.00  0.00     0.135 A 
ATOM     59  F   UNL     1       2.334 -15.185   2.078  1.00  0.00    -0.206 F 
ATOM     60  C   UNL     1       1.738 -16.371   0.144  1.00  0.00     0.059 A 
ATOM     61  C   UNL     1      -0.492 -16.126  -0.786  1.00  0.00     0.059 A 
ATOM     62  F   UNL     1      -2.027 -14.679   0.241  1.00  0.00    -0.206 F 
ATOM     63  C   UNL     1       0.783 -16.688  -0.824  1.00  0.00     0.060 A 
BRANCH  63  64
ATOM     64  S   UNL     1       1.228 -17.862  -2.122  1.00  0.00     0.124 S 
ATOM     65  O   UNL     1       2.134 -17.062  -2.940  1.00  0.00    -0.237 OA
ATOM     66  O   UNL     1       1.847 -18.945  -1.364  1.00  0.00    -0.237 OA
ATOM     67  O   UNL     1      -0.054 -18.187  -2.740  1.00  0.00    -0.744 OA
ENDBRANCH  63  64
ENDBRANCH  42  56
BRANCH  43  68
ATOM     68  C   UNL     1      -1.985  -8.546   8.654  1.00  0.00     0.058 A 
ATOM     69  C   UNL     1      -1.624  -8.793   9.986  1.00  0.00     0.135 A 
ATOM     70  C   UNL     1      -2.740  -7.393   8.385  1.00  0.00     0.135 A 
ATOM     71  F   UNL     1      -0.909  -9.886  10.295  1.00  0.00    -0.206 F 
ATOM     72  C   UNL     1      -2.028  -7.954  11.020  1.00  0.00     0.059 A 
ATOM     73  C   UNL     1      -3.132  -6.523   9.397  1.00  0.00     0.059 A 
ATOM     74  F   UNL     1      -3.099  -7.101   7.125  1.00  0.00    -0.206 F 
ATOM     75  C   UNL     1      -2.788  -6.823  10.715  1.00  0.00     0.060 A 
BRANCH  75  76
ATOM     76  S   UNL     1      -3.306  -5.733  12.059  1.00  0.00     0.124 S 
ATOM     77  O   UNL     1      -4.390  -6.502  12.657  1.00  0.00    -0.237 OA
ATOM     78  O   UNL     1      -2.087  -5.622  12.853  1.00  0.00    -0.237 OA
ATOM     79  O   UNL     1      -3.704  -4.513  11.364  1.00  0.00    -0.744 OA
ENDBRANCH  75  76
ENDBRANCH  43  68
BRANCH  55  80
ATOM     80  C   UNL     1      -3.899 -15.092   7.196  1.00  0.00     0.058 A 
ATOM     81  C   UNL     1      -5.296 -14.970   7.253  1.00  0.00     0.135 A 
ATOM     82  C   UNL     1      -3.312 -16.212   7.808  1.00  0.00     0.135 A 
ATOM     83  F   UNL     1      -5.906 -13.918   6.687  1.00  0.00    -0.206 F 
ATOM     84  C   UNL     1      -6.079 -15.910   7.916  1.00  0.00     0.059 A 
ATOM     85  C   UNL     1      -4.078 -17.177   8.453  1.00  0.00     0.059 A 
ATOM     86  F   UNL     1      -1.981 -16.382   7.771  1.00  0.00    -0.206 F 
ATOM     87  C   UNL     1      -5.461 -17.010   8.514  1.00  0.00     0.060 A 
BRANCH  87  88
ATOM     88  S   UNL     1      -6.489 -18.236   9.351  1.00  0.00     0.124 S 
ATOM     89  O   UNL     1      -6.828 -17.540  10.588  1.00  0.00    -0.237 OA
ATOM     90  O   UNL     1      -7.587 -18.422   8.407  1.00  0.00    -0.237 OA
ATOM     91  O   UNL     1      -5.598 -19.383   9.499  1.00  0.00    -0.744 OA
ENDBRANCH  87  88
ENDBRANCH  55  80
ENDBRANCH  29  30
ENDBRANCH  22  24
ENDBRANCH  21  22
ENDBRANCH  20  21
ENDBRANCH   1  20
TORSDOF 19
