REMARK SMILES CN(CC(=O)N1C[C@@H](O)C[C@H]1C(=O)OCCOCCOC(=O)c1ccc(-c2c3nc(c(-c4c(F)cc(S(=O)(=O)[O-])cc4F)c4ccc([nH]4)c(-c4c(F)cc(S(=O)(=O)[O-])cc4F)c4nc(c(-c5c(F)cc(S(=O)(=O)[O-])cc5F)c5ccc2[nH]5)C=C4)C=C3)cc1)C(=O)c1cccs1
REMARK SMILES IDX 16 1 15 2 14 3 12 4 13 5 11 6 6 7 7 8 8 9 10 10 4 11 5 12
REMARK SMILES IDX 3 13 2 14 1 15 89 16 90 17 91 18 92 19 95 20 93 21 94 22
REMARK SMILES IDX 9 23 17 25 18 26 19 27 20 28 21 29 22 30 23 31 24 32 88 33
REMARK SMILES IDX 25 34 87 35 26 36 27 37 28 38 81 39 29 40 86 41 80 42 82 43
REMARK SMILES IDX 30 44 85 45 79 46 78 47 31 49 65 50 44 51 64 52 45 53 48 54
REMARK SMILES IDX 63 55 83 56 46 57 47 58 62 60 84 61 49 62 32 63 33 64 42 65
REMARK SMILES IDX 34 66 35 67 41 68 43 69 36 70 37 71 38 72 39 73 40 74 66 75
REMARK SMILES IDX 67 76 76 77 68 78 69 79 75 80 77 81 70 82 71 83 72 84 73 85
REMARK SMILES IDX 74 86 50 87 51 88 60 89 52 90 53 91 59 92 61 93 54 94 55 95
REMARK SMILES IDX 56 96 57 97 58 98
REMARK H PARENT 9 24 82 48 48 59
REMARK Flexibility Score: inf
ROOT
ATOM      1  C   UNL     1      -5.956   4.124  -2.928  1.00  0.00     0.202 C 
ENDROOT
BRANCH   1   2
ATOM      2  C   UNL     1      -5.880   3.555  -1.504  1.00  0.00     0.261 C 
BRANCH   2   3
ATOM      3  O   UNL     1      -4.770   2.673  -1.240  1.00  0.00    -0.462 OA
BRANCH   3   4
ATOM      4  C   UNL     1      -5.113   1.363  -1.079  1.00  0.00     0.329 C 
ATOM      5  O   UNL     1      -6.255   0.922  -1.194  1.00  0.00    -0.250 OA
BRANCH   4   6
ATOM      6  C   UNL     1      -3.978   0.483  -0.540  1.00  0.00     0.197 C 
ATOM      7  N   UNL     1      -2.557   0.889  -0.624  1.00  0.00    -0.325 N 
ATOM      8  C   UNL     1      -2.067   1.209   0.702  1.00  0.00     0.152 C 
ATOM      9  C   UNL     1      -2.874   0.282   1.603  1.00  0.00     0.136 C 
ATOM     10  C   UNL     1      -4.254   0.328   0.968  1.00  0.00     0.070 C 
BRANCH   7  11
ATOM     11  C   UNL     1      -1.864   0.654  -1.791  1.00  0.00     0.243 C 
ATOM     12  O   UNL     1      -2.504   0.412  -2.826  1.00  0.00    -0.273 OA
BRANCH  11  13
ATOM     13  C   UNL     1      -0.323   0.448  -1.853  1.00  0.00     0.219 C 
BRANCH  13  14
ATOM     14  N   UNL     1       0.604   0.952  -0.843  1.00  0.00    -0.332 N 
ATOM     15  C   UNL     1       1.087  -0.019   0.135  1.00  0.00     0.147 C 
BRANCH  14  16
ATOM     16  C   UNL     1       1.307   2.171  -0.897  1.00  0.00     0.264 C 
ATOM     17  O   UNL     1       2.098   2.441   0.010  1.00  0.00    -0.268 OA
BRANCH  16  18
ATOM     18  C   UNL     1       1.149   3.051  -2.049  1.00  0.00     0.092 A 
ATOM     19  C   UNL     1       0.043   3.413  -2.792  1.00  0.00     0.025 A 
ATOM     20  S   UNL     1       2.560   3.847  -2.640  1.00  0.00    -0.139 S 
ATOM     21  C   UNL     1       0.370   4.258  -3.895  1.00  0.00     0.012 A 
ATOM     22  C   UNL     1       1.704   4.586  -3.917  1.00  0.00     0.065 A 
ENDBRANCH  16  18
ENDBRANCH  14  16
ENDBRANCH  13  14
ENDBRANCH  11  13
ENDBRANCH   7  11
BRANCH   9  23
ATOM     23  O   UNL     1      -2.899   0.683   2.957  1.00  0.00    -0.391 OA
ATOM     24  H   UNL     1      -3.270   1.577   3.023  1.00  0.00     0.211 HD
ENDBRANCH   9  23
ENDBRANCH   4   6
ENDBRANCH   3   4
ENDBRANCH   2   3
ENDBRANCH   1   2
BRANCH   1  25
ATOM     25  O   UNL     1      -5.859   3.215  -4.017  1.00  0.00    -0.374 OA
BRANCH  25  26
ATOM     26  C   UNL     1      -4.615   2.546  -4.213  1.00  0.00     0.202 C 
BRANCH  26  27
ATOM     27  C   UNL     1      -3.387   3.414  -4.505  1.00  0.00     0.261 C 
BRANCH  27  28
ATOM     28  O   UNL     1      -3.102   4.373  -3.465  1.00  0.00    -0.460 OA
BRANCH  28  29
ATOM     29  C   UNL     1      -2.879   5.630  -3.923  1.00  0.00     0.338 C 
ATOM     30  O   UNL     1      -2.794   5.972  -5.096  1.00  0.00    -0.246 OA
BRANCH  29  31
ATOM     31  C   UNL     1      -2.842   6.625  -2.836  1.00  0.00     0.060 A 
ATOM     32  C   UNL     1      -3.748   7.688  -2.919  1.00  0.00     0.016 A 
ATOM     33  C   UNL     1      -1.827   6.637  -1.876  1.00  0.00     0.016 A 
ATOM     34  C   UNL     1      -3.592   8.801  -2.096  1.00  0.00     0.010 A 
ATOM     35  C   UNL     1      -1.670   7.759  -1.050  1.00  0.00     0.010 A 
ATOM     36  C   UNL     1      -2.521   8.867  -1.193  1.00  0.00    -0.014 A 
BRANCH  36  37
ATOM     37  C   UNL     1      -2.242  10.159  -0.516  1.00  0.00     0.031 A 
ATOM     38  C   UNL     1      -1.211  11.093  -1.092  1.00  0.00     0.074 A 
ATOM     39  C   UNL     1      -2.967  10.532   0.554  1.00  0.00     0.049 A 
ATOM     40  N   UNL     1      -0.927  12.324  -0.750  1.00  0.00    -0.248 NA
ATOM     41  C   UNL     1      -0.394  10.575  -2.202  1.00  0.00     0.031 C 
ATOM     42  C   UNL     1      -3.989   9.715   1.206  1.00  0.00     0.029 A 
ATOM     43  N   UNL     1      -2.963  11.703   1.268  1.00  0.00    -0.354 N 
ATOM     44  C   UNL     1       0.086  12.735  -1.609  1.00  0.00     0.074 A 
ATOM     45  C   UNL     1       0.398  11.607  -2.461  1.00  0.00     0.031 C 
ATOM     46  C   UNL     1      -4.522  10.415   2.222  1.00  0.00     0.029 A 
ATOM     47  C   UNL     1      -3.881  11.726   2.291  1.00  0.00     0.049 A 
ATOM     48  H   UNL     1      -2.361  12.455   1.068  1.00  0.00     0.167 HD
ATOM     49  C   UNL     1       0.690  13.945  -1.693  1.00  0.00     0.037 A 
ATOM     50  C   UNL     1      -4.178  12.700   3.173  1.00  0.00     0.037 A 
ATOM     51  C   UNL     1       0.383  15.066  -0.842  1.00  0.00     0.049 A 
ATOM     52  C   UNL     1      -3.486  14.032   3.070  1.00  0.00     0.074 A 
ATOM     53  C   UNL     1       0.919  16.342  -0.869  1.00  0.00     0.029 A 
ATOM     54  N   UNL     1      -0.536  15.042   0.195  1.00  0.00    -0.354 N 
ATOM     55  N   UNL     1      -2.576  14.423   2.210  1.00  0.00    -0.248 NA
ATOM     56  C   UNL     1      -3.874  15.059   4.047  1.00  0.00     0.031 C 
ATOM     57  C   UNL     1       0.346  17.080   0.174  1.00  0.00     0.029 A 
ATOM     58  C   UNL     1      -0.571  16.274   0.828  1.00  0.00     0.049 A 
ATOM     59  H   UNL     1      -1.085  14.263   0.446  1.00  0.00     0.167 HD
ATOM     60  C   UNL     1      -2.296  15.748   2.531  1.00  0.00     0.074 A 
ATOM     61  C   UNL     1      -3.144  16.094   3.653  1.00  0.00     0.031 C 
ATOM     62  C   UNL     1      -1.416  16.600   1.948  1.00  0.00     0.037 A 
BRANCH  49  63
ATOM     63  C   UNL     1       1.749  14.120  -2.745  1.00  0.00     0.058 A 
ATOM     64  C   UNL     1       1.417  14.247  -4.104  1.00  0.00     0.135 A 
ATOM     65  C   UNL     1       3.105  14.196  -2.392  1.00  0.00     0.135 A 
ATOM     66  F   UNL     1       0.135  14.168  -4.496  1.00  0.00    -0.206 F 
ATOM     67  C   UNL     1       2.395  14.419  -5.078  1.00  0.00     0.059 A 
ATOM     68  C   UNL     1       4.099  14.387  -3.349  1.00  0.00     0.059 A 
ATOM     69  F   UNL     1       3.476  14.080  -1.108  1.00  0.00    -0.206 F 
ATOM     70  C   UNL     1       3.734  14.484  -4.691  1.00  0.00     0.060 A 
BRANCH  70  71
ATOM     71  S   UNL     1       4.994  14.708  -5.965  1.00  0.00     0.124 S 
ATOM     72  O   UNL     1       5.057  13.371  -6.549  1.00  0.00    -0.237 OA
ATOM     73  O   UNL     1       4.406  15.741  -6.812  1.00  0.00    -0.237 OA
ATOM     74  O   UNL     1       6.173  15.119  -5.209  1.00  0.00    -0.744 OA
ENDBRANCH  70  71
ENDBRANCH  49  63
BRANCH  50  75
ATOM     75  C   UNL     1      -5.204  12.455   4.220  1.00  0.00     0.058 A 
ATOM     76  C   UNL     1      -6.469  13.054   4.150  1.00  0.00     0.135 A 
ATOM     77  C   UNL     1      -4.937  11.604   5.303  1.00  0.00     0.135 A 
ATOM     78  F   UNL     1      -6.766  13.880   3.136  1.00  0.00    -0.206 F 
ATOM     79  C   UNL     1      -7.436  12.826   5.125  1.00  0.00     0.059 A 
ATOM     80  C   UNL     1      -5.893  11.346   6.279  1.00  0.00     0.059 A 
ATOM     81  F   UNL     1      -3.744  10.998   5.404  1.00  0.00    -0.206 F 
ATOM     82  C   UNL     1      -7.138  11.968   6.185  1.00  0.00     0.060 A 
BRANCH  82  83
ATOM     83  S   UNL     1      -8.416  11.625   7.414  1.00  0.00     0.124 S 
ATOM     84  O   UNL     1      -8.365  12.829   8.234  1.00  0.00    -0.237 OA
ATOM     85  O   UNL     1      -9.607  11.465   6.586  1.00  0.00    -0.237 OA
ATOM     86  O   UNL     1      -7.941  10.402   8.054  1.00  0.00    -0.744 OA
ENDBRANCH  82  83
ENDBRANCH  50  75
BRANCH  62  87
ATOM     87  C   UNL     1      -1.339  17.992   2.509  1.00  0.00     0.058 A 
ATOM     88  C   UNL     1      -0.701  18.255   3.731  1.00  0.00     0.135 A 
ATOM     89  C   UNL     1      -1.885  19.078   1.806  1.00  0.00     0.135 A 
ATOM     90  F   UNL     1      -0.167  17.251   4.444  1.00  0.00    -0.206 F 
ATOM     91  C   UNL     1      -0.635  19.543   4.253  1.00  0.00     0.059 A 
ATOM     92  C   UNL     1      -1.812  20.377   2.299  1.00  0.00     0.059 A 
ATOM     93  F   UNL     1      -2.496  18.881   0.626  1.00  0.00    -0.206 F 
ATOM     94  C   UNL     1      -1.199  20.597   3.532  1.00  0.00     0.060 A 
BRANCH  94  95
ATOM     95  S   UNL     1      -1.102  22.267   4.211  1.00  0.00     0.124 S 
ATOM     96  O   UNL     1      -2.178  22.245   5.196  1.00  0.00    -0.237 OA
ATOM     97  O   UNL     1       0.253  22.312   4.753  1.00  0.00    -0.237 OA
ATOM     98  O   UNL     1      -1.331  23.118   3.047  1.00  0.00    -0.744 OA
ENDBRANCH  94  95
ENDBRANCH  62  87
ENDBRANCH  36  37
ENDBRANCH  29  31
ENDBRANCH  28  29
ENDBRANCH  27  28
ENDBRANCH  26  27
ENDBRANCH  25  26
ENDBRANCH   1  25
TORSDOF 23
