REMARK SMILES Cc1cccc(-c2cc(C(=O)OCCOCCOC(=O)c3ccc(-c4c5nc(c(-c6c(F)cc(S(=O)(=O)[O-])cc6F)c6ccc([nH]6)c(-c6c(F)cc(S(=O)(=O)[O-])cc6F)c6nc(c(-c7c(F)cc(S(=O)(=O)[O-])cc7F)c7ccc4[nH]7)C=C6)C=C5)cc3)ccn2)c1
REMARK SMILES IDX 16 1 15 2 14 3 13 4 12 5 10 6 11 7 9 8 7 9 8 10 89 11 88 12
REMARK SMILES IDX 87 13 6 14 1 15 2 16 3 17 90 18 4 19 5 20 17 21 18 22 19 23
REMARK SMILES IDX 20 24 21 25 22 26 86 27 23 28 85 29 24 30 25 31 26 32 79 33
REMARK SMILES IDX 27 34 84 35 78 36 80 37 28 38 83 39 77 40 76 41 29 43 63 44
REMARK SMILES IDX 42 45 62 46 43 47 46 48 61 49 81 50 44 51 45 52 60 54 82 55
REMARK SMILES IDX 47 56 30 57 31 58 40 59 32 60 33 61 39 62 41 63 34 64 35 65
REMARK SMILES IDX 36 66 37 67 38 68 64 69 65 70 74 71 66 72 67 73 73 74 75 75
REMARK SMILES IDX 68 76 69 77 70 78 71 79 72 80 48 81 49 82 58 83 50 84 51 85
REMARK SMILES IDX 57 86 59 87 52 88 53 89 54 90 55 91 56 92
REMARK H PARENT 80 42 46 53
REMARK Flexibility Score: inf
ROOT
ATOM      1  C   UNL     1      -5.130   5.168  -3.736  1.00  0.00     0.202 C 
ENDROOT
BRANCH   1   2
ATOM      2  O   UNL     1      -3.736   5.329  -3.724  1.00  0.00    -0.374 OA
BRANCH   2   3
ATOM      3  C   UNL     1      -2.974   4.272  -4.279  1.00  0.00     0.202 C 
BRANCH   3   4
ATOM      4  C   UNL     1      -1.585   4.507  -3.785  1.00  0.00     0.261 C 
BRANCH   4   5
ATOM      5  O   UNL     1      -1.496   4.423  -2.342  1.00  0.00    -0.460 OA
BRANCH   5   6
ATOM      6  C   UNL     1      -2.167   5.165  -1.421  1.00  0.00     0.338 C 
ATOM      7  O   UNL     1      -2.663   6.263  -1.498  1.00  0.00    -0.246 OA
BRANCH   6   8
ATOM      8  C   UNL     1      -2.308   4.273  -0.248  1.00  0.00     0.063 A 
ATOM      9  C   UNL     1      -1.884   2.126   0.723  1.00  0.00     0.071 A 
ATOM     10  C   UNL     1      -1.585   3.090  -0.218  1.00  0.00     0.044 A 
ATOM     11  N   UNL     1      -2.847   2.306   1.654  1.00  0.00    -0.256 NA
ATOM     12  C   UNL     1      -3.481   3.511   1.656  1.00  0.00     0.112 A 
ATOM     13  C   UNL     1      -3.251   4.523   0.737  1.00  0.00     0.036 A 
BRANCH   9  14
ATOM     14  C   UNL     1      -1.160   0.857   0.637  1.00  0.00     0.000 A 
ATOM     15  C   UNL     1       2.462  -0.182   0.022  1.00  0.00     0.044 C 
ATOM     16  C   UNL     1       0.976  -0.268   0.201  1.00  0.00    -0.050 A 
ATOM     17  C   UNL     1       0.292  -1.475   0.043  1.00  0.00     0.003 A 
ATOM     18  C   UNL     1       0.245   0.877   0.519  1.00  0.00     0.013 A 
ATOM     19  C   UNL     1      -1.099  -1.523   0.177  1.00  0.00     0.001 A 
ATOM     20  C   UNL     1      -1.823  -0.363   0.469  1.00  0.00     0.010 A 
ENDBRANCH   9  14
ENDBRANCH   6   8
ENDBRANCH   5   6
ENDBRANCH   4   5
ENDBRANCH   3   4
ENDBRANCH   2   3
ENDBRANCH   1   2
BRANCH   1  21
ATOM     21  C   UNL     1      -5.665   5.108  -5.164  1.00  0.00     0.261 C 
BRANCH  21  22
ATOM     22  O   UNL     1      -5.510   6.383  -5.830  1.00  0.00    -0.460 OA
BRANCH  22  23
ATOM     23  C   UNL     1      -4.413   6.508  -6.638  1.00  0.00     0.338 C 
ATOM     24  O   UNL     1      -4.327   6.002  -7.744  1.00  0.00    -0.246 OA
BRANCH  23  25
ATOM     25  C   UNL     1      -3.355   7.325  -5.971  1.00  0.00     0.060 A 
ATOM     26  C   UNL     1      -2.006   7.250  -6.369  1.00  0.00     0.016 A 
ATOM     27  C   UNL     1      -3.689   7.973  -4.789  1.00  0.00     0.016 A 
ATOM     28  C   UNL     1      -0.982   7.684  -5.503  1.00  0.00     0.010 A 
ATOM     29  C   UNL     1      -2.685   8.268  -3.896  1.00  0.00     0.010 A 
ATOM     30  C   UNL     1      -1.325   8.116  -4.227  1.00  0.00    -0.014 A 
BRANCH  30  31
ATOM     31  C   UNL     1      -0.431   8.448  -3.108  1.00  0.00     0.031 A 
ATOM     32  C   UNL     1      -0.567   9.820  -2.556  1.00  0.00     0.074 A 
ATOM     33  C   UNL     1       0.136   7.471  -2.356  1.00  0.00     0.049 A 
ATOM     34  N   UNL     1       0.016  10.238  -1.493  1.00  0.00    -0.248 NA
ATOM     35  C   UNL     1      -1.394  10.858  -3.172  1.00  0.00     0.031 C 
ATOM     36  C   UNL     1       0.387   7.471  -0.912  1.00  0.00     0.029 A 
ATOM     37  N   UNL     1       0.608   6.214  -2.738  1.00  0.00    -0.354 N 
ATOM     38  C   UNL     1      -0.588  11.410  -1.097  1.00  0.00     0.074 A 
ATOM     39  C   UNL     1      -1.389  11.801  -2.226  1.00  0.00     0.031 C 
ATOM     40  C   UNL     1       1.183   6.438  -0.584  1.00  0.00     0.029 A 
ATOM     41  C   UNL     1       1.589   5.803  -1.825  1.00  0.00     0.049 A 
ATOM     42  H   UNL     1       0.302   5.701  -3.521  1.00  0.00     0.167 HD
ATOM     43  C   UNL     1      -0.396  11.804   0.196  1.00  0.00     0.037 A 
ATOM     44  C   UNL     1       2.856   5.554  -2.254  1.00  0.00     0.037 A 
ATOM     45  C   UNL     1       0.654  10.966   0.806  1.00  0.00     0.049 A 
ATOM     46  C   UNL     1       3.744   6.610  -1.659  1.00  0.00     0.074 A 
ATOM     47  C   UNL     1       0.640   9.925   1.720  1.00  0.00     0.029 A 
ATOM     48  N   UNL     1       1.912  10.930   0.200  1.00  0.00    -0.354 N 
ATOM     49  N   UNL     1       3.290   7.780  -1.292  1.00  0.00    -0.248 NA
ATOM     50  C   UNL     1       5.133   6.398  -1.267  1.00  0.00     0.031 C 
ATOM     51  C   UNL     1       1.868   9.209   1.581  1.00  0.00     0.029 A 
ATOM     52  C   UNL     1       2.637   9.824   0.602  1.00  0.00     0.049 A 
ATOM     53  H   UNL     1       2.241  11.608  -0.434  1.00  0.00     0.167 HD
ATOM     54  C   UNL     1       4.230   8.416  -0.544  1.00  0.00     0.074 A 
ATOM     55  C   UNL     1       5.387   7.537  -0.597  1.00  0.00     0.031 C 
ATOM     56  C   UNL     1       3.991   9.594   0.102  1.00  0.00     0.037 A 
BRANCH  43  57
ATOM     57  C   UNL     1      -1.238  12.805   0.981  1.00  0.00     0.058 A 
ATOM     58  C   UNL     1      -1.054  12.943   2.378  1.00  0.00     0.135 A 
ATOM     59  C   UNL     1      -2.276  13.613   0.464  1.00  0.00     0.135 A 
ATOM     60  F   UNL     1      -0.112  12.249   3.031  1.00  0.00    -0.206 F 
ATOM     61  C   UNL     1      -1.835  13.785   3.181  1.00  0.00     0.059 A 
ATOM     62  C   UNL     1      -3.064  14.466   1.245  1.00  0.00     0.059 A 
ATOM     63  F   UNL     1      -2.600  13.630  -0.828  1.00  0.00    -0.206 F 
ATOM     64  C   UNL     1      -2.841  14.546   2.607  1.00  0.00     0.060 A 
BRANCH  64  65
ATOM     65  S   UNL     1      -3.831  15.635   3.645  1.00  0.00     0.124 S 
ATOM     66  O   UNL     1      -4.471  14.690   4.556  1.00  0.00    -0.237 OA
ATOM     67  O   UNL     1      -2.817  16.502   4.235  1.00  0.00    -0.237 OA
ATOM     68  O   UNL     1      -4.731  16.288   2.697  1.00  0.00    -0.744 OA
ENDBRANCH  64  65
ENDBRANCH  43  57
BRANCH  44  69
ATOM     69  C   UNL     1       2.861   4.912  -3.611  1.00  0.00     0.058 A 
ATOM     70  C   UNL     1       2.446   3.559  -3.663  1.00  0.00     0.135 A 
ATOM     71  C   UNL     1       2.688   5.666  -4.784  1.00  0.00     0.135 A 
ATOM     72  F   UNL     1       2.575   2.780  -2.575  1.00  0.00    -0.206 F 
ATOM     73  C   UNL     1       1.743   3.032  -4.751  1.00  0.00     0.059 A 
ATOM     74  C   UNL     1       1.967   5.161  -5.878  1.00  0.00     0.059 A 
ATOM     75  F   UNL     1       3.056   6.955  -4.815  1.00  0.00    -0.206 F 
ATOM     76  C   UNL     1       1.449   3.863  -5.830  1.00  0.00     0.060 A 
BRANCH  76  77
ATOM     77  S   UNL     1       0.178   3.336  -7.025  1.00  0.00     0.124 S 
ATOM     78  O   UNL     1       0.946   2.502  -7.939  1.00  0.00    -0.237 OA
ATOM     79  O   UNL     1      -0.785   2.625  -6.186  1.00  0.00    -0.237 OA
ATOM     80  O   UNL     1      -0.307   4.602  -7.562  1.00  0.00    -0.744 OA
ENDBRANCH  76  77
ENDBRANCH  44  69
BRANCH  56  81
ATOM     81  C   UNL     1       5.079  10.592   0.383  1.00  0.00     0.058 A 
ATOM     82  C   UNL     1       6.298  10.609  -0.318  1.00  0.00     0.135 A 
ATOM     83  C   UNL     1       4.856  11.685   1.253  1.00  0.00     0.135 A 
ATOM     84  F   UNL     1       6.574   9.722  -1.285  1.00  0.00    -0.206 F 
ATOM     85  C   UNL     1       7.276  11.566  -0.084  1.00  0.00     0.059 A 
ATOM     86  C   UNL     1       5.788  12.697   1.440  1.00  0.00     0.059 A 
ATOM     87  F   UNL     1       3.714  11.825   1.940  1.00  0.00    -0.206 F 
ATOM     88  C   UNL     1       7.016  12.601   0.804  1.00  0.00     0.060 A 
BRANCH  88  89
ATOM     89  S   UNL     1       8.292  13.823   1.109  1.00  0.00     0.124 S 
ATOM     90  O   UNL     1       9.127  13.123   2.080  1.00  0.00    -0.237 OA
ATOM     91  O   UNL     1       8.881  14.004  -0.215  1.00  0.00    -0.237 OA
ATOM     92  O   UNL     1       7.549  14.969   1.620  1.00  0.00    -0.744 OA
ENDBRANCH  88  89
ENDBRANCH  56  81
ENDBRANCH  30  31
ENDBRANCH  23  25
ENDBRANCH  22  23
ENDBRANCH  21  22
ENDBRANCH   1  21
TORSDOF 18
