REMARK SMILES CC[C@@H]1CCC[C@@](Cc2cccc(O)c2)(C(=O)OCCOCCOC(=O)c2ccc(-c3c4nc(c(-c5c(F)cc(S(=O)(=O)[O-])cc5F)c5ccc([nH]5)c(-c5c(F)cc(S(=O)(=O)[O-])cc5F)c5nc(c(-c6c(F)cc(S(=O)(=O)[O-])cc6F)c6ccc3[nH]6)C=C5)C=C4)cc2)C1
REMARK SMILES IDX 21 1 20 2 19 3 18 4 16 5 17 6 7 7 3 8 4 9 93 10 5 11 6 12
REMARK SMILES IDX 2 13 1 14 8 15 9 16 10 17 15 18 11 19 13 20 12 21 14 22
REMARK SMILES IDX 22 24 23 25 24 26 25 27 26 28 27 29 28 30 92 31 29 32 91 33
REMARK SMILES IDX 30 34 31 35 32 36 85 37 33 38 90 39 84 40 86 41 34 42 89 43
REMARK SMILES IDX 83 44 82 45 35 47 69 48 48 49 68 50 49 51 52 52 67 53 87 54
REMARK SMILES IDX 50 55 51 56 66 58 88 59 53 60 36 61 37 62 46 63 38 64 39 65
REMARK SMILES IDX 45 66 47 67 40 68 41 69 42 70 43 71 44 72 70 73 71 74 80 75
REMARK SMILES IDX 72 76 73 77 79 78 81 79 74 80 75 81 76 82 77 83 78 84 54 85
REMARK SMILES IDX 55 86 64 87 56 88 57 89 63 90 65 91 58 92 59 93 60 94 61 95
REMARK SMILES IDX 62 96
REMARK H PARENT 14 23 86 46 52 57
REMARK Flexibility Score: inf
ROOT
ATOM      1  O   UNL     1      -1.601   1.290  -5.828  1.00  0.00    -0.374 OA
ENDROOT
BRANCH   1   2
ATOM      2  C   UNL     1      -0.974   2.022  -6.877  1.00  0.00     0.202 C 
BRANCH   2   3
ATOM      3  C   UNL     1      -0.067   3.188  -6.473  1.00  0.00     0.261 C 
BRANCH   3   4
ATOM      4  O   UNL     1       1.045   2.832  -5.627  1.00  0.00    -0.463 OA
BRANCH   4   5
ATOM      5  C   UNL     1       1.012   3.373  -4.378  1.00  0.00     0.312 C 
ATOM      6  O   UNL     1       0.038   3.965  -3.920  1.00  0.00    -0.252 OA
BRANCH   5   7
ATOM      7  C   UNL     1       2.337   3.270  -3.606  1.00  0.00     0.072 C 
ATOM      8  C   UNL     1       1.518   1.563  -1.831  1.00  0.00    -0.010 C 
ATOM      9  C   UNL     1       2.643   0.601  -2.219  1.00  0.00     0.003 C 
ATOM     10  C   UNL     1       1.973   3.012  -2.112  1.00  0.00     0.022 C 
ATOM     11  C   UNL     1       3.002   0.753  -3.691  1.00  0.00     0.001 C 
ATOM     12  C   UNL     1       3.337   2.188  -4.082  1.00  0.00     0.019 C 
BRANCH   8  13
ATOM     13  C   UNL     1       1.048   1.425  -0.370  1.00  0.00     0.000 C 
ATOM     14  C   UNL     1       0.838  -0.008   0.097  1.00  0.00     0.004 C 
ENDBRANCH   8  13
BRANCH   7  15
ATOM     15  C   UNL     1       2.989   4.691  -3.719  1.00  0.00     0.054 C 
BRANCH  15  16
ATOM     16  C   UNL     1       3.644   4.998  -5.052  1.00  0.00    -0.043 A 
ATOM     17  C   UNL     1       2.881   5.376  -6.166  1.00  0.00     0.004 A 
ATOM     18  C   UNL     1       5.032   4.859  -5.205  1.00  0.00     0.049 A 
ATOM     19  C   UNL     1       3.482   5.549  -7.416  1.00  0.00     0.004 A 
ATOM     20  C   UNL     1       5.623   5.051  -6.450  1.00  0.00     0.115 A 
ATOM     21  C   UNL     1       4.858   5.380  -7.562  1.00  0.00     0.046 A 
BRANCH  20  22
ATOM     22  O   UNL     1       6.975   4.893  -6.542  1.00  0.00    -0.508 OA
ATOM     23  H   UNL     1       7.407   5.014  -7.365  1.00  0.00     0.293 HD
ENDBRANCH  20  22
ENDBRANCH  15  16
ENDBRANCH   7  15
ENDBRANCH   5   7
ENDBRANCH   4   5
ENDBRANCH   3   4
ENDBRANCH   2   3
ENDBRANCH   1   2
BRANCH   1  24
ATOM     24  C   UNL     1      -0.763   0.462  -5.024  1.00  0.00     0.202 C 
BRANCH  24  25
ATOM     25  C   UNL     1      -0.103  -0.728  -5.729  1.00  0.00     0.261 C 
BRANCH  25  26
ATOM     26  O   UNL     1       0.859  -0.298  -6.712  1.00  0.00    -0.460 OA
BRANCH  26  27
ATOM     27  C   UNL     1       0.808  -0.997  -7.872  1.00  0.00     0.338 C 
ATOM     28  O   UNL     1       0.167  -2.011  -8.090  1.00  0.00    -0.246 OA
BRANCH  27  29
ATOM     29  C   UNL     1       1.520  -0.277  -8.943  1.00  0.00     0.060 A 
ATOM     30  C   UNL     1       0.751   0.301  -9.961  1.00  0.00     0.016 A 
ATOM     31  C   UNL     1       2.911  -0.320  -9.039  1.00  0.00     0.016 A 
ATOM     32  C   UNL     1       1.371   0.784 -11.113  1.00  0.00     0.010 A 
ATOM     33  C   UNL     1       3.531   0.159 -10.201  1.00  0.00     0.010 A 
ATOM     34  C   UNL     1       2.760   0.670 -11.262  1.00  0.00    -0.014 A 
BRANCH  34  35
ATOM     35  C   UNL     1       3.370   0.928 -12.591  1.00  0.00     0.031 A 
ATOM     36  C   UNL     1       3.627  -0.233 -13.517  1.00  0.00     0.074 A 
ATOM     37  C   UNL     1       3.643   2.182 -12.995  1.00  0.00     0.049 A 
ATOM     38  N   UNL     1       4.131  -0.234 -14.725  1.00  0.00    -0.248 NA
ATOM     39  C   UNL     1       3.263  -1.568 -13.017  1.00  0.00     0.031 C 
ATOM     40  C   UNL     1       3.404   3.393 -12.212  1.00  0.00     0.029 A 
ATOM     41  N   UNL     1       4.180   2.642 -14.172  1.00  0.00    -0.354 N 
ATOM     42  C   UNL     1       4.147  -1.565 -15.128  1.00  0.00     0.074 A 
ATOM     43  C   UNL     1       3.624  -2.346 -14.028  1.00  0.00     0.031 C 
ATOM     44  C   UNL     1       3.798   4.460 -12.929  1.00  0.00     0.029 A 
ATOM     45  C   UNL     1       4.338   4.006 -14.210  1.00  0.00     0.049 A 
ATOM     46  H   UNL     1       4.429   2.050 -14.918  1.00  0.00     0.167 HD
ATOM     47  C   UNL     1       4.551  -2.089 -16.310  1.00  0.00     0.037 A 
ATOM     48  C   UNL     1       4.870   4.796 -15.164  1.00  0.00     0.037 A 
ATOM     49  C   UNL     1       5.067  -1.315 -17.409  1.00  0.00     0.049 A 
ATOM     50  C   UNL     1       5.371   4.185 -16.447  1.00  0.00     0.074 A 
ATOM     51  C   UNL     1       5.480  -1.757 -18.654  1.00  0.00     0.029 A 
ATOM     52  N   UNL     1       5.250   0.059 -17.392  1.00  0.00    -0.354 N 
ATOM     53  N   UNL     1       5.354   2.928 -16.822  1.00  0.00    -0.248 NA
ATOM     54  C   UNL     1       5.963   5.099 -17.435  1.00  0.00     0.031 C 
ATOM     55  C   UNL     1       5.950  -0.654 -19.376  1.00  0.00     0.029 A 
ATOM     56  C   UNL     1       5.793   0.479 -18.595  1.00  0.00     0.049 A 
ATOM     57  H   UNL     1       5.026   0.649 -16.636  1.00  0.00     0.167 HD
ATOM     58  C   UNL     1       5.911   2.904 -18.098  1.00  0.00     0.074 A 
ATOM     59  C   UNL     1       6.248   4.272 -18.433  1.00  0.00     0.031 C 
ATOM     60  C   UNL     1       6.120   1.845 -18.918  1.00  0.00     0.037 A 
BRANCH  47  61
ATOM     61  C   UNL     1       4.472  -3.580 -16.471  1.00  0.00     0.058 A 
ATOM     62  C   UNL     1       3.248  -4.235 -16.677  1.00  0.00     0.135 A 
ATOM     63  C   UNL     1       5.639  -4.360 -16.453  1.00  0.00     0.135 A 
ATOM     64  F   UNL     1       2.101  -3.537 -16.687  1.00  0.00    -0.206 F 
ATOM     65  C   UNL     1       3.181  -5.615 -16.838  1.00  0.00     0.059 A 
ATOM     66  C   UNL     1       5.598  -5.739 -16.633  1.00  0.00     0.059 A 
ATOM     67  F   UNL     1       6.835  -3.782 -16.257  1.00  0.00    -0.206 F 
ATOM     68  C   UNL     1       4.362  -6.359 -16.811  1.00  0.00     0.060 A 
BRANCH  68  69
ATOM     69  S   UNL     1       4.264  -8.150 -17.024  1.00  0.00     0.124 S 
ATOM     70  O   UNL     1       3.765  -8.570 -15.718  1.00  0.00    -0.237 OA
ATOM     71  O   UNL     1       3.325  -8.284 -18.133  1.00  0.00    -0.237 OA
ATOM     72  O   UNL     1       5.640  -8.532 -17.324  1.00  0.00    -0.744 OA
ENDBRANCH  68  69
ENDBRANCH  47  61
BRANCH  48  73
ATOM     73  C   UNL     1       4.969   6.262 -14.938  1.00  0.00     0.058 A 
ATOM     74  C   UNL     1       4.159   7.162 -15.645  1.00  0.00     0.135 A 
ATOM     75  C   UNL     1       5.880   6.788 -14.010  1.00  0.00     0.135 A 
ATOM     76  F   UNL     1       3.281   6.705 -16.551  1.00  0.00    -0.206 F 
ATOM     77  C   UNL     1       4.253   8.535 -15.446  1.00  0.00     0.059 A 
ATOM     78  C   UNL     1       5.979   8.156 -13.779  1.00  0.00     0.059 A 
ATOM     79  F   UNL     1       6.670   5.967 -13.301  1.00  0.00    -0.206 F 
ATOM     80  C   UNL     1       5.166   9.023 -14.509  1.00  0.00     0.060 A 
BRANCH  80  81
ATOM     81  S   UNL     1       5.245  10.802 -14.212  1.00  0.00     0.124 S 
ATOM     82  O   UNL     1       5.990  11.261 -15.379  1.00  0.00    -0.237 OA
ATOM     83  O   UNL     1       3.833  11.170 -14.169  1.00  0.00    -0.237 OA
ATOM     84  O   UNL     1       5.947  10.894 -12.935  1.00  0.00    -0.744 OA
ENDBRANCH  80  81
ENDBRANCH  48  73
BRANCH  60  85
ATOM     85  C   UNL     1       6.721   2.119 -20.268  1.00  0.00     0.058 A 
ATOM     86  C   UNL     1       8.085   2.407 -20.421  1.00  0.00     0.135 A 
ATOM     87  C   UNL     1       5.933   2.035 -21.428  1.00  0.00     0.135 A 
ATOM     88  F   UNL     1       8.880   2.504 -19.343  1.00  0.00    -0.206 F 
ATOM     89  C   UNL     1       8.646   2.618 -21.677  1.00  0.00     0.059 A 
ATOM     90  C   UNL     1       6.478   2.222 -22.695  1.00  0.00     0.059 A 
ATOM     91  F   UNL     1       4.624   1.752 -21.337  1.00  0.00    -0.206 F 
ATOM     92  C   UNL     1       7.834   2.523 -22.808  1.00  0.00     0.060 A 
BRANCH  92  93
ATOM     93  S   UNL     1       8.579   2.762 -24.436  1.00  0.00     0.124 S 
ATOM     94  O   UNL     1       8.711   4.214 -24.488  1.00  0.00    -0.237 OA
ATOM     95  O   UNL     1       9.829   2.016 -24.324  1.00  0.00    -0.237 OA
ATOM     96  O   UNL     1       7.594   2.187 -25.347  1.00  0.00    -0.744 OA
ENDBRANCH  92  93
ENDBRANCH  60  85
ENDBRANCH  34  35
ENDBRANCH  27  29
ENDBRANCH  26  27
ENDBRANCH  25  26
ENDBRANCH  24  25
ENDBRANCH   1  24
TORSDOF 21
