REMARK SMILES CC[NH+]1CCC2(CC1)OC[C@@H](C(=O)OCCOCCOC(=O)c1ccc(-c3c4nc(c(-c5c(F)cc(S(=O)(=O)[O-])cc5F)c5ccc([nH]5)c(-c5c(F)cc(S(=O)(=O)[O-])cc5F)c5nc(c(-c6c(F)cc(S(=O)(=O)[O-])cc6F)c6ccc3[nH]6)C=C5)C=C4)cc1)N2C(=O)c1ccc(Cl)c([N+](=O)[O-])c1
REMARK SMILES IDX 17 1 16 2 15 3 14 4 12 5 13 6 11 7 3 8 4 9 8 10 5 12 7 13
REMARK SMILES IDX 6 14 9 15 89 16 10 17 2 18 1 19 90 20 91 21 92 22 93 23
REMARK SMILES IDX 101 24 94 25 97 26 95 27 96 28 98 29 99 30 100 31 18 32
REMARK SMILES IDX 19 33 20 34 21 35 22 36 23 37 24 38 88 39 25 40 87 41 26 42
REMARK SMILES IDX 27 43 28 44 81 45 29 46 86 47 80 48 82 49 30 50 85 51 79 52
REMARK SMILES IDX 78 53 31 55 65 56 44 57 64 58 45 59 48 60 63 61 83 62 46 63
REMARK SMILES IDX 47 64 62 66 84 67 49 68 32 69 33 70 42 71 34 72 35 73 41 74
REMARK SMILES IDX 43 75 36 76 37 77 38 78 39 79 40 80 66 81 67 82 76 83 68 84
REMARK SMILES IDX 69 85 75 86 77 87 70 88 71 89 72 90 73 91 74 92 50 93 51 94
REMARK SMILES IDX 60 95 52 96 53 97 59 98 61 99 54 100 55 101 56 102 57 103
REMARK SMILES IDX 58 104
REMARK H PARENT 3 11 82 54 48 65
REMARK Flexibility Score: inf
ROOT
ATOM      1  O   UNL     1      -0.587   7.368   7.450  1.00  0.00    -0.374 OA
ENDROOT
BRANCH   1   2
ATOM      2  C   UNL     1      -0.791   6.423   8.496  1.00  0.00     0.202 C 
BRANCH   2   3
ATOM      3  C   UNL     1      -1.769   5.269   8.241  1.00  0.00     0.261 C 
BRANCH   3   4
ATOM      4  O   UNL     1      -1.433   4.423   7.120  1.00  0.00    -0.462 OA
BRANCH   4   5
ATOM      5  C   UNL     1      -2.240   4.592   6.043  1.00  0.00     0.331 C 
ATOM      6  O   UNL     1      -3.169   5.399   5.993  1.00  0.00    -0.250 OA
BRANCH   5   7
ATOM      7  C   UNL     1      -1.983   3.661   4.856  1.00  0.00     0.224 C 
ATOM      8  N   UNL     1       0.252   0.253   1.740  1.00  0.00    -0.335 N 
ATOM      9  C   UNL     1      -0.261   1.596   1.504  1.00  0.00     0.267 C 
ATOM     10  C   UNL     1       0.093  -0.300   3.084  1.00  0.00     0.267 C 
ATOM     11  H   UNL     1       1.257   0.420   1.696  1.00  0.00     0.348 HD
ATOM     12  C   UNL     1      -1.517   1.971   2.256  1.00  0.00     0.120 C 
ATOM     13  C   UNL     1      -1.078   0.167   3.935  1.00  0.00     0.120 C 
ATOM     14  C   UNL     1      -1.497   1.619   3.753  1.00  0.00     0.155 C 
ATOM     15  O   UNL     1      -2.912   1.614   4.099  1.00  0.00    -0.352 OA
ATOM     16  N   UNL     1      -0.928   2.669   4.630  1.00  0.00    -0.293 N 
ATOM     17  C   UNL     1      -3.232   2.802   4.817  1.00  0.00     0.200 C 
BRANCH   8  18
ATOM     18  C   UNL     1      -0.051  -0.704   0.675  1.00  0.00     0.258 C 
ATOM     19  C   UNL     1       0.721  -0.394  -0.606  1.00  0.00     0.071 C 
ENDBRANCH   8  18
BRANCH  16  20
ATOM     20  C   UNL     1       0.380   3.128   4.711  1.00  0.00     0.257 C 
ATOM     21  O   UNL     1       0.648   4.312   4.891  1.00  0.00    -0.269 OA
BRANCH  20  22
ATOM     22  C   UNL     1       1.556   2.261   4.547  1.00  0.00     0.047 A 
ATOM     23  C   UNL     1       1.982   1.372   5.537  1.00  0.00     0.016 A 
ATOM     24  C   UNL     1       2.341   2.452   3.406  1.00  0.00     0.101 A 
ATOM     25  C   UNL     1       3.140   0.603   5.320  1.00  0.00     0.028 A 
ATOM     26  C   UNL     1       3.420   1.597   3.143  1.00  0.00     0.288 A 
ATOM     27  C   UNL     1       3.846   0.682   4.107  1.00  0.00     0.118 A 
ATOM     28  Cl  UNL     1       5.234  -0.328   3.932  1.00  0.00    -0.077 Cl
BRANCH  26  29
ATOM     29  N   UNL     1       3.989   1.646   1.802  1.00  0.00     0.064 N 
ATOM     30  O   UNL     1       4.268   0.578   1.243  1.00  0.00    -0.258 OA
ATOM     31  O   UNL     1       4.075   2.762   1.267  1.00  0.00    -0.258 OA
ENDBRANCH  26  29
ENDBRANCH  20  22
ENDBRANCH  16  20
ENDBRANCH   5   7
ENDBRANCH   4   5
ENDBRANCH   3   4
ENDBRANCH   2   3
ENDBRANCH   1   2
BRANCH   1  32
ATOM     32  C   UNL     1       0.200   6.948   6.334  1.00  0.00     0.202 C 
BRANCH  32  33
ATOM     33  C   UNL     1       1.686   6.662   6.597  1.00  0.00     0.261 C 
BRANCH  33  34
ATOM     34  O   UNL     1       1.887   5.520   7.454  1.00  0.00    -0.460 OA
BRANCH  34  35
ATOM     35  C   UNL     1       2.649   5.758   8.545  1.00  0.00     0.338 C 
ATOM     36  O   UNL     1       3.272   6.783   8.800  1.00  0.00    -0.246 OA
BRANCH  35  37
ATOM     37  C   UNL     1       2.488   4.676   9.534  1.00  0.00     0.060 A 
ATOM     38  C   UNL     1       2.108   5.052  10.827  1.00  0.00     0.016 A 
ATOM     39  C   UNL     1       2.789   3.342   9.245  1.00  0.00     0.016 A 
ATOM     40  C   UNL     1       2.108   4.113  11.854  1.00  0.00     0.010 A 
ATOM     41  C   UNL     1       2.785   2.396  10.282  1.00  0.00     0.010 A 
ATOM     42  C   UNL     1       2.497   2.789  11.602  1.00  0.00    -0.014 A 
BRANCH  42  43
ATOM     43  C   UNL     1       2.752   1.906  12.773  1.00  0.00     0.031 A 
ATOM     44  C   UNL     1       4.171   1.682  13.231  1.00  0.00     0.074 A 
ATOM     45  C   UNL     1       1.731   1.419  13.502  1.00  0.00     0.049 A 
ATOM     46  N   UNL     1       4.608   1.108  14.324  1.00  0.00    -0.248 NA
ATOM     47  C   UNL     1       5.239   2.172  12.345  1.00  0.00     0.031 C 
ATOM     48  C   UNL     1       0.313   1.571  13.177  1.00  0.00     0.029 A 
ATOM     49  N   UNL     1       1.731   0.722  14.685  1.00  0.00    -0.354 N 
ATOM     50  C   UNL     1       5.995   1.182  14.264  1.00  0.00     0.074 A 
ATOM     51  C   UNL     1       6.330   1.808  13.003  1.00  0.00     0.031 C 
ATOM     52  C   UNL     1      -0.421   1.005  14.150  1.00  0.00     0.029 A 
ATOM     53  C   UNL     1       0.472   0.444  15.163  1.00  0.00     0.049 A 
ATOM     54  H   UNL     1       2.555   0.446  15.148  1.00  0.00     0.167 HD
ATOM     55  C   UNL     1       6.910   0.788  15.183  1.00  0.00     0.037 A 
ATOM     56  C   UNL     1       0.082  -0.175  16.295  1.00  0.00     0.037 A 
ATOM     57  C   UNL     1       6.583   0.170  16.442  1.00  0.00     0.049 A 
ATOM     58  C   UNL     1       1.117  -0.626  17.292  1.00  0.00     0.074 A 
ATOM     59  C   UNL     1       7.441  -0.243  17.447  1.00  0.00     0.029 A 
ATOM     60  N   UNL     1       5.298  -0.127  16.870  1.00  0.00    -0.354 N 
ATOM     61  N   UNL     1       2.422  -0.505  17.240  1.00  0.00    -0.248 NA
ATOM     62  C   UNL     1       0.623  -1.281  18.512  1.00  0.00     0.031 C 
ATOM     63  C   UNL     1       6.678  -0.830  18.463  1.00  0.00     0.029 A 
ATOM     64  C   UNL     1       5.340  -0.737  18.113  1.00  0.00     0.049 A 
ATOM     65  H   UNL     1       4.476   0.067  16.364  1.00  0.00     0.167 HD
ATOM     66  C   UNL     1       2.903  -1.044  18.431  1.00  0.00     0.074 A 
ATOM     67  C   UNL     1       1.747  -1.476  19.189  1.00  0.00     0.031 C 
ATOM     68  C   UNL     1       4.184  -1.167  18.859  1.00  0.00     0.037 A 
BRANCH  55  69
ATOM     69  C   UNL     1       8.361   1.005  14.854  1.00  0.00     0.058 A 
ATOM     70  C   UNL     1       8.935   2.287  14.855  1.00  0.00     0.135 A 
ATOM     71  C   UNL     1       9.197  -0.086  14.565  1.00  0.00     0.135 A 
ATOM     72  F   UNL     1       8.177   3.366  15.108  1.00  0.00    -0.206 F 
ATOM     73  C   UNL     1      10.279   2.483  14.557  1.00  0.00     0.059 A 
ATOM     74  C   UNL     1      10.551   0.085  14.289  1.00  0.00     0.059 A 
ATOM     75  F   UNL     1       8.700  -1.332  14.548  1.00  0.00    -0.206 F 
ATOM     76  C   UNL     1      11.079   1.375  14.273  1.00  0.00     0.060 A 
BRANCH  76  77
ATOM     77  S   UNL     1      12.823   1.643  13.890  1.00  0.00     0.124 S 
ATOM     78  O   UNL     1      12.742   2.196  12.542  1.00  0.00    -0.237 OA
ATOM     79  O   UNL     1      13.233   2.576  14.935  1.00  0.00    -0.237 OA
ATOM     80  O   UNL     1      13.401   0.306  13.986  1.00  0.00    -0.744 OA
ENDBRANCH  76  77
ENDBRANCH  55  69
BRANCH  56  81
ATOM     81  C   UNL     1      -1.367  -0.388  16.561  1.00  0.00     0.058 A 
ATOM     82  C   UNL     1      -2.035   0.314  17.575  1.00  0.00     0.135 A 
ATOM     83  C   UNL     1      -2.109  -1.307  15.802  1.00  0.00     0.135 A 
ATOM     84  F   UNL     1      -1.366   1.195  18.334  1.00  0.00    -0.206 F 
ATOM     85  C   UNL     1      -3.385   0.103  17.839  1.00  0.00     0.059 A 
ATOM     86  C   UNL     1      -3.464  -1.517  16.031  1.00  0.00     0.059 A 
ATOM     87  F   UNL     1      -1.518  -1.995  14.813  1.00  0.00    -0.206 F 
ATOM     88  C   UNL     1      -4.092  -0.814  17.058  1.00  0.00     0.060 A 
BRANCH  88  89
ATOM     89  S   UNL     1      -5.856  -1.044  17.370  1.00  0.00     0.124 S 
ATOM     90  O   UNL     1      -5.837  -1.834  18.595  1.00  0.00    -0.237 OA
ATOM     91  O   UNL     1      -6.326   0.332  17.502  1.00  0.00    -0.237 OA
ATOM     92  O   UNL     1      -6.317  -1.742  16.173  1.00  0.00    -0.744 OA
ENDBRANCH  88  89
ENDBRANCH  56  81
BRANCH  68  93
ATOM     93  C   UNL     1       4.403  -1.768  20.222  1.00  0.00     0.058 A 
ATOM     94  C   UNL     1       4.190  -3.134  20.471  1.00  0.00     0.135 A 
ATOM     95  C   UNL     1       4.846  -0.971  21.290  1.00  0.00     0.135 A 
ATOM     96  F   UNL     1       3.767  -3.942  19.486  1.00  0.00    -0.206 F 
ATOM     97  C   UNL     1       4.366  -3.678  21.739  1.00  0.00     0.059 A 
ATOM     98  C   UNL     1       5.056  -1.500  22.560  1.00  0.00     0.059 A 
ATOM     99  F   UNL     1       5.081   0.338  21.104  1.00  0.00    -0.206 F 
ATOM    100  C   UNL     1       4.792  -2.851  22.780  1.00  0.00     0.060 A 
BRANCH 100 101
ATOM    101  S   UNL     1       5.008  -3.564  24.424  1.00  0.00     0.124 S 
ATOM    102  O   UNL     1       3.626  -3.682  24.876  1.00  0.00    -0.237 OA
ATOM    103  O   UNL     1       5.690  -4.822  24.135  1.00  0.00    -0.237 OA
ATOM    104  O   UNL     1       5.816  -2.568  25.122  1.00  0.00    -0.744 OA
ENDBRANCH 100 101
ENDBRANCH  68  93
ENDBRANCH  42  43
ENDBRANCH  35  37
ENDBRANCH  34  35
ENDBRANCH  33  34
ENDBRANCH  32  33
ENDBRANCH   1  32
TORSDOF 21
