REMARK SMILES O=C(Cc1cccn1-c1ccccc1F)OCCOCCOC(=O)c1ccc(-c2c3nc(c(-c4c(F)cc(S(=O)(=O)[O-])cc4F)c4ccc([nH]4)c(-c4c(F)cc(S(=O)(=O)[O-])cc4F)c4nc(c(-c5c(F)cc(S(=O)(=O)[O-])cc5F)c5ccc2[nH]5)C=C4)C=C3)cc1
REMARK SMILES IDX 20 1 19 2 18 3 17 4 16 5 2 6 1 7 3 8 4 9 5 10 8 11 6 12 7 13
REMARK SMILES IDX 9 14 10 15 14 16 11 17 13 18 15 19 12 20 21 21 22 22 23 23
REMARK SMILES IDX 24 24 25 25 26 26 90 27 27 28 89 29 28 30 29 31 30 32 83 33
REMARK SMILES IDX 31 34 88 35 82 36 84 37 32 38 87 39 81 40 80 41 33 43 67 44
REMARK SMILES IDX 46 45 66 46 47 47 50 48 65 49 85 50 48 51 49 52 64 54 86 55
REMARK SMILES IDX 51 56 34 57 35 58 44 59 36 60 37 61 43 62 45 63 38 64 39 65
REMARK SMILES IDX 40 66 41 67 42 68 68 69 69 70 78 71 70 72 71 73 77 74 79 75
REMARK SMILES IDX 72 76 73 77 74 78 75 79 76 80 52 81 53 82 62 83 54 84 55 85
REMARK SMILES IDX 61 86 63 87 56 88 57 89 58 90 59 91 60 92
REMARK H PARENT 84 42 50 53
REMARK Flexibility Score: inf
ROOT
ATOM      1  C   UNL     1       2.997  -2.276   0.028  1.00  0.00     0.202 C 
ENDROOT
BRANCH   1   2
ATOM      2  O   UNL     1       4.245  -1.652  -0.297  1.00  0.00    -0.374 OA
BRANCH   2   3
ATOM      3  C   UNL     1       4.648  -0.570   0.543  1.00  0.00     0.202 C 
BRANCH   3   4
ATOM      4  C   UNL     1       4.265   0.806   0.033  1.00  0.00     0.261 C 
BRANCH   4   5
ATOM      5  O   UNL     1       2.840   0.994  -0.048  1.00  0.00    -0.463 OA
BRANCH   5   6
ATOM      6  C   UNL     1       2.052   0.760  -1.123  1.00  0.00     0.311 C 
ATOM      7  O   UNL     1       0.858   1.059  -1.059  1.00  0.00    -0.252 OA
BRANCH   6   8
ATOM      8  C   UNL     1       2.594   0.053  -2.351  1.00  0.00     0.177 C 
BRANCH   8   9
ATOM      9  C   UNL     1       3.723   0.767  -3.020  1.00  0.00     0.034 A 
ATOM     10  C   UNL     1       3.812   2.132  -3.243  1.00  0.00     0.024 A 
ATOM     11  N   UNL     1       4.939   0.179  -3.383  1.00  0.00    -0.318 N 
ATOM     12  C   UNL     1       5.132   2.420  -3.622  1.00  0.00     0.020 A 
ATOM     13  C   UNL     1       5.806   1.223  -3.675  1.00  0.00     0.091 A 
BRANCH  11  14
ATOM     14  C   UNL     1       5.319  -1.198  -3.412  1.00  0.00     0.081 A 
ATOM     15  C   UNL     1       6.648  -1.558  -3.126  1.00  0.00     0.030 A 
ATOM     16  C   UNL     1       4.417  -2.209  -3.753  1.00  0.00     0.147 A 
ATOM     17  C   UNL     1       7.049  -2.899  -3.165  1.00  0.00     0.002 A 
ATOM     18  C   UNL     1       4.816  -3.547  -3.790  1.00  0.00     0.041 A 
ATOM     19  F   UNL     1       3.161  -1.932  -4.131  1.00  0.00    -0.205 F 
ATOM     20  C   UNL     1       6.133  -3.894  -3.497  1.00  0.00     0.003 A 
ENDBRANCH  11  14
ENDBRANCH   8   9
ENDBRANCH   6   8
ENDBRANCH   5   6
ENDBRANCH   4   5
ENDBRANCH   3   4
ENDBRANCH   2   3
ENDBRANCH   1   2
BRANCH   1  21
ATOM     21  C   UNL     1       3.064  -3.324   1.120  1.00  0.00     0.261 C 
BRANCH  21  22
ATOM     22  O   UNL     1       3.234  -2.684   2.371  1.00  0.00    -0.460 OA
BRANCH  22  23
ATOM     23  C   UNL     1       4.498  -2.580   2.804  1.00  0.00     0.338 C 
ATOM     24  O   UNL     1       5.534  -2.837   2.180  1.00  0.00    -0.246 OA
BRANCH  23  25
ATOM     25  C   UNL     1       4.461  -2.237   4.219  1.00  0.00     0.060 A 
ATOM     26  C   UNL     1       5.689  -2.285   4.880  1.00  0.00     0.016 A 
ATOM     27  C   UNL     1       3.229  -2.328   4.886  1.00  0.00     0.016 A 
ATOM     28  C   UNL     1       5.691  -2.715   6.179  1.00  0.00     0.010 A 
ATOM     29  C   UNL     1       3.234  -2.834   6.156  1.00  0.00     0.010 A 
ATOM     30  C   UNL     1       4.469  -3.075   6.761  1.00  0.00    -0.014 A 
BRANCH  30  31
ATOM     31  C   UNL     1       4.500  -3.648   8.098  1.00  0.00     0.031 A 
ATOM     32  C   UNL     1       4.469  -2.540   9.131  1.00  0.00     0.074 A 
ATOM     33  C   UNL     1       4.623  -5.005   8.148  1.00  0.00     0.049 A 
ATOM     34  N   UNL     1       5.055  -2.483  10.282  1.00  0.00    -0.248 NA
ATOM     35  C   UNL     1       3.810  -1.246   8.785  1.00  0.00     0.031 C 
ATOM     36  C   UNL     1       4.659  -5.892   6.963  1.00  0.00     0.029 A 
ATOM     37  N   UNL     1       4.750  -5.913   9.171  1.00  0.00    -0.354 N 
ATOM     38  C   UNL     1       4.653  -1.275  10.872  1.00  0.00     0.074 A 
ATOM     39  C   UNL     1       4.046  -0.484   9.850  1.00  0.00     0.031 C 
ATOM     40  C   UNL     1       4.878  -7.171   7.329  1.00  0.00     0.029 A 
ATOM     41  C   UNL     1       4.979  -7.254   8.772  1.00  0.00     0.049 A 
ATOM     42  H   UNL     1       4.686  -5.651  10.118  1.00  0.00     0.167 HD
ATOM     43  C   UNL     1       4.678  -1.063  12.213  1.00  0.00     0.037 A 
ATOM     44  C   UNL     1       5.277  -8.338   9.554  1.00  0.00     0.037 A 
ATOM     45  C   UNL     1       5.158  -2.222  12.892  1.00  0.00     0.049 A 
ATOM     46  C   UNL     1       5.171  -7.853  10.947  1.00  0.00     0.074 A 
ATOM     47  C   UNL     1       6.405  -2.779  12.999  1.00  0.00     0.029 A 
ATOM     48  N   UNL     1       4.216  -3.160  13.251  1.00  0.00    -0.354 N 
ATOM     49  N   UNL     1       4.065  -7.510  11.542  1.00  0.00    -0.248 NA
ATOM     50  C   UNL     1       6.408  -7.615  11.702  1.00  0.00     0.031 C 
ATOM     51  C   UNL     1       6.162  -4.169  13.044  1.00  0.00     0.029 A 
ATOM     52  C   UNL     1       4.784  -4.405  13.098  1.00  0.00     0.049 A 
ATOM     53  H   UNL     1       3.301  -2.974  13.560  1.00  0.00     0.167 HD
ATOM     54  C   UNL     1       4.506  -6.726  12.584  1.00  0.00     0.074 A 
ATOM     55  C   UNL     1       5.893  -7.070  12.800  1.00  0.00     0.031 C 
ATOM     56  C   UNL     1       3.909  -5.533  12.835  1.00  0.00     0.037 A 
BRANCH  43  57
ATOM     57  C   UNL     1       4.056   0.026  13.021  1.00  0.00     0.058 A 
ATOM     58  C   UNL     1       2.780   0.553  12.769  1.00  0.00     0.135 A 
ATOM     59  C   UNL     1       4.624   0.308  14.282  1.00  0.00     0.135 A 
ATOM     60  F   UNL     1       2.152   0.333  11.605  1.00  0.00    -0.206 F 
ATOM     61  C   UNL     1       2.069   1.244  13.747  1.00  0.00     0.059 A 
ATOM     62  C   UNL     1       3.916   0.957  15.284  1.00  0.00     0.059 A 
ATOM     63  F   UNL     1       5.862  -0.118  14.584  1.00  0.00    -0.206 F 
ATOM     64  C   UNL     1       2.626   1.397  15.015  1.00  0.00     0.060 A 
BRANCH  64  65
ATOM     65  S   UNL     1       1.601   2.041  16.353  1.00  0.00     0.124 S 
ATOM     66  O   UNL     1       1.658   3.477  16.099  1.00  0.00    -0.237 OA
ATOM     67  O   UNL     1       0.315   1.400  16.101  1.00  0.00    -0.237 OA
ATOM     68  O   UNL     1       2.295   1.587  17.555  1.00  0.00    -0.744 OA
ENDBRANCH  64  65
ENDBRANCH  43  57
BRANCH  44  69
ATOM     69  C   UNL     1       5.820  -9.740   9.347  1.00  0.00     0.058 A 
ATOM     70  C   UNL     1       6.238 -10.498  10.477  1.00  0.00     0.135 A 
ATOM     71  C   UNL     1       6.110 -10.351   8.118  1.00  0.00     0.135 A 
ATOM     72  F   UNL     1       5.879 -10.156  11.723  1.00  0.00    -0.206 F 
ATOM     73  C   UNL     1       7.075 -11.608  10.402  1.00  0.00     0.059 A 
ATOM     74  C   UNL     1       6.909 -11.505   8.014  1.00  0.00     0.059 A 
ATOM     75  F   UNL     1       5.644  -9.862   6.965  1.00  0.00    -0.206 F 
ATOM     76  C   UNL     1       7.455 -12.074   9.159  1.00  0.00     0.060 A 
BRANCH  76  77
ATOM     77  S   UNL     1       8.670 -13.403   9.066  1.00  0.00     0.124 S 
ATOM     78  O   UNL     1       9.919 -12.660   9.204  1.00  0.00    -0.237 OA
ATOM     79  O   UNL     1       8.313 -14.251  10.199  1.00  0.00    -0.237 OA
ATOM     80  O   UNL     1       8.426 -13.986   7.751  1.00  0.00    -0.744 OA
ENDBRANCH  76  77
ENDBRANCH  44  69
BRANCH  56  81
ATOM     81  C   UNL     1       2.456  -5.455  12.403  1.00  0.00     0.058 A 
ATOM     82  C   UNL     1       2.003  -4.676  11.325  1.00  0.00     0.135 A 
ATOM     83  C   UNL     1       1.485  -6.252  13.030  1.00  0.00     0.135 A 
ATOM     84  F   UNL     1       2.851  -3.898  10.657  1.00  0.00    -0.206 F 
ATOM     85  C   UNL     1       0.677  -4.669  10.891  1.00  0.00     0.059 A 
ATOM     86  C   UNL     1       0.149  -6.273  12.613  1.00  0.00     0.059 A 
ATOM     87  F   UNL     1       1.830  -7.026  14.071  1.00  0.00    -0.206 F 
ATOM     88  C   UNL     1      -0.248  -5.478  11.539  1.00  0.00     0.060 A 
BRANCH  88  89
ATOM     89  S   UNL     1      -1.965  -5.447  10.976  1.00  0.00     0.124 S 
ATOM     90  O   UNL     1      -2.273  -4.021  10.995  1.00  0.00    -0.237 OA
ATOM     91  O   UNL     1      -1.867  -6.047   9.648  1.00  0.00    -0.237 OA
ATOM     92  O   UNL     1      -2.667  -6.249  11.974  1.00  0.00    -0.744 OA
ENDBRANCH  88  89
ENDBRANCH  56  81
ENDBRANCH  30  31
ENDBRANCH  23  25
ENDBRANCH  22  23
ENDBRANCH  21  22
ENDBRANCH   1  21
TORSDOF 19
