REMARK SMILES Cc1cccc(Nc2nc(C)c(CCO)c(OCC(=O)OCCOCCOC(=O)c3ccc(-c4c5nc(c(-c6c(F)cc(S(=O)(=O)[O-])cc6F)c6ccc([nH]6)c(-c6c(F)cc(S(=O)(=O)[O-])cc6F)c6nc(c(-c7c(F)cc(S(=O)(=O)[O-])cc7F)c7ccc4[nH]7)C=C6)C=C5)cc3)n2)c1
REMARK SMILES IDX 23 1 22 2 21 3 19 4 20 5 18 6 17 7 16 8 8 9 9 10 96 11 10 12
REMARK SMILES IDX 11 13 12 14 7 15 6 17 1 18 2 19 3 20 97 21 4 22 5 23 13 24
REMARK SMILES IDX 14 25 15 26 24 28 25 29 26 30 27 31 28 32 29 33 30 34 31 35
REMARK SMILES IDX 95 36 32 37 94 38 33 39 34 40 35 41 88 42 36 43 93 44 87 45
REMARK SMILES IDX 89 46 37 47 92 48 86 49 85 50 38 52 72 53 51 54 71 55 52 56
REMARK SMILES IDX 55 57 70 58 90 59 53 60 54 61 69 63 91 64 56 65 39 66 40 67
REMARK SMILES IDX 49 68 41 69 42 70 48 71 50 72 43 73 44 74 45 75 46 76 47 77
REMARK SMILES IDX 73 78 74 79 83 80 75 81 76 82 82 83 84 84 77 85 78 86 79 87
REMARK SMILES IDX 80 88 81 89 57 90 58 91 67 92 59 93 60 94 66 95 68 96 61 97
REMARK SMILES IDX 62 98 63 99 64 100 65 101
REMARK H PARENT 7 16 15 27 89 51 55 62
REMARK Flexibility Score: inf
ROOT
ATOM      1  C   UNL     1      -7.947   4.873  -0.656  1.00  0.00     0.202 C 
ENDROOT
BRANCH   1   2
ATOM      2  C   UNL     1      -8.263   4.071   0.604  1.00  0.00     0.261 C 
BRANCH   2   3
ATOM      3  O   UNL     1      -7.369   3.013   0.926  1.00  0.00    -0.461 OA
BRANCH   3   4
ATOM      4  C   UNL     1      -7.903   1.789   1.159  1.00  0.00     0.344 C 
ATOM      5  O   UNL     1      -8.995   1.409   0.753  1.00  0.00    -0.248 OA
BRANCH   4   6
ATOM      6  C   UNL     1      -6.878   0.907   1.862  1.00  0.00     0.353 C 
BRANCH   6   7
ATOM      7  O   UNL     1      -6.201   0.033   0.958  1.00  0.00    -0.465 OA
BRANCH   7   8
ATOM      8  C   UNL     1      -5.385   0.786   0.147  1.00  0.00     0.222 A 
ATOM      9  C   UNL     1      -3.368   1.807  -0.078  1.00  0.00     0.230 A 
ATOM     10  N   UNL     1      -3.730   2.356  -1.246  1.00  0.00    -0.218 NA
ATOM     11  N   UNL     1      -4.188   1.069   0.673  1.00  0.00    -0.177 NA
ATOM     12  C   UNL     1      -4.929   2.005  -1.763  1.00  0.00     0.050 A 
ATOM     13  C   UNL     1      -5.229   2.595  -3.110  1.00  0.00     0.067 C 
ATOM     14  C   UNL     1      -5.789   1.116  -1.132  1.00  0.00     0.038 A 
BRANCH   9  15
ATOM     15  N   UNL     1      -2.007   1.867   0.225  1.00  0.00    -0.324 N 
ATOM     16  H   UNL     1      -1.639   2.739   0.496  1.00  0.00     0.170 HD
BRANCH  15  17
ATOM     17  C   UNL     1      -1.120   0.773   0.173  1.00  0.00     0.041 A 
ATOM     18  C   UNL     1       2.650   0.164   0.060  1.00  0.00     0.044 C 
ATOM     19  C   UNL     1       1.171  -0.074   0.082  1.00  0.00    -0.049 A 
ATOM     20  C   UNL     1       0.683  -1.383  -0.002  1.00  0.00     0.003 A 
ATOM     21  C   UNL     1       0.264   0.995   0.188  1.00  0.00     0.029 A 
ATOM     22  C   UNL     1      -0.685  -1.622   0.029  1.00  0.00     0.002 A 
ATOM     23  C   UNL     1      -1.573  -0.553   0.127  1.00  0.00     0.026 A 
ENDBRANCH  15  17
ENDBRANCH   9  15
BRANCH  14  24
ATOM     24  C   UNL     1      -7.055   0.629  -1.790  1.00  0.00     0.071 C 
BRANCH  24  25
ATOM     25  C   UNL     1      -7.653  -0.719  -1.357  1.00  0.00     0.161 C 
BRANCH  25  26
ATOM     26  O   UNL     1      -6.657  -1.724  -1.202  1.00  0.00    -0.396 OA
ATOM     27  H   UNL     1      -6.210  -1.871  -2.051  1.00  0.00     0.210 HD
ENDBRANCH  25  26
ENDBRANCH  24  25
ENDBRANCH  14  24
ENDBRANCH   7   8
ENDBRANCH   6   7
ENDBRANCH   4   6
ENDBRANCH   3   4
ENDBRANCH   2   3
ENDBRANCH   1   2
BRANCH   1  28
ATOM     28  O   UNL     1      -6.611   5.010  -1.113  1.00  0.00    -0.374 OA
BRANCH  28  29
ATOM     29  C   UNL     1      -5.553   5.054  -0.157  1.00  0.00     0.202 C 
BRANCH  29  30
ATOM     30  C   UNL     1      -5.419   6.306   0.716  1.00  0.00     0.261 C 
BRANCH  30  31
ATOM     31  O   UNL     1      -6.593   6.575   1.489  1.00  0.00    -0.460 OA
BRANCH  31  32
ATOM     32  C   UNL     1      -6.952   7.887   1.630  1.00  0.00     0.338 C 
ATOM     33  O   UNL     1      -6.451   8.876   1.152  1.00  0.00    -0.246 OA
BRANCH  32  34
ATOM     34  C   UNL     1      -8.308   7.818   2.216  1.00  0.00     0.060 A 
ATOM     35  C   UNL     1      -8.478   7.380   3.527  1.00  0.00     0.016 A 
ATOM     36  C   UNL     1      -9.345   7.729   1.288  1.00  0.00     0.016 A 
ATOM     37  C   UNL     1      -9.577   6.579   3.813  1.00  0.00     0.010 A 
ATOM     38  C   UNL     1     -10.395   6.870   1.561  1.00  0.00     0.010 A 
ATOM     39  C   UNL     1     -10.366   6.131   2.747  1.00  0.00    -0.014 A 
BRANCH  39  40
ATOM     40  C   UNL     1     -10.854   4.735   2.711  1.00  0.00     0.031 A 
ATOM     41  C   UNL     1     -12.109   4.401   2.036  1.00  0.00     0.074 A 
ATOM     42  C   UNL     1     -10.123   3.682   3.152  1.00  0.00     0.049 A 
ATOM     43  N   UNL     1     -13.244   4.275   2.634  1.00  0.00    -0.248 NA
ATOM     44  C   UNL     1     -12.127   4.127   0.598  1.00  0.00     0.031 C 
ATOM     45  C   UNL     1     -10.531   2.280   3.207  1.00  0.00     0.029 A 
ATOM     46  N   UNL     1      -8.867   3.674   3.746  1.00  0.00    -0.354 N 
ATOM     47  C   UNL     1     -14.054   3.635   1.718  1.00  0.00     0.074 A 
ATOM     48  C   UNL     1     -13.393   3.743   0.428  1.00  0.00     0.031 C 
ATOM     49  C   UNL     1      -9.714   1.633   4.060  1.00  0.00     0.029 A 
ATOM     50  C   UNL     1      -8.748   2.582   4.600  1.00  0.00     0.049 A 
ATOM     51  H   UNL     1      -8.163   4.344   3.586  1.00  0.00     0.167 HD
ATOM     52  C   UNL     1     -14.921   2.643   2.075  1.00  0.00     0.037 A 
ATOM     53  C   UNL     1      -8.459   2.780   5.916  1.00  0.00     0.037 A 
ATOM     54  C   UNL     1     -14.491   2.017   3.333  1.00  0.00     0.049 A 
ATOM     55  C   UNL     1      -9.755   2.818   6.710  1.00  0.00     0.074 A 
ATOM     56  C   UNL     1     -13.900   0.786   3.579  1.00  0.00     0.029 A 
ATOM     57  N   UNL     1     -14.306   2.764   4.497  1.00  0.00    -0.354 N 
ATOM     58  N   UNL     1     -10.921   2.571   6.172  1.00  0.00    -0.248 NA
ATOM     59  C   UNL     1      -9.879   3.118   8.134  1.00  0.00     0.031 C 
ATOM     60  C   UNL     1     -13.296   0.824   4.862  1.00  0.00     0.029 A 
ATOM     61  C   UNL     1     -13.537   2.067   5.420  1.00  0.00     0.049 A 
ATOM     62  H   UNL     1     -14.671   3.666   4.645  1.00  0.00     0.167 HD
ATOM     63  C   UNL     1     -11.923   2.740   7.083  1.00  0.00     0.074 A 
ATOM     64  C   UNL     1     -11.214   3.044   8.314  1.00  0.00     0.031 C 
ATOM     65  C   UNL     1     -13.243   2.626   6.739  1.00  0.00     0.037 A 
BRANCH  52  66
ATOM     66  C   UNL     1     -15.842   2.021   1.037  1.00  0.00     0.058 A 
ATOM     67  C   UNL     1     -16.359   0.717   1.150  1.00  0.00     0.135 A 
ATOM     68  C   UNL     1     -16.294   2.740  -0.099  1.00  0.00     0.135 A 
ATOM     69  F   UNL     1     -16.122  -0.037   2.231  1.00  0.00    -0.206 F 
ATOM     70  C   UNL     1     -17.162   0.134   0.162  1.00  0.00     0.059 A 
ATOM     71  C   UNL     1     -17.059   2.168  -1.118  1.00  0.00     0.059 A 
ATOM     72  F   UNL     1     -15.998   4.042  -0.255  1.00  0.00    -0.206 F 
ATOM     73  C   UNL     1     -17.488   0.857  -0.980  1.00  0.00     0.060 A 
BRANCH  73  74
ATOM     74  S   UNL     1     -18.485   0.075  -2.264  1.00  0.00     0.124 S 
ATOM     75  O   UNL     1     -17.781  -1.186  -2.479  1.00  0.00    -0.237 OA
ATOM     76  O   UNL     1     -19.787  -0.025  -1.615  1.00  0.00    -0.237 OA
ATOM     77  O   UNL     1     -18.410   1.020  -3.375  1.00  0.00    -0.744 OA
ENDBRANCH  73  74
ENDBRANCH  52  66
BRANCH  53  78
ATOM     78  C   UNL     1      -7.181   3.547   6.082  1.00  0.00     0.058 A 
ATOM     79  C   UNL     1      -6.007   2.875   5.662  1.00  0.00     0.135 A 
ATOM     80  C   UNL     1      -7.094   4.941   6.190  1.00  0.00     0.135 A 
ATOM     81  F   UNL     1      -6.015   1.536   5.557  1.00  0.00    -0.206 F 
ATOM     82  C   UNL     1      -4.869   3.548   5.218  1.00  0.00     0.059 A 
ATOM     83  C   UNL     1      -5.956   5.640   5.755  1.00  0.00     0.059 A 
ATOM     84  F   UNL     1      -8.161   5.655   6.573  1.00  0.00    -0.206 F 
ATOM     85  C   UNL     1      -4.870   4.938   5.224  1.00  0.00     0.060 A 
BRANCH  85  86
ATOM     86  S   UNL     1      -3.549   5.830   4.356  1.00  0.00     0.124 S 
ATOM     87  O   UNL     1      -2.578   6.040   5.423  1.00  0.00    -0.237 OA
ATOM     88  O   UNL     1      -3.153   4.894   3.308  1.00  0.00    -0.237 OA
ATOM     89  O   UNL     1      -4.240   7.024   3.879  1.00  0.00    -0.744 OA
ENDBRANCH  85  86
ENDBRANCH  53  78
BRANCH  65  90
ATOM     90  C   UNL     1     -14.404   2.928   7.650  1.00  0.00     0.058 A 
ATOM     91  C   UNL     1     -14.406   3.958   8.602  1.00  0.00     0.135 A 
ATOM     92  C   UNL     1     -15.632   2.244   7.475  1.00  0.00     0.135 A 
ATOM     93  F   UNL     1     -13.327   4.732   8.790  1.00  0.00    -0.206 F 
ATOM     94  C   UNL     1     -15.534   4.256   9.369  1.00  0.00     0.059 A 
ATOM     95  C   UNL     1     -16.783   2.563   8.185  1.00  0.00     0.059 A 
ATOM     96  F   UNL     1     -15.754   1.240   6.592  1.00  0.00    -0.206 F 
ATOM     97  C   UNL     1     -16.718   3.555   9.152  1.00  0.00     0.060 A 
BRANCH  97  98
ATOM     98  S   UNL     1     -18.195   3.966  10.096  1.00  0.00     0.124 S 
ATOM     99  O   UNL     1     -18.069   3.065  11.237  1.00  0.00    -0.237 OA
ATOM    100  O   UNL     1     -18.009   5.384  10.389  1.00  0.00    -0.237 OA
ATOM    101  O   UNL     1     -19.279   3.664   9.167  1.00  0.00    -0.744 OA
ENDBRANCH  97  98
ENDBRANCH  65  90
ENDBRANCH  39  40
ENDBRANCH  32  34
ENDBRANCH  31  32
ENDBRANCH  30  31
ENDBRANCH  29  30
ENDBRANCH  28  29
ENDBRANCH   1  28
TORSDOF 24
