REMARK SMILES O=C(OCCOCCOC(=O)c1nnn(-c2cccc(C(F)(F)F)c2)c1[C@@H]1COc2ccccc2O1)c1ccc(-c2c3nc(c(-c4c(F)cc(S(=O)(=O)[O-])cc4F)c4ccc([nH]4)c(-c4c(F)cc(S(=O)(=O)[O-])cc4F)c4nc(c(-c5c(F)cc(S(=O)(=O)[O-])cc5F)c5ccc2[nH]5)C=C4)C=C3)cc1
REMARK SMILES IDX 5 1 4 2 3 3 2 4 1 5 37 6 38 7 102 8 39 9 101 10 40 11 41 12
REMARK SMILES IDX 42 13 95 14 43 15 100 16 94 17 96 18 44 19 99 20 93 21 92 22
REMARK SMILES IDX 45 24 79 25 58 26 78 27 59 28 62 29 77 30 97 31 60 32 61 33
REMARK SMILES IDX 76 35 98 36 63 37 46 38 47 39 56 40 48 41 49 42 55 43 57 44
REMARK SMILES IDX 50 45 51 46 52 47 53 48 54 49 80 50 81 51 90 52 82 53 83 54
REMARK SMILES IDX 89 55 91 56 84 57 85 58 86 59 87 60 88 61 64 62 65 63 74 64
REMARK SMILES IDX 66 65 67 66 73 67 75 68 68 69 69 70 70 71 71 72 72 73 6 74
REMARK SMILES IDX 7 75 8 76 9 77 10 78 11 79 12 80 13 81 26 82 14 83 15 84
REMARK SMILES IDX 27 85 28 86 36 87 29 88 35 89 30 90 34 91 31 92 33 93 32 94
REMARK SMILES IDX 16 95 17 96 25 97 18 98 20 99 19 100 21 101 22 102 23 103
REMARK SMILES IDX 24 104
REMARK H PARENT 96 23 62 34
REMARK Flexibility Score: inf
ROOT
ATOM      1  C   UNL     1       4.752   0.640   0.947  1.00  0.00     0.202 C 
ENDROOT
BRANCH   1   2
ATOM      2  C   UNL     1       4.646   1.298  -0.425  1.00  0.00     0.261 C 
BRANCH   2   3
ATOM      3  O   UNL     1       3.311   1.630  -0.866  1.00  0.00    -0.460 OA
BRANCH   3   4
ATOM      4  C   UNL     1       2.270   0.779  -0.710  1.00  0.00     0.338 C 
ATOM      5  O   UNL     1       1.361   1.007   0.081  1.00  0.00    -0.246 OA
BRANCH   4   6
ATOM      6  C   UNL     1       2.140  -0.254  -1.772  1.00  0.00     0.060 A 
ATOM      7  C   UNL     1       3.223  -0.709  -2.521  1.00  0.00     0.016 A 
ATOM      8  C   UNL     1       0.853  -0.735  -2.069  1.00  0.00     0.016 A 
ATOM      9  C   UNL     1       3.021  -1.523  -3.622  1.00  0.00     0.010 A 
ATOM     10  C   UNL     1       0.650  -1.574  -3.165  1.00  0.00     0.010 A 
ATOM     11  C   UNL     1       1.730  -1.917  -3.977  1.00  0.00    -0.014 A 
BRANCH  11  12
ATOM     12  C   UNL     1       1.613  -2.665  -5.227  1.00  0.00     0.031 A 
ATOM     13  C   UNL     1       2.403  -3.926  -5.335  1.00  0.00     0.074 A 
ATOM     14  C   UNL     1       0.839  -2.276  -6.257  1.00  0.00     0.049 A 
ATOM     15  N   UNL     1       3.366  -4.213  -6.152  1.00  0.00    -0.248 NA
ATOM     16  C   UNL     1       2.113  -4.980  -4.353  1.00  0.00     0.031 C 
ATOM     17  C   UNL     1      -0.205  -1.249  -6.277  1.00  0.00     0.029 A 
ATOM     18  N   UNL     1       0.782  -2.807  -7.512  1.00  0.00    -0.354 N 
ATOM     19  C   UNL     1       3.693  -5.546  -5.910  1.00  0.00     0.074 A 
ATOM     20  C   UNL     1       2.962  -5.937  -4.730  1.00  0.00     0.031 C 
ATOM     21  C   UNL     1      -0.933  -1.384  -7.407  1.00  0.00     0.029 A 
ATOM     22  C   UNL     1      -0.318  -2.400  -8.245  1.00  0.00     0.049 A 
ATOM     23  H   UNL     1       1.464  -3.424  -7.864  1.00  0.00     0.167 HD
ATOM     24  C   UNL     1       4.421  -6.303  -6.778  1.00  0.00     0.037 A 
ATOM     25  C   UNL     1      -0.738  -2.918  -9.422  1.00  0.00     0.037 A 
ATOM     26  C   UNL     1       5.162  -5.508  -7.715  1.00  0.00     0.049 A 
ATOM     27  C   UNL     1       0.418  -3.594 -10.065  1.00  0.00     0.074 A 
ATOM     28  C   UNL     1       6.160  -4.558  -7.611  1.00  0.00     0.029 A 
ATOM     29  N   UNL     1       4.710  -5.422  -9.008  1.00  0.00    -0.354 N 
ATOM     30  N   UNL     1       1.468  -2.978 -10.535  1.00  0.00    -0.248 NA
ATOM     31  C   UNL     1       0.577  -5.026  -9.864  1.00  0.00     0.031 C 
ATOM     32  C   UNL     1       5.921  -3.643  -8.678  1.00  0.00     0.029 A 
ATOM     33  C   UNL     1       4.800  -4.101  -9.370  1.00  0.00     0.049 A 
ATOM     34  H   UNL     1       4.384  -6.164  -9.567  1.00  0.00     0.167 HD
ATOM     35  C   UNL     1       2.524  -3.851 -10.321  1.00  0.00     0.074 A 
ATOM     36  C   UNL     1       1.898  -5.132 -10.014  1.00  0.00     0.031 C 
ATOM     37  C   UNL     1       3.802  -3.401 -10.151  1.00  0.00     0.037 A 
BRANCH  24  38
ATOM     38  C   UNL     1       4.250  -7.793  -6.937  1.00  0.00     0.058 A 
ATOM     39  C   UNL     1       5.229  -8.560  -7.600  1.00  0.00     0.135 A 
ATOM     40  C   UNL     1       3.025  -8.449  -6.684  1.00  0.00     0.135 A 
ATOM     41  F   UNL     1       6.419  -8.024  -7.915  1.00  0.00    -0.206 F 
ATOM     42  C   UNL     1       4.992  -9.871  -8.018  1.00  0.00     0.059 A 
ATOM     43  C   UNL     1       2.786  -9.770  -7.044  1.00  0.00     0.059 A 
ATOM     44  F   UNL     1       1.976  -7.801  -6.158  1.00  0.00    -0.206 F 
ATOM     45  C   UNL     1       3.760 -10.461  -7.748  1.00  0.00     0.060 A 
BRANCH  45  46
ATOM     46  S   UNL     1       3.405 -12.112  -8.381  1.00  0.00     0.124 S 
ATOM     47  O   UNL     1       3.206 -11.839  -9.800  1.00  0.00    -0.237 OA
ATOM     48  O   UNL     1       4.619 -12.843  -8.034  1.00  0.00    -0.237 OA
ATOM     49  O   UNL     1       2.211 -12.505  -7.638  1.00  0.00    -0.744 OA
ENDBRANCH  45  46
ENDBRANCH  24  38
BRANCH  25  50
ATOM     50  C   UNL     1      -2.143  -3.146  -9.838  1.00  0.00     0.058 A 
ATOM     51  C   UNL     1      -2.473  -3.420 -11.175  1.00  0.00     0.135 A 
ATOM     52  C   UNL     1      -3.161  -3.362  -8.885  1.00  0.00     0.135 A 
ATOM     53  F   UNL     1      -1.553  -3.273 -12.140  1.00  0.00    -0.206 F 
ATOM     54  C   UNL     1      -3.728  -3.913 -11.543  1.00  0.00     0.059 A 
ATOM     55  C   UNL     1      -4.423  -3.836  -9.230  1.00  0.00     0.059 A 
ATOM     56  F   UNL     1      -2.930  -3.205  -7.573  1.00  0.00    -0.206 F 
ATOM     57  C   UNL     1      -4.692  -4.134 -10.559  1.00  0.00     0.060 A 
BRANCH  57  58
ATOM     58  S   UNL     1      -6.252  -4.927 -11.004  1.00  0.00     0.124 S 
ATOM     59  O   UNL     1      -6.915  -3.877 -11.769  1.00  0.00    -0.237 OA
ATOM     60  O   UNL     1      -5.801  -6.086 -11.768  1.00  0.00    -0.237 OA
ATOM     61  O   UNL     1      -6.858  -5.235  -9.711  1.00  0.00    -0.744 OA
ENDBRANCH  57  58
ENDBRANCH  25  50
BRANCH  37  62
ATOM     62  C   UNL     1       4.118  -1.976 -10.525  1.00  0.00     0.058 A 
ATOM     63  C   UNL     1       3.576  -0.858  -9.867  1.00  0.00     0.135 A 
ATOM     64  C   UNL     1       5.138  -1.738 -11.460  1.00  0.00     0.135 A 
ATOM     65  F   UNL     1       2.673  -1.007  -8.887  1.00  0.00    -0.206 F 
ATOM     66  C   UNL     1       4.008   0.439 -10.147  1.00  0.00     0.059 A 
ATOM     67  C   UNL     1       5.606  -0.454 -11.733  1.00  0.00     0.059 A 
ATOM     68  F   UNL     1       5.740  -2.769 -12.076  1.00  0.00    -0.206 F 
ATOM     69  C   UNL     1       5.029   0.632 -11.077  1.00  0.00     0.060 A 
BRANCH  69  70
ATOM     70  S   UNL     1       5.670   2.301 -11.344  1.00  0.00     0.124 S 
ATOM     71  O   UNL     1       4.621   2.906 -12.158  1.00  0.00    -0.237 OA
ATOM     72  O   UNL     1       5.794   2.818  -9.984  1.00  0.00    -0.237 OA
ATOM     73  O   UNL     1       6.940   2.072 -12.030  1.00  0.00    -0.744 OA
ENDBRANCH  69  70
ENDBRANCH  37  62
ENDBRANCH  11  12
ENDBRANCH   4   6
ENDBRANCH   3   4
ENDBRANCH   2   3
ENDBRANCH   1   2
BRANCH   1  74
ATOM     74  O   UNL     1       4.330  -0.724   0.951  1.00  0.00    -0.374 OA
BRANCH  74  75
ATOM     75  C   UNL     1       3.204  -1.014   1.785  1.00  0.00     0.202 C 
BRANCH  75  76
ATOM     76  C   UNL     1       3.505  -1.138   3.280  1.00  0.00     0.261 C 
BRANCH  76  77
ATOM     77  O   UNL     1       3.860   0.147   3.823  1.00  0.00    -0.458 OA
BRANCH  77  78
ATOM     78  C   UNL     1       5.190   0.331   4.085  1.00  0.00     0.361 C 
ATOM     79  O   UNL     1       6.015  -0.558   4.079  1.00  0.00    -0.244 OA
BRANCH  78  80
ATOM     80  C   UNL     1       5.533   1.739   4.292  1.00  0.00     0.198 A 
ATOM     81  N   UNL     1       6.844   2.134   4.160  1.00  0.00    -0.122 NA
ATOM     82  C   UNL     1       4.749   2.869   4.517  1.00  0.00     0.123 A 
ATOM     83  N   UNL     1       6.904   3.445   4.305  1.00  0.00    -0.061 NA
ATOM     84  N   UNL     1       5.692   3.866   4.724  1.00  0.00    -0.213 N 
BRANCH  82  85
ATOM     85  C   UNL     1       3.266   3.113   4.412  1.00  0.00     0.262 C 
ATOM     86  C   UNL     1       2.869   3.906   3.156  1.00  0.00     0.281 C 
ATOM     87  O   UNL     1       2.756   3.671   5.630  1.00  0.00    -0.477 OA
ATOM     88  O   UNL     1       3.190   5.295   3.276  1.00  0.00    -0.485 OA
ATOM     89  C   UNL     1       2.405   4.996   5.551  1.00  0.00     0.162 A 
ATOM     90  C   UNL     1       2.652   5.795   4.432  1.00  0.00     0.161 A 
ATOM     91  C   UNL     1       1.858   5.566   6.700  1.00  0.00     0.050 A 
ATOM     92  C   UNL     1       2.419   7.169   4.482  1.00  0.00     0.050 A 
ATOM     93  C   UNL     1       1.599   6.938   6.744  1.00  0.00     0.004 A 
ATOM     94  C   UNL     1       1.893   7.741   5.641  1.00  0.00     0.004 A 
ENDBRANCH  82  85
BRANCH  84  95
ATOM     95  C   UNL     1       5.664   4.952   5.618  1.00  0.00     0.067 A 
ATOM     96  C   UNL     1       6.013   6.226   5.166  1.00  0.00     0.028 A 
ATOM     97  C   UNL     1       5.386   4.712   6.969  1.00  0.00     0.041 A 
ATOM     98  C   UNL     1       5.995   7.290   6.066  1.00  0.00     0.003 A 
ATOM     99  C   UNL     1       5.429   5.769   7.886  1.00  0.00     0.058 A 
ATOM    100  C   UNL     1       5.704   7.064   7.415  1.00  0.00     0.013 A 
BRANCH  99 101
ATOM    101  C   UNL     1       5.181   5.525   9.352  1.00  0.00     0.416 C 
ATOM    102  F   UNL     1       6.102   6.138  10.149  1.00  0.00    -0.166 F 
ATOM    103  F   UNL     1       3.968   5.987   9.764  1.00  0.00    -0.166 F 
ATOM    104  F   UNL     1       5.215   4.208   9.700  1.00  0.00    -0.166 F 
ENDBRANCH  99 101
ENDBRANCH  84  95
ENDBRANCH  78  80
ENDBRANCH  77  78
ENDBRANCH  76  77
ENDBRANCH  75  76
ENDBRANCH  74  75
ENDBRANCH   1  74
TORSDOF 20
