REMARK SMILES COc1ccc(-c2cc([C@@H]3CC[N@@H+](CC(=O)OCCOCCOC(=O)c4ccc(-c5c6nc(c(-c7c(F)cc(S(=O)(=O)[O-])cc7F)c7ccc([nH]7)c(-c7c(F)cc(S(=O)(=O)[O-])cc7F)c7nc(c(-c8c(F)cc(S(=O)(=O)[O-])cc8F)c8ccc5[nH]8)C=C7)C=C6)cc4)C3)ccn2)c2ccc(C)nc12
REMARK SMILES IDX 19 1 18 2 17 3 15 4 16 5 14 6 13 7 10 8 11 9 92 10 12 11
REMARK SMILES IDX 9 13 7 14 8 15 95 16 94 17 93 18 6 19 3 20 4 21 102 22 5 23
REMARK SMILES IDX 96 24 101 25 97 26 99 27 98 28 100 29 2 30 1 31 20 32 21 33
REMARK SMILES IDX 22 34 23 35 24 36 25 37 26 38 27 39 91 40 28 41 90 42 29 43
REMARK SMILES IDX 30 44 31 45 84 46 32 47 89 48 83 49 85 50 33 51 88 52 82 53
REMARK SMILES IDX 81 54 34 56 68 57 47 58 67 59 48 60 51 61 66 62 86 63 49 64
REMARK SMILES IDX 50 65 65 67 87 68 52 69 35 70 36 71 45 72 37 73 38 74 44 75
REMARK SMILES IDX 46 76 39 77 40 78 41 79 42 80 43 81 69 82 70 83 79 84 71 85
REMARK SMILES IDX 72 86 78 87 80 88 73 89 74 90 75 91 76 92 77 93 53 94 54 95
REMARK SMILES IDX 63 96 55 97 56 98 62 99 64 100 57 101 58 102 59 103 60 104
REMARK SMILES IDX 61 105
REMARK H PARENT 13 12 85 55 51 66
REMARK Flexibility Score: inf
ROOT
ATOM      1  C   UNL     1       4.873 -11.643   5.829  1.00  0.00     0.202 C 
ENDROOT
BRANCH   1   2
ATOM      2  C   UNL     1       5.331 -10.543   6.789  1.00  0.00     0.261 C 
BRANCH   2   3
ATOM      3  O   UNL     1       5.353  -9.249   6.153  1.00  0.00    -0.459 OA
BRANCH   3   4
ATOM      4  C   UNL     1       6.551  -8.767   5.740  1.00  0.00     0.361 C 
ATOM      5  O   UNL     1       7.616  -9.364   5.875  1.00  0.00    -0.245 OA
BRANCH   4   6
ATOM      6  C   UNL     1       6.481  -7.347   5.177  1.00  0.00     0.386 C 
BRANCH   6   7
ATOM      7  N   UNL     1       5.340  -6.949   4.336  1.00  0.00    -0.325 N 
ATOM      8  C   UNL     1       3.970  -8.226   2.814  1.00  0.00     0.080 C 
ATOM      9  C   UNL     1       3.309  -8.162   4.192  1.00  0.00     0.075 C 
ATOM     10  C   UNL     1       5.289  -7.446   2.964  1.00  0.00     0.271 C 
ATOM     11  C   UNL     1       4.011  -7.028   4.920  1.00  0.00     0.263 C 
ATOM     12  H   UNL     1       5.599  -5.964   4.288  1.00  0.00     0.348 HD
BRANCH   8  13
ATOM     13  C   UNL     1       3.012  -7.780   1.739  1.00  0.00    -0.035 A 
ATOM     14  C   UNL     1       1.647  -6.068   0.737  1.00  0.00     0.071 A 
ATOM     15  C   UNL     1       2.555  -6.471   1.714  1.00  0.00     0.033 A 
ATOM     16  N   UNL     1       1.113  -6.918  -0.165  1.00  0.00    -0.256 NA
ATOM     17  C   UNL     1       1.533  -8.201  -0.105  1.00  0.00     0.112 A 
ATOM     18  C   UNL     1       2.481  -8.668   0.798  1.00  0.00     0.024 A 
BRANCH  14  19
ATOM     19  C   UNL     1       1.315  -4.645   0.636  1.00  0.00     0.010 A 
ATOM     20  C   UNL     1       0.771  -1.932   0.898  1.00  0.00     0.145 A 
ATOM     21  C   UNL     1      -0.252  -2.870   1.079  1.00  0.00     0.049 A 
ATOM     22  C   UNL     1       2.091  -2.307   0.584  1.00  0.00     0.113 A 
ATOM     23  C   UNL     1       0.017  -4.224   0.941  1.00  0.00     0.015 A 
ATOM     24  C   UNL     1       2.346  -3.681   0.410  1.00  0.00     0.013 A 
ATOM     25  N   UNL     1       3.096  -1.397   0.482  1.00  0.00    -0.249 NA
ATOM     26  C   UNL     1       3.663  -4.050   0.045  1.00  0.00     0.013 A 
ATOM     27  C   UNL     1       4.358  -1.798   0.198  1.00  0.00     0.038 A 
ATOM     28  C   UNL     1       4.678  -3.114  -0.047  1.00  0.00     0.024 A 
ATOM     29  C   UNL     1       5.410  -0.735   0.139  1.00  0.00     0.067 C 
BRANCH  20  30
ATOM     30  O   UNL     1       0.376  -0.630   1.127  1.00  0.00    -0.494 OA
ATOM     31  C   UNL     1       0.747   0.253   0.072  1.00  0.00     0.278 C 
ENDBRANCH  20  30
ENDBRANCH  14  19
ENDBRANCH   8  13
ENDBRANCH   6   7
ENDBRANCH   4   6
ENDBRANCH   3   4
ENDBRANCH   2   3
ENDBRANCH   1   2
BRANCH   1  32
ATOM     32  O   UNL     1       5.862 -12.050   4.883  1.00  0.00    -0.374 OA
BRANCH  32  33
ATOM     33  C   UNL     1       5.878 -11.331   3.650  1.00  0.00     0.202 C 
BRANCH  33  34
ATOM     34  C   UNL     1       4.830 -11.810   2.635  1.00  0.00     0.261 C 
BRANCH  34  35
ATOM     35  O   UNL     1       3.510 -11.374   3.029  1.00  0.00    -0.460 OA
BRANCH  35  36
ATOM     36  C   UNL     1       2.605 -12.348   3.261  1.00  0.00     0.338 C 
ATOM     37  O   UNL     1       2.741 -13.537   3.011  1.00  0.00    -0.246 OA
BRANCH  36  38
ATOM     38  C   UNL     1       1.473 -11.819   4.055  1.00  0.00     0.060 A 
ATOM     39  C   UNL     1       1.125 -12.542   5.199  1.00  0.00     0.016 A 
ATOM     40  C   UNL     1       0.719 -10.701   3.682  1.00  0.00     0.016 A 
ATOM     41  C   UNL     1      -0.023 -12.211   5.918  1.00  0.00     0.010 A 
ATOM     42  C   UNL     1      -0.428 -10.359   4.419  1.00  0.00     0.010 A 
ATOM     43  C   UNL     1      -0.841 -11.148   5.508  1.00  0.00    -0.014 A 
BRANCH  43  44
ATOM     44  C   UNL     1      -2.184 -10.995   6.139  1.00  0.00     0.031 A 
ATOM     45  C   UNL     1      -3.418 -11.400   5.367  1.00  0.00     0.074 A 
ATOM     46  C   UNL     1      -2.308 -10.604   7.424  1.00  0.00     0.049 A 
ATOM     47  N   UNL     1      -4.667 -11.433   5.759  1.00  0.00    -0.248 NA
ATOM     48  C   UNL     1      -3.221 -11.828   3.972  1.00  0.00     0.031 C 
ATOM     49  C   UNL     1      -1.203 -10.209   8.297  1.00  0.00     0.029 A 
ATOM     50  N   UNL     1      -3.421 -10.488   8.223  1.00  0.00    -0.354 N 
ATOM     51  C   UNL     1      -5.401 -11.881   4.665  1.00  0.00     0.074 A 
ATOM     52  C   UNL     1      -4.464 -12.072   3.580  1.00  0.00     0.031 C 
ATOM     53  C   UNL     1      -1.691  -9.904   9.511  1.00  0.00     0.029 A 
ATOM     54  C   UNL     1      -3.146 -10.051   9.499  1.00  0.00     0.049 A 
ATOM     55  H   UNL     1      -4.330 -10.699   7.912  1.00  0.00     0.167 HD
ATOM     56  C   UNL     1      -6.730 -12.128   4.573  1.00  0.00     0.037 A 
ATOM     57  C   UNL     1      -3.969  -9.785  10.535  1.00  0.00     0.037 A 
ATOM     58  C   UNL     1      -7.667 -11.960   5.655  1.00  0.00     0.049 A 
ATOM     59  C   UNL     1      -5.453 -10.019  10.389  1.00  0.00     0.074 A 
ATOM     60  C   UNL     1      -9.026 -12.226   5.659  1.00  0.00     0.029 A 
ATOM     61  N   UNL     1      -7.352 -11.478   6.915  1.00  0.00    -0.354 N 
ATOM     62  N   UNL     1      -6.118 -10.491   9.362  1.00  0.00    -0.248 NA
ATOM     63  C   UNL     1      -6.299  -9.691  11.547  1.00  0.00     0.031 C 
ATOM     64  C   UNL     1      -9.544 -11.845   6.900  1.00  0.00     0.029 A 
ATOM     65  C   UNL     1      -8.497 -11.407   7.693  1.00  0.00     0.049 A 
ATOM     66  H   UNL     1      -6.449 -11.224   7.214  1.00  0.00     0.167 HD
ATOM     67  C   UNL     1      -7.451 -10.546   9.762  1.00  0.00     0.074 A 
ATOM     68  C   UNL     1      -7.497 -10.075  11.129  1.00  0.00     0.031 C 
ATOM     69  C   UNL     1      -8.538 -10.951   9.060  1.00  0.00     0.037 A 
BRANCH  56  70
ATOM     70  C   UNL     1      -7.275 -12.597   3.250  1.00  0.00     0.058 A 
ATOM     71  C   UNL     1      -7.038 -13.894   2.768  1.00  0.00     0.135 A 
ATOM     72  C   UNL     1      -8.121 -11.764   2.499  1.00  0.00     0.135 A 
ATOM     73  F   UNL     1      -6.224 -14.726   3.436  1.00  0.00    -0.206 F 
ATOM     74  C   UNL     1      -7.614 -14.346   1.584  1.00  0.00     0.059 A 
ATOM     75  C   UNL     1      -8.731 -12.204   1.328  1.00  0.00     0.059 A 
ATOM     76  F   UNL     1      -8.380 -10.514   2.914  1.00  0.00    -0.206 F 
ATOM     77  C   UNL     1      -8.466 -13.496   0.876  1.00  0.00     0.060 A 
BRANCH  77  78
ATOM     78  S   UNL     1      -9.238 -14.113  -0.635  1.00  0.00     0.124 S 
ATOM     79  O   UNL     1      -8.093 -14.188  -1.538  1.00  0.00    -0.237 OA
ATOM     80  O   UNL     1      -9.787 -15.394  -0.202  1.00  0.00    -0.237 OA
ATOM     81  O   UNL     1     -10.225 -13.088  -0.959  1.00  0.00    -0.744 OA
ENDBRANCH  77  78
ENDBRANCH  56  70
BRANCH  57  82
ATOM     82  C   UNL     1      -3.419  -9.239  11.809  1.00  0.00     0.058 A 
ATOM     83  C   UNL     1      -3.476  -9.967  13.007  1.00  0.00     0.135 A 
ATOM     84  C   UNL     1      -2.863  -7.950  11.857  1.00  0.00     0.135 A 
ATOM     85  F   UNL     1      -4.010 -11.198  13.019  1.00  0.00    -0.206 F 
ATOM     86  C   UNL     1      -3.031  -9.428  14.211  1.00  0.00     0.059 A 
ATOM     87  C   UNL     1      -2.381  -7.403  13.041  1.00  0.00     0.059 A 
ATOM     88  F   UNL     1      -2.775  -7.213  10.738  1.00  0.00    -0.206 F 
ATOM     89  C   UNL     1      -2.485  -8.143  14.217  1.00  0.00     0.060 A 
BRANCH  89  90
ATOM     90  S   UNL     1      -1.890  -7.459  15.778  1.00  0.00     0.124 S 
ATOM     91  O   UNL     1      -3.141  -7.190  16.477  1.00  0.00    -0.237 OA
ATOM     92  O   UNL     1      -1.086  -8.557  16.306  1.00  0.00    -0.237 OA
ATOM     93  O   UNL     1      -1.133  -6.282  15.361  1.00  0.00    -0.744 OA
ENDBRANCH  89  90
ENDBRANCH  57  82
BRANCH  69  94
ATOM     94  C   UNL     1      -9.872 -10.951   9.761  1.00  0.00     0.058 A 
ATOM     95  C   UNL     1     -10.538  -9.761  10.095  1.00  0.00     0.135 A 
ATOM     96  C   UNL     1     -10.521 -12.163  10.052  1.00  0.00     0.135 A 
ATOM     97  F   UNL     1      -9.964  -8.573   9.844  1.00  0.00    -0.206 F 
ATOM     98  C   UNL     1     -11.784  -9.772  10.715  1.00  0.00     0.059 A 
ATOM     99  C   UNL     1     -11.781 -12.198  10.642  1.00  0.00     0.059 A 
ATOM    100  F   UNL     1      -9.938 -13.333   9.744  1.00  0.00    -0.206 F 
ATOM    101  C   UNL     1     -12.400 -10.996  10.982  1.00  0.00     0.060 A 
BRANCH 101 102
ATOM    102  S   UNL     1     -14.030 -10.995  11.759  1.00  0.00     0.124 S 
ATOM    103  O   UNL     1     -13.708 -10.579  13.120  1.00  0.00    -0.237 OA
ATOM    104  O   UNL     1     -14.758 -10.020  10.953  1.00  0.00    -0.237 OA
ATOM    105  O   UNL     1     -14.477 -12.377  11.615  1.00  0.00    -0.744 OA
ENDBRANCH 101 102
ENDBRANCH  69  94
ENDBRANCH  43  44
ENDBRANCH  36  38
ENDBRANCH  35  36
ENDBRANCH  34  35
ENDBRANCH  33  34
ENDBRANCH  32  33
ENDBRANCH   1  32
TORSDOF 21
