REMARK SMILES O=C(OCCOCCOC(=O)c1ccc(-c2c3nc(c(-c4c(F)cc(S(=O)(=O)[O-])cc4F)c4ccc([nH]4)c(-c4c(F)cc(S(=O)(=O)[O-])cc4F)c4nc(c(-c5c(F)cc(S(=O)(=O)[O-])cc5F)c5ccc2[nH]5)C=C4)C=C3)cc1)C1=Cc2c(cc(Cl)c(Cl)c2Cl)O[C@H]1C(F)(F)F
REMARK SMILES IDX 7 1 6 2 5 3 4 4 3 5 2 6 1 7 78 8 79 9 90 10 80 11 89 12
REMARK SMILES IDX 81 13 87 14 82 15 85 16 88 17 83 18 86 19 84 20 91 21 92 22
REMARK SMILES IDX 93 23 94 24 8 25 9 26 10 27 11 28 12 29 13 30 77 31 14 32
REMARK SMILES IDX 76 33 15 34 16 35 17 36 70 37 18 38 75 39 69 40 71 41 19 42
REMARK SMILES IDX 74 43 68 44 67 45 20 47 54 48 33 49 53 50 34 51 37 52 52 53
REMARK SMILES IDX 72 54 35 55 36 56 51 58 73 59 38 60 21 61 22 62 31 63 23 64
REMARK SMILES IDX 24 65 30 66 32 67 25 68 26 69 27 70 28 71 29 72 55 73 56 74
REMARK SMILES IDX 65 75 57 76 58 77 64 78 66 79 59 80 60 81 61 82 62 83 63 84
REMARK SMILES IDX 39 85 40 86 49 87 41 88 42 89 48 90 50 91 43 92 44 93 45 94
REMARK SMILES IDX 46 95 47 96
REMARK H PARENT 71 46 37 57
REMARK Flexibility Score: inf
ROOT
ATOM      1  C   UNL     1       1.581   2.516  -2.518  1.00  0.00     0.202 C 
ENDROOT
BRANCH   1   2
ATOM      2  O   UNL     1       2.234   1.705  -1.544  1.00  0.00    -0.374 OA
BRANCH   2   3
ATOM      3  C   UNL     1       2.323   0.332  -1.923  1.00  0.00     0.202 C 
BRANCH   3   4
ATOM      4  C   UNL     1       1.858  -0.583  -0.790  1.00  0.00     0.261 C 
BRANCH   4   5
ATOM      5  O   UNL     1       1.477   0.144   0.397  1.00  0.00    -0.460 OA
BRANCH   5   6
ATOM      6  C   UNL     1       2.257   0.637   1.382  1.00  0.00     0.338 C 
ATOM      7  O   UNL     1       1.718   1.071   2.400  1.00  0.00    -0.246 OA
BRANCH   6   8
ATOM      8  C   UNL     1       3.728   0.429   1.404  1.00  0.00     0.087 C 
ATOM      9  C   UNL     1       4.559   0.185   0.386  1.00  0.00     0.029 C 
ATOM     10  C   UNL     1       4.348   0.592   2.783  1.00  0.00     0.316 C 
ATOM     11  C   UNL     1       5.574  -0.830   0.672  1.00  0.00     0.038 A 
ATOM     12  O   UNL     1       5.725   0.100   2.894  1.00  0.00    -0.475 OA
ATOM     13  C   UNL     1       6.124  -0.805   1.949  1.00  0.00     0.131 A 
ATOM     14  C   UNL     1       5.916  -1.888  -0.206  1.00  0.00     0.072 A 
ATOM     15  C   UNL     1       7.100  -1.723   2.314  1.00  0.00     0.069 A 
ATOM     16  C   UNL     1       6.854  -2.862   0.182  1.00  0.00     0.079 A 
ATOM     17  Cl  UNL     1       5.097  -2.047  -1.727  1.00  0.00    -0.082 Cl
ATOM     18  C   UNL     1       7.461  -2.753   1.440  1.00  0.00     0.064 A 
ATOM     19  Cl  UNL     1       7.239  -4.197  -0.864  1.00  0.00    -0.081 Cl
ATOM     20  Cl  UNL     1       8.645  -3.881   2.002  1.00  0.00    -0.083 Cl
BRANCH  10  21
ATOM     21  C   UNL     1       4.340   2.088   3.231  1.00  0.00     0.430 C 
ATOM     22  F   UNL     1       3.506   2.883   2.522  1.00  0.00    -0.167 F 
ATOM     23  F   UNL     1       3.990   2.201   4.537  1.00  0.00    -0.167 F 
ATOM     24  F   UNL     1       5.570   2.654   3.110  1.00  0.00    -0.167 F 
ENDBRANCH  10  21
ENDBRANCH   6   8
ENDBRANCH   5   6
ENDBRANCH   4   5
ENDBRANCH   3   4
ENDBRANCH   2   3
ENDBRANCH   1   2
BRANCH   1  25
ATOM     25  C   UNL     1       2.532   2.991  -3.619  1.00  0.00     0.261 C 
BRANCH  25  26
ATOM     26  O   UNL     1       3.107   1.877  -4.327  1.00  0.00    -0.460 OA
BRANCH  26  27
ATOM     27  C   UNL     1       4.446   1.678  -4.149  1.00  0.00     0.338 C 
ATOM     28  O   UNL     1       5.196   2.379  -3.514  1.00  0.00    -0.246 OA
BRANCH  27  29
ATOM     29  C   UNL     1       4.862   0.382  -4.768  1.00  0.00     0.060 A 
ATOM     30  C   UNL     1       6.126  -0.133  -4.440  1.00  0.00     0.016 A 
ATOM     31  C   UNL     1       4.030  -0.346  -5.625  1.00  0.00     0.016 A 
ATOM     32  C   UNL     1       6.548  -1.371  -4.948  1.00  0.00     0.010 A 
ATOM     33  C   UNL     1       4.455  -1.577  -6.138  1.00  0.00     0.010 A 
ATOM     34  C   UNL     1       5.715  -2.100  -5.806  1.00  0.00    -0.014 A 
BRANCH  34  35
ATOM     35  C   UNL     1       6.173  -3.352  -6.462  1.00  0.00     0.031 A 
ATOM     36  C   UNL     1       6.835  -3.264  -7.808  1.00  0.00     0.074 A 
ATOM     37  C   UNL     1       5.928  -4.560  -5.916  1.00  0.00     0.049 A 
ATOM     38  N   UNL     1       7.174  -4.224  -8.627  1.00  0.00    -0.248 NA
ATOM     39  C   UNL     1       7.149  -1.912  -8.299  1.00  0.00     0.031 C 
ATOM     40  C   UNL     1       5.317  -4.789  -4.609  1.00  0.00     0.029 A 
ATOM     41  N   UNL     1       6.134  -5.826  -6.413  1.00  0.00    -0.354 N 
ATOM     42  C   UNL     1       7.729  -3.598  -9.734  1.00  0.00     0.074 A 
ATOM     43  C   UNL     1       7.677  -2.173  -9.486  1.00  0.00     0.031 C 
ATOM     44  C   UNL     1       5.164  -6.112  -4.421  1.00  0.00     0.029 A 
ATOM     45  C   UNL     1       5.628  -6.824  -5.611  1.00  0.00     0.049 A 
ATOM     46  H   UNL     1       6.600  -6.002  -7.263  1.00  0.00     0.167 HD
ATOM     47  C   UNL     1       8.232  -4.159 -10.857  1.00  0.00     0.037 A 
ATOM     48  C   UNL     1       5.510  -8.151  -5.829  1.00  0.00     0.037 A 
ATOM     49  C   UNL     1       8.277  -5.573 -11.114  1.00  0.00     0.049 A 
ATOM     50  C   UNL     1       6.000  -8.740  -7.132  1.00  0.00     0.074 A 
ATOM     51  C   UNL     1       8.816  -6.228 -12.209  1.00  0.00     0.029 A 
ATOM     52  N   UNL     1       7.746  -6.549 -10.286  1.00  0.00    -0.354 N 
ATOM     53  N   UNL     1       6.591  -8.142  -8.139  1.00  0.00    -0.248 NA
ATOM     54  C   UNL     1       5.798 -10.184  -7.333  1.00  0.00     0.031 C 
ATOM     55  C   UNL     1       8.555  -7.595 -12.072  1.00  0.00     0.029 A 
ATOM     56  C   UNL     1       7.902  -7.796 -10.868  1.00  0.00     0.049 A 
ATOM     57  H   UNL     1       7.320  -6.380  -9.415  1.00  0.00     0.167 HD
ATOM     58  C   UNL     1       6.851  -9.139  -9.076  1.00  0.00     0.074 A 
ATOM     59  C   UNL     1       6.370 -10.381  -8.514  1.00  0.00     0.031 C 
ATOM     60  C   UNL     1       7.433  -9.033 -10.296  1.00  0.00     0.037 A 
BRANCH  47  61
ATOM     61  C   UNL     1       8.755  -3.241 -11.922  1.00  0.00     0.058 A 
ATOM     62  C   UNL     1       9.991  -2.591 -11.791  1.00  0.00     0.135 A 
ATOM     63  C   UNL     1       8.042  -3.071 -13.120  1.00  0.00     0.135 A 
ATOM     64  F   UNL     1      10.698  -2.706 -10.656  1.00  0.00    -0.206 F 
ATOM     65  C   UNL     1      10.502  -1.799 -12.812  1.00  0.00     0.059 A 
ATOM     66  C   UNL     1       8.545  -2.301 -14.163  1.00  0.00     0.059 A 
ATOM     67  F   UNL     1       6.851  -3.667 -13.288  1.00  0.00    -0.206 F 
ATOM     68  C   UNL     1       9.775  -1.665 -13.997  1.00  0.00     0.060 A 
BRANCH  68  69
ATOM     69  S   UNL     1      10.473  -0.665 -15.327  1.00  0.00     0.124 S 
ATOM     70  O   UNL     1      10.326   0.682 -14.786  1.00  0.00    -0.237 OA
ATOM     71  O   UNL     1      11.840  -1.169 -15.409  1.00  0.00    -0.237 OA
ATOM     72  O   UNL     1       9.623  -0.978 -16.471  1.00  0.00    -0.744 OA
ENDBRANCH  68  69
ENDBRANCH  47  61
BRANCH  48  73
ATOM     73  C   UNL     1       4.845  -9.031  -4.827  1.00  0.00     0.058 A 
ATOM     74  C   UNL     1       5.557 -10.036  -4.155  1.00  0.00     0.135 A 
ATOM     75  C   UNL     1       3.466  -8.935  -4.579  1.00  0.00     0.135 A 
ATOM     76  F   UNL     1       6.874 -10.182  -4.371  1.00  0.00    -0.206 F 
ATOM     77  C   UNL     1       4.923 -10.939  -3.305  1.00  0.00     0.059 A 
ATOM     78  C   UNL     1       2.815  -9.807  -3.711  1.00  0.00     0.059 A 
ATOM     79  F   UNL     1       2.735  -7.988  -5.188  1.00  0.00    -0.206 F 
ATOM     80  C   UNL     1       3.549 -10.819  -3.095  1.00  0.00     0.060 A 
BRANCH  80  81
ATOM     81  S   UNL     1       2.731 -11.997  -1.996  1.00  0.00     0.124 S 
ATOM     82  O   UNL     1       2.703 -13.198  -2.823  1.00  0.00    -0.237 OA
ATOM     83  O   UNL     1       3.636 -12.030  -0.852  1.00  0.00    -0.237 OA
ATOM     84  O   UNL     1       1.435 -11.373  -1.743  1.00  0.00    -0.744 OA
ENDBRANCH  80  81
ENDBRANCH  48  73
BRANCH  60  85
ATOM     85  C   UNL     1       7.611 -10.288 -11.108  1.00  0.00     0.058 A 
ATOM     86  C   UNL     1       6.526 -10.917 -11.738  1.00  0.00     0.135 A 
ATOM     87  C   UNL     1       8.893 -10.818 -11.331  1.00  0.00     0.135 A 
ATOM     88  F   UNL     1       5.278 -10.457 -11.554  1.00  0.00    -0.206 F 
ATOM     89  C   UNL     1       6.704 -12.031 -12.553  1.00  0.00     0.059 A 
ATOM     90  C   UNL     1       9.097 -11.915 -12.163  1.00  0.00     0.059 A 
ATOM     91  F   UNL     1       9.967 -10.250 -10.760  1.00  0.00    -0.206 F 
ATOM     92  C   UNL     1       7.995 -12.518 -12.766  1.00  0.00     0.060 A 
BRANCH  92  93
ATOM     93  S   UNL     1       8.218 -13.924 -13.878  1.00  0.00     0.124 S 
ATOM     94  O   UNL     1       7.705 -15.025 -13.068  1.00  0.00    -0.237 OA
ATOM     95  O   UNL     1       7.400 -13.547 -15.026  1.00  0.00    -0.237 OA
ATOM     96  O   UNL     1       9.658 -13.941 -14.121  1.00  0.00    -0.744 OA
ENDBRANCH  92  93
ENDBRANCH  60  85
ENDBRANCH  34  35
ENDBRANCH  27  29
ENDBRANCH  26  27
ENDBRANCH  25  26
ENDBRANCH   1  25
TORSDOF 18
