REMARK SMILES Cc1ccnc(C(=O)c2[nH]c3ccc(F)cc3c2CC(=O)OCCOCCOC(=O)c2ccc(-c3c4nc(c(-c5c(F)cc(S(=O)(=O)[O-])cc5F)c5ccc([nH]5)c(-c5c(F)cc(S(=O)(=O)[O-])cc5F)c5nc(c(-c6c(F)cc(S(=O)(=O)[O-])cc6F)c6ccc3[nH]6)C=C5)C=C4)cc2)c1
REMARK SMILES IDX 25 1 24 2 23 3 22 4 20 5 21 6 19 7 18 8 9 9 10 10 11 11
REMARK SMILES IDX 17 13 12 14 16 15 13 16 14 17 15 18 7 19 8 20 6 21 1 22 2 23
REMARK SMILES IDX 3 24 97 25 4 26 5 27 26 28 27 29 28 30 29 31 30 32 31 33
REMARK SMILES IDX 32 34 96 35 33 36 95 37 34 38 35 39 36 40 89 41 37 42 94 43
REMARK SMILES IDX 88 44 90 45 38 46 93 47 87 48 86 49 39 51 73 52 52 53 72 54
REMARK SMILES IDX 53 55 56 56 71 57 91 58 54 59 55 60 70 62 92 63 57 64 40 65
REMARK SMILES IDX 41 66 50 67 42 68 43 69 49 70 51 71 44 72 45 73 46 74 47 75
REMARK SMILES IDX 48 76 74 77 75 78 84 79 76 80 77 81 83 82 85 83 78 84 79 85
REMARK SMILES IDX 80 86 81 87 82 88 58 89 59 90 68 91 60 92 61 93 67 94 69 95
REMARK SMILES IDX 62 96 63 97 64 98 65 99 66 100
REMARK H PARENT 10 12 90 50 56 61
REMARK Flexibility Score: inf
ROOT
ATOM      1  O   UNL     1      -2.392  -1.712   0.305  1.00  0.00    -0.374 OA
ENDROOT
BRANCH   1   2
ATOM      2  C   UNL     1      -3.513  -2.045  -0.537  1.00  0.00     0.202 C 
BRANCH   2   3
ATOM      3  C   UNL     1      -3.233  -2.213  -2.051  1.00  0.00     0.261 C 
BRANCH   3   4
ATOM      4  O   UNL     1      -2.085  -3.042  -2.346  1.00  0.00    -0.463 OA
BRANCH   4   5
ATOM      5  C   UNL     1      -1.046  -2.430  -2.990  1.00  0.00     0.310 C 
ATOM      6  O   UNL     1      -1.098  -1.309  -3.484  1.00  0.00    -0.252 OA
BRANCH   5   7
ATOM      7  C   UNL     1       0.200  -3.291  -3.073  1.00  0.00     0.161 C 
BRANCH   7   8
ATOM      8  C   UNL     1       0.759  -3.791  -1.767  1.00  0.00     0.000 A 
ATOM      9  C   UNL     1       1.691  -3.198  -0.900  1.00  0.00     0.093 A 
ATOM     10  N   UNL     1       2.022  -4.199   0.013  1.00  0.00    -0.352 N 
ATOM     11  C   UNL     1       1.150  -5.257  -0.040  1.00  0.00     0.046 A 
ATOM     12  H   UNL     1       2.792  -4.152   0.624  1.00  0.00     0.167 HD
ATOM     13  C   UNL     1       0.363  -5.058  -1.169  1.00  0.00     0.007 A 
ATOM     14  C   UNL     1       0.978  -6.336   0.845  1.00  0.00     0.030 A 
ATOM     15  C   UNL     1      -0.629  -6.024  -1.457  1.00  0.00     0.049 A 
ATOM     16  C   UNL     1      -0.046  -7.245   0.566  1.00  0.00     0.041 A 
ATOM     17  C   UNL     1      -0.823  -7.090  -0.573  1.00  0.00     0.123 A 
ATOM     18  F   UNL     1      -1.800  -7.974  -0.819  1.00  0.00    -0.207 F 
BRANCH   9  19
ATOM     19  C   UNL     1       2.455  -1.941  -0.802  1.00  0.00     0.227 C 
ATOM     20  O   UNL     1       3.643  -2.044  -0.478  1.00  0.00    -0.285 OA
BRANCH  19  21
ATOM     21  C   UNL     1       1.917  -0.512  -0.882  1.00  0.00     0.113 A 
ATOM     22  C   UNL     1      -1.026   1.755   0.033  1.00  0.00     0.044 C 
ATOM     23  C   UNL     1       0.341   1.277  -0.379  1.00  0.00    -0.047 A 
ATOM     24  C   UNL     1       1.340   2.202  -0.658  1.00  0.00     0.023 A 
ATOM     25  C   UNL     1       0.640  -0.095  -0.509  1.00  0.00     0.036 A 
ATOM     26  C   UNL     1       2.579   1.721  -1.034  1.00  0.00     0.112 A 
ATOM     27  N   UNL     1       2.884   0.409  -1.157  1.00  0.00    -0.253 NA
ENDBRANCH  19  21
ENDBRANCH   9  19
ENDBRANCH   7   8
ENDBRANCH   5   7
ENDBRANCH   4   5
ENDBRANCH   3   4
ENDBRANCH   2   3
ENDBRANCH   1   2
BRANCH   1  28
ATOM     28  C   UNL     1      -1.482  -2.805   0.402  1.00  0.00     0.202 C 
BRANCH  28  29
ATOM     29  C   UNL     1      -0.441  -2.786   1.520  1.00  0.00     0.261 C 
BRANCH  29  30
ATOM     30  O   UNL     1      -1.004  -2.521   2.766  1.00  0.00    -0.460 OA
BRANCH  30  31
ATOM     31  C   UNL     1      -1.073  -1.213   3.104  1.00  0.00     0.338 C 
ATOM     32  O   UNL     1      -0.418  -0.282   2.710  1.00  0.00    -0.246 OA
BRANCH  31  33
ATOM     33  C   UNL     1      -2.352  -1.202   3.813  1.00  0.00     0.060 A 
ATOM     34  C   UNL     1      -3.290  -0.230   3.465  1.00  0.00     0.016 A 
ATOM     35  C   UNL     1      -2.679  -2.340   4.567  1.00  0.00     0.016 A 
ATOM     36  C   UNL     1      -4.596  -0.406   3.885  1.00  0.00     0.010 A 
ATOM     37  C   UNL     1      -3.989  -2.567   4.883  1.00  0.00     0.010 A 
ATOM     38  C   UNL     1      -4.926  -1.568   4.594  1.00  0.00    -0.014 A 
BRANCH  38  39
ATOM     39  C   UNL     1      -6.193  -1.687   5.308  1.00  0.00     0.031 A 
ATOM     40  C   UNL     1      -6.113  -1.529   6.794  1.00  0.00     0.074 A 
ATOM     41  C   UNL     1      -7.294  -2.060   4.643  1.00  0.00     0.049 A 
ATOM     42  N   UNL     1      -7.001  -1.806   7.701  1.00  0.00    -0.248 NA
ATOM     43  C   UNL     1      -4.819  -1.061   7.337  1.00  0.00     0.031 C 
ATOM     44  C   UNL     1      -7.387  -2.267   3.196  1.00  0.00     0.029 A 
ATOM     45  N   UNL     1      -8.536  -2.363   5.113  1.00  0.00    -0.354 N 
ATOM     46  C   UNL     1      -6.365  -1.576   8.914  1.00  0.00     0.074 A 
ATOM     47  C   UNL     1      -4.998  -1.214   8.637  1.00  0.00     0.031 C 
ATOM     48  C   UNL     1      -8.635  -2.664   2.896  1.00  0.00     0.029 A 
ATOM     49  C   UNL     1      -9.402  -2.775   4.133  1.00  0.00     0.049 A 
ATOM     50  H   UNL     1      -8.787  -2.294   6.062  1.00  0.00     0.167 HD
ATOM     51  C   UNL     1      -6.902  -1.638  10.150  1.00  0.00     0.037 A 
ATOM     52  C   UNL     1     -10.669  -3.206   4.255  1.00  0.00     0.037 A 
ATOM     53  C   UNL     1      -8.279  -1.979  10.363  1.00  0.00     0.049 A 
ATOM     54  C   UNL     1     -11.256  -3.242   5.641  1.00  0.00     0.074 A 
ATOM     55  C   UNL     1      -8.985  -2.032  11.546  1.00  0.00     0.029 A 
ATOM     56  N   UNL     1      -9.160  -2.325   9.343  1.00  0.00    -0.354 N 
ATOM     57  N   UNL     1     -10.675  -2.970   6.789  1.00  0.00    -0.248 NA
ATOM     58  C   UNL     1     -12.665  -3.630   5.753  1.00  0.00     0.031 C 
ATOM     59  C   UNL     1     -10.286  -2.450  11.245  1.00  0.00     0.029 A 
ATOM     60  C   UNL     1     -10.404  -2.605   9.869  1.00  0.00     0.049 A 
ATOM     61  H   UNL     1      -8.930  -2.363   8.387  1.00  0.00     0.167 HD
ATOM     62  C   UNL     1     -11.655  -3.127   7.761  1.00  0.00     0.074 A 
ATOM     63  C   UNL     1     -12.867  -3.508   7.058  1.00  0.00     0.031 C 
ATOM     64  C   UNL     1     -11.574  -2.975   9.108  1.00  0.00     0.037 A 
BRANCH  51  65
ATOM     65  C   UNL     1      -6.000  -1.339  11.313  1.00  0.00     0.058 A 
ATOM     66  C   UNL     1      -5.457  -0.058  11.521  1.00  0.00     0.135 A 
ATOM     67  C   UNL     1      -5.645  -2.351  12.217  1.00  0.00     0.135 A 
ATOM     68  F   UNL     1      -5.733   0.942  10.667  1.00  0.00    -0.206 F 
ATOM     69  C   UNL     1      -4.572   0.199  12.562  1.00  0.00     0.059 A 
ATOM     70  C   UNL     1      -4.787  -2.108  13.286  1.00  0.00     0.059 A 
ATOM     71  F   UNL     1      -6.116  -3.597  12.056  1.00  0.00    -0.206 F 
ATOM     72  C   UNL     1      -4.244  -0.833  13.441  1.00  0.00     0.060 A 
BRANCH  72  73
ATOM     73  S   UNL     1      -3.104  -0.481  14.795  1.00  0.00     0.124 S 
ATOM     74  O   UNL     1      -1.834  -0.365  14.085  1.00  0.00    -0.237 OA
ATOM     75  O   UNL     1      -3.642   0.763  15.338  1.00  0.00    -0.237 OA
ATOM     76  O   UNL     1      -3.235  -1.648  15.662  1.00  0.00    -0.744 OA
ENDBRANCH  72  73
ENDBRANCH  51  65
BRANCH  52  77
ATOM     77  C   UNL     1     -11.444  -3.583   3.047  1.00  0.00     0.058 A 
ATOM     78  C   UNL     1     -12.483  -2.766   2.579  1.00  0.00     0.135 A 
ATOM     79  C   UNL     1     -11.126  -4.728   2.300  1.00  0.00     0.135 A 
ATOM     80  F   UNL     1     -12.820  -1.657   3.254  1.00  0.00    -0.206 F 
ATOM     81  C   UNL     1     -13.189  -3.076   1.421  1.00  0.00     0.059 A 
ATOM     82  C   UNL     1     -11.802  -5.046   1.125  1.00  0.00     0.059 A 
ATOM     83  F   UNL     1     -10.121  -5.528   2.689  1.00  0.00    -0.206 F 
ATOM     84  C   UNL     1     -12.837  -4.217   0.698  1.00  0.00     0.060 A 
BRANCH  84  85
ATOM     85  S   UNL     1     -13.720  -4.572  -0.837  1.00  0.00     0.124 S 
ATOM     86  O   UNL     1     -15.026  -4.984  -0.336  1.00  0.00    -0.237 OA
ATOM     87  O   UNL     1     -13.675  -3.284  -1.521  1.00  0.00    -0.237 OA
ATOM     88  O   UNL     1     -12.917  -5.626  -1.450  1.00  0.00    -0.744 OA
ENDBRANCH  84  85
ENDBRANCH  52  77
BRANCH  64  89
ATOM     89  C   UNL     1     -12.837  -3.187   9.886  1.00  0.00     0.058 A 
ATOM     90  C   UNL     1     -13.363  -4.469  10.097  1.00  0.00     0.135 A 
ATOM     91  C   UNL     1     -13.486  -2.095  10.484  1.00  0.00     0.135 A 
ATOM     92  F   UNL     1     -12.776  -5.541   9.541  1.00  0.00    -0.206 F 
ATOM     93  C   UNL     1     -14.510  -4.660  10.854  1.00  0.00     0.059 A 
ATOM     94  C   UNL     1     -14.615  -2.266  11.272  1.00  0.00     0.059 A 
ATOM     95  F   UNL     1     -13.006  -0.851  10.323  1.00  0.00    -0.206 F 
ATOM     96  C   UNL     1     -15.127  -3.552  11.440  1.00  0.00     0.060 A 
BRANCH  96  97
ATOM     97  S   UNL     1     -16.598  -3.819  12.448  1.00  0.00     0.124 S 
ATOM     98  O   UNL     1     -17.602  -4.102  11.428  1.00  0.00    -0.237 OA
ATOM     99  O   UNL     1     -16.203  -4.950  13.282  1.00  0.00    -0.237 OA
ATOM    100  O   UNL     1     -16.759  -2.552  13.155  1.00  0.00    -0.744 OA
ENDBRANCH  96  97
ENDBRANCH  64  89
ENDBRANCH  38  39
ENDBRANCH  31  33
ENDBRANCH  30  31
ENDBRANCH  29  30
ENDBRANCH  28  29
ENDBRANCH   1  28
TORSDOF 20
