REMARK SMILES O=C(OCCOCCOC(=O)[C@@H](F)Sc1ccccc1O)c1ccc(-c2c3nc(c(-c4c(F)cc(S(=O)(=O)[O-])cc4F)c4ccc([nH]4)c(-c4c(F)cc(S(=O)(=O)[O-])cc4F)c4nc(c(-c5c(F)cc(S(=O)(=O)[O-])cc5F)c5ccc2[nH]5)C=C4)C=C3)cc1
REMARK SMILES IDX 6 1 5 2 4 3 3 4 2 5 1 6 22 7 23 8 87 9 24 10 86 11 25 12
REMARK SMILES IDX 26 13 27 14 80 15 28 16 85 17 79 18 81 19 29 20 84 21 78 22
REMARK SMILES IDX 77 23 30 25 64 26 43 27 63 28 44 29 47 30 62 31 82 32 45 33
REMARK SMILES IDX 46 34 61 36 83 37 48 38 31 39 32 40 41 41 33 42 34 43 40 44
REMARK SMILES IDX 42 45 35 46 36 47 37 48 38 49 39 50 65 51 66 52 75 53 67 54
REMARK SMILES IDX 68 55 74 56 76 57 69 58 70 59 71 60 72 61 73 62 49 63 50 64
REMARK SMILES IDX 59 65 51 66 52 67 58 68 60 69 53 70 54 71 55 72 56 73 57 74
REMARK SMILES IDX 7 75 8 76 9 77 10 78 11 79 12 80 13 81 14 82 15 83 16 84
REMARK SMILES IDX 20 85 17 86 19 87 18 88 21 89
REMARK H PARENT 81 24 47 35 21 90
REMARK Flexibility Score: inf
ROOT
ATOM      1  O   UNL     1       4.364   1.764   0.260  1.00  0.00    -0.374 OA
ENDROOT
BRANCH   1   2
ATOM      2  C   UNL     1       4.558   1.312  -1.082  1.00  0.00     0.202 C 
BRANCH   2   3
ATOM      3  C   UNL     1       4.178  -0.147  -1.364  1.00  0.00     0.261 C 
BRANCH   3   4
ATOM      4  O   UNL     1       2.791  -0.382  -1.050  1.00  0.00    -0.460 OA
BRANCH   4   5
ATOM      5  C   UNL     1       2.271  -1.032   0.020  1.00  0.00     0.338 C 
ATOM      6  O   UNL     1       1.056  -1.224   0.053  1.00  0.00    -0.246 OA
BRANCH   5   7
ATOM      7  C   UNL     1       3.094  -1.510   1.173  1.00  0.00     0.060 A 
ATOM      8  C   UNL     1       4.333  -0.978   1.521  1.00  0.00     0.016 A 
ATOM      9  C   UNL     1       2.548  -2.498   2.011  1.00  0.00     0.016 A 
ATOM     10  C   UNL     1       5.045  -1.436   2.610  1.00  0.00     0.010 A 
ATOM     11  C   UNL     1       3.237  -2.934   3.151  1.00  0.00     0.010 A 
ATOM     12  C   UNL     1       4.497  -2.402   3.442  1.00  0.00    -0.014 A 
BRANCH  12  13
ATOM     13  C   UNL     1       5.354  -2.856   4.548  1.00  0.00     0.031 A 
ATOM     14  C   UNL     1       6.083  -4.152   4.393  1.00  0.00     0.074 A 
ATOM     15  C   UNL     1       5.637  -1.987   5.537  1.00  0.00     0.049 A 
ATOM     16  N   UNL     1       6.953  -4.707   5.190  1.00  0.00    -0.248 NA
ATOM     17  C   UNL     1       5.820  -4.914   3.159  1.00  0.00     0.031 C 
ATOM     18  C   UNL     1       5.063  -0.641   5.663  1.00  0.00     0.029 A 
ATOM     19  N   UNL     1       6.515  -2.069   6.582  1.00  0.00    -0.354 N 
ATOM     20  C   UNL     1       7.338  -5.883   4.561  1.00  0.00     0.074 A 
ATOM     21  C   UNL     1       6.597  -5.974   3.324  1.00  0.00     0.031 C 
ATOM     22  C   UNL     1       5.630  -0.016   6.706  1.00  0.00     0.029 A 
ATOM     23  C   UNL     1       6.551  -0.936   7.361  1.00  0.00     0.049 A 
ATOM     24  H   UNL     1       7.069  -2.864   6.760  1.00  0.00     0.167 HD
ATOM     25  C   UNL     1       8.235  -6.799   4.990  1.00  0.00     0.037 A 
ATOM     26  C   UNL     1       7.231  -0.692   8.497  1.00  0.00     0.037 A 
ATOM     27  C   UNL     1       8.942  -6.676   6.236  1.00  0.00     0.049 A 
ATOM     28  C   UNL     1       8.137  -1.778   9.008  1.00  0.00     0.074 A 
ATOM     29  C   UNL     1       9.788  -7.581   6.845  1.00  0.00     0.029 A 
ATOM     30  N   UNL     1       8.883  -5.559   7.061  1.00  0.00    -0.354 N 
ATOM     31  N   UNL     1       8.419  -2.939   8.460  1.00  0.00    -0.248 NA
ATOM     32  C   UNL     1       8.808  -1.538  10.290  1.00  0.00     0.031 C 
ATOM     33  C   UNL     1      10.213  -7.026   8.058  1.00  0.00     0.029 A 
ATOM     34  C   UNL     1       9.671  -5.754   8.180  1.00  0.00     0.049 A 
ATOM     35  H   UNL     1       8.357  -4.747   6.876  1.00  0.00     0.167 HD
ATOM     36  C   UNL     1       9.305  -3.565   9.326  1.00  0.00     0.074 A 
ATOM     37  C   UNL     1       9.535  -2.639  10.419  1.00  0.00     0.031 C 
ATOM     38  C   UNL     1       9.870  -4.796   9.240  1.00  0.00     0.037 A 
BRANCH  25  39
ATOM     39  C   UNL     1       8.432  -8.018   4.137  1.00  0.00     0.058 A 
ATOM     40  C   UNL     1       9.123  -7.966   2.915  1.00  0.00     0.135 A 
ATOM     41  C   UNL     1       7.891  -9.252   4.531  1.00  0.00     0.135 A 
ATOM     42  F   UNL     1       9.627  -6.804   2.472  1.00  0.00    -0.206 F 
ATOM     43  C   UNL     1       9.252  -9.091   2.105  1.00  0.00     0.059 A 
ATOM     44  C   UNL     1       8.027 -10.395   3.747  1.00  0.00     0.059 A 
ATOM     45  F   UNL     1       7.205  -9.353   5.680  1.00  0.00    -0.206 F 
ATOM     46  C   UNL     1       8.698 -10.300   2.529  1.00  0.00     0.060 A 
BRANCH  46  47
ATOM     47  S   UNL     1       8.862 -11.747   1.460  1.00  0.00     0.124 S 
ATOM     48  O   UNL     1       7.944 -11.414   0.376  1.00  0.00    -0.237 OA
ATOM     49  O   UNL     1      10.280 -11.724   1.121  1.00  0.00    -0.237 OA
ATOM     50  O   UNL     1       8.443 -12.852   2.318  1.00  0.00    -0.744 OA
ENDBRANCH  46  47
ENDBRANCH  25  39
BRANCH  26  51
ATOM     51  C   UNL     1       7.017   0.575   9.253  1.00  0.00     0.058 A 
ATOM     52  C   UNL     1       8.051   1.498   9.467  1.00  0.00     0.135 A 
ATOM     53  C   UNL     1       5.759   0.874   9.804  1.00  0.00     0.135 A 
ATOM     54  F   UNL     1       9.274   1.263   8.969  1.00  0.00    -0.206 F 
ATOM     55  C   UNL     1       7.856   2.652  10.224  1.00  0.00     0.059 A 
ATOM     56  C   UNL     1       5.530   2.035  10.534  1.00  0.00     0.059 A 
ATOM     57  F   UNL     1       4.726   0.035   9.623  1.00  0.00    -0.206 F 
ATOM     58  C   UNL     1       6.591   2.909  10.758  1.00  0.00     0.060 A 
BRANCH  58  59
ATOM     59  S   UNL     1       6.340   4.405  11.739  1.00  0.00     0.124 S 
ATOM     60  O   UNL     1       7.012   4.053  12.984  1.00  0.00    -0.237 OA
ATOM     61  O   UNL     1       6.995   5.423  10.924  1.00  0.00    -0.237 OA
ATOM     62  O   UNL     1       4.886   4.515  11.816  1.00  0.00    -0.744 OA
ENDBRANCH  58  59
ENDBRANCH  26  51
BRANCH  38  63
ATOM     63  C   UNL     1      10.805  -5.184  10.348  1.00  0.00     0.058 A 
ATOM     64  C   UNL     1      10.330  -5.514  11.626  1.00  0.00     0.135 A 
ATOM     65  C   UNL     1      12.186  -5.263  10.112  1.00  0.00     0.135 A 
ATOM     66  F   UNL     1       9.017  -5.447  11.899  1.00  0.00    -0.206 F 
ATOM     67  C   UNL     1      11.199  -5.883  12.645  1.00  0.00     0.059 A 
ATOM     68  C   UNL     1      13.069  -5.658  11.109  1.00  0.00     0.059 A 
ATOM     69  F   UNL     1      12.684  -4.968   8.901  1.00  0.00    -0.206 F 
ATOM     70  C   UNL     1      12.567  -5.951  12.376  1.00  0.00     0.060 A 
BRANCH  70  71
ATOM     71  S   UNL     1      13.683  -6.456  13.700  1.00  0.00     0.124 S 
ATOM     72  O   UNL     1      13.729  -5.250  14.520  1.00  0.00    -0.237 OA
ATOM     73  O   UNL     1      12.981  -7.595  14.284  1.00  0.00    -0.237 OA
ATOM     74  O   UNL     1      14.918  -6.785  12.995  1.00  0.00    -0.744 OA
ENDBRANCH  70  71
ENDBRANCH  38  63
ENDBRANCH  12  13
ENDBRANCH   5   7
ENDBRANCH   4   5
ENDBRANCH   3   4
ENDBRANCH   2   3
ENDBRANCH   1   2
BRANCH   1  75
ATOM     75  C   UNL     1       3.035   2.170   0.606  1.00  0.00     0.202 C 
BRANCH  75  76
ATOM     76  C   UNL     1       3.054   3.614   1.104  1.00  0.00     0.261 C 
BRANCH  76  77
ATOM     77  O   UNL     1       3.387   4.451  -0.013  1.00  0.00    -0.460 OA
BRANCH  77  78
ATOM     78  C   UNL     1       4.703   4.718  -0.210  1.00  0.00     0.351 C 
ATOM     79  O   UNL     1       5.554   4.654   0.674  1.00  0.00    -0.248 OA
BRANCH  78  80
ATOM     80  C   UNL     1       5.048   4.952  -1.673  1.00  0.00     0.338 C 
ATOM     81  F   UNL     1       5.164   3.798  -2.393  1.00  0.00    -0.222 F 
BRANCH  80  82
ATOM     82  S   UNL     1       4.048   6.168  -2.595  1.00  0.00    -0.073 SA
BRANCH  82  83
ATOM     83  C   UNL     1       2.340   5.729  -2.292  1.00  0.00     0.052 A 
ATOM     84  C   UNL     1       1.510   6.792  -1.905  1.00  0.00     0.019 A 
ATOM     85  C   UNL     1       1.762   4.458  -2.423  1.00  0.00     0.129 A 
ATOM     86  C   UNL     1       0.162   6.585  -1.608  1.00  0.00     0.001 A 
ATOM     87  C   UNL     1       0.418   4.241  -2.100  1.00  0.00     0.047 A 
ATOM     88  C   UNL     1      -0.381   5.307  -1.690  1.00  0.00     0.004 A 
BRANCH  85  89
ATOM     89  O   UNL     1       2.506   3.404  -2.868  1.00  0.00    -0.507 OA
ATOM     90  H   UNL     1       3.408   3.527  -3.090  1.00  0.00     0.293 HD
ENDBRANCH  85  89
ENDBRANCH  82  83
ENDBRANCH  80  82
ENDBRANCH  78  80
ENDBRANCH  77  78
ENDBRANCH  76  77
ENDBRANCH  75  76
ENDBRANCH   1  75
TORSDOF 20
