REMARK SMILES CC[NH+](CC)[C@](C)(C(=O)OCCOCCOC(=O)c1ccc(-c2c3nc(c(-c4c(F)cc(S(=O)(=O)[O-])cc4F)c4ccc([nH]4)c(-c4c(F)cc(S(=O)(=O)[O-])cc4F)c4nc(c(-c5c(F)cc(S(=O)(=O)[O-])cc5F)c5ccc2[nH]5)C=C4)C=C3)cc1)c1cc(F)c(C)cc1F
REMARK SMILES IDX 14 1 13 2 12 3 11 4 10 5 8 6 9 7 6 8 7 9 3 10 2 12 1 13 4 14
REMARK SMILES IDX 5 15 85 16 86 17 92 18 87 19 91 20 93 21 88 22 89 23 90 24
REMARK SMILES IDX 15 25 16 26 17 27 18 28 19 29 20 30 84 31 21 32 83 33 22 34
REMARK SMILES IDX 23 35 24 36 77 37 25 38 82 39 76 40 78 41 26 42 81 43 75 44
REMARK SMILES IDX 74 45 27 47 61 48 40 49 60 50 41 51 44 52 59 53 79 54 42 55
REMARK SMILES IDX 43 56 58 58 80 59 45 60 28 61 29 62 38 63 30 64 31 65 37 66
REMARK SMILES IDX 39 67 32 68 33 69 34 70 35 71 36 72 62 73 63 74 72 75 64 76
REMARK SMILES IDX 65 77 71 78 73 79 66 80 67 81 68 82 69 83 70 84 46 85 47 86
REMARK SMILES IDX 56 87 48 88 49 89 55 90 57 91 50 92 51 93 52 94 53 95 54 96
REMARK H PARENT 3 11 78 46 44 57
REMARK Flexibility Score: inf
ROOT
ATOM      1  C   UNL     1       2.084  -1.741  -3.277  1.00  0.00     0.202 C 
ENDROOT
BRANCH   1   2
ATOM      2  O   UNL     1       3.077  -2.650  -2.801  1.00  0.00    -0.374 OA
BRANCH   2   3
ATOM      3  C   UNL     1       3.289  -2.722  -1.390  1.00  0.00     0.202 C 
BRANCH   3   4
ATOM      4  C   UNL     1       3.908  -1.482  -0.748  1.00  0.00     0.261 C 
BRANCH   4   5
ATOM      5  O   UNL     1       3.059  -0.337  -0.922  1.00  0.00    -0.458 OA
BRANCH   5   6
ATOM      6  C   UNL     1       3.717   0.855  -0.970  1.00  0.00     0.372 C 
ATOM      7  O   UNL     1       4.927   0.961  -0.771  1.00  0.00    -0.244 OA
BRANCH   6   8
ATOM      8  C   UNL     1       2.773   2.070  -1.372  1.00  0.00     0.221 C 
ATOM      9  C   UNL     1       1.277   1.659  -1.394  1.00  0.00     0.098 C 
BRANCH   8  10
ATOM     10  N   UNL     1       3.053   3.106  -0.285  1.00  0.00    -0.318 N 
ATOM     11  H   UNL     1       4.065   3.018  -0.198  1.00  0.00     0.349 HD
BRANCH  10  12
ATOM     12  C   UNL     1       2.462   2.801   1.047  1.00  0.00     0.259 C 
ATOM     13  C   UNL     1       2.785   1.468   1.720  1.00  0.00     0.071 C 
ENDBRANCH  10  12
BRANCH  10  14
ATOM     14  C   UNL     1       2.775   4.505  -0.652  1.00  0.00     0.259 C 
ATOM     15  C   UNL     1       3.212   5.556   0.371  1.00  0.00     0.071 C 
ENDBRANCH  10  14
ENDBRANCH   8  10
BRANCH   8  16
ATOM     16  C   UNL     1       3.147   2.480  -2.852  1.00  0.00     0.062 A 
ATOM     17  C   UNL     1       4.139   1.800  -3.596  1.00  0.00     0.053 A 
ATOM     18  C   UNL     1       2.446   3.472  -3.566  1.00  0.00     0.133 A 
ATOM     19  C   UNL     1       4.445   2.148  -4.917  1.00  0.00     0.126 A 
ATOM     20  C   UNL     1       2.780   3.849  -4.875  1.00  0.00     0.046 A 
ATOM     21  F   UNL     1       1.401   4.104  -3.014  1.00  0.00    -0.206 F 
ATOM     22  F   UNL     1       5.373   1.436  -5.572  1.00  0.00    -0.207 F 
ATOM     23  C   UNL     1       3.806   3.201  -5.560  1.00  0.00    -0.012 A 
ATOM     24  C   UNL     1       4.166   3.571  -6.965  1.00  0.00     0.047 C 
ENDBRANCH   8  16
ENDBRANCH   6   8
ENDBRANCH   5   6
ENDBRANCH   4   5
ENDBRANCH   3   4
ENDBRANCH   2   3
ENDBRANCH   1   2
BRANCH   1  25
ATOM     25  C   UNL     1       0.618  -2.098  -2.996  1.00  0.00     0.261 C 
BRANCH  25  26
ATOM     26  O   UNL     1       0.289  -2.161  -1.594  1.00  0.00    -0.460 OA
BRANCH  26  27
ATOM     27  C   UNL     1      -0.081  -3.393  -1.166  1.00  0.00     0.338 C 
ATOM     28  O   UNL     1      -0.177  -4.408  -1.848  1.00  0.00    -0.246 OA
BRANCH  27  29
ATOM     29  C   UNL     1      -0.237  -3.441   0.298  1.00  0.00     0.060 A 
ATOM     30  C   UNL     1       0.525  -4.387   0.995  1.00  0.00     0.016 A 
ATOM     31  C   UNL     1      -1.235  -2.714   0.954  1.00  0.00     0.016 A 
ATOM     32  C   UNL     1       0.244  -4.664   2.331  1.00  0.00     0.010 A 
ATOM     33  C   UNL     1      -1.519  -2.999   2.297  1.00  0.00     0.010 A 
ATOM     34  C   UNL     1      -0.816  -4.011   2.976  1.00  0.00    -0.014 A 
BRANCH  34  35
ATOM     35  C   UNL     1      -1.281  -4.529   4.289  1.00  0.00     0.031 A 
ATOM     36  C   UNL     1      -2.458  -5.471   4.329  1.00  0.00     0.074 A 
ATOM     37  C   UNL     1      -0.624  -4.224   5.422  1.00  0.00     0.049 A 
ATOM     38  N   UNL     1      -2.998  -6.079   5.354  1.00  0.00    -0.248 NA
ATOM     39  C   UNL     1      -3.112  -5.766   3.044  1.00  0.00     0.031 C 
ATOM     40  C   UNL     1       0.540  -3.344   5.513  1.00  0.00     0.029 A 
ATOM     41  N   UNL     1      -0.843  -4.627   6.716  1.00  0.00    -0.354 N 
ATOM     42  C   UNL     1      -4.054  -6.825   4.840  1.00  0.00     0.074 A 
ATOM     43  C   UNL     1      -4.097  -6.571   3.416  1.00  0.00     0.031 C 
ATOM     44  C   UNL     1       0.930  -3.268   6.798  1.00  0.00     0.029 A 
ATOM     45  C   UNL     1       0.037  -4.083   7.620  1.00  0.00     0.049 A 
ATOM     46  H   UNL     1      -1.562  -5.249   6.972  1.00  0.00     0.167 HD
ATOM     47  C   UNL     1      -4.905  -7.654   5.492  1.00  0.00     0.037 A 
ATOM     48  C   UNL     1       0.110  -4.222   8.959  1.00  0.00     0.037 A 
ATOM     49  C   UNL     1      -4.856  -7.918   6.906  1.00  0.00     0.049 A 
ATOM     50  C   UNL     1      -0.854  -5.141   9.663  1.00  0.00     0.074 A 
ATOM     51  C   UNL     1      -5.662  -8.759   7.654  1.00  0.00     0.029 A 
ATOM     52  N   UNL     1      -3.950  -7.348   7.787  1.00  0.00    -0.354 N 
ATOM     53  N   UNL     1      -1.827  -5.861   9.157  1.00  0.00    -0.248 NA
ATOM     54  C   UNL     1      -0.698  -5.281  11.118  1.00  0.00     0.031 C 
ATOM     55  C   UNL     1      -5.264  -8.671   8.993  1.00  0.00     0.029 A 
ATOM     56  C   UNL     1      -4.184  -7.807   9.072  1.00  0.00     0.049 A 
ATOM     57  H   UNL     1      -3.243  -6.710   7.535  1.00  0.00     0.167 HD
ATOM     58  C   UNL     1      -2.382  -6.557  10.227  1.00  0.00     0.074 A 
ATOM     59  C   UNL     1      -1.628  -6.181  11.405  1.00  0.00     0.031 C 
ATOM     60  C   UNL     1      -3.420  -7.430  10.233  1.00  0.00     0.037 A 
BRANCH  47  61
ATOM     61  C   UNL     1      -5.977  -8.327   4.682  1.00  0.00     0.058 A 
ATOM     62  C   UNL     1      -5.689  -9.397   3.820  1.00  0.00     0.135 A 
ATOM     63  C   UNL     1      -7.317  -7.924   4.801  1.00  0.00     0.135 A 
ATOM     64  F   UNL     1      -4.422  -9.810   3.656  1.00  0.00    -0.206 F 
ATOM     65  C   UNL     1      -6.689 -10.032   3.090  1.00  0.00     0.059 A 
ATOM     66  C   UNL     1      -8.336  -8.558   4.097  1.00  0.00     0.059 A 
ATOM     67  F   UNL     1      -7.646  -6.904   5.609  1.00  0.00    -0.206 F 
ATOM     68  C   UNL     1      -8.010  -9.604   3.234  1.00  0.00     0.060 A 
BRANCH  68  69
ATOM     69  S   UNL     1      -9.301 -10.443   2.291  1.00  0.00     0.124 S 
ATOM     70  O   UNL     1      -9.084  -9.900   0.954  1.00  0.00    -0.237 OA
ATOM     71  O   UNL     1      -8.955 -11.850   2.467  1.00  0.00    -0.237 OA
ATOM     72  O   UNL     1     -10.533 -10.018   2.949  1.00  0.00    -0.744 OA
ENDBRANCH  68  69
ENDBRANCH  47  61
BRANCH  48  73
ATOM     73  C   UNL     1       1.136  -3.470   9.727  1.00  0.00     0.058 A 
ATOM     74  C   UNL     1       2.232  -4.121  10.313  1.00  0.00     0.135 A 
ATOM     75  C   UNL     1       1.033  -2.080   9.896  1.00  0.00     0.135 A 
ATOM     76  F   UNL     1       2.368  -5.449  10.188  1.00  0.00    -0.206 F 
ATOM     77  C   UNL     1       3.180  -3.424  11.056  1.00  0.00     0.059 A 
ATOM     78  C   UNL     1       1.981  -1.359  10.614  1.00  0.00     0.059 A 
ATOM     79  F   UNL     1       0.009  -1.410   9.344  1.00  0.00    -0.206 F 
ATOM     80  C   UNL     1       3.045  -2.042  11.201  1.00  0.00     0.060 A 
BRANCH  80  81
ATOM     81  S   UNL     1       4.302  -1.135  12.128  1.00  0.00     0.124 S 
ATOM     82  O   UNL     1       3.930  -1.443  13.504  1.00  0.00    -0.237 OA
ATOM     83  O   UNL     1       5.539  -1.744  11.649  1.00  0.00    -0.237 OA
ATOM     84  O   UNL     1       4.091   0.247  11.709  1.00  0.00    -0.744 OA
ENDBRANCH  80  81
ENDBRANCH  48  73
BRANCH  60  85
ATOM     85  C   UNL     1      -3.775  -8.067  11.548  1.00  0.00     0.058 A 
ATOM     86  C   UNL     1      -4.429  -7.352  12.562  1.00  0.00     0.135 A 
ATOM     87  C   UNL     1      -3.477  -9.419  11.784  1.00  0.00     0.135 A 
ATOM     88  F   UNL     1      -4.734  -6.057  12.387  1.00  0.00    -0.206 F 
ATOM     89  C   UNL     1      -4.744  -7.945  13.781  1.00  0.00     0.059 A 
ATOM     90  C   UNL     1      -3.804 -10.039  12.986  1.00  0.00     0.059 A 
ATOM     91  F   UNL     1      -2.865 -10.152  10.841  1.00  0.00    -0.206 F 
ATOM     92  C   UNL     1      -4.421  -9.288  13.986  1.00  0.00     0.060 A 
BRANCH  92  93
ATOM     93  S   UNL     1      -4.835 -10.052  15.569  1.00  0.00     0.124 S 
ATOM     94  O   UNL     1      -3.762  -9.555  16.423  1.00  0.00    -0.237 OA
ATOM     95  O   UNL     1      -6.164  -9.514  15.843  1.00  0.00    -0.237 OA
ATOM     96  O   UNL     1      -4.794 -11.481  15.275  1.00  0.00    -0.744 OA
ENDBRANCH  92  93
ENDBRANCH  60  85
ENDBRANCH  34  35
ENDBRANCH  27  29
ENDBRANCH  26  27
ENDBRANCH  25  26
ENDBRANCH   1  25
TORSDOF 21
