REMARK SMILES C[C@H]1[C@H](C(=O)OCCOCCOC(=O)c2ccc(-c3c4nc(c(-c5c(F)cc(S(=O)(=O)[O-])cc5F)c5ccc([nH]5)c(-c5c(F)cc(S(=O)(=O)[O-])cc5F)c5nc(c(-c6c(F)cc(S(=O)(=O)[O-])cc6F)c6ccc3[nH]6)C=C5)C=C4)cc2)CCN1c1ncnc2sccc12
REMARK SMILES IDX 10 1 9 2 8 3 7 4 6 5 4 6 5 7 3 8 1 9 2 10 83 11 81 12 82 13
REMARK SMILES IDX 84 14 85 15 92 16 86 17 88 18 91 19 87 20 89 21 90 22 11 23
REMARK SMILES IDX 12 24 13 25 14 26 15 27 16 28 80 29 17 30 79 31 18 32 19 33
REMARK SMILES IDX 20 34 73 35 21 36 78 37 72 38 74 39 22 40 77 41 71 42 70 43
REMARK SMILES IDX 23 45 57 46 36 47 56 48 37 49 40 50 55 51 75 52 38 53 39 54
REMARK SMILES IDX 54 56 76 57 41 58 24 59 25 60 34 61 26 62 27 63 33 64 35 65
REMARK SMILES IDX 28 66 29 67 30 68 31 69 32 70 58 71 59 72 68 73 60 74 61 75
REMARK SMILES IDX 67 76 69 77 62 78 63 79 64 80 65 81 66 82 42 83 43 84 52 85
REMARK SMILES IDX 44 86 45 87 51 88 53 89 46 90 47 91 48 92 49 93 50 94
REMARK H PARENT 74 44 40 55
REMARK Flexibility Score: inf
ROOT
ATOM      1  C   UNL     1       2.247   3.179   1.784  1.00  0.00     0.202 C 
ENDROOT
BRANCH   1   2
ATOM      2  O   UNL     1       1.539   4.207   2.474  1.00  0.00    -0.374 OA
BRANCH   2   3
ATOM      3  C   UNL     1       0.497   3.801   3.361  1.00  0.00     0.202 C 
BRANCH   3   4
ATOM      4  C   UNL     1      -0.829   3.400   2.710  1.00  0.00     0.261 C 
BRANCH   4   5
ATOM      5  O   UNL     1      -0.703   2.220   1.894  1.00  0.00    -0.463 OA
BRANCH   5   6
ATOM      6  C   UNL     1      -0.785   2.407   0.552  1.00  0.00     0.311 C 
ATOM      7  O   UNL     1      -0.989   3.484   0.002  1.00  0.00    -0.252 OA
BRANCH   6   8
ATOM      8  C   UNL     1      -0.684   1.120  -0.233  1.00  0.00     0.123 C 
ATOM      9  C   UNL     1       1.577   0.040  -0.427  1.00  0.00     0.032 C 
ATOM     10  C   UNL     1       0.245   0.027   0.338  1.00  0.00     0.095 C 
ATOM     11  N   UNL     1      -0.495  -1.227   0.105  1.00  0.00    -0.352 N 
ATOM     12  C   UNL     1      -2.060   0.483  -0.303  1.00  0.00     0.039 C 
ATOM     13  C   UNL     1      -1.791  -0.996  -0.499  1.00  0.00     0.119 C 
BRANCH  11  14
ATOM     14  C   UNL     1      -0.047  -2.447   0.568  1.00  0.00     0.141 A 
ATOM     15  N   UNL     1       1.125  -2.456   1.261  1.00  0.00    -0.219 NA
ATOM     16  C   UNL     1      -0.694  -3.705   0.392  1.00  0.00     0.054 A 
ATOM     17  C   UNL     1       1.627  -3.606   1.731  1.00  0.00     0.225 A 
ATOM     18  C   UNL     1      -0.061  -4.810   0.954  1.00  0.00     0.128 A 
ATOM     19  C   UNL     1      -1.903  -4.141  -0.267  1.00  0.00     0.026 A 
ATOM     20  N   UNL     1       1.103  -4.822   1.619  1.00  0.00    -0.225 NA
ATOM     21  S   UNL     1      -0.914  -6.272   0.733  1.00  0.00    -0.124 S 
ATOM     22  C   UNL     1      -2.154  -5.488  -0.130  1.00  0.00     0.068 A 
ENDBRANCH  11  14
ENDBRANCH   6   8
ENDBRANCH   5   6
ENDBRANCH   4   5
ENDBRANCH   3   4
ENDBRANCH   2   3
ENDBRANCH   1   2
BRANCH   1  23
ATOM     23  C   UNL     1       3.303   2.409   2.585  1.00  0.00     0.261 C 
BRANCH  23  24
ATOM     24  O   UNL     1       2.719   1.637   3.649  1.00  0.00    -0.460 OA
BRANCH  24  25
ATOM     25  C   UNL     1       3.025   2.082   4.890  1.00  0.00     0.338 C 
ATOM     26  O   UNL     1       3.791   2.996   5.171  1.00  0.00    -0.246 OA
BRANCH  25  27
ATOM     27  C   UNL     1       2.183   1.432   5.912  1.00  0.00     0.060 A 
ATOM     28  C   UNL     1       1.602   2.267   6.874  1.00  0.00     0.016 A 
ATOM     29  C   UNL     1       2.051   0.043   6.007  1.00  0.00     0.016 A 
ATOM     30  C   UNL     1       0.967   1.718   7.982  1.00  0.00     0.010 A 
ATOM     31  C   UNL     1       1.412  -0.508   7.126  1.00  0.00     0.010 A 
ATOM     32  C   UNL     1       0.919   0.328   8.145  1.00  0.00    -0.014 A 
BRANCH  32  33
ATOM     33  C   UNL     1       0.527  -0.212   9.471  1.00  0.00     0.031 A 
ATOM     34  C   UNL     1       1.609  -0.597  10.447  1.00  0.00     0.074 A 
ATOM     35  C   UNL     1      -0.766  -0.264   9.840  1.00  0.00     0.049 A 
ATOM     36  N   UNL     1       1.504  -1.000  11.687  1.00  0.00    -0.248 NA
ATOM     37  C   UNL     1       2.996  -0.510   9.960  1.00  0.00     0.031 C 
ATOM     38  C   UNL     1      -1.900   0.110   8.997  1.00  0.00     0.029 A 
ATOM     39  N   UNL     1      -1.339  -0.640  11.029  1.00  0.00    -0.354 N 
ATOM     40  C   UNL     1       2.805  -1.211  12.129  1.00  0.00     0.074 A 
ATOM     41  C   UNL     1       3.682  -0.927  11.014  1.00  0.00     0.031 C 
ATOM     42  C   UNL     1      -3.036  -0.053   9.698  1.00  0.00     0.029 A 
ATOM     43  C   UNL     1      -2.710  -0.553  11.032  1.00  0.00     0.049 A 
ATOM     44  H   UNL     1      -0.816  -0.944  11.806  1.00  0.00     0.167 HD
ATOM     45  C   UNL     1       3.234  -1.590  13.357  1.00  0.00     0.037 A 
ATOM     46  C   UNL     1      -3.599  -0.845  12.002  1.00  0.00     0.037 A 
ATOM     47  C   UNL     1       2.361  -1.868  14.467  1.00  0.00     0.049 A 
ATOM     48  C   UNL     1      -3.101  -1.301  13.349  1.00  0.00     0.074 A 
ATOM     49  C   UNL     1       2.698  -2.250  15.754  1.00  0.00     0.029 A 
ATOM     50  N   UNL     1       0.977  -1.798  14.421  1.00  0.00    -0.354 N 
ATOM     51  N   UNL     1      -1.866  -1.470  13.758  1.00  0.00    -0.248 NA
ATOM     52  C   UNL     1      -4.118  -1.592  14.369  1.00  0.00     0.031 C 
ATOM     53  C   UNL     1       1.515  -2.446  16.476  1.00  0.00     0.029 A 
ATOM     54  C   UNL     1       0.444  -2.144  15.651  1.00  0.00     0.049 A 
ATOM     55  H   UNL     1       0.451  -1.539  13.630  1.00  0.00     0.167 HD
ATOM     56  C   UNL     1      -1.957  -1.863  15.090  1.00  0.00     0.074 A 
ATOM     57  C   UNL     1      -3.367  -1.893  15.420  1.00  0.00     0.031 C 
ATOM     58  C   UNL     1      -0.964  -2.167  15.963  1.00  0.00     0.037 A 
BRANCH  45  59
ATOM     59  C   UNL     1       4.717  -1.743  13.555  1.00  0.00     0.058 A 
ATOM     60  C   UNL     1       5.570  -0.630  13.630  1.00  0.00     0.135 A 
ATOM     61  C   UNL     1       5.290  -3.018  13.689  1.00  0.00     0.135 A 
ATOM     62  F   UNL     1       5.076   0.610  13.489  1.00  0.00    -0.206 F 
ATOM     63  C   UNL     1       6.942  -0.777  13.805  1.00  0.00     0.059 A 
ATOM     64  C   UNL     1       6.657  -3.187  13.889  1.00  0.00     0.059 A 
ATOM     65  F   UNL     1       4.520  -4.115  13.621  1.00  0.00    -0.206 F 
ATOM     66  C   UNL     1       7.477  -2.060  13.930  1.00  0.00     0.060 A 
BRANCH  66  67
ATOM     67  S   UNL     1       9.260  -2.237  14.155  1.00  0.00     0.124 S 
ATOM     68  O   UNL     1       9.751  -1.955  12.810  1.00  0.00    -0.237 OA
ATOM     69  O   UNL     1       9.552  -1.221  15.161  1.00  0.00    -0.237 OA
ATOM     70  O   UNL     1       9.410  -3.618  14.602  1.00  0.00    -0.744 OA
ENDBRANCH  66  67
ENDBRANCH  45  59
BRANCH  46  71
ATOM     71  C   UNL     1      -5.055  -0.706  11.738  1.00  0.00     0.058 A 
ATOM     72  C   UNL     1      -5.811   0.311  12.338  1.00  0.00     0.135 A 
ATOM     73  C   UNL     1      -5.719  -1.591  10.874  1.00  0.00     0.135 A 
ATOM     74  F   UNL     1      -5.224   1.176  13.180  1.00  0.00    -0.206 F 
ATOM     75  C   UNL     1      -7.177   0.439  12.103  1.00  0.00     0.059 A 
ATOM     76  C   UNL     1      -7.078  -1.470  10.605  1.00  0.00     0.059 A 
ATOM     77  F   UNL     1      -5.038  -2.575  10.266  1.00  0.00    -0.206 F 
ATOM     78  C   UNL     1      -7.801  -0.456  11.233  1.00  0.00     0.060 A 
BRANCH  78  79
ATOM     79  S   UNL     1      -9.562  -0.250  10.889  1.00  0.00     0.124 S 
ATOM     80  O   UNL     1     -10.163  -0.768  12.112  1.00  0.00    -0.237 OA
ATOM     81  O   UNL     1      -9.670   1.191  10.684  1.00  0.00    -0.237 OA
ATOM     82  O   UNL     1      -9.765  -1.061   9.692  1.00  0.00    -0.744 OA
ENDBRANCH  78  79
ENDBRANCH  46  71
BRANCH  58  83
ATOM     83  C   UNL     1      -1.367  -2.529  17.366  1.00  0.00     0.058 A 
ATOM     84  C   UNL     1      -1.966  -3.762  17.667  1.00  0.00     0.135 A 
ATOM     85  C   UNL     1      -1.124  -1.642  18.427  1.00  0.00     0.135 A 
ATOM     86  F   UNL     1      -2.222  -4.646  16.689  1.00  0.00    -0.206 F 
ATOM     87  C   UNL     1      -2.343  -4.089  18.966  1.00  0.00     0.059 A 
ATOM     88  C   UNL     1      -1.469  -1.958  19.737  1.00  0.00     0.059 A 
ATOM     89  F   UNL     1      -0.540  -0.455  18.195  1.00  0.00    -0.206 F 
ATOM     90  C   UNL     1      -2.095  -3.177  19.994  1.00  0.00     0.060 A 
BRANCH  90  91
ATOM     91  S   UNL     1      -2.582  -3.611  21.678  1.00  0.00     0.124 S 
ATOM     92  O   UNL     1      -4.022  -3.379  21.634  1.00  0.00    -0.237 OA
ATOM     93  O   UNL     1      -2.167  -5.007  21.777  1.00  0.00    -0.237 OA
ATOM     94  O   UNL     1      -1.819  -2.678  22.502  1.00  0.00    -0.744 OA
ENDBRANCH  90  91
ENDBRANCH  58  83
ENDBRANCH  32  33
ENDBRANCH  25  27
ENDBRANCH  24  25
ENDBRANCH  23  24
ENDBRANCH   1  23
TORSDOF 18
