REMARK SMILES O=C(CCN1C(=O)/C(=C2\C(=O)N(Cc3ccc(Cl)cc3)c3ccccc32)SC1=S)OCCOCCOC(=O)c1ccc(-c2c3nc(c(-c4c(F)cc(S(=O)(=O)[O-])cc4F)c4ccc([nH]4)c(-c4c(F)cc(S(=O)(=O)[O-])cc4F)c4nc(c(-c5c(F)cc(S(=O)(=O)[O-])cc5F)c5ccc2[nH]5)C=C4)C=C3)cc1
REMARK SMILES IDX 32 1 31 2 30 3 2 4 1 5 3 6 4 7 5 8 6 9 28 10 7 11 8 12 27 13
REMARK SMILES IDX 29 14 9 15 10 16 26 17 11 18 12 19 21 20 25 21 22 22 24 23
REMARK SMILES IDX 23 24 13 25 14 26 15 27 20 28 16 29 19 30 17 31 18 32 33 33
REMARK SMILES IDX 34 34 35 35 36 36 37 37 38 38 39 39 40 40 104 41 41 42
REMARK SMILES IDX 103 43 42 44 43 45 44 46 97 47 45 48 102 49 96 50 98 51
REMARK SMILES IDX 46 52 101 53 95 54 94 55 47 57 81 58 60 59 80 60 61 61 64 62
REMARK SMILES IDX 79 63 99 64 62 65 63 66 78 68 100 69 65 70 48 71 49 72 58 73
REMARK SMILES IDX 50 74 51 75 57 76 59 77 52 78 53 79 54 80 55 81 56 82 82 83
REMARK SMILES IDX 83 84 92 85 84 86 85 87 91 88 93 89 86 90 87 91 88 92 89 93
REMARK SMILES IDX 90 94 66 95 67 96 76 97 68 98 69 99 75 100 77 101 70 102
REMARK SMILES IDX 71 103 72 104 73 105 74 106
REMARK H PARENT 98 56 64 67
REMARK Flexibility Score: inf
ROOT
ATOM      1  C   UNL     1       4.078  -1.270   0.958  1.00  0.00     0.202 C 
ENDROOT
BRANCH   1   2
ATOM      2  C   UNL     1       3.704   0.124   1.452  1.00  0.00     0.261 C 
BRANCH   2   3
ATOM      3  O   UNL     1       2.555   0.528   0.695  1.00  0.00    -0.463 OA
BRANCH   3   4
ATOM      4  C   UNL     1       2.388   1.867   0.635  1.00  0.00     0.307 C 
ATOM      5  O   UNL     1       2.369   2.603   1.606  1.00  0.00    -0.252 OA
BRANCH   4   6
ATOM      6  C   UNL     1       2.322   2.314  -0.799  1.00  0.00     0.144 C 
BRANCH   6   7
ATOM      7  C   UNL     1       3.547   3.153  -1.187  1.00  0.00     0.139 C 
BRANCH   7   8
ATOM      8  N   UNL     1       4.857   2.497  -1.014  1.00  0.00    -0.292 N 
ATOM      9  C   UNL     1       5.779   3.039  -0.118  1.00  0.00     0.267 C 
ATOM     10  C   UNL     1       5.288   1.401  -1.726  1.00  0.00     0.148 C 
ATOM     11  O   UNL     1       5.585   4.026   0.572  1.00  0.00    -0.268 OA
ATOM     12  C   UNL     1       6.998   2.179  -0.018  1.00  0.00     0.093 C 
ATOM     13  S   UNL     1       6.714   0.735  -0.947  1.00  0.00    -0.053 SA
ATOM     14  S   UNL     1       4.659   0.778  -3.141  1.00  0.00    -0.052 S 
ATOM     15  C   UNL     1       8.180   2.463   0.556  1.00  0.00     0.069 C 
ATOM     16  C   UNL     1       8.774   3.858   0.606  1.00  0.00     0.260 C 
ATOM     17  C   UNL     1       9.282   1.532   0.824  1.00  0.00     0.012 A 
ATOM     18  O   UNL     1       8.210   4.914   0.415  1.00  0.00    -0.269 OA
ATOM     19  N   UNL     1      10.164   3.648   0.708  1.00  0.00    -0.303 N 
ATOM     20  C   UNL     1      10.461   2.274   0.792  1.00  0.00     0.052 A 
ATOM     21  C   UNL     1       9.299   0.186   1.165  1.00  0.00     0.011 A 
ATOM     22  C   UNL     1      11.687   1.639   0.858  1.00  0.00     0.027 A 
ATOM     23  C   UNL     1      10.532  -0.439   1.355  1.00  0.00     0.001 A 
ATOM     24  C   UNL     1      11.720   0.276   1.162  1.00  0.00     0.002 A 
BRANCH  19  25
ATOM     25  C   UNL     1      11.147   4.719   0.675  1.00  0.00     0.161 C 
BRANCH  25  26
ATOM     26  C   UNL     1      11.776   5.077   2.011  1.00  0.00    -0.028 A 
ATOM     27  C   UNL     1      12.841   4.334   2.548  1.00  0.00     0.007 A 
ATOM     28  C   UNL     1      11.332   6.194   2.736  1.00  0.00     0.007 A 
ATOM     29  C   UNL     1      13.412   4.655   3.781  1.00  0.00     0.021 A 
ATOM     30  C   UNL     1      11.927   6.541   3.958  1.00  0.00     0.021 A 
ATOM     31  C   UNL     1      12.955   5.762   4.481  1.00  0.00     0.041 A 
ATOM     32  Cl  UNL     1      13.681   6.173   5.985  1.00  0.00    -0.084 Cl
ENDBRANCH  25  26
ENDBRANCH  19  25
ENDBRANCH   7   8
ENDBRANCH   6   7
ENDBRANCH   4   6
ENDBRANCH   3   4
ENDBRANCH   2   3
ENDBRANCH   1   2
BRANCH   1  33
ATOM     33  O   UNL     1       3.932  -1.314  -0.462  1.00  0.00    -0.374 OA
BRANCH  33  34
ATOM     34  C   UNL     1       4.071  -2.583  -1.105  1.00  0.00     0.202 C 
BRANCH  34  35
ATOM     35  C   UNL     1       3.171  -3.710  -0.574  1.00  0.00     0.261 C 
BRANCH  35  36
ATOM     36  O   UNL     1       3.499  -4.146   0.755  1.00  0.00    -0.460 OA
BRANCH  36  37
ATOM     37  C   UNL     1       4.783  -4.498   0.997  1.00  0.00     0.338 C 
ATOM     38  O   UNL     1       5.640  -4.765   0.174  1.00  0.00    -0.246 OA
BRANCH  37  39
ATOM     39  C   UNL     1       5.034  -4.214   2.428  1.00  0.00     0.060 A 
ATOM     40  C   UNL     1       4.043  -4.436   3.390  1.00  0.00     0.016 A 
ATOM     41  C   UNL     1       6.250  -3.617   2.786  1.00  0.00     0.016 A 
ATOM     42  C   UNL     1       4.279  -4.088   4.717  1.00  0.00     0.010 A 
ATOM     43  C   UNL     1       6.490  -3.273   4.116  1.00  0.00     0.010 A 
ATOM     44  C   UNL     1       5.518  -3.538   5.091  1.00  0.00    -0.014 A 
BRANCH  44  45
ATOM     45  C   UNL     1       5.887  -3.515   6.524  1.00  0.00     0.031 A 
ATOM     46  C   UNL     1       5.874  -2.265   7.343  1.00  0.00     0.074 A 
ATOM     47  C   UNL     1       6.256  -4.693   7.060  1.00  0.00     0.049 A 
ATOM     48  N   UNL     1       6.114  -2.131   8.621  1.00  0.00    -0.248 NA
ATOM     49  C   UNL     1       5.566  -1.007   6.650  1.00  0.00     0.031 C 
ATOM     50  C   UNL     1       6.333  -5.958   6.320  1.00  0.00     0.029 A 
ATOM     51  N   UNL     1       6.628  -5.030   8.333  1.00  0.00    -0.354 N 
ATOM     52  C   UNL     1       5.967  -0.778   8.898  1.00  0.00     0.074 A 
ATOM     53  C   UNL     1       5.659  -0.126   7.641  1.00  0.00     0.031 C 
ATOM     54  C   UNL     1       6.703  -6.936   7.158  1.00  0.00     0.029 A 
ATOM     55  C   UNL     1       6.919  -6.365   8.481  1.00  0.00     0.049 A 
ATOM     56  H   UNL     1       6.682  -4.380   9.070  1.00  0.00     0.167 HD
ATOM     57  C   UNL     1       6.067  -0.155  10.098  1.00  0.00     0.037 A 
ATOM     58  C   UNL     1       7.316  -7.056   9.564  1.00  0.00     0.037 A 
ATOM     59  C   UNL     1       6.395  -0.830  11.332  1.00  0.00     0.049 A 
ATOM     60  C   UNL     1       7.449  -6.332  10.870  1.00  0.00     0.074 A 
ATOM     61  C   UNL     1       6.478  -0.297  12.607  1.00  0.00     0.029 A 
ATOM     62  N   UNL     1       6.710  -2.178  11.446  1.00  0.00    -0.354 N 
ATOM     63  N   UNL     1       7.224  -5.067  11.133  1.00  0.00    -0.248 NA
ATOM     64  C   UNL     1       7.881  -7.125  12.027  1.00  0.00     0.031 C 
ATOM     65  C   UNL     1       6.900  -1.306  13.479  1.00  0.00     0.029 A 
ATOM     66  C   UNL     1       7.021  -2.485  12.762  1.00  0.00     0.049 A 
ATOM     67  H   UNL     1       6.712  -2.822  10.701  1.00  0.00     0.167 HD
ATOM     68  C   UNL     1       7.470  -4.913  12.491  1.00  0.00     0.074 A 
ATOM     69  C   UNL     1       7.841  -6.221  12.997  1.00  0.00     0.031 C 
ATOM     70  C   UNL     1       7.398  -3.791  13.249  1.00  0.00     0.037 A 
BRANCH  57  71
ATOM     71  C   UNL     1       5.813   1.329  10.154  1.00  0.00     0.058 A 
ATOM     72  C   UNL     1       4.522   1.857   9.993  1.00  0.00     0.135 A 
ATOM     73  C   UNL     1       6.848   2.224  10.473  1.00  0.00     0.135 A 
ATOM     74  F   UNL     1       3.496   1.049   9.681  1.00  0.00    -0.206 F 
ATOM     75  C   UNL     1       4.268   3.217  10.136  1.00  0.00     0.059 A 
ATOM     76  C   UNL     1       6.612   3.586  10.646  1.00  0.00     0.059 A 
ATOM     77  F   UNL     1       8.102   1.774  10.641  1.00  0.00    -0.206 F 
ATOM     78  C   UNL     1       5.319   4.074  10.471  1.00  0.00     0.060 A 
BRANCH  78  79
ATOM     79  S   UNL     1       4.958   5.830  10.690  1.00  0.00     0.124 S 
ATOM     80  O   UNL     1       4.621   6.232   9.328  1.00  0.00    -0.237 OA
ATOM     81  O   UNL     1       3.847   5.802  11.636  1.00  0.00    -0.237 OA
ATOM     82  O   UNL     1       6.209   6.373  11.212  1.00  0.00    -0.744 OA
ENDBRANCH  78  79
ENDBRANCH  57  71
BRANCH  58  83
ATOM     83  C   UNL     1       7.574  -8.513   9.445  1.00  0.00     0.058 A 
ATOM     84  C   UNL     1       6.711  -9.447  10.034  1.00  0.00     0.135 A 
ATOM     85  C   UNL     1       8.655  -9.001   8.692  1.00  0.00     0.135 A 
ATOM     86  F   UNL     1       5.662  -9.028  10.758  1.00  0.00    -0.206 F 
ATOM     87  C   UNL     1       6.916 -10.815   9.893  1.00  0.00     0.059 A 
ATOM     88  C   UNL     1       8.864 -10.363   8.513  1.00  0.00     0.059 A 
ATOM     89  F   UNL     1       9.493  -8.146   8.085  1.00  0.00    -0.206 F 
ATOM     90  C   UNL     1       7.993 -11.263   9.125  1.00  0.00     0.060 A 
BRANCH  90  91
ATOM     91  S   UNL     1       8.217 -13.041   8.912  1.00  0.00     0.124 S 
ATOM     92  O   UNL     1       8.604 -13.452  10.256  1.00  0.00    -0.237 OA
ATOM     93  O   UNL     1       6.891 -13.463   8.470  1.00  0.00    -0.237 OA
ATOM     94  O   UNL     1       9.265 -13.129   7.899  1.00  0.00    -0.744 OA
ENDBRANCH  90  91
ENDBRANCH  58  83
BRANCH  70  95
ATOM     95  C   UNL     1       7.723  -3.925  14.711  1.00  0.00     0.058 A 
ATOM     96  C   UNL     1       9.038  -4.136  15.154  1.00  0.00     0.135 A 
ATOM     97  C   UNL     1       6.719  -3.780  15.683  1.00  0.00     0.135 A 
ATOM     98  F   UNL     1      10.033  -4.294  14.267  1.00  0.00    -0.206 F 
ATOM     99  C   UNL     1       9.344  -4.213  16.509  1.00  0.00     0.059 A 
ATOM    100  C   UNL     1       7.008  -3.822  17.043  1.00  0.00     0.059 A 
ATOM    101  F   UNL     1       5.445  -3.571  15.313  1.00  0.00    -0.206 F 
ATOM    102  C   UNL     1       8.323  -4.047  17.446  1.00  0.00     0.060 A 
BRANCH 102 103
ATOM    103  S   UNL     1       8.748  -4.106  19.199  1.00  0.00     0.124 S 
ATOM    104  O   UNL     1       9.090  -5.513  19.373  1.00  0.00    -0.237 OA
ATOM    105  O   UNL     1       9.864  -3.168  19.278  1.00  0.00    -0.237 OA
ATOM    106  O   UNL     1       7.522  -3.671  19.863  1.00  0.00    -0.744 OA
ENDBRANCH 102 103
ENDBRANCH  70  95
ENDBRANCH  44  45
ENDBRANCH  37  39
ENDBRANCH  36  37
ENDBRANCH  35  36
ENDBRANCH  34  35
ENDBRANCH  33  34
ENDBRANCH   1  33
TORSDOF 21
