REMARK SMILES C[C@@H](CC(=O)OCCOCCOC(=O)c1ccc(-c2c3nc(c(-c4c(F)cc(S(=O)(=O)[O-])cc4F)c4ccc([nH]4)c(-c4c(F)cc(S(=O)(=O)[O-])cc4F)c4nc(c(-c5c(F)cc(S(=O)(=O)[O-])cc5F)c5ccc2[nH]5)C=C4)C=C3)cc1)CC(=O)N(C)C[C@H]1CCC[N@H+]1C
REMARK SMILES IDX 7 1 6 2 4 3 5 4 3 5 2 6 1 7 81 8 82 9 83 10 84 11 85 12
REMARK SMILES IDX 86 13 87 14 88 15 91 16 89 17 90 18 92 19 8 21 9 22 10 23
REMARK SMILES IDX 11 24 12 25 13 26 14 27 15 28 16 29 80 30 17 31 79 32 18 33
REMARK SMILES IDX 19 34 20 35 73 36 21 37 78 38 72 39 74 40 22 41 77 42 71 43
REMARK SMILES IDX 70 44 23 46 57 47 36 48 56 49 37 50 40 51 55 52 75 53 38 54
REMARK SMILES IDX 39 55 54 57 76 58 41 59 24 60 25 61 34 62 26 63 27 64 33 65
REMARK SMILES IDX 35 66 28 67 29 68 30 69 31 70 32 71 58 72 59 73 68 74 60 75
REMARK SMILES IDX 61 76 67 77 69 78 62 79 63 80 64 81 65 82 66 83 42 84 43 85
REMARK SMILES IDX 52 86 44 87 45 88 51 89 53 90 46 91 47 92 48 93 49 94 50 95
REMARK H PARENT 91 20 74 45 40 56
REMARK Flexibility Score: inf
ROOT
ATOM      1  C   UNL     1       0.840   3.282   2.681  1.00  0.00     0.261 C 
ENDROOT
BRANCH   1   2
ATOM      2  O   UNL     1       0.965   1.917   2.228  1.00  0.00    -0.463 OA
BRANCH   2   3
ATOM      3  C   UNL     1       1.250   0.997   3.180  1.00  0.00     0.306 C 
ATOM      4  O   UNL     1       1.407   1.251   4.370  1.00  0.00    -0.252 OA
BRANCH   3   5
ATOM      5  C   UNL     1       1.375  -0.423   2.660  1.00  0.00     0.126 C 
BRANCH   5   6
ATOM      6  C   UNL     1       0.917  -0.797   1.234  1.00  0.00     0.006 C 
ATOM      7  C   UNL     1       1.905  -0.284   0.188  1.00  0.00     0.009 C 
BRANCH   6   8
ATOM      8  C   UNL     1      -0.538  -0.387   0.957  1.00  0.00     0.104 C 
BRANCH   8   9
ATOM      9  C   UNL     1      -1.290  -1.261  -0.029  1.00  0.00     0.222 C 
ATOM     10  O   UNL     1      -1.985  -2.180   0.417  1.00  0.00    -0.275 OA
BRANCH   9  11
ATOM     11  N   UNL     1      -1.153  -1.042  -1.389  1.00  0.00    -0.340 N 
ATOM     12  C   UNL     1      -0.466   0.080  -2.010  1.00  0.00     0.147 C 
BRANCH  11  13
ATOM     13  C   UNL     1      -1.672  -2.067  -2.303  1.00  0.00     0.184 C 
BRANCH  13  14
ATOM     14  C   UNL     1      -0.585  -3.088  -2.740  1.00  0.00     0.203 C 
ATOM     15  C   UNL     1       0.066  -3.843  -1.575  1.00  0.00     0.073 C 
ATOM     16  N   UNL     1      -1.043  -4.220  -3.568  1.00  0.00    -0.333 N 
ATOM     17  C   UNL     1      -0.714  -5.144  -1.438  1.00  0.00     0.068 C 
ATOM     18  C   UNL     1      -1.631  -5.192  -2.649  1.00  0.00     0.262 C 
ATOM     19  C   UNL     1      -1.927  -3.876  -4.668  1.00  0.00     0.333 C 
ATOM     20  H   UNL     1      -0.240  -4.607  -4.064  1.00  0.00     0.348 HD
ENDBRANCH  13  14
ENDBRANCH  11  13
ENDBRANCH   9  11
ENDBRANCH   8   9
ENDBRANCH   6   8
ENDBRANCH   5   6
ENDBRANCH   3   5
ENDBRANCH   2   3
ENDBRANCH   1   2
BRANCH   1  21
ATOM     21  C   UNL     1      -0.550   3.855   2.389  1.00  0.00     0.202 C 
BRANCH  21  22
ATOM     22  O   UNL     1      -1.628   3.357   3.181  1.00  0.00    -0.374 OA
BRANCH  22  23
ATOM     23  C   UNL     1      -2.153   2.084   2.814  1.00  0.00     0.202 C 
BRANCH  23  24
ATOM     24  C   UNL     1      -3.089   2.055   1.591  1.00  0.00     0.261 C 
BRANCH  24  25
ATOM     25  O   UNL     1      -2.434   2.442   0.365  1.00  0.00    -0.460 OA
BRANCH  25  26
ATOM     26  C   UNL     1      -2.794   3.651  -0.131  1.00  0.00     0.338 C 
ATOM     27  O   UNL     1      -3.659   4.399   0.306  1.00  0.00    -0.246 OA
BRANCH  26  28
ATOM     28  C   UNL     1      -1.851   4.060  -1.192  1.00  0.00     0.060 A 
ATOM     29  C   UNL     1      -1.156   5.265  -1.033  1.00  0.00     0.016 A 
ATOM     30  C   UNL     1      -1.688   3.308  -2.354  1.00  0.00     0.016 A 
ATOM     31  C   UNL     1      -0.324   5.739  -2.051  1.00  0.00     0.010 A 
ATOM     32  C   UNL     1      -0.830   3.769  -3.362  1.00  0.00     0.010 A 
ATOM     33  C   UNL     1      -0.174   5.010  -3.239  1.00  0.00    -0.014 A 
BRANCH  33  34
ATOM     34  C   UNL     1       0.505   5.618  -4.421  1.00  0.00     0.031 A 
ATOM     35  C   UNL     1      -0.333   6.002  -5.617  1.00  0.00     0.074 A 
ATOM     36  C   UNL     1       1.833   5.848  -4.444  1.00  0.00     0.049 A 
ATOM     37  N   UNL     1       0.043   6.430  -6.795  1.00  0.00    -0.248 NA
ATOM     38  C   UNL     1      -1.792   5.870  -5.465  1.00  0.00     0.031 C 
ATOM     39  C   UNL     1       2.761   5.576  -3.348  1.00  0.00     0.029 A 
ATOM     40  N   UNL     1       2.634   6.359  -5.440  1.00  0.00    -0.354 N 
ATOM     41  C   UNL     1      -1.127   6.585  -7.532  1.00  0.00     0.074 A 
ATOM     42  C   UNL     1      -2.220   6.172  -6.681  1.00  0.00     0.031 C 
ATOM     43  C   UNL     1       4.004   5.917  -3.733  1.00  0.00     0.029 A 
ATOM     44  C   UNL     1       3.971   6.390  -5.116  1.00  0.00     0.049 A 
ATOM     45  H   UNL     1       2.282   6.673  -6.304  1.00  0.00     0.167 HD
ATOM     46  C   UNL     1      -1.282   7.045  -8.796  1.00  0.00     0.037 A 
ATOM     47  C   UNL     1       5.047   6.732  -5.856  1.00  0.00     0.037 A 
ATOM     48  C   UNL     1      -0.201   7.498  -9.631  1.00  0.00     0.049 A 
ATOM     49  C   UNL     1       4.859   7.189  -7.282  1.00  0.00     0.074 A 
ATOM     50  C   UNL     1      -0.266   8.011 -10.915  1.00  0.00     0.029 A 
ATOM     51  N   UNL     1       1.137   7.498  -9.267  1.00  0.00    -0.354 N 
ATOM     52  N   UNL     1       3.747   7.333  -7.963  1.00  0.00    -0.248 NA
ATOM     53  C   UNL     1       6.072   7.529  -8.043  1.00  0.00     0.031 C 
ATOM     54  C   UNL     1       1.038   8.274 -11.347  1.00  0.00     0.029 A 
ATOM     55  C   UNL     1       1.909   7.981 -10.310  1.00  0.00     0.049 A 
ATOM     56  H   UNL     1       1.486   7.199  -8.396  1.00  0.00     0.167 HD
ATOM     57  C   UNL     1       4.124   7.813  -9.215  1.00  0.00     0.074 A 
ATOM     58  C   UNL     1       5.566   7.936  -9.200  1.00  0.00     0.031 C 
ATOM     59  C   UNL     1       3.343   8.126 -10.278  1.00  0.00     0.037 A 
BRANCH  46  60
ATOM     60  C   UNL     1      -2.674   7.064  -9.368  1.00  0.00     0.058 A 
ATOM     61  C   UNL     1      -3.650   7.966  -8.917  1.00  0.00     0.135 A 
ATOM     62  C   UNL     1      -3.023   6.186 -10.407  1.00  0.00     0.135 A 
ATOM     63  F   UNL     1      -3.376   8.815  -7.914  1.00  0.00    -0.206 F 
ATOM     64  C   UNL     1      -4.933   7.975  -9.454  1.00  0.00     0.059 A 
ATOM     65  C   UNL     1      -4.290   6.200 -10.981  1.00  0.00     0.059 A 
ATOM     66  F   UNL     1      -2.128   5.303 -10.876  1.00  0.00    -0.206 F 
ATOM     67  C   UNL     1      -5.244   7.088 -10.486  1.00  0.00     0.060 A 
BRANCH  67  68
ATOM     68  S   UNL     1      -6.913   7.113 -11.172  1.00  0.00     0.124 S 
ATOM     69  O   UNL     1      -7.681   6.510 -10.086  1.00  0.00    -0.237 OA
ATOM     70  O   UNL     1      -7.138   8.538 -11.391  1.00  0.00    -0.237 OA
ATOM     71  O   UNL     1      -6.796   6.305 -12.381  1.00  0.00    -0.744 OA
ENDBRANCH  67  68
ENDBRANCH  46  60
BRANCH  47  72
ATOM     72  C   UNL     1       6.415   6.638  -5.272  1.00  0.00     0.058 A 
ATOM     73  C   UNL     1       7.176   7.788  -5.017  1.00  0.00     0.135 A 
ATOM     74  C   UNL     1       6.992   5.395  -4.968  1.00  0.00     0.135 A 
ATOM     75  F   UNL     1       6.678   9.000  -5.305  1.00  0.00    -0.206 F 
ATOM     76  C   UNL     1       8.464   7.711  -4.493  1.00  0.00     0.059 A 
ATOM     77  C   UNL     1       8.266   5.292  -4.419  1.00  0.00     0.059 A 
ATOM     78  F   UNL     1       6.305   4.263  -5.187  1.00  0.00    -0.206 F 
ATOM     79  C   UNL     1       8.998   6.457  -4.193  1.00  0.00     0.060 A 
BRANCH  79  80
ATOM     80  S   UNL     1      10.649   6.370  -3.465  1.00  0.00     0.124 S 
ATOM     81  O   UNL     1      11.491   6.723  -4.601  1.00  0.00    -0.237 OA
ATOM     82  O   UNL     1      10.564   7.363  -2.398  1.00  0.00    -0.237 OA
ATOM     83  O   UNL     1      10.743   4.984  -3.014  1.00  0.00    -0.744 OA
ENDBRANCH  79  80
ENDBRANCH  47  72
BRANCH  59  84
ATOM     84  C   UNL     1       4.005   8.688 -11.508  1.00  0.00     0.058 A 
ATOM     85  C   UNL     1       4.750   7.885 -12.384  1.00  0.00     0.135 A 
ATOM     86  C   UNL     1       3.801  10.032 -11.866  1.00  0.00     0.135 A 
ATOM     87  F   UNL     1       4.981   6.596 -12.087  1.00  0.00    -0.206 F 
ATOM     88  C   UNL     1       5.272   8.393 -13.570  1.00  0.00     0.059 A 
ATOM     89  C   UNL     1       4.290  10.554 -13.060  1.00  0.00     0.059 A 
ATOM     90  F   UNL     1       3.088  10.843 -11.069  1.00  0.00    -0.206 F 
ATOM     91  C   UNL     1       5.027   9.727 -13.905  1.00  0.00     0.060 A 
BRANCH  91  92
ATOM     92  S   UNL     1       5.647  10.351 -15.482  1.00  0.00     0.124 S 
ATOM     93  O   UNL     1       7.081  10.431 -15.225  1.00  0.00    -0.237 OA
ATOM     94  O   UNL     1       5.227   9.311 -16.416  1.00  0.00    -0.237 OA
ATOM     95  O   UNL     1       4.965  11.634 -15.632  1.00  0.00    -0.744 OA
ENDBRANCH  91  92
ENDBRANCH  59  84
ENDBRANCH  33  34
ENDBRANCH  26  28
ENDBRANCH  25  26
ENDBRANCH  24  25
ENDBRANCH  23  24
ENDBRANCH  22  23
ENDBRANCH  21  22
ENDBRANCH   1  21
TORSDOF 23
