REMARK SMILES CCOc1ccc(C(=O)NC(=S)Nc2cccc(C(=O)OCCOCCOC(=O)c3ccc(-c4c5nc(c(-c6c(F)cc(S(=O)(=O)[O-])cc6F)c6ccc([nH]6)c(-c6c(F)cc(S(=O)(=O)[O-])cc6F)c6nc(c(-c7c(F)cc(S(=O)(=O)[O-])cc7F)c7ccc4[nH]7)C=C6)C=C5)cc3)c2C)cc1Br
REMARK SMILES IDX 22 1 21 2 19 3 20 4 18 5 14 6 15 7 96 8 16 9 97 10 17 11
REMARK SMILES IDX 13 12 11 14 12 15 10 16 8 17 9 18 7 20 4 21 5 22 99 23 6 24
REMARK SMILES IDX 98 25 100 26 3 27 2 28 1 29 23 30 24 31 25 32 26 33 27 34
REMARK SMILES IDX 28 35 29 36 30 37 31 38 95 39 32 40 94 41 33 42 34 43 35 44
REMARK SMILES IDX 88 45 36 46 93 47 87 48 89 49 37 50 92 51 86 52 85 53 38 55
REMARK SMILES IDX 72 56 51 57 71 58 52 59 55 60 70 61 90 62 53 63 54 64 69 66
REMARK SMILES IDX 91 67 56 68 39 69 40 70 49 71 41 72 42 73 48 74 50 75 43 76
REMARK SMILES IDX 44 77 45 78 46 79 47 80 73 81 74 82 83 83 75 84 76 85 82 86
REMARK SMILES IDX 84 87 77 88 78 89 79 90 80 91 81 92 57 93 58 94 67 95 59 96
REMARK SMILES IDX 60 97 66 98 68 99 61 100 62 101 63 102 64 103 65 104
REMARK H PARENT 13 13 10 19 89 54 55 65
REMARK Flexibility Score: inf
ROOT
ATOM      1  C   UNL     1       1.201  -2.365   0.671  1.00  0.00     0.261 C 
ENDROOT
BRANCH   1   2
ATOM      2  O   UNL     1       1.796  -1.191   1.212  1.00  0.00    -0.460 OA
BRANCH   2   3
ATOM      3  C   UNL     1       3.006  -1.394   1.829  1.00  0.00     0.338 C 
ATOM      4  O   UNL     1       3.660  -2.425   1.776  1.00  0.00    -0.246 OA
BRANCH   3   5
ATOM      5  C   UNL     1       3.687  -0.045   2.250  1.00  0.00     0.065 A 
ATOM      6  C   UNL     1       5.659   1.824   0.766  1.00  0.00     0.044 A 
ATOM      7  C   UNL     1       5.999   2.743   2.262  1.00  0.00     0.026 A 
ATOM      8  C   UNL     1       4.409   0.530   0.675  1.00  0.00    -0.013 A 
ATOM      9  C   UNL     1       5.268   2.398   3.820  1.00  0.00     0.003 A 
ATOM     10  C   UNL     1       4.372  -0.390  -0.523  1.00  0.00     0.047 C 
ATOM     11  C   UNL     1       4.136   1.007   3.912  1.00  0.00     0.016 A 
BRANCH   6  12
ATOM     12  N   UNL     1       6.961   1.238   0.354  1.00  0.00    -0.332 N 
ATOM     13  H   UNL     1       7.130   1.225  -0.616  1.00  0.00     0.169 HD
BRANCH  12  14
ATOM     14  C   UNL     1       7.991   0.698   1.156  1.00  0.00     0.177 C 
ATOM     15  S   UNL     1       9.564   0.954   0.627  1.00  0.00    -0.040 S 
BRANCH  14  16
ATOM     16  N   UNL     1       7.814  -0.158   2.360  1.00  0.00    -0.299 N 
ATOM     17  C   UNL     1       6.943  -0.916   3.428  1.00  0.00     0.257 C 
ATOM     18  O   UNL     1       7.510  -1.612   4.265  1.00  0.00    -0.269 OA
ATOM     19  H   UNL     1       8.738  -0.357   2.636  1.00  0.00     0.172 HD
BRANCH  17  20
ATOM     20  C   UNL     1       5.453  -0.647   3.511  1.00  0.00     0.041 A 
ATOM     21  C   UNL     1       2.245   1.264   3.080  1.00  0.00     0.133 A 
ATOM     22  C   UNL     1       2.376  -0.240   4.057  1.00  0.00     0.048 A 
ATOM     23  C   UNL     1       3.744   1.866   2.269  1.00  0.00     0.060 A 
ATOM     24  C   UNL     1       3.952  -1.128   4.280  1.00  0.00     0.018 A 
ATOM     25  C   UNL     1       5.364   0.737   2.558  1.00  0.00     0.033 A 
ATOM     26  Br  UNL     1       3.462   3.824   1.783  1.00  0.00    -0.047 Br
BRANCH  21  27
ATOM     27  O   UNL     1       1.073   1.905   2.809  1.00  0.00    -0.493 OA
BRANCH  27  28
ATOM     28  C   UNL     1       0.691   1.575   1.473  1.00  0.00     0.226 C 
ATOM     29  C   UNL     1       0.838   2.630   0.381  1.00  0.00     0.049 C 
ENDBRANCH  27  28
ENDBRANCH  21  27
ENDBRANCH  17  20
ENDBRANCH  14  16
ENDBRANCH  12  14
ENDBRANCH   6  12
ENDBRANCH   3   5
ENDBRANCH   2   3
ENDBRANCH   1   2
BRANCH   1  30
ATOM     30  C   UNL     1       0.048  -2.297  -0.345  1.00  0.00     0.202 C 
BRANCH  30  31
ATOM     31  O   UNL     1      -0.203  -1.263  -1.256  1.00  0.00    -0.374 OA
BRANCH  31  32
ATOM     32  C   UNL     1      -1.010  -0.214  -0.741  1.00  0.00     0.202 C 
BRANCH  32  33
ATOM     33  C   UNL     1      -2.209  -0.465   0.233  1.00  0.00     0.261 C 
BRANCH  33  34
ATOM     34  O   UNL     1      -1.780  -0.904   1.553  1.00  0.00    -0.460 OA
BRANCH  34  35
ATOM     35  C   UNL     1      -2.016  -1.962   2.377  1.00  0.00     0.338 C 
ATOM     36  O   UNL     1      -1.354  -1.981   3.420  1.00  0.00    -0.246 OA
BRANCH  35  37
ATOM     37  C   UNL     1      -2.828  -3.232   2.014  1.00  0.00     0.060 A 
ATOM     38  C   UNL     1      -2.736  -4.193   3.022  1.00  0.00     0.016 A 
ATOM     39  C   UNL     1      -2.588  -3.803   0.779  1.00  0.00     0.016 A 
ATOM     40  C   UNL     1      -1.696  -5.120   2.993  1.00  0.00     0.010 A 
ATOM     41  C   UNL     1      -1.603  -4.797   0.692  1.00  0.00     0.010 A 
ATOM     42  C   UNL     1      -0.935  -5.188   1.847  1.00  0.00    -0.014 A 
BRANCH  42  43
ATOM     43  C   UNL     1       0.537  -5.382   1.912  1.00  0.00     0.031 A 
ATOM     44  C   UNL     1       1.240  -6.146   0.866  1.00  0.00     0.074 A 
ATOM     45  C   UNL     1       1.269  -4.770   2.883  1.00  0.00     0.049 A 
ATOM     46  N   UNL     1       1.921  -7.229   1.036  1.00  0.00    -0.248 NA
ATOM     47  C   UNL     1       1.137  -5.764  -0.536  1.00  0.00     0.031 C 
ATOM     48  C   UNL     1       2.713  -4.779   3.105  1.00  0.00     0.029 A 
ATOM     49  N   UNL     1       0.797  -4.043   3.971  1.00  0.00    -0.354 N 
ATOM     50  C   UNL     1       2.537  -7.482  -0.182  1.00  0.00     0.074 A 
ATOM     51  C   UNL     1       1.787  -6.743  -1.154  1.00  0.00     0.031 C 
ATOM     52  C   UNL     1       2.967  -4.374   4.367  1.00  0.00     0.029 A 
ATOM     53  C   UNL     1       1.690  -4.142   5.032  1.00  0.00     0.049 A 
ATOM     54  H   UNL     1      -0.046  -3.534   3.988  1.00  0.00     0.167 HD
ATOM     55  C   UNL     1       3.822  -7.938  -0.269  1.00  0.00     0.037 A 
ATOM     56  C   UNL     1       1.264  -4.788   6.159  1.00  0.00     0.037 A 
ATOM     57  C   UNL     1       4.447  -7.842   1.054  1.00  0.00     0.049 A 
ATOM     58  C   UNL     1       1.927  -6.168   6.186  1.00  0.00     0.074 A 
ATOM     59  C   UNL     1       5.351  -6.941   1.594  1.00  0.00     0.029 A 
ATOM     60  N   UNL     1       3.881  -8.511   2.135  1.00  0.00    -0.354 N 
ATOM     61  N   UNL     1       2.362  -6.792   5.114  1.00  0.00    -0.248 NA
ATOM     62  C   UNL     1       2.327  -6.852   7.412  1.00  0.00     0.031 C 
ATOM     63  C   UNL     1       5.267  -7.030   3.015  1.00  0.00     0.029 A 
ATOM     64  C   UNL     1       4.311  -7.983   3.339  1.00  0.00     0.049 A 
ATOM     65  H   UNL     1       3.254  -9.266   2.053  1.00  0.00     0.167 HD
ATOM     66  C   UNL     1       3.166  -7.841   5.474  1.00  0.00     0.074 A 
ATOM     67  C   UNL     1       3.080  -7.857   6.926  1.00  0.00     0.031 C 
ATOM     68  C   UNL     1       3.894  -8.599   4.595  1.00  0.00     0.037 A 
BRANCH  55  69
ATOM     69  C   UNL     1       4.587  -8.108  -1.586  1.00  0.00     0.058 A 
ATOM     70  C   UNL     1       5.994  -8.217  -1.611  1.00  0.00     0.135 A 
ATOM     71  C   UNL     1       3.985  -8.246  -2.862  1.00  0.00     0.135 A 
ATOM     72  F   UNL     1       6.710  -8.213  -0.478  1.00  0.00    -0.206 F 
ATOM     73  C   UNL     1       6.734  -8.379  -2.793  1.00  0.00     0.059 A 
ATOM     74  C   UNL     1       4.702  -8.330  -4.061  1.00  0.00     0.059 A 
ATOM     75  F   UNL     1       2.661  -8.396  -3.004  1.00  0.00    -0.206 F 
ATOM     76  C   UNL     1       6.082  -8.415  -4.019  1.00  0.00     0.060 A 
BRANCH  76  77
ATOM     77  S   UNL     1       7.032  -8.678  -5.532  1.00  0.00     0.124 S 
ATOM     78  O   UNL     1       7.964  -7.555  -5.512  1.00  0.00    -0.237 OA
ATOM     79  O   UNL     1       7.615  -9.995  -5.301  1.00  0.00    -0.237 OA
ATOM     80  O   UNL     1       6.021  -8.623  -6.585  1.00  0.00    -0.744 OA
ENDBRANCH  76  77
ENDBRANCH  55  69
BRANCH  56  81
ATOM     81  C   UNL     1      -0.121  -4.339   6.581  1.00  0.00     0.058 A 
ATOM     82  C   UNL     1      -0.320  -2.941   6.749  1.00  0.00     0.135 A 
ATOM     83  C   UNL     1      -1.292  -5.101   6.487  1.00  0.00     0.135 A 
ATOM     84  F   UNL     1       0.746  -2.136   6.911  1.00  0.00    -0.206 F 
ATOM     85  C   UNL     1      -1.571  -2.321   6.638  1.00  0.00     0.059 A 
ATOM     86  C   UNL     1      -2.572  -4.500   6.409  1.00  0.00     0.059 A 
ATOM     87  F   UNL     1      -1.217  -6.431   6.333  1.00  0.00    -0.206 F 
ATOM     88  C   UNL     1      -2.699  -3.104   6.424  1.00  0.00     0.060 A 
BRANCH  88  89
ATOM     89  S   UNL     1      -4.271  -2.277   5.964  1.00  0.00     0.124 S 
ATOM     90  O   UNL     1      -4.859  -1.998   7.268  1.00  0.00    -0.237 OA
ATOM     91  O   UNL     1      -3.835  -1.107   5.205  1.00  0.00    -0.237 OA
ATOM     92  O   UNL     1      -4.975  -3.279   5.169  1.00  0.00    -0.744 OA
ENDBRANCH  88  89
ENDBRANCH  56  81
BRANCH  68  93
ATOM     93  C   UNL     1       4.332 -10.029   4.856  1.00  0.00     0.058 A 
ATOM     94  C   UNL     1       3.719 -10.855   5.812  1.00  0.00     0.135 A 
ATOM     95  C   UNL     1       5.244 -10.686   3.987  1.00  0.00     0.135 A 
ATOM     96  F   UNL     1       2.753 -10.404   6.623  1.00  0.00    -0.206 F 
ATOM     97  C   UNL     1       4.031 -12.205   5.944  1.00  0.00     0.059 A 
ATOM     98  C   UNL     1       5.503 -12.052   4.046  1.00  0.00     0.059 A 
ATOM     99  F   UNL     1       5.903 -10.031   3.019  1.00  0.00    -0.206 F 
ATOM    100  C   UNL     1       4.915 -12.798   5.051  1.00  0.00     0.060 A 
BRANCH 100 101
ATOM    101  S   UNL     1       5.252 -14.556   5.200  1.00  0.00     0.124 S 
ATOM    102  O   UNL     1       6.234 -14.568   6.280  1.00  0.00    -0.237 OA
ATOM    103  O   UNL     1       3.940 -15.103   5.533  1.00  0.00    -0.237 OA
ATOM    104  O   UNL     1       5.758 -14.920   3.881  1.00  0.00    -0.744 OA
ENDBRANCH 100 101
ENDBRANCH  68  93
ENDBRANCH  42  43
ENDBRANCH  35  37
ENDBRANCH  34  35
ENDBRANCH  33  34
ENDBRANCH  32  33
ENDBRANCH  31  32
ENDBRANCH  30  31
ENDBRANCH   1  30
TORSDOF 23
