REMARK SMILES O=C(Cc1c[nH]c(=O)n(Cc2ccccc2)c1=O)OCCOCCOC(=O)c1ccc(-c2c3nc(c(-c4c(F)cc(S(=O)(=O)[O-])cc4F)c4ccc([nH]4)c(-c4c(F)cc(S(=O)(=O)[O-])cc4F)c4nc(c(-c5c(F)cc(S(=O)(=O)[O-])cc5F)c5ccc2[nH]5)C=C4)C=C3)cc1
REMARK SMILES IDX 22 1 21 2 20 3 19 4 2 5 1 6 3 7 4 8 5 9 17 10 6 11 9 12
REMARK SMILES IDX 18 13 7 14 8 16 10 17 11 18 12 19 16 20 13 21 15 22 14 23
REMARK SMILES IDX 23 24 24 25 25 26 26 27 27 28 28 29 29 30 93 31 30 32 92 33
REMARK SMILES IDX 31 34 32 35 33 36 86 37 34 38 91 39 85 40 87 41 35 42 90 43
REMARK SMILES IDX 84 44 83 45 36 47 70 48 49 49 69 50 50 51 53 52 68 53 88 54
REMARK SMILES IDX 51 55 52 56 67 58 89 59 54 60 37 61 38 62 47 63 39 64 40 65
REMARK SMILES IDX 46 66 48 67 41 68 42 69 43 70 44 71 45 72 71 73 72 74 81 75
REMARK SMILES IDX 73 76 74 77 80 78 82 79 75 80 76 81 77 82 78 83 79 84 55 85
REMARK SMILES IDX 56 86 65 87 57 88 58 89 64 90 66 91 59 92 60 93 61 94 62 95
REMARK SMILES IDX 63 96
REMARK H PARENT 6 15 87 46 53 57
REMARK Flexibility Score: inf
ROOT
ATOM      1  O   UNL     1       3.972  -1.313  -1.104  1.00  0.00    -0.374 OA
ENDROOT
BRANCH   1   2
ATOM      2  C   UNL     1       4.339  -1.230   0.270  1.00  0.00     0.202 C 
BRANCH   2   3
ATOM      3  C   UNL     1       3.790  -0.040   1.047  1.00  0.00     0.261 C 
BRANCH   3   4
ATOM      4  O   UNL     1       2.421   0.279   0.756  1.00  0.00    -0.463 OA
BRANCH   4   5
ATOM      5  C   UNL     1       1.992   1.094  -0.231  1.00  0.00     0.310 C 
ATOM      6  O   UNL     1       0.804   1.422  -0.260  1.00  0.00    -0.252 OA
BRANCH   5   7
ATOM      7  C   UNL     1       2.941   1.612  -1.298  1.00  0.00     0.165 C 
BRANCH   7   8
ATOM      8  C   UNL     1       3.708   2.791  -0.806  1.00  0.00     0.045 A 
ATOM      9  C   UNL     1       3.208   4.022  -0.688  1.00  0.00     0.097 A 
ATOM     10  C   UNL     1       5.124   2.588  -0.404  1.00  0.00     0.260 A 
ATOM     11  N   UNL     1       3.901   4.985  -0.023  1.00  0.00    -0.314 N 
ATOM     12  N   UNL     1       5.630   3.507   0.491  1.00  0.00    -0.256 N 
ATOM     13  O   UNL     1       5.736   1.601  -0.806  1.00  0.00    -0.269 OA
ATOM     14  C   UNL     1       5.059   4.751   0.674  1.00  0.00     0.328 A 
ATOM     15  H   UNL     1       3.551   5.905  -0.044  1.00  0.00     0.171 HD
ATOM     16  O   UNL     1       5.512   5.637   1.395  1.00  0.00    -0.248 OA
BRANCH  12  17
ATOM     17  C   UNL     1       6.873   3.181   1.179  1.00  0.00     0.166 C 
BRANCH  17  18
ATOM     18  C   UNL     1       8.090   3.534   0.355  1.00  0.00    -0.028 A 
ATOM     19  C   UNL     1       8.376   4.874   0.060  1.00  0.00     0.005 A 
ATOM     20  C   UNL     1       8.928   2.534  -0.158  1.00  0.00     0.005 A 
ATOM     21  C   UNL     1       9.444   5.208  -0.768  1.00  0.00     0.000 A 
ATOM     22  C   UNL     1      10.011   2.872  -0.971  1.00  0.00     0.000 A 
ATOM     23  C   UNL     1      10.260   4.207  -1.286  1.00  0.00     0.000 A 
ENDBRANCH  17  18
ENDBRANCH  12  17
ENDBRANCH   7   8
ENDBRANCH   5   7
ENDBRANCH   4   5
ENDBRANCH   3   4
ENDBRANCH   2   3
ENDBRANCH   1   2
BRANCH   1  24
ATOM     24  C   UNL     1       2.731  -1.977  -1.363  1.00  0.00     0.202 C 
BRANCH  24  25
ATOM     25  C   UNL     1       2.857  -3.494  -1.530  1.00  0.00     0.261 C 
BRANCH  25  26
ATOM     26  O   UNL     1       3.249  -4.109  -0.294  1.00  0.00    -0.460 OA
BRANCH  26  27
ATOM     27  C   UNL     1       4.573  -4.386  -0.173  1.00  0.00     0.338 C 
ATOM     28  O   UNL     1       5.413  -4.353  -1.056  1.00  0.00    -0.246 OA
BRANCH  27  29
ATOM     29  C   UNL     1       4.897  -4.515   1.269  1.00  0.00     0.060 A 
ATOM     30  C   UNL     1       3.984  -5.055   2.179  1.00  0.00     0.016 A 
ATOM     31  C   UNL     1       6.131  -4.020   1.717  1.00  0.00     0.016 A 
ATOM     32  C   UNL     1       4.331  -5.147   3.527  1.00  0.00     0.010 A 
ATOM     33  C   UNL     1       6.482  -4.124   3.065  1.00  0.00     0.010 A 
ATOM     34  C   UNL     1       5.598  -4.723   3.971  1.00  0.00    -0.014 A 
BRANCH  34  35
ATOM     35  C   UNL     1       6.059  -5.133   5.319  1.00  0.00     0.031 A 
ATOM     36  C   UNL     1       6.161  -4.172   6.462  1.00  0.00     0.074 A 
ATOM     37  C   UNL     1       6.379  -6.432   5.483  1.00  0.00     0.049 A 
ATOM     38  N   UNL     1       6.428  -4.426   7.716  1.00  0.00    -0.248 NA
ATOM     39  C   UNL     1       5.947  -2.747   6.168  1.00  0.00     0.031 C 
ATOM     40  C   UNL     1       6.364  -7.436   4.413  1.00  0.00     0.029 A 
ATOM     41  N   UNL     1       6.753  -7.140   6.595  1.00  0.00    -0.354 N 
ATOM     42  C   UNL     1       6.390  -3.204   8.372  1.00  0.00     0.074 A 
ATOM     43  C   UNL     1       6.122  -2.197   7.365  1.00  0.00     0.031 C 
ATOM     44  C   UNL     1       6.663  -8.636   4.931  1.00  0.00     0.029 A 
ATOM     45  C   UNL     1       6.924  -8.483   6.357  1.00  0.00     0.049 A 
ATOM     46  H   UNL     1       6.886  -6.726   7.478  1.00  0.00     0.167 HD
ATOM     47  C   UNL     1       6.545  -2.958   9.696  1.00  0.00     0.037 A 
ATOM     48  C   UNL     1       7.247  -9.486   7.195  1.00  0.00     0.037 A 
ATOM     49  C   UNL     1       6.821  -3.978  10.678  1.00  0.00     0.049 A 
ATOM     50  C   UNL     1       7.439  -9.177   8.653  1.00  0.00     0.074 A 
ATOM     51  C   UNL     1       6.950  -3.834  12.050  1.00  0.00     0.029 A 
ATOM     52  N   UNL     1       7.023  -5.322  10.399  1.00  0.00    -0.354 N 
ATOM     53  N   UNL     1       7.305  -8.028   9.271  1.00  0.00    -0.248 NA
ATOM     54  C   UNL     1       7.820 -10.293   9.528  1.00  0.00     0.031 C 
ATOM     55  C   UNL     1       7.282  -5.079  12.591  1.00  0.00     0.029 A 
ATOM     56  C   UNL     1       7.306  -6.012  11.567  1.00  0.00     0.049 A 
ATOM     57  H   UNL     1       6.972  -5.727   9.503  1.00  0.00     0.167 HD
ATOM     58  C   UNL     1       7.568  -8.287  10.611  1.00  0.00     0.074 A 
ATOM     59  C   UNL     1       7.852  -9.704  10.716  1.00  0.00     0.031 C 
ATOM     60  C   UNL     1       7.578  -7.426  11.657  1.00  0.00     0.037 A 
BRANCH  47  61
ATOM     61  C   UNL     1       6.399  -1.543  10.184  1.00  0.00     0.058 A 
ATOM     62  C   UNL     1       5.141  -0.923  10.249  1.00  0.00     0.135 A 
ATOM     63  C   UNL     1       7.500  -0.844  10.707  1.00  0.00     0.135 A 
ATOM     64  F   UNL     1       4.056  -1.541   9.756  1.00  0.00    -0.206 F 
ATOM     65  C   UNL     1       4.980   0.339  10.812  1.00  0.00     0.059 A 
ATOM     66  C   UNL     1       7.358   0.410  11.296  1.00  0.00     0.059 A 
ATOM     67  F   UNL     1       8.725  -1.391  10.674  1.00  0.00    -0.206 F 
ATOM     68  C   UNL     1       6.093   0.994  11.342  1.00  0.00     0.060 A 
BRANCH  68  69
ATOM     69  S   UNL     1       5.851   2.612  12.107  1.00  0.00     0.124 S 
ATOM     70  O   UNL     1       5.497   3.430  10.951  1.00  0.00    -0.237 OA
ATOM     71  O   UNL     1       4.771   2.348  13.051  1.00  0.00    -0.237 OA
ATOM     72  O   UNL     1       7.149   2.905  12.707  1.00  0.00    -0.744 OA
ENDBRANCH  68  69
ENDBRANCH  47  61
BRANCH  48  73
ATOM     73  C   UNL     1       7.378 -10.872   6.674  1.00  0.00     0.058 A 
ATOM     74  C   UNL     1       6.454 -11.867   7.024  1.00  0.00     0.135 A 
ATOM     75  C   UNL     1       8.415 -11.223   5.795  1.00  0.00     0.135 A 
ATOM     76  F   UNL     1       5.444 -11.581   7.859  1.00  0.00    -0.206 F 
ATOM     77  C   UNL     1       6.564 -13.165   6.538  1.00  0.00     0.059 A 
ATOM     78  C   UNL     1       8.529 -12.506   5.272  1.00  0.00     0.059 A 
ATOM     79  F   UNL     1       9.312 -10.301   5.410  1.00  0.00    -0.206 F 
ATOM     80  C   UNL     1       7.606 -13.475   5.661  1.00  0.00     0.060 A 
BRANCH  80  81
ATOM     81  S   UNL     1       7.722 -15.158   5.018  1.00  0.00     0.124 S 
ATOM     82  O   UNL     1       8.112 -15.900   6.211  1.00  0.00    -0.237 OA
ATOM     83  O   UNL     1       6.365 -15.393   4.534  1.00  0.00    -0.237 OA
ATOM     84  O   UNL     1       8.742 -15.051   3.979  1.00  0.00    -0.744 OA
ENDBRANCH  80  81
ENDBRANCH  48  73
BRANCH  60  85
ATOM     85  C   UNL     1       7.895  -7.980  13.018  1.00  0.00     0.058 A 
ATOM     86  C   UNL     1       9.204  -8.339  13.373  1.00  0.00     0.135 A 
ATOM     87  C   UNL     1       6.902  -8.046  14.009  1.00  0.00     0.135 A 
ATOM     88  F   UNL     1      10.186  -8.306  12.459  1.00  0.00    -0.206 F 
ATOM     89  C   UNL     1       9.519  -8.740  14.666  1.00  0.00     0.059 A 
ATOM     90  C   UNL     1       7.201  -8.418  15.316  1.00  0.00     0.059 A 
ATOM     91  F   UNL     1       5.635  -7.709  13.720  1.00  0.00    -0.206 F 
ATOM     92  C   UNL     1       8.514  -8.761  15.635  1.00  0.00     0.060 A 
BRANCH  92  93
ATOM     93  S   UNL     1       8.961  -9.198  17.328  1.00  0.00     0.124 S 
ATOM     94  O   UNL     1       9.277 -10.617  17.195  1.00  0.00    -0.237 OA
ATOM     95  O   UNL     1      10.096  -8.318  17.584  1.00  0.00    -0.237 OA
ATOM     96  O   UNL     1       7.753  -8.894  18.090  1.00  0.00    -0.744 OA
ENDBRANCH  92  93
ENDBRANCH  60  85
ENDBRANCH  34  35
ENDBRANCH  27  29
ENDBRANCH  26  27
ENDBRANCH  25  26
ENDBRANCH  24  25
ENDBRANCH   1  24
TORSDOF 20
