REMARK SMILES Cc1ccc(C)c(OCc2ccc(C(=O)OCCOCCOC(=O)c3ccc(-c4c5nc(c(-c6c(F)cc(S(=O)(=O)[O-])cc6F)c6ccc([nH]6)c(-c6c(F)cc(S(=O)(=O)[O-])cc6F)c6nc(c(-c7c(F)cc(S(=O)(=O)[O-])cc7F)c7ccc4[nH]7)C=C6)C=C5)cc3)cc2)c1C
REMARK SMILES IDX 19 1 18 2 17 3 16 4 14 5 15 6 13 7 10 8 11 9 92 10 12 11
REMARK SMILES IDX 91 12 9 13 8 14 7 15 1 16 2 17 3 18 93 19 4 20 94 21 5 22
REMARK SMILES IDX 6 23 20 24 21 25 22 26 23 27 24 28 25 29 26 30 90 31 27 32
REMARK SMILES IDX 89 33 28 34 29 35 30 36 83 37 31 38 88 39 82 40 84 41 32 42
REMARK SMILES IDX 87 43 81 44 80 45 33 47 67 48 46 49 66 50 47 51 50 52 65 53
REMARK SMILES IDX 85 54 48 55 49 56 64 58 86 59 51 60 34 61 35 62 44 63 36 64
REMARK SMILES IDX 37 65 43 66 45 67 38 68 39 69 40 70 41 71 42 72 68 73 69 74
REMARK SMILES IDX 78 75 70 76 71 77 77 78 79 79 72 80 73 81 74 82 75 83 76 84
REMARK SMILES IDX 52 85 53 86 62 87 54 88 55 89 61 90 63 91 56 92 57 93 58 94
REMARK SMILES IDX 59 95 60 96
REMARK H PARENT 84 46 50 57
REMARK Flexibility Score: inf
ROOT
ATOM      1  O   UNL     1       3.938  -1.015   7.152  1.00  0.00    -0.374 OA
ENDROOT
BRANCH   1   2
ATOM      2  C   UNL     1       4.955  -0.139   7.649  1.00  0.00     0.202 C 
BRANCH   2   3
ATOM      3  C   UNL     1       6.050   0.261   6.654  1.00  0.00     0.261 C 
BRANCH   3   4
ATOM      4  O   UNL     1       5.516   1.133   5.640  1.00  0.00    -0.460 OA
BRANCH   4   5
ATOM      5  C   UNL     1       5.643   0.677   4.376  1.00  0.00     0.338 C 
ATOM      6  O   UNL     1       6.313  -0.269   3.984  1.00  0.00    -0.246 OA
BRANCH   5   7
ATOM      7  C   UNL     1       4.644   1.335   3.521  1.00  0.00     0.060 A 
ATOM      8  C   UNL     1       2.876   2.350   1.593  1.00  0.00    -0.011 A 
ATOM      9  C   UNL     1       2.734   1.045   2.074  1.00  0.00     0.008 A 
ATOM     10  C   UNL     1       3.826   3.185   2.222  1.00  0.00     0.008 A 
ATOM     11  C   UNL     1       3.649   0.521   2.980  1.00  0.00     0.016 A 
ATOM     12  C   UNL     1       4.694   2.689   3.204  1.00  0.00     0.016 A 
BRANCH   8  13
ATOM     13  C   UNL     1       2.237   2.824   0.291  1.00  0.00     0.265 C 
BRANCH  13  14
ATOM     14  O   UNL     1       0.964   2.335  -0.123  1.00  0.00    -0.488 OA
BRANCH  14  15
ATOM     15  C   UNL     1       0.675   1.025  -0.389  1.00  0.00     0.125 A 
ATOM     16  C   UNL     1      -2.586  -0.975   0.070  1.00  0.00     0.045 C 
ATOM     17  C   UNL     1      -1.151  -0.609  -0.190  1.00  0.00    -0.044 A 
ATOM     18  C   UNL     1      -0.231  -1.625  -0.454  1.00  0.00     0.004 A 
ATOM     19  C   UNL     1      -0.702   0.728  -0.182  1.00  0.00    -0.006 A 
ATOM     20  C   UNL     1       1.093  -1.321  -0.767  1.00  0.00     0.007 A 
ATOM     21  C   UNL     1      -1.657   1.876   0.064  1.00  0.00     0.049 C 
ATOM     22  C   UNL     1       1.560   0.006  -0.784  1.00  0.00    -0.009 A 
ATOM     23  C   UNL     1       2.979   0.218  -1.232  1.00  0.00     0.048 C 
ENDBRANCH  14  15
ENDBRANCH  13  14
ENDBRANCH   8  13
ENDBRANCH   5   7
ENDBRANCH   4   5
ENDBRANCH   3   4
ENDBRANCH   2   3
ENDBRANCH   1   2
BRANCH   1  24
ATOM     24  C   UNL     1       2.930  -0.434   6.324  1.00  0.00     0.202 C 
BRANCH  24  25
ATOM     25  C   UNL     1       1.779   0.288   7.028  1.00  0.00     0.261 C 
BRANCH  25  26
ATOM     26  O   UNL     1       2.234   1.467   7.713  1.00  0.00    -0.460 OA
BRANCH  26  27
ATOM     27  C   UNL     1       2.274   1.344   9.059  1.00  0.00     0.338 C 
ATOM     28  O   UNL     1       1.875   0.398   9.723  1.00  0.00    -0.246 OA
BRANCH  27  29
ATOM     29  C   UNL     1       3.054   2.447   9.650  1.00  0.00     0.060 A 
ATOM     30  C   UNL     1       4.035   2.095  10.585  1.00  0.00     0.016 A 
ATOM     31  C   UNL     1       2.786   3.789   9.370  1.00  0.00     0.016 A 
ATOM     32  C   UNL     1       4.688   3.083  11.312  1.00  0.00     0.010 A 
ATOM     33  C   UNL     1       3.441   4.783  10.106  1.00  0.00     0.010 A 
ATOM     34  C   UNL     1       4.351   4.429  11.119  1.00  0.00    -0.014 A 
BRANCH  34  35
ATOM     35  C   UNL     1       4.800   5.416  12.130  1.00  0.00     0.031 A 
ATOM     36  C   UNL     1       3.840   5.814  13.222  1.00  0.00     0.074 A 
ATOM     37  C   UNL     1       6.064   5.872  12.136  1.00  0.00     0.049 A 
ATOM     38  N   UNL     1       4.032   6.597  14.251  1.00  0.00    -0.248 NA
ATOM     39  C   UNL     1       2.481   5.252  13.141  1.00  0.00     0.031 C 
ATOM     40  C   UNL     1       7.090   5.531  11.152  1.00  0.00     0.029 A 
ATOM     41  N   UNL     1       6.702   6.715  13.010  1.00  0.00    -0.354 N 
ATOM     42  C   UNL     1       2.824   6.620  14.939  1.00  0.00     0.074 A 
ATOM     43  C   UNL     1       1.893   5.807  14.189  1.00  0.00     0.031 C 
ATOM     44  C   UNL     1       8.234   6.157  11.480  1.00  0.00     0.029 A 
ATOM     45  C   UNL     1       8.015   6.954  12.686  1.00  0.00     0.049 A 
ATOM     46  H   UNL     1       6.260   7.110  13.796  1.00  0.00     0.167 HD
ATOM     47  C   UNL     1       2.521   7.248  16.101  1.00  0.00     0.037 A 
ATOM     48  C   UNL     1       8.933   7.730  13.295  1.00  0.00     0.037 A 
ATOM     49  C   UNL     1       3.452   8.052  16.847  1.00  0.00     0.049 A 
ATOM     50  C   UNL     1       8.564   8.447  14.568  1.00  0.00     0.074 A 
ATOM     51  C   UNL     1       3.248   8.727  18.038  1.00  0.00     0.029 A 
ATOM     52  N   UNL     1       4.767   8.290  16.474  1.00  0.00    -0.354 N 
ATOM     53  N   UNL     1       7.422   8.445  15.216  1.00  0.00    -0.248 NA
ATOM     54  C   UNL     1       9.613   9.257  15.201  1.00  0.00     0.031 C 
ATOM     55  C   UNL     1       4.428   9.406  18.363  1.00  0.00     0.029 A 
ATOM     56  C   UNL     1       5.382   9.113  17.403  1.00  0.00     0.049 A 
ATOM     57  H   UNL     1       5.199   7.928  15.667  1.00  0.00     0.167 HD
ATOM     58  C   UNL     1       7.627   9.227  16.349  1.00  0.00     0.074 A 
ATOM     59  C   UNL     1       9.004   9.674  16.302  1.00  0.00     0.031 C 
ATOM     60  C   UNL     1       6.756   9.545  17.341  1.00  0.00     0.037 A 
BRANCH  47  61
ATOM     61  C   UNL     1       1.116   7.105  16.619  1.00  0.00     0.058 A 
ATOM     62  C   UNL     1       0.645   5.896  17.158  1.00  0.00     0.135 A 
ATOM     63  C   UNL     1       0.233   8.196  16.590  1.00  0.00     0.135 A 
ATOM     64  F   UNL     1       1.441   4.815  17.190  1.00  0.00    -0.206 F 
ATOM     65  C   UNL     1      -0.659   5.766  17.624  1.00  0.00     0.059 A 
ATOM     66  C   UNL     1      -1.068   8.097  17.076  1.00  0.00     0.059 A 
ATOM     67  F   UNL     1       0.629   9.373  16.082  1.00  0.00    -0.206 F 
ATOM     68  C   UNL     1      -1.509   6.873  17.577  1.00  0.00     0.060 A 
BRANCH  68  69
ATOM     69  S   UNL     1      -3.200   6.691  18.185  1.00  0.00     0.124 S 
ATOM     70  O   UNL     1      -3.811   5.908  17.116  1.00  0.00    -0.237 OA
ATOM     71  O   UNL     1      -3.003   5.991  19.451  1.00  0.00    -0.237 OA
ATOM     72  O   UNL     1      -3.669   8.068  18.301  1.00  0.00    -0.744 OA
ENDBRANCH  68  69
ENDBRANCH  47  61
BRANCH  48  73
ATOM     73  C   UNL     1      10.297   7.861  12.716  1.00  0.00     0.058 A 
ATOM     74  C   UNL     1      11.415   7.302  13.350  1.00  0.00     0.135 A 
ATOM     75  C   UNL     1      10.505   8.555  11.513  1.00  0.00     0.135 A 
ATOM     76  F   UNL     1      11.268   6.637  14.506  1.00  0.00    -0.206 F 
ATOM     77  C   UNL     1      12.696   7.439  12.824  1.00  0.00     0.059 A 
ATOM     78  C   UNL     1      11.773   8.684  10.954  1.00  0.00     0.059 A 
ATOM     79  F   UNL     1       9.466   9.098  10.861  1.00  0.00    -0.206 F 
ATOM     80  C   UNL     1      12.864   8.132  11.623  1.00  0.00     0.060 A 
BRANCH  80  81
ATOM     81  S   UNL     1      14.523   8.265  10.922  1.00  0.00     0.124 S 
ATOM     82  O   UNL     1      15.135   9.254  11.801  1.00  0.00    -0.237 OA
ATOM     83  O   UNL     1      15.021   6.899  11.050  1.00  0.00    -0.237 OA
ATOM     84  O   UNL     1      14.272   8.706   9.552  1.00  0.00    -0.744 OA
ENDBRANCH  80  81
ENDBRANCH  48  73
BRANCH  60  85
ATOM     85  C   UNL     1       7.284  10.380  18.477  1.00  0.00     0.058 A 
ATOM     86  C   UNL     1       7.591  11.740  18.317  1.00  0.00     0.135 A 
ATOM     87  C   UNL     1       7.471   9.810  19.747  1.00  0.00     0.135 A 
ATOM     88  F   UNL     1       7.431  12.333  17.124  1.00  0.00    -0.206 F 
ATOM     89  C   UNL     1       8.110  12.495  19.364  1.00  0.00     0.059 A 
ATOM     90  C   UNL     1       7.961  10.554  20.816  1.00  0.00     0.059 A 
ATOM     91  F   UNL     1       7.176   8.518  19.959  1.00  0.00    -0.206 F 
ATOM     92  C   UNL     1       8.299  11.890  20.608  1.00  0.00     0.060 A 
BRANCH  92  93
ATOM     93  S   UNL     1       8.984  12.874  21.958  1.00  0.00     0.124 S 
ATOM     94  O   UNL     1      10.397  12.922  21.597  1.00  0.00    -0.237 OA
ATOM     95  O   UNL     1       8.254  14.132  21.834  1.00  0.00    -0.237 OA
ATOM     96  O   UNL     1       8.665  12.087  23.146  1.00  0.00    -0.744 OA
ENDBRANCH  92  93
ENDBRANCH  60  85
ENDBRANCH  34  35
ENDBRANCH  27  29
ENDBRANCH  26  27
ENDBRANCH  25  26
ENDBRANCH  24  25
ENDBRANCH   1  24
TORSDOF 20
