REMARK SMILES CC[C@H](CCO)CNc1cc(C(=O)OCCOCCOC(=O)c2ccc(-c3c4nc(c(-c5c(F)cc(S(=O)(=O)[O-])cc5F)c5ccc([nH]5)c(-c5c(F)cc(S(=O)(=O)[O-])cc5F)c5nc(c(-c6c(F)cc(S(=O)(=O)[O-])cc6F)c6ccc3[nH]6)C=C5)C=C4)cc2)ccn1
REMARK SMILES IDX 15 1 14 2 12 3 13 4 11 5 9 6 10 7 91 8 90 9 89 10 8 11 7 13
REMARK SMILES IDX 3 14 2 15 1 16 4 17 5 18 6 19 16 21 17 22 18 23 19 24 20 25
REMARK SMILES IDX 21 26 22 27 23 28 24 29 88 30 25 31 87 32 26 33 27 34 28 35
REMARK SMILES IDX 81 36 29 37 86 38 80 39 82 40 30 41 85 42 79 43 78 44 31 46
REMARK SMILES IDX 65 47 44 48 64 49 45 50 48 51 63 52 83 53 46 54 47 55 62 57
REMARK SMILES IDX 84 58 49 59 32 60 33 61 42 62 34 63 35 64 41 65 43 66 36 67
REMARK SMILES IDX 37 68 38 69 39 70 40 71 66 72 67 73 76 74 68 75 69 76 75 77
REMARK SMILES IDX 77 78 70 79 71 80 72 81 73 82 74 83 50 84 51 85 60 86 52 87
REMARK SMILES IDX 53 88 59 89 61 90 54 91 55 92 56 93 57 94 58 95
REMARK H PARENT 8 12 6 20 82 45 48 56
REMARK Flexibility Score: inf
ROOT
ATOM      1  C   UNL     1       1.692  -5.589   8.823  1.00  0.00     0.261 C 
ENDROOT
BRANCH   1   2
ATOM      2  O   UNL     1       1.788  -5.158   7.457  1.00  0.00    -0.460 OA
BRANCH   2   3
ATOM      3  C   UNL     1       3.028  -5.234   6.921  1.00  0.00     0.338 C 
ATOM      4  O   UNL     1       4.072  -5.482   7.506  1.00  0.00    -0.246 OA
BRANCH   3   5
ATOM      5  C   UNL     1       2.944  -5.167   5.447  1.00  0.00     0.065 A 
ATOM      6  C   UNL     1       2.025  -4.374   3.398  1.00  0.00     0.126 A 
ATOM      7  C   UNL     1       1.997  -4.388   4.780  1.00  0.00     0.062 A 
ATOM      8  N   UNL     1       2.879  -5.148   2.695  1.00  0.00    -0.240 NA
ATOM      9  C   UNL     1       3.757  -5.923   3.361  1.00  0.00     0.114 A 
ATOM     10  C   UNL     1       3.842  -5.953   4.731  1.00  0.00     0.036 A 
BRANCH   6  11
ATOM     11  N   UNL     1       1.240  -3.602   2.594  1.00  0.00    -0.370 N 
ATOM     12  H   UNL     1       1.187  -3.873   1.649  1.00  0.00     0.162 HD
BRANCH  11  13
ATOM     13  C   UNL     1       0.476  -2.428   2.965  1.00  0.00     0.118 C 
BRANCH  13  14
ATOM     14  C   UNL     1       0.805  -1.237   2.042  1.00  0.00     0.010 C 
BRANCH  14  15
ATOM     15  C   UNL     1       0.340   0.090   2.701  1.00  0.00     0.002 C 
ATOM     16  C   UNL     1      -1.149   0.152   3.040  1.00  0.00     0.004 C 
ENDBRANCH  14  15
BRANCH  14  17
ATOM     17  C   UNL     1       0.286  -1.284   0.579  1.00  0.00     0.033 C 
BRANCH  17  18
ATOM     18  C   UNL     1       0.336  -2.595  -0.195  1.00  0.00     0.156 C 
BRANCH  18  19
ATOM     19  O   UNL     1      -0.641  -3.512   0.269  1.00  0.00    -0.396 OA
ATOM     20  H   UNL     1      -0.475  -3.717   1.202  1.00  0.00     0.210 HD
ENDBRANCH  18  19
ENDBRANCH  17  18
ENDBRANCH  14  17
ENDBRANCH  13  14
ENDBRANCH  11  13
ENDBRANCH   6  11
ENDBRANCH   3   5
ENDBRANCH   2   3
ENDBRANCH   1   2
BRANCH   1  21
ATOM     21  C   UNL     1       0.991  -6.948   8.933  1.00  0.00     0.202 C 
BRANCH  21  22
ATOM     22  O   UNL     1       1.616  -8.050   8.274  1.00  0.00    -0.374 OA
BRANCH  22  23
ATOM     23  C   UNL     1       1.386  -8.188   6.871  1.00  0.00     0.202 C 
BRANCH  23  24
ATOM     24  C   UNL     1       0.040  -8.777   6.428  1.00  0.00     0.261 C 
BRANCH  24  25
ATOM     25  O   UNL     1      -1.069  -7.929   6.768  1.00  0.00    -0.460 OA
BRANCH  25  26
ATOM     26  C   UNL     1      -1.825  -8.380   7.800  1.00  0.00     0.338 C 
ATOM     27  O   UNL     1      -1.694  -9.431   8.403  1.00  0.00    -0.246 OA
BRANCH  26  28
ATOM     28  C   UNL     1      -2.747  -7.318   8.245  1.00  0.00     0.060 A 
ATOM     29  C   UNL     1      -2.725  -6.975   9.603  1.00  0.00     0.016 A 
ATOM     30  C   UNL     1      -3.658  -6.717   7.374  1.00  0.00     0.016 A 
ATOM     31  C   UNL     1      -3.651  -6.064  10.106  1.00  0.00     0.010 A 
ATOM     32  C   UNL     1      -4.590  -5.806   7.884  1.00  0.00     0.010 A 
ATOM     33  C   UNL     1      -4.613  -5.502   9.257  1.00  0.00    -0.014 A 
BRANCH  33  34
ATOM     34  C   UNL     1      -5.713  -4.691   9.835  1.00  0.00     0.031 A 
ATOM     35  C   UNL     1      -7.078  -5.305   9.989  1.00  0.00     0.074 A 
ATOM     36  C   UNL     1      -5.486  -3.431  10.249  1.00  0.00     0.049 A 
ATOM     37  N   UNL     1      -8.180  -4.771  10.449  1.00  0.00    -0.248 NA
ATOM     38  C   UNL     1      -7.221  -6.707   9.566  1.00  0.00     0.031 C 
ATOM     39  C   UNL     1      -4.198  -2.740  10.181  1.00  0.00     0.029 A 
ATOM     40  N   UNL     1      -6.334  -2.506  10.805  1.00  0.00    -0.354 N 
ATOM     41  C   UNL     1      -9.148  -5.765  10.366  1.00  0.00     0.074 A 
ATOM     42  C   UNL     1      -8.511  -6.925   9.778  1.00  0.00     0.031 C 
ATOM     43  C   UNL     1      -4.343  -1.497  10.671  1.00  0.00     0.029 A 
ATOM     44  C   UNL     1      -5.739  -1.293  11.055  1.00  0.00     0.049 A 
ATOM     45  H   UNL     1      -7.279  -2.695  11.007  1.00  0.00     0.167 HD
ATOM     46  C   UNL     1     -10.445  -5.719  10.753  1.00  0.00     0.037 A 
ATOM     47  C   UNL     1      -6.265  -0.142  11.519  1.00  0.00     0.037 A 
ATOM     48  C   UNL     1     -11.070  -4.560  11.338  1.00  0.00     0.049 A 
ATOM     49  C   UNL     1      -7.726  -0.095  11.884  1.00  0.00     0.074 A 
ATOM     50  C   UNL     1     -12.373  -4.419  11.786  1.00  0.00     0.029 A 
ATOM     51  N   UNL     1     -10.444  -3.339  11.547  1.00  0.00    -0.354 N 
ATOM     52  N   UNL     1      -8.623  -1.052  11.827  1.00  0.00    -0.248 NA
ATOM     53  C   UNL     1      -8.246   1.186  12.380  1.00  0.00     0.031 C 
ATOM     54  C   UNL     1     -12.549  -3.098  12.211  1.00  0.00     0.029 A 
ATOM     55  C   UNL     1     -11.340  -2.432  12.089  1.00  0.00     0.049 A 
ATOM     56  H   UNL     1      -9.501  -3.147  11.341  1.00  0.00     0.167 HD
ATOM     57  C   UNL     1      -9.805  -0.495  12.306  1.00  0.00     0.074 A 
ATOM     58  C   UNL     1      -9.504   0.876  12.662  1.00  0.00     0.031 C 
ATOM     59  C   UNL     1     -11.028  -1.068  12.439  1.00  0.00     0.037 A 
BRANCH  46  60
ATOM     60  C   UNL     1     -11.286  -6.948  10.533  1.00  0.00     0.058 A 
ATOM     61  C   UNL     1     -11.098  -8.120  11.283  1.00  0.00     0.135 A 
ATOM     62  C   UNL     1     -12.322  -6.940   9.585  1.00  0.00     0.135 A 
ATOM     63  F   UNL     1     -10.112  -8.191  12.191  1.00  0.00    -0.206 F 
ATOM     64  C   UNL     1     -11.889  -9.248  11.083  1.00  0.00     0.059 A 
ATOM     65  C   UNL     1     -13.145  -8.045   9.389  1.00  0.00     0.059 A 
ATOM     66  F   UNL     1     -12.547  -5.847   8.838  1.00  0.00    -0.206 F 
ATOM     67  C   UNL     1     -12.912  -9.200  10.134  1.00  0.00     0.060 A 
BRANCH  67  68
ATOM     68  S   UNL     1     -13.934 -10.668   9.893  1.00  0.00     0.124 S 
ATOM     69  O   UNL     1     -12.997 -11.571   9.232  1.00  0.00    -0.237 OA
ATOM     70  O   UNL     1     -14.296 -11.023  11.262  1.00  0.00    -0.237 OA
ATOM     71  O   UNL     1     -15.033 -10.186   9.062  1.00  0.00    -0.744 OA
ENDBRANCH  67  68
ENDBRANCH  46  60
BRANCH  47  72
ATOM     72  C   UNL     1      -5.406   1.065  11.654  1.00  0.00     0.058 A 
ATOM     73  C   UNL     1      -5.082   1.590  12.914  1.00  0.00     0.135 A 
ATOM     74  C   UNL     1      -4.890   1.718  10.523  1.00  0.00     0.135 A 
ATOM     75  F   UNL     1      -5.559   1.009  14.025  1.00  0.00    -0.206 F 
ATOM     76  C   UNL     1      -4.289   2.725  13.048  1.00  0.00     0.059 A 
ATOM     77  C   UNL     1      -4.071   2.837  10.633  1.00  0.00     0.059 A 
ATOM     78  F   UNL     1      -5.161   1.250   9.294  1.00  0.00    -0.206 F 
ATOM     79  C   UNL     1      -3.784   3.339  11.900  1.00  0.00     0.060 A 
BRANCH  79  80
ATOM     80  S   UNL     1      -2.711   4.779  12.088  1.00  0.00     0.124 S 
ATOM     81  O   UNL     1      -3.662   5.801  12.513  1.00  0.00    -0.237 OA
ATOM     82  O   UNL     1      -1.766   4.324  13.103  1.00  0.00    -0.237 OA
ATOM     83  O   UNL     1      -2.149   4.955  10.752  1.00  0.00    -0.744 OA
ENDBRANCH  79  80
ENDBRANCH  47  72
BRANCH  59  84
ATOM     84  C   UNL     1     -12.129  -0.223  13.024  1.00  0.00     0.058 A 
ATOM     85  C   UNL     1     -12.701   0.846  12.315  1.00  0.00     0.135 A 
ATOM     86  C   UNL     1     -12.646  -0.511  14.299  1.00  0.00     0.135 A 
ATOM     87  F   UNL     1     -12.243   1.169  11.095  1.00  0.00    -0.206 F 
ATOM     88  C   UNL     1     -13.722   1.618  12.861  1.00  0.00     0.059 A 
ATOM     89  C   UNL     1     -13.688   0.227  14.851  1.00  0.00     0.059 A 
ATOM     90  F   UNL     1     -12.145  -1.529  15.018  1.00  0.00    -0.206 F 
ATOM     91  C   UNL     1     -14.210   1.300  14.130  1.00  0.00     0.060 A 
BRANCH  91  92
ATOM     92  S   UNL     1     -15.547   2.299  14.818  1.00  0.00     0.124 S 
ATOM     93  O   UNL     1     -14.851   3.541  15.139  1.00  0.00    -0.237 OA
ATOM     94  O   UNL     1     -16.488   2.369  13.705  1.00  0.00    -0.237 OA
ATOM     95  O   UNL     1     -15.999   1.518  15.966  1.00  0.00    -0.744 OA
ENDBRANCH  91  92
ENDBRANCH  59  84
ENDBRANCH  33  34
ENDBRANCH  26  28
ENDBRANCH  25  26
ENDBRANCH  24  25
ENDBRANCH  23  24
ENDBRANCH  22  23
ENDBRANCH  21  22
ENDBRANCH   1  21
TORSDOF 24
