REMARK SMILES Cc1cnn(C2(C(=O)OCCOCCOC(=O)c3ccc(-c4c5nc(c(-c6c(F)cc(S(=O)(=O)[O-])cc6F)c6ccc([nH]6)c(-c6c(F)cc(S(=O)(=O)[O-])cc6F)c6nc(c(-c7c(F)cc(S(=O)(=O)[O-])cc7F)c7ccc4[nH]7)C=C6)C=C5)cc3)CCN(C(=O)c3cc4ccccc4[nH]3)CC2)c1
REMARK SMILES IDX 13 1 12 2 11 3 10 4 9 5 7 6 8 7 6 8 84 9 99 10 85 11 98 12
REMARK SMILES IDX 86 13 87 14 88 15 5 16 1 17 2 18 3 19 100 20 4 21 89 22
REMARK SMILES IDX 90 23 97 24 91 25 96 26 92 28 95 29 93 30 94 31 14 32 15 33
REMARK SMILES IDX 16 34 17 35 18 36 19 37 83 38 20 39 82 40 21 41 22 42 23 43
REMARK SMILES IDX 76 44 24 45 81 46 75 47 77 48 25 49 80 50 74 51 73 52 26 54
REMARK SMILES IDX 60 55 39 56 59 57 40 58 43 59 58 60 78 61 41 62 42 63 57 65
REMARK SMILES IDX 79 66 44 67 27 68 28 69 37 70 29 71 30 72 36 73 38 74 31 75
REMARK SMILES IDX 32 76 33 77 34 78 35 79 61 80 62 81 71 82 63 83 64 84 70 85
REMARK SMILES IDX 72 86 65 87 66 88 67 89 68 90 69 91 45 92 46 93 55 94 47 95
REMARK SMILES IDX 48 96 54 97 56 98 49 99 50 100 51 101 52 102 53 103
REMARK H PARENT 97 27 77 53 43 64
REMARK Flexibility Score: inf
ROOT
ATOM      1  C   UNL     1       1.167  -2.275  -6.169  1.00  0.00     0.202 C 
ENDROOT
BRANCH   1   2
ATOM      2  O   UNL     1       0.338  -3.151  -6.926  1.00  0.00    -0.374 OA
BRANCH   2   3
ATOM      3  C   UNL     1      -0.602  -2.603  -7.847  1.00  0.00     0.202 C 
BRANCH   3   4
ATOM      4  C   UNL     1      -1.787  -1.822  -7.279  1.00  0.00     0.261 C 
BRANCH   4   5
ATOM      5  O   UNL     1      -1.360  -0.724  -6.461  1.00  0.00    -0.461 OA
BRANCH   5   6
ATOM      6  C   UNL     1      -1.652  -0.827  -5.131  1.00  0.00     0.334 C 
ATOM      7  O   UNL     1      -2.399  -1.686  -4.670  1.00  0.00    -0.249 OA
BRANCH   6   8
ATOM      8  C   UNL     1      -1.079   0.350  -4.304  1.00  0.00     0.163 C 
ATOM      9  C   UNL     1      -0.111   1.267  -5.101  1.00  0.00     0.064 C 
ATOM     10  C   UNL     1      -2.387   1.095  -3.969  1.00  0.00     0.064 C 
ATOM     11  C   UNL     1       0.013   2.676  -4.523  1.00  0.00     0.123 C 
ATOM     12  C   UNL     1      -2.207   2.487  -3.419  1.00  0.00     0.123 C 
ATOM     13  N   UNL     1      -1.294   3.264  -4.248  1.00  0.00    -0.337 N 
ATOM     14  C   UNL     1      -1.622   4.501  -4.807  1.00  0.00     0.270 C 
ATOM     15  O   UNL     1      -0.944   5.026  -5.683  1.00  0.00    -0.267 OA
BRANCH   8  16
ATOM     16  N   UNL     1      -0.394  -0.169  -3.099  1.00  0.00    -0.255 N 
ATOM     17  C   UNL     1       1.133  -0.117   0.228  1.00  0.00     0.048 C 
ATOM     18  C   UNL     1       0.593  -0.380  -1.123  1.00  0.00    -0.013 A 
ATOM     19  C   UNL     1       0.592  -1.581  -1.851  1.00  0.00     0.138 A 
ATOM     20  C   UNL     1      -0.005   0.519  -1.977  1.00  0.00     0.113 A 
ATOM     21  N   UNL     1       0.065  -1.439  -3.067  1.00  0.00    -0.180 NA
ENDBRANCH   8  16
BRANCH  14  22
ATOM     22  C   UNL     1      -2.848   5.102  -4.342  1.00  0.00     0.105 A 
ATOM     23  C   UNL     1      -3.258   5.418  -3.058  1.00  0.00     0.042 A 
ATOM     24  N   UNL     1      -3.871   5.457  -5.187  1.00  0.00    -0.351 N 
ATOM     25  C   UNL     1      -4.610   5.844  -3.121  1.00  0.00     0.000 A 
ATOM     26  C   UNL     1      -4.982   5.823  -4.464  1.00  0.00     0.046 A 
ATOM     27  H   UNL     1      -3.817   5.449  -6.170  1.00  0.00     0.167 HD
ATOM     28  C   UNL     1      -5.558   6.230  -2.155  1.00  0.00     0.010 A 
ATOM     29  C   UNL     1      -6.273   6.147  -4.893  1.00  0.00     0.026 A 
ATOM     30  C   UNL     1      -6.846   6.582  -2.570  1.00  0.00     0.001 A 
ATOM     31  C   UNL     1      -7.198   6.533  -3.918  1.00  0.00     0.002 A 
ENDBRANCH  14  22
ENDBRANCH   6   8
ENDBRANCH   5   6
ENDBRANCH   4   5
ENDBRANCH   3   4
ENDBRANCH   2   3
ENDBRANCH   1   2
BRANCH   1  32
ATOM     32  C   UNL     1       2.238  -1.474  -6.896  1.00  0.00     0.261 C 
BRANCH  32  33
ATOM     33  O   UNL     1       1.701  -0.546  -7.834  1.00  0.00    -0.460 OA
BRANCH  33  34
ATOM     34  C   UNL     1       1.880  -0.912  -9.123  1.00  0.00     0.338 C 
ATOM     35  O   UNL     1       2.087  -2.048  -9.539  1.00  0.00    -0.246 OA
BRANCH  34  36
ATOM     36  C   UNL     1       1.959   0.282  -9.967  1.00  0.00     0.060 A 
ATOM     37  C   UNL     1       2.183   0.076 -11.328  1.00  0.00     0.016 A 
ATOM     38  C   UNL     1       2.082   1.554  -9.386  1.00  0.00     0.016 A 
ATOM     39  C   UNL     1       2.748   1.100 -12.060  1.00  0.00     0.010 A 
ATOM     40  C   UNL     1       2.640   2.576 -10.123  1.00  0.00     0.010 A 
ATOM     41  C   UNL     1       3.056   2.313 -11.424  1.00  0.00    -0.014 A 
BRANCH  41  42
ATOM     42  C   UNL     1       3.620   3.391 -12.220  1.00  0.00     0.031 A 
ATOM     43  C   UNL     1       2.622   3.857 -13.212  1.00  0.00     0.074 A 
ATOM     44  C   UNL     1       4.848   3.927 -12.032  1.00  0.00     0.049 A 
ATOM     45  N   UNL     1       2.588   3.530 -14.460  1.00  0.00    -0.248 NA
ATOM     46  C   UNL     1       1.382   4.498 -12.740  1.00  0.00     0.031 C 
ATOM     47  C   UNL     1       5.801   3.650 -10.951  1.00  0.00     0.029 A 
ATOM     48  N   UNL     1       5.497   4.893 -12.755  1.00  0.00    -0.354 N 
ATOM     49  C   UNL     1       1.497   4.210 -14.988  1.00  0.00     0.074 A 
ATOM     50  C   UNL     1       0.670   4.563 -13.869  1.00  0.00     0.031 C 
ATOM     51  C   UNL     1       6.787   4.581 -10.956  1.00  0.00     0.029 A 
ATOM     52  C   UNL     1       6.633   5.428 -12.127  1.00  0.00     0.049 A 
ATOM     53  H   UNL     1       5.192   5.189 -13.642  1.00  0.00     0.167 HD
ATOM     54  C   UNL     1       1.575   4.717 -16.249  1.00  0.00     0.037 A 
ATOM     55  C   UNL     1       7.392   6.473 -12.567  1.00  0.00     0.037 A 
ATOM     56  C   UNL     1       2.711   4.153 -16.937  1.00  0.00     0.049 A 
ATOM     57  C   UNL     1       7.179   6.551 -14.030  1.00  0.00     0.074 A 
ATOM     58  C   UNL     1       3.027   2.950 -17.527  1.00  0.00     0.029 A 
ATOM     59  N   UNL     1       3.888   4.790 -16.642  1.00  0.00    -0.354 N 
ATOM     60  N   UNL     1       7.590   5.625 -14.852  1.00  0.00    -0.248 NA
ATOM     61  C   UNL     1       6.148   7.440 -14.549  1.00  0.00     0.031 C 
ATOM     62  C   UNL     1       4.446   2.826 -17.439  1.00  0.00     0.029 A 
ATOM     63  C   UNL     1       4.968   3.986 -16.872  1.00  0.00     0.049 A 
ATOM     64  H   UNL     1       3.948   5.714 -16.305  1.00  0.00     0.167 HD
ATOM     65  C   UNL     1       6.582   5.534 -15.791  1.00  0.00     0.074 A 
ATOM     66  C   UNL     1       5.811   6.767 -15.653  1.00  0.00     0.031 C 
ATOM     67  C   UNL     1       6.272   4.331 -16.354  1.00  0.00     0.037 A 
BRANCH  54  68
ATOM     68  C   UNL     1       1.008   6.056 -16.674  1.00  0.00     0.058 A 
ATOM     69  C   UNL     1       1.082   6.425 -18.034  1.00  0.00     0.135 A 
ATOM     70  C   UNL     1       0.676   7.100 -15.781  1.00  0.00     0.135 A 
ATOM     71  F   UNL     1       1.407   5.519 -18.970  1.00  0.00    -0.206 F 
ATOM     72  C   UNL     1       0.889   7.738 -18.466  1.00  0.00     0.059 A 
ATOM     73  C   UNL     1       0.435   8.405 -16.196  1.00  0.00     0.059 A 
ATOM     74  F   UNL     1       0.657   6.934 -14.455  1.00  0.00    -0.206 F 
ATOM     75  C   UNL     1       0.569   8.723 -17.537  1.00  0.00     0.060 A 
BRANCH  75  76
ATOM     76  S   UNL     1       0.344  10.422 -18.088  1.00  0.00     0.124 S 
ATOM     77  O   UNL     1       1.692  10.776 -18.517  1.00  0.00    -0.237 OA
ATOM     78  O   UNL     1      -0.645  10.262 -19.149  1.00  0.00    -0.237 OA
ATOM     79  O   UNL     1      -0.138  11.103 -16.890  1.00  0.00    -0.744 OA
ENDBRANCH  75  76
ENDBRANCH  54  68
BRANCH  55  80
ATOM     80  C   UNL     1       8.062   7.586 -11.830  1.00  0.00     0.058 A 
ATOM     81  C   UNL     1       9.007   8.434 -12.449  1.00  0.00     0.135 A 
ATOM     82  C   UNL     1       7.528   8.054 -10.616  1.00  0.00     0.135 A 
ATOM     83  F   UNL     1       9.563   8.082 -13.619  1.00  0.00    -0.206 F 
ATOM     84  C   UNL     1       9.350   9.693 -11.931  1.00  0.00     0.059 A 
ATOM     85  C   UNL     1       7.851   9.306 -10.081  1.00  0.00     0.059 A 
ATOM     86  F   UNL     1       6.594   7.343  -9.966  1.00  0.00    -0.206 F 
ATOM     87  C   UNL     1       8.742  10.134 -10.756  1.00  0.00     0.060 A 
BRANCH  87  88
ATOM     88  S   UNL     1       9.024  11.832 -10.179  1.00  0.00     0.124 S 
ATOM     89  O   UNL     1      10.414  11.779  -9.740  1.00  0.00    -0.237 OA
ATOM     90  O   UNL     1       8.766  12.618 -11.381  1.00  0.00    -0.237 OA
ATOM     91  O   UNL     1       8.040  11.993  -9.112  1.00  0.00    -0.744 OA
ENDBRANCH  87  88
ENDBRANCH  55  80
BRANCH  67  92
ATOM     92  C   UNL     1       7.330   3.270 -16.349  1.00  0.00     0.058 A 
ATOM     93  C   UNL     1       7.784   2.573 -15.217  1.00  0.00     0.135 A 
ATOM     94  C   UNL     1       7.849   2.890 -17.594  1.00  0.00     0.135 A 
ATOM     95  F   UNL     1       7.278   2.828 -14.001  1.00  0.00    -0.206 F 
ATOM     96  C   UNL     1       8.742   1.560 -15.321  1.00  0.00     0.059 A 
ATOM     97  C   UNL     1       8.779   1.869 -17.725  1.00  0.00     0.059 A 
ATOM     98  F   UNL     1       7.415   3.492 -18.714  1.00  0.00    -0.206 F 
ATOM     99  C   UNL     1       9.234   1.217 -16.583  1.00  0.00     0.060 A 
BRANCH  99 100
ATOM    100  S   UNL     1      10.440  -0.117 -16.736  1.00  0.00     0.124 S 
ATOM    101  O   UNL     1      11.630   0.474 -16.135  1.00  0.00    -0.237 OA
ATOM    102  O   UNL     1       9.814  -1.197 -15.978  1.00  0.00    -0.237 OA
ATOM    103  O   UNL     1      10.516  -0.344 -18.178  1.00  0.00    -0.744 OA
ENDBRANCH  99 100
ENDBRANCH  67  92
ENDBRANCH  41  42
ENDBRANCH  34  36
ENDBRANCH  33  34
ENDBRANCH  32  33
ENDBRANCH   1  32
TORSDOF 19
