REMARK SMILES CCC[C@@]1(C(=O)OCCOCCOC(=O)c2ccc(-c3c4nc(c(-c5c(F)cc(S(=O)(=O)[O-])cc5F)c5ccc([nH]5)c(-c5c(F)cc(S(=O)(=O)[O-])cc5F)c5nc(c(-c6c(F)cc(S(=O)(=O)[O-])cc6F)c6ccc3[nH]6)C=C5)C=C4)cc2)CCN(C(=O)[C@@H]2CC[NH2+][C@@H]2C)C1
REMARK SMILES IDX 11 1 10 2 9 3 8 4 7 5 5 6 6 7 4 8 82 9 93 10 83 11 84 12
REMARK SMILES IDX 3 13 2 14 1 15 85 16 86 17 87 18 88 19 91 20 89 21 90 22
REMARK SMILES IDX 92 23 12 26 13 27 14 28 15 29 16 30 17 31 81 32 18 33 80 34
REMARK SMILES IDX 19 35 20 36 21 37 74 38 22 39 79 40 73 41 75 42 23 43 78 44
REMARK SMILES IDX 72 45 71 46 24 48 58 49 37 50 57 51 38 52 41 53 56 54 76 55
REMARK SMILES IDX 39 56 40 57 55 59 77 60 42 61 25 62 26 63 35 64 27 65 28 66
REMARK SMILES IDX 34 67 36 68 29 69 30 70 31 71 32 72 33 73 59 74 60 75 69 76
REMARK SMILES IDX 61 77 62 78 68 79 70 80 63 81 64 82 65 83 66 84 67 85 43 86
REMARK SMILES IDX 44 87 53 88 45 89 46 90 52 91 54 92 47 93 48 94 49 95 50 96
REMARK SMILES IDX 51 97
REMARK H PARENT 90 24 90 25 75 47 41 58
REMARK Flexibility Score: inf
ROOT
ATOM      1  C   UNL     1       0.258   4.517   1.653  1.00  0.00     0.202 C 
ENDROOT
BRANCH   1   2
ATOM      2  O   UNL     1       1.035   3.836   2.635  1.00  0.00    -0.374 OA
BRANCH   2   3
ATOM      3  C   UNL     1       2.325   3.389   2.211  1.00  0.00     0.202 C 
BRANCH   3   4
ATOM      4  C   UNL     1       2.339   2.102   1.382  1.00  0.00     0.261 C 
BRANCH   4   5
ATOM      5  O   UNL     1       1.806   2.300   0.056  1.00  0.00    -0.463 OA
BRANCH   5   6
ATOM      6  C   UNL     1       0.603   1.733  -0.214  1.00  0.00     0.314 C 
ATOM      7  O   UNL     1      -0.073   1.126   0.610  1.00  0.00    -0.252 OA
BRANCH   6   8
ATOM      8  C   UNL     1       0.190   1.852  -1.685  1.00  0.00     0.087 C 
ATOM      9  C   UNL     1       0.295   0.403  -2.234  1.00  0.00     0.042 C 
ATOM     10  C   UNL     1       1.196   2.598  -2.599  1.00  0.00     0.138 C 
ATOM     11  C   UNL     1       1.749   0.276  -2.624  1.00  0.00     0.120 C 
ATOM     12  N   UNL     1       2.009   1.555  -3.241  1.00  0.00    -0.341 N 
BRANCH   8  13
ATOM     13  C   UNL     1      -1.282   2.325  -1.881  1.00  0.00     0.020 C 
BRANCH  13  14
ATOM     14  C   UNL     1      -1.921   3.269  -0.859  1.00  0.00    -0.002 C 
ATOM     15  C   UNL     1      -1.676   4.741  -1.129  1.00  0.00     0.004 C 
ENDBRANCH  13  14
ENDBRANCH   8  13
BRANCH  12  16
ATOM     16  C   UNL     1       2.801   1.834  -4.328  1.00  0.00     0.231 C 
ATOM     17  O   UNL     1       2.838   2.984  -4.782  1.00  0.00    -0.274 OA
BRANCH  16  18
ATOM     18  C   UNL     1       3.630   0.748  -5.027  1.00  0.00     0.142 C 
ATOM     19  C   UNL     1       2.839  -0.400  -5.647  1.00  0.00     0.081 C 
ATOM     20  C   UNL     1       4.770   0.087  -4.255  1.00  0.00     0.192 C 
ATOM     21  C   UNL     1       3.393  -1.681  -5.036  1.00  0.00     0.261 C 
ATOM     22  N   UNL     1       4.349  -1.298  -4.005  1.00  0.00    -0.343 N 
ATOM     23  C   UNL     1       5.215   0.752  -2.960  1.00  0.00     0.076 C 
ATOM     24  H   UNL     1       5.160  -1.916  -4.039  1.00  0.00     0.346 HD
ATOM     25  H   UNL     1       3.919  -1.373  -3.083  1.00  0.00     0.346 HD
ENDBRANCH  16  18
ENDBRANCH  12  16
ENDBRANCH   6   8
ENDBRANCH   5   6
ENDBRANCH   4   5
ENDBRANCH   3   4
ENDBRANCH   2   3
ENDBRANCH   1   2
BRANCH   1  26
ATOM     26  C   UNL     1       0.457   6.031   1.565  1.00  0.00     0.261 C 
BRANCH  26  27
ATOM     27  O   UNL     1       1.810   6.350   1.225  1.00  0.00    -0.460 OA
BRANCH  27  28
ATOM     28  C   UNL     1       2.553   6.744   2.281  1.00  0.00     0.338 C 
ATOM     29  O   UNL     1       2.159   6.977   3.419  1.00  0.00    -0.246 OA
BRANCH  28  30
ATOM     30  C   UNL     1       3.977   6.701   1.927  1.00  0.00     0.060 A 
ATOM     31  C   UNL     1       4.847   6.170   2.886  1.00  0.00     0.016 A 
ATOM     32  C   UNL     1       4.460   7.210   0.717  1.00  0.00     0.016 A 
ATOM     33  C   UNL     1       6.216   6.231   2.680  1.00  0.00     0.010 A 
ATOM     34  C   UNL     1       5.837   7.268   0.509  1.00  0.00     0.010 A 
ATOM     35  C   UNL     1       6.714   6.831   1.516  1.00  0.00    -0.014 A 
BRANCH  35  36
ATOM     36  C   UNL     1       8.150   7.166   1.458  1.00  0.00     0.031 A 
ATOM     37  C   UNL     1       8.565   8.577   1.770  1.00  0.00     0.074 A 
ATOM     38  C   UNL     1       9.052   6.207   1.195  1.00  0.00     0.049 A 
ATOM     39  N   UNL     1       9.762   9.098   1.808  1.00  0.00    -0.248 NA
ATOM     40  C   UNL     1       7.485   9.530   2.079  1.00  0.00     0.031 C 
ATOM     41  C   UNL     1       8.731   4.808   0.909  1.00  0.00     0.029 A 
ATOM     42  N   UNL     1      10.417   6.261   1.128  1.00  0.00    -0.354 N 
ATOM     43  C   UNL     1       9.578  10.438   2.134  1.00  0.00     0.074 A 
ATOM     44  C   UNL     1       8.155  10.659   2.251  1.00  0.00     0.031 C 
ATOM     45  C   UNL     1       9.873   4.135   0.690  1.00  0.00     0.029 A 
ATOM     46  C   UNL     1      10.997   5.062   0.794  1.00  0.00     0.049 A 
ATOM     47  H   UNL     1      10.934   7.081   1.302  1.00  0.00     0.167 HD
ATOM     48  C   UNL     1      10.520  11.391   2.325  1.00  0.00     0.037 A 
ATOM     49  C   UNL     1      12.292   4.760   0.580  1.00  0.00     0.037 A 
ATOM     50  C   UNL     1      11.932  11.138   2.206  1.00  0.00     0.049 A 
ATOM     51  C   UNL     1      13.320   5.843   0.767  1.00  0.00     0.074 A 
ATOM     52  C   UNL     1      12.985  12.012   2.400  1.00  0.00     0.029 A 
ATOM     53  N   UNL     1      12.485   9.914   1.851  1.00  0.00    -0.354 N 
ATOM     54  N   UNL     1      13.139   7.099   1.108  1.00  0.00    -0.248 NA
ATOM     55  C   UNL     1      14.723   5.473   0.553  1.00  0.00     0.031 C 
ATOM     56  C   UNL     1      14.172  11.330   2.111  1.00  0.00     0.029 A 
ATOM     57  C   UNL     1      13.864  10.015   1.794  1.00  0.00     0.049 A 
ATOM     58  H   UNL     1      11.971   9.094   1.668  1.00  0.00     0.167 HD
ATOM     59  C   UNL     1      14.407   7.665   1.168  1.00  0.00     0.074 A 
ATOM     60  C   UNL     1      15.345   6.607   0.844  1.00  0.00     0.031 C 
ATOM     61  C   UNL     1      14.767   8.939   1.465  1.00  0.00     0.037 A 
BRANCH  48  62
ATOM     62  C   UNL     1      10.053  12.785   2.645  1.00  0.00     0.058 A 
ATOM     63  C   UNL     1       9.460  13.110   3.876  1.00  0.00     0.135 A 
ATOM     64  C   UNL     1      10.214  13.819   1.708  1.00  0.00     0.135 A 
ATOM     65  F   UNL     1       9.259  12.159   4.802  1.00  0.00    -0.206 F 
ATOM     66  C   UNL     1       9.020  14.401   4.156  1.00  0.00     0.059 A 
ATOM     67  C   UNL     1       9.808  15.123   1.977  1.00  0.00     0.059 A 
ATOM     68  F   UNL     1      10.768  13.566   0.511  1.00  0.00    -0.206 F 
ATOM     69  C   UNL     1       9.199  15.402   3.199  1.00  0.00     0.060 A 
BRANCH  69  70
ATOM     70  S   UNL     1       8.628  17.073   3.579  1.00  0.00     0.124 S 
ATOM     71  O   UNL     1       7.179  16.911   3.501  1.00  0.00    -0.237 OA
ATOM     72  O   UNL     1       9.170  17.291   4.916  1.00  0.00    -0.237 OA
ATOM     73  O   UNL     1       9.226  17.885   2.523  1.00  0.00    -0.744 OA
ENDBRANCH  69  70
ENDBRANCH  48  62
BRANCH  49  74
ATOM     74  C   UNL     1      12.669   3.383   0.164  1.00  0.00     0.058 A 
ATOM     75  C   UNL     1      13.368   2.524   1.023  1.00  0.00     0.135 A 
ATOM     76  C   UNL     1      12.298   2.885  -1.097  1.00  0.00     0.135 A 
ATOM     77  F   UNL     1      13.749   2.953   2.236  1.00  0.00    -0.206 F 
ATOM     78  C   UNL     1      13.693   1.224   0.647  1.00  0.00     0.059 A 
ATOM     79  C   UNL     1      12.588   1.581  -1.485  1.00  0.00     0.059 A 
ATOM     80  F   UNL     1      11.613   3.660  -1.952  1.00  0.00    -0.206 F 
ATOM     81  C   UNL     1      13.293   0.759  -0.608  1.00  0.00     0.060 A 
BRANCH  81  82
ATOM     82  S   UNL     1      13.663  -0.950  -1.060  1.00  0.00     0.124 S 
ATOM     83  O   UNL     1      15.102  -0.890  -1.285  1.00  0.00    -0.237 OA
ATOM     84  O   UNL     1      13.231  -1.681   0.127  1.00  0.00    -0.237 OA
ATOM     85  O   UNL     1      12.846  -1.166  -2.251  1.00  0.00    -0.744 OA
ENDBRANCH  81  82
ENDBRANCH  49  74
BRANCH  61  86
ATOM     86  C   UNL     1      16.237   9.249   1.477  1.00  0.00     0.058 A 
ATOM     87  C   UNL     1      16.980   9.342   0.290  1.00  0.00     0.135 A 
ATOM     88  C   UNL     1      16.895   9.514   2.689  1.00  0.00     0.135 A 
ATOM     89  F   UNL     1      16.398   9.093  -0.893  1.00  0.00    -0.206 F 
ATOM     90  C   UNL     1      18.333   9.662   0.306  1.00  0.00     0.059 A 
ATOM     91  C   UNL     1      18.240   9.865   2.726  1.00  0.00     0.059 A 
ATOM     92  F   UNL     1      16.225   9.451   3.851  1.00  0.00    -0.206 F 
ATOM     93  C   UNL     1      18.953   9.924   1.530  1.00  0.00     0.060 A 
BRANCH  93  94
ATOM     94  S   UNL     1      20.702  10.369   1.534  1.00  0.00     0.124 S 
ATOM     95  O   UNL     1      21.331   9.084   1.247  1.00  0.00    -0.237 OA
ATOM     96  O   UNL     1      20.773  11.363   0.467  1.00  0.00    -0.237 OA
ATOM     97  O   UNL     1      20.918  10.888   2.881  1.00  0.00    -0.744 OA
ENDBRANCH  93  94
ENDBRANCH  61  86
ENDBRANCH  35  36
ENDBRANCH  28  30
ENDBRANCH  27  28
ENDBRANCH  26  27
ENDBRANCH   1  26
TORSDOF 21
