REMARK SMILES Cc1cc(NC(=O)CC2(CC(=O)OCCOCCOC(=O)c3ccc(-c4c5nc(c(-c6c(F)cc(S(=O)(=O)[O-])cc6F)c6ccc([nH]6)c(-c6c(F)cc(S(=O)(=O)[O-])cc6F)c6nc(c(-c7c(F)cc(S(=O)(=O)[O-])cc7F)c7ccc4[nH]7)C=C6)C=C5)cc3)CCCC2)ccn1
REMARK SMILES IDX 15 1 14 2 13 3 11 4 12 5 10 6 9 7 88 8 91 9 89 10 90 11 8 12
REMARK SMILES IDX 6 13 5 14 7 16 4 17 1 18 2 19 3 20 94 21 93 22 92 23 16 24
REMARK SMILES IDX 17 25 18 26 19 27 20 28 21 29 22 30 23 31 87 32 24 33 86 34
REMARK SMILES IDX 25 35 26 36 27 37 80 38 28 39 85 40 79 41 81 42 29 43 84 44
REMARK SMILES IDX 78 45 77 46 30 48 64 49 43 50 63 51 44 52 47 53 62 54 82 55
REMARK SMILES IDX 45 56 46 57 61 59 83 60 48 61 31 62 32 63 41 64 33 65 34 66
REMARK SMILES IDX 40 67 42 68 35 69 36 70 37 71 38 72 39 73 65 74 66 75 75 76
REMARK SMILES IDX 67 77 68 78 74 79 76 80 69 81 70 82 71 83 72 84 73 85 49 86
REMARK SMILES IDX 50 87 59 88 51 89 52 90 58 91 60 92 53 93 54 94 55 95 56 96
REMARK SMILES IDX 57 97
REMARK H PARENT 5 15 81 47 47 58
REMARK Flexibility Score: inf
ROOT
ATOM      1  C   UNL     1      -8.736  -0.534   1.254  1.00  0.00     0.202 C 
ENDROOT
BRANCH   1   2
ATOM      2  C   UNL     1      -8.072  -0.524   2.637  1.00  0.00     0.261 C 
BRANCH   2   3
ATOM      3  O   UNL     1      -6.646  -0.286   2.569  1.00  0.00    -0.463 OA
BRANCH   3   4
ATOM      4  C   UNL     1      -5.842  -1.305   2.966  1.00  0.00     0.306 C 
ATOM      5  O   UNL     1      -6.240  -2.413   3.307  1.00  0.00    -0.252 OA
BRANCH   4   6
ATOM      6  C   UNL     1      -4.381  -0.907   3.061  1.00  0.00     0.130 C 
BRANCH   6   7
ATOM      7  C   UNL     1      -3.622  -0.275   1.852  1.00  0.00    -0.011 C 
ATOM      8  C   UNL     1      -2.183   0.014   2.337  1.00  0.00     0.008 C 
ATOM      9  C   UNL     1      -4.088   1.163   1.525  1.00  0.00     0.008 C 
ATOM     10  C   UNL     1      -2.264   1.310   3.139  1.00  0.00     0.001 C 
ATOM     11  C   UNL     1      -3.458   2.072   2.576  1.00  0.00     0.001 C 
BRANCH   7  12
ATOM     12  C   UNL     1      -3.707  -1.145   0.571  1.00  0.00     0.108 C 
BRANCH  12  13
ATOM     13  C   UNL     1      -2.741  -2.289   0.361  1.00  0.00     0.224 C 
ATOM     14  N   UNL     1      -1.489  -2.143  -0.145  1.00  0.00    -0.326 N 
ATOM     15  H   UNL     1      -1.015  -2.998  -0.261  1.00  0.00     0.169 HD
ATOM     16  O   UNL     1      -3.084  -3.435   0.677  1.00  0.00    -0.275 OA
BRANCH  14  17
ATOM     17  C   UNL     1      -0.726  -1.032  -0.538  1.00  0.00     0.044 A 
ATOM     18  C   UNL     1       2.896  -0.069  -0.070  1.00  0.00     0.067 C 
ATOM     19  C   UNL     1       1.455  -0.025  -0.478  1.00  0.00     0.039 A 
ATOM     20  C   UNL     1       0.648  -1.146  -0.324  1.00  0.00     0.049 A 
ATOM     21  N   UNL     1       0.967   1.167  -0.883  1.00  0.00    -0.261 NA
ATOM     22  C   UNL     1      -0.351   1.234  -1.163  1.00  0.00     0.113 A 
ATOM     23  C   UNL     1      -1.228   0.169  -1.023  1.00  0.00     0.046 A 
ENDBRANCH  14  17
ENDBRANCH  12  13
ENDBRANCH   7  12
ENDBRANCH   6   7
ENDBRANCH   4   6
ENDBRANCH   3   4
ENDBRANCH   2   3
ENDBRANCH   1   2
BRANCH   1  24
ATOM     24  O   UNL     1      -8.576  -1.727   0.478  1.00  0.00    -0.374 OA
BRANCH  24  25
ATOM     25  C   UNL     1      -7.285  -1.922  -0.086  1.00  0.00     0.202 C 
BRANCH  25  26
ATOM     26  C   UNL     1      -7.040  -1.264  -1.448  1.00  0.00     0.261 C 
BRANCH  26  27
ATOM     27  O   UNL     1      -7.130   0.170  -1.359  1.00  0.00    -0.460 OA
BRANCH  27  28
ATOM     28  C   UNL     1      -8.248   0.687  -1.916  1.00  0.00     0.338 C 
ATOM     29  O   UNL     1      -9.075   0.091  -2.599  1.00  0.00    -0.246 OA
BRANCH  28  30
ATOM     30  C   UNL     1      -8.473   2.063  -1.443  1.00  0.00     0.060 A 
ATOM     31  C   UNL     1      -9.732   2.345  -0.899  1.00  0.00     0.016 A 
ATOM     32  C   UNL     1      -7.520   3.075  -1.592  1.00  0.00     0.016 A 
ATOM     33  C   UNL     1     -10.072   3.651  -0.567  1.00  0.00     0.010 A 
ATOM     34  C   UNL     1      -7.867   4.391  -1.262  1.00  0.00     0.010 A 
ATOM     35  C   UNL     1      -9.160   4.690  -0.793  1.00  0.00    -0.014 A 
BRANCH  35  36
ATOM     36  C   UNL     1      -9.640   6.091  -0.699  1.00  0.00     0.031 A 
ATOM     37  C   UNL     1     -10.002   6.820  -1.966  1.00  0.00     0.074 A 
ATOM     38  C   UNL     1      -9.827   6.675   0.498  1.00  0.00     0.049 A 
ATOM     39  N   UNL     1     -10.462   8.034  -2.121  1.00  0.00    -0.248 NA
ATOM     40  C   UNL     1      -9.824   6.080  -3.226  1.00  0.00     0.031 C 
ATOM     41  C   UNL     1      -9.559   6.050   1.793  1.00  0.00     0.029 A 
ATOM     42  N   UNL     1     -10.294   7.925   0.819  1.00  0.00    -0.354 N 
ATOM     43  C   UNL     1     -10.624   8.205  -3.492  1.00  0.00     0.074 A 
ATOM     44  C   UNL     1     -10.182   6.983  -4.126  1.00  0.00     0.031 C 
ATOM     45  C   UNL     1      -9.863   6.922   2.769  1.00  0.00     0.029 A 
ATOM     46  C   UNL     1     -10.319   8.175   2.170  1.00  0.00     0.049 A 
ATOM     47  H   UNL     1     -10.583   8.581   0.144  1.00  0.00     0.167 HD
ATOM     48  C   UNL     1     -11.108   9.280  -4.159  1.00  0.00     0.037 A 
ATOM     49  C   UNL     1     -10.655   9.293   2.843  1.00  0.00     0.037 A 
ATOM     50  C   UNL     1     -11.553  10.490  -3.519  1.00  0.00     0.049 A 
ATOM     51  C   UNL     1     -11.132  10.499   2.076  1.00  0.00     0.074 A 
ATOM     52  C   UNL     1     -12.072  11.632  -4.105  1.00  0.00     0.029 A 
ATOM     53  N   UNL     1     -11.527  10.719  -2.151  1.00  0.00    -0.354 N 
ATOM     54  N   UNL     1     -11.294  10.641   0.781  1.00  0.00    -0.248 NA
ATOM     55  C   UNL     1     -11.476  11.694   2.858  1.00  0.00     0.031 C 
ATOM     56  C   UNL     1     -12.312  12.570  -3.095  1.00  0.00     0.029 A 
ATOM     57  C   UNL     1     -11.997  11.992  -1.875  1.00  0.00     0.049 A 
ATOM     58  H   UNL     1     -11.220  10.072  -1.476  1.00  0.00     0.167 HD
ATOM     59  C   UNL     1     -11.786  11.930   0.597  1.00  0.00     0.074 A 
ATOM     60  C   UNL     1     -11.903  12.522   1.914  1.00  0.00     0.031 C 
ATOM     61  C   UNL     1     -12.115  12.564  -0.556  1.00  0.00     0.037 A 
BRANCH  48  62
ATOM     62  C   UNL     1     -11.156   9.206  -5.661  1.00  0.00     0.058 A 
ATOM     63  C   UNL     1     -12.078   8.389  -6.335  1.00  0.00     0.135 A 
ATOM     64  C   UNL     1     -10.287   9.989  -6.438  1.00  0.00     0.135 A 
ATOM     65  F   UNL     1     -12.920   7.605  -5.643  1.00  0.00    -0.206 F 
ATOM     66  C   UNL     1     -12.119   8.332  -7.725  1.00  0.00     0.059 A 
ATOM     67  C   UNL     1     -10.329   9.969  -7.829  1.00  0.00     0.059 A 
ATOM     68  F   UNL     1      -9.384  10.786  -5.845  1.00  0.00    -0.206 F 
ATOM     69  C   UNL     1     -11.240   9.126  -8.464  1.00  0.00     0.060 A 
BRANCH  69  70
ATOM     70  S   UNL     1     -11.307   9.044 -10.266  1.00  0.00     0.124 S 
ATOM     71  O   UNL     1     -10.717   7.734 -10.520  1.00  0.00    -0.237 OA
ATOM     72  O   UNL     1     -12.738   9.157 -10.530  1.00  0.00    -0.237 OA
ATOM     73  O   UNL     1     -10.503  10.186 -10.689  1.00  0.00    -0.744 OA
ENDBRANCH  69  70
ENDBRANCH  48  62
BRANCH  49  74
ATOM     74  C   UNL     1     -10.540   9.328   4.326  1.00  0.00     0.058 A 
ATOM     75  C   UNL     1     -11.677   9.392   5.145  1.00  0.00     0.135 A 
ATOM     76  C   UNL     1      -9.284   9.292   4.954  1.00  0.00     0.135 A 
ATOM     77  F   UNL     1     -12.899   9.440   4.594  1.00  0.00    -0.206 F 
ATOM     78  C   UNL     1     -11.574   9.431   6.533  1.00  0.00     0.059 A 
ATOM     79  C   UNL     1      -9.157   9.303   6.339  1.00  0.00     0.059 A 
ATOM     80  F   UNL     1      -8.165   9.220   4.216  1.00  0.00    -0.206 F 
ATOM     81  C   UNL     1     -10.308   9.381   7.120  1.00  0.00     0.060 A 
BRANCH  81  82
ATOM     82  S   UNL     1     -10.187   9.377   8.922  1.00  0.00     0.124 S 
ATOM     83  O   UNL     1     -10.521  10.759   9.243  1.00  0.00    -0.237 OA
ATOM     84  O   UNL     1     -11.182   8.375   9.293  1.00  0.00    -0.237 OA
ATOM     85  O   UNL     1      -8.800   8.989   9.163  1.00  0.00    -0.744 OA
ENDBRANCH  81  82
ENDBRANCH  49  74
BRANCH  61  86
ATOM     86  C   UNL     1     -12.670  13.958  -0.450  1.00  0.00     0.058 A 
ATOM     87  C   UNL     1     -11.858  15.055  -0.122  1.00  0.00     0.135 A 
ATOM     88  C   UNL     1     -14.021  14.207  -0.742  1.00  0.00     0.135 A 
ATOM     89  F   UNL     1     -10.561  14.872   0.171  1.00  0.00    -0.206 F 
ATOM     90  C   UNL     1     -12.371  16.347  -0.065  1.00  0.00     0.059 A 
ATOM     91  C   UNL     1     -14.549  15.494  -0.718  1.00  0.00     0.059 A 
ATOM     92  F   UNL     1     -14.839  13.195  -1.073  1.00  0.00    -0.206 F 
ATOM     93  C   UNL     1     -13.719  16.557  -0.367  1.00  0.00     0.060 A 
BRANCH  93  94
ATOM     94  S   UNL     1     -14.363  18.242  -0.325  1.00  0.00     0.124 S 
ATOM     95  O   UNL     1     -14.432  18.495   1.110  1.00  0.00    -0.237 OA
ATOM     96  O   UNL     1     -13.339  18.987  -1.051  1.00  0.00    -0.237 OA
ATOM     97  O   UNL     1     -15.650  18.132  -1.006  1.00  0.00    -0.744 OA
ENDBRANCH  93  94
ENDBRANCH  61  86
ENDBRANCH  35  36
ENDBRANCH  28  30
ENDBRANCH  27  28
ENDBRANCH  26  27
ENDBRANCH  25  26
ENDBRANCH  24  25
ENDBRANCH   1  24
TORSDOF 21
