REMARK SMILES CC(C)[C@H](NC(=O)OCc1ccccc1)C(=O)NCC(=O)OCCOCCOC(=O)c1ccc(-c2c3nc(c(-c4c(F)cc(S(=O)(=O)[O-])cc4F)c4ccc([nH]4)c(-c4c(F)cc(S(=O)(=O)[O-])cc4F)c4nc(c(-c5c(F)cc(S(=O)(=O)[O-])cc5F)c5ccc2[nH]5)C=C4)C=C3)cc1
REMARK SMILES IDX 23 1 22 2 20 3 21 4 19 5 18 6 16 7 17 8 4 10 2 11 1 12 3 13
REMARK SMILES IDX 5 14 6 15 7 17 8 18 9 19 10 20 11 21 15 22 12 23 14 24 13 25
REMARK SMILES IDX 24 26 25 27 26 28 27 29 28 30 29 31 30 32 31 33 32 34 96 35
REMARK SMILES IDX 33 36 95 37 34 38 35 39 36 40 89 41 37 42 94 43 88 44 90 45
REMARK SMILES IDX 38 46 93 47 87 48 86 49 39 51 73 52 52 53 72 54 53 55 56 56
REMARK SMILES IDX 71 57 91 58 54 59 55 60 70 62 92 63 57 64 40 65 41 66 50 67
REMARK SMILES IDX 42 68 43 69 49 70 51 71 44 72 45 73 46 74 47 75 48 76 74 77
REMARK SMILES IDX 75 78 84 79 76 80 77 81 83 82 85 83 78 84 79 85 80 86 81 87
REMARK SMILES IDX 82 88 58 89 59 90 68 91 60 92 61 93 67 94 69 95 62 96 63 97
REMARK SMILES IDX 64 98 65 99 66 100
REMARK H PARENT 18 9 5 16 90 50 56 61
REMARK Flexibility Score: inf
ROOT
ATOM      1  C   UNL     1       3.024   3.492   3.674  1.00  0.00     0.261 C 
ENDROOT
BRANCH   1   2
ATOM      2  O   UNL     1       1.742   3.075   3.177  1.00  0.00    -0.462 OA
BRANCH   2   3
ATOM      3  C   UNL     1       1.176   2.013   3.804  1.00  0.00     0.325 C 
ATOM      4  O   UNL     1       1.729   1.292   4.627  1.00  0.00    -0.250 OA
BRANCH   3   5
ATOM      5  C   UNL     1      -0.307   1.871   3.472  1.00  0.00     0.238 C 
BRANCH   5   6
ATOM      6  N   UNL     1      -0.853   2.729   2.432  1.00  0.00    -0.343 N 
ATOM      7  C   UNL     1      -1.268   2.454   1.170  1.00  0.00     0.243 C 
ATOM      8  O   UNL     1      -1.710   3.402   0.513  1.00  0.00    -0.273 OA
ATOM      9  H   UNL     1      -0.935   3.676   2.689  1.00  0.00     0.164 HD
BRANCH   7  10
ATOM     10  C   UNL     1      -1.150   1.052   0.530  1.00  0.00     0.177 C 
BRANCH  10  11
ATOM     11  C   UNL     1      -1.956  -0.084   1.198  1.00  0.00     0.015 C 
ATOM     12  C   UNL     1      -3.341   0.391   1.660  1.00  0.00     0.010 C 
ATOM     13  C   UNL     1      -2.129  -1.262   0.233  1.00  0.00     0.010 C 
ENDBRANCH  10  11
BRANCH  10  14
ATOM     14  N   UNL     1       0.271   0.859   0.234  1.00  0.00    -0.309 N 
ATOM     15  C   UNL     1       1.263   0.245   0.926  1.00  0.00     0.408 C 
ATOM     16  H   UNL     1       0.559   1.246  -0.624  1.00  0.00     0.167 HD
ATOM     17  O   UNL     1       2.422   0.620   0.794  1.00  0.00    -0.225 OA
BRANCH  15  18
ATOM     18  O   UNL     1       0.849  -0.745   1.744  1.00  0.00    -0.445 OA
BRANCH  18  19
ATOM     19  C   UNL     1       1.881  -1.386   2.512  1.00  0.00     0.270 C 
BRANCH  19  20
ATOM     20  C   UNL     1       2.597  -2.464   1.735  1.00  0.00    -0.011 A 
ATOM     21  C   UNL     1       2.094  -3.770   1.670  1.00  0.00     0.007 A 
ATOM     22  C   UNL     1       3.786  -2.164   1.053  1.00  0.00     0.007 A 
ATOM     23  C   UNL     1       2.777  -4.755   0.951  1.00  0.00     0.000 A 
ATOM     24  C   UNL     1       4.460  -3.144   0.326  1.00  0.00     0.000 A 
ATOM     25  C   UNL     1       3.958  -4.441   0.279  1.00  0.00     0.000 A 
ENDBRANCH  19  20
ENDBRANCH  18  19
ENDBRANCH  15  18
ENDBRANCH  10  14
ENDBRANCH   7  10
ENDBRANCH   5   6
ENDBRANCH   3   5
ENDBRANCH   2   3
ENDBRANCH   1   2
BRANCH   1  26
ATOM     26  C   UNL     1       3.001   4.992   3.977  1.00  0.00     0.202 C 
BRANCH  26  27
ATOM     27  O   UNL     1       2.116   5.379   5.034  1.00  0.00    -0.374 OA
BRANCH  27  28
ATOM     28  C   UNL     1       0.728   5.480   4.717  1.00  0.00     0.202 C 
BRANCH  28  29
ATOM     29  C   UNL     1       0.297   6.739   3.956  1.00  0.00     0.261 C 
BRANCH  29  30
ATOM     30  O   UNL     1       0.824   6.763   2.618  1.00  0.00    -0.460 OA
BRANCH  30  31
ATOM     31  C   UNL     1       1.687   7.780   2.372  1.00  0.00     0.338 C 
ATOM     32  O   UNL     1       1.979   8.690   3.132  1.00  0.00    -0.246 OA
BRANCH  31  33
ATOM     33  C   UNL     1       2.389   7.571   1.091  1.00  0.00     0.060 A 
ATOM     34  C   UNL     1       3.785   7.687   1.103  1.00  0.00     0.016 A 
ATOM     35  C   UNL     1       1.706   7.362  -0.110  1.00  0.00     0.016 A 
ATOM     36  C   UNL     1       4.500   7.652  -0.093  1.00  0.00     0.010 A 
ATOM     37  C   UNL     1       2.426   7.342  -1.312  1.00  0.00     0.010 A 
ATOM     38  C   UNL     1       3.820   7.524  -1.311  1.00  0.00    -0.014 A 
BRANCH  38  39
ATOM     39  C   UNL     1       4.561   7.737  -2.578  1.00  0.00     0.031 A 
ATOM     40  C   UNL     1       4.570   9.110  -3.195  1.00  0.00     0.074 A 
ATOM     41  C   UNL     1       5.250   6.734  -3.150  1.00  0.00     0.049 A 
ATOM     42  N   UNL     1       5.152   9.521  -4.292  1.00  0.00    -0.248 NA
ATOM     43  C   UNL     1       3.827  10.159  -2.477  1.00  0.00     0.031 C 
ATOM     44  C   UNL     1       5.346   5.371  -2.631  1.00  0.00     0.029 A 
ATOM     45  N   UNL     1       5.999   6.712  -4.300  1.00  0.00    -0.354 N 
ATOM     46  C   UNL     1       4.848  10.872  -4.398  1.00  0.00     0.074 A 
ATOM     47  C   UNL     1       4.012  11.209  -3.265  1.00  0.00     0.031 C 
ATOM     48  C   UNL     1       6.100   4.638  -3.470  1.00  0.00     0.029 A 
ATOM     49  C   UNL     1       6.523   5.476  -4.592  1.00  0.00     0.049 A 
ATOM     50  H   UNL     1       6.147   7.506  -4.862  1.00  0.00     0.167 HD
ATOM     51  C   UNL     1       5.234  11.756  -5.349  1.00  0.00     0.037 A 
ATOM     52  C   UNL     1       7.246   5.064  -5.652  1.00  0.00     0.037 A 
ATOM     53  C   UNL     1       6.062  11.423  -6.476  1.00  0.00     0.049 A 
ATOM     54  C   UNL     1       7.619   6.051  -6.726  1.00  0.00     0.074 A 
ATOM     55  C   UNL     1       6.520  12.254  -7.484  1.00  0.00     0.029 A 
ATOM     56  N   UNL     1       6.551  10.155  -6.750  1.00  0.00    -0.354 N 
ATOM     57  N   UNL     1       7.344   7.331  -6.800  1.00  0.00    -0.248 NA
ATOM     58  C   UNL     1       8.400   5.538  -7.862  1.00  0.00     0.031 C 
ATOM     59  C   UNL     1       7.259  11.480  -8.386  1.00  0.00     0.029 A 
ATOM     60  C   UNL     1       7.288  10.175  -7.922  1.00  0.00     0.049 A 
ATOM     61  H   UNL     1       6.396   9.357  -6.194  1.00  0.00     0.167 HD
ATOM     62  C   UNL     1       7.933   7.780  -7.977  1.00  0.00     0.074 A 
ATOM     63  C   UNL     1       8.584   6.637  -8.582  1.00  0.00     0.031 C 
ATOM     64  C   UNL     1       7.934   9.028  -8.508  1.00  0.00     0.037 A 
BRANCH  51  65
ATOM     65  C   UNL     1       4.742  13.168  -5.217  1.00  0.00     0.058 A 
ATOM     66  C   UNL     1       5.303  14.056  -4.286  1.00  0.00     0.135 A 
ATOM     67  C   UNL     1       3.714  13.644  -6.046  1.00  0.00     0.135 A 
ATOM     68  F   UNL     1       6.276  13.643  -3.459  1.00  0.00    -0.206 F 
ATOM     69  C   UNL     1       4.845  15.364  -4.166  1.00  0.00     0.059 A 
ATOM     70  C   UNL     1       3.253  14.954  -5.955  1.00  0.00     0.059 A 
ATOM     71  F   UNL     1       3.143  12.832  -6.949  1.00  0.00    -0.206 F 
ATOM     72  C   UNL     1       3.816  15.802  -5.002  1.00  0.00     0.060 A 
BRANCH  72  73
ATOM     73  S   UNL     1       3.227  17.501  -4.835  1.00  0.00     0.124 S 
ATOM     74  O   UNL     1       2.398  17.404  -3.637  1.00  0.00    -0.237 OA
ATOM     75  O   UNL     1       4.468  18.254  -4.687  1.00  0.00    -0.237 OA
ATOM     76  O   UNL     1       2.503  17.732  -6.082  1.00  0.00    -0.744 OA
ENDBRANCH  72  73
ENDBRANCH  51  65
BRANCH  52  77
ATOM     77  C   UNL     1       7.653   3.639  -5.757  1.00  0.00     0.058 A 
ATOM     78  C   UNL     1       8.983   3.247  -5.550  1.00  0.00     0.135 A 
ATOM     79  C   UNL     1       6.713   2.641  -6.056  1.00  0.00     0.135 A 
ATOM     80  F   UNL     1       9.918   4.169  -5.274  1.00  0.00    -0.206 F 
ATOM     81  C   UNL     1       9.370   1.914  -5.642  1.00  0.00     0.059 A 
ATOM     82  C   UNL     1       7.072   1.300  -6.135  1.00  0.00     0.059 A 
ATOM     83  F   UNL     1       5.427   2.968  -6.255  1.00  0.00    -0.206 F 
ATOM     84  C   UNL     1       8.406   0.947  -5.934  1.00  0.00     0.060 A 
BRANCH  84  85
ATOM     85  S   UNL     1       8.903  -0.789  -5.994  1.00  0.00     0.124 S 
ATOM     86  O   UNL     1       9.529  -0.869  -7.308  1.00  0.00    -0.237 OA
ATOM     87  O   UNL     1       9.804  -0.895  -4.850  1.00  0.00    -0.237 OA
ATOM     88  O   UNL     1       7.637  -1.502  -5.851  1.00  0.00    -0.744 OA
ENDBRANCH  84  85
ENDBRANCH  52  77
BRANCH  64  89
ATOM     89  C   UNL     1       8.677   9.232  -9.797  1.00  0.00     0.058 A 
ATOM     90  C   UNL     1       8.133   8.832 -11.027  1.00  0.00     0.135 A 
ATOM     91  C   UNL     1       9.914   9.896  -9.808  1.00  0.00     0.135 A 
ATOM     92  F   UNL     1       6.956   8.189 -11.067  1.00  0.00    -0.206 F 
ATOM     93  C   UNL     1       8.797   9.073 -12.226  1.00  0.00     0.059 A 
ATOM     94  C   UNL     1      10.586  10.164 -10.997  1.00  0.00     0.059 A 
ATOM     95  F   UNL     1      10.471  10.307  -8.658  1.00  0.00    -0.206 F 
ATOM     96  C   UNL     1      10.023   9.741 -12.201  1.00  0.00     0.060 A 
BRANCH  96  97
ATOM     97  S   UNL     1      10.855  10.094 -13.764  1.00  0.00     0.124 S 
ATOM     98  O   UNL     1      11.456   8.801 -14.075  1.00  0.00    -0.237 OA
ATOM     99  O   UNL     1       9.750  10.502 -14.627  1.00  0.00    -0.237 OA
ATOM    100  O   UNL     1      11.793  11.156 -13.415  1.00  0.00    -0.744 OA
ENDBRANCH  96  97
ENDBRANCH  64  89
ENDBRANCH  38  39
ENDBRANCH  31  33
ENDBRANCH  30  31
ENDBRANCH  29  30
ENDBRANCH  28  29
ENDBRANCH  27  28
ENDBRANCH  26  27
ENDBRANCH   1  26
TORSDOF 24
