REMARK SMILES C[C@H](C(=O)OCCOCCOC(=O)c1ccc(-c2c3nc(c(-c4c(F)cc(S(=O)(=O)[O-])cc4F)c4ccc([nH]4)c(-c4c(F)cc(S(=O)(=O)[O-])cc4F)c4nc(c(-c5c(F)cc(S(=O)(=O)[O-])cc5F)c5ccc2[nH]5)C=C4)C=C3)cc1)c1ccc(C[C@H]2CCC[C@@H]2O)cc1
REMARK SMILES IDX 7 1 6 2 5 3 3 4 4 5 2 6 1 7 80 8 81 9 92 10 82 11 91 12
REMARK SMILES IDX 83 13 84 14 85 15 86 16 89 17 87 18 88 19 90 20 8 22 9 23
REMARK SMILES IDX 10 24 11 25 12 26 13 27 14 28 15 29 79 30 16 31 78 32 17 33
REMARK SMILES IDX 18 34 19 35 72 36 20 37 77 38 71 39 73 40 21 41 76 42 70 43
REMARK SMILES IDX 69 44 22 46 56 47 35 48 55 49 36 50 39 51 54 52 74 53 37 54
REMARK SMILES IDX 38 55 53 57 75 58 40 59 23 60 24 61 33 62 25 63 26 64 32 65
REMARK SMILES IDX 34 66 27 67 28 68 29 69 30 70 31 71 57 72 58 73 67 74 59 75
REMARK SMILES IDX 60 76 66 77 68 78 61 79 62 80 63 81 64 82 65 83 41 84 42 85
REMARK SMILES IDX 51 86 43 87 44 88 50 89 52 90 45 91 46 92 47 93 48 94 49 95
REMARK H PARENT 90 21 73 45 39 56
REMARK Flexibility Score: inf
ROOT
ATOM      1  C   UNL     1       1.358   1.486  -2.310  1.00  0.00     0.202 C 
ENDROOT
BRANCH   1   2
ATOM      2  C   UNL     1       1.497  -0.030  -2.140  1.00  0.00     0.261 C 
BRANCH   2   3
ATOM      3  O   UNL     1       0.713  -0.488  -1.022  1.00  0.00    -0.463 OA
BRANCH   3   4
ATOM      4  C   UNL     1       1.385  -1.065   0.005  1.00  0.00     0.313 C 
ATOM      5  O   UNL     1       2.595  -1.276   0.007  1.00  0.00    -0.252 OA
BRANCH   4   6
ATOM      6  C   UNL     1       0.517  -1.372   1.218  1.00  0.00     0.126 C 
ATOM      7  C   UNL     1       1.046  -0.586   2.427  1.00  0.00     0.025 C 
BRANCH   6   8
ATOM      8  C   UNL     1      -0.989  -1.186   1.088  1.00  0.00    -0.034 A 
ATOM      9  C   UNL     1      -1.580   0.070   0.893  1.00  0.00     0.005 A 
ATOM     10  C   UNL     1      -1.836  -2.290   1.256  1.00  0.00     0.005 A 
ATOM     11  C   UNL     1      -2.966   0.226   0.906  1.00  0.00     0.004 A 
ATOM     12  C   UNL     1      -3.224  -2.128   1.304  1.00  0.00     0.004 A 
ATOM     13  C   UNL     1      -3.801  -0.860   1.172  1.00  0.00    -0.048 A 
BRANCH  13  14
ATOM     14  C   UNL     1      -5.289  -0.670   1.352  1.00  0.00     0.041 C 
BRANCH  14  15
ATOM     15  C   UNL     1      -5.731  -0.068   2.700  1.00  0.00     0.022 C 
ATOM     16  C   UNL     1      -5.209  -0.769   3.967  1.00  0.00     0.007 C 
ATOM     17  C   UNL     1      -5.385   1.407   2.918  1.00  0.00     0.117 C 
ATOM     18  C   UNL     1      -4.992   0.338   5.005  1.00  0.00     0.003 C 
ATOM     19  C   UNL     1      -5.620   1.589   4.410  1.00  0.00     0.032 C 
BRANCH  17  20
ATOM     20  O   UNL     1      -6.221   2.247   2.147  1.00  0.00    -0.393 OA
ATOM     21  H   UNL     1      -7.149   2.069   2.368  1.00  0.00     0.210 HD
ENDBRANCH  17  20
ENDBRANCH  14  15
ENDBRANCH  13  14
ENDBRANCH   6   8
ENDBRANCH   4   6
ENDBRANCH   3   4
ENDBRANCH   2   3
ENDBRANCH   1   2
BRANCH   1  22
ATOM     22  O   UNL     1       2.068   2.279  -1.355  1.00  0.00    -0.374 OA
BRANCH  22  23
ATOM     23  C   UNL     1       1.456   2.430  -0.076  1.00  0.00     0.202 C 
BRANCH  23  24
ATOM     24  C   UNL     1       0.392   3.530   0.030  1.00  0.00     0.261 C 
BRANCH  24  25
ATOM     25  O   UNL     1      -0.759   3.244  -0.785  1.00  0.00    -0.460 OA
BRANCH  25  26
ATOM     26  C   UNL     1      -0.868   4.013  -1.894  1.00  0.00     0.338 C 
ATOM     27  O   UNL     1      -0.169   4.974  -2.189  1.00  0.00    -0.246 OA
BRANCH  26  28
ATOM     28  C   UNL     1      -1.849   3.435  -2.833  1.00  0.00     0.060 A 
ATOM     29  C   UNL     1      -1.443   3.293  -4.166  1.00  0.00     0.016 A 
ATOM     30  C   UNL     1      -3.151   3.104  -2.453  1.00  0.00     0.016 A 
ATOM     31  C   UNL     1      -2.354   2.883  -5.136  1.00  0.00     0.010 A 
ATOM     32  C   UNL     1      -4.068   2.695  -3.431  1.00  0.00     0.010 A 
ATOM     33  C   UNL     1      -3.685   2.623  -4.783  1.00  0.00    -0.014 A 
BRANCH  33  34
ATOM     34  C   UNL     1      -4.692   2.433  -5.858  1.00  0.00     0.031 A 
ATOM     35  C   UNL     1      -5.582   3.587  -6.239  1.00  0.00     0.074 A 
ATOM     36  C   UNL     1      -4.773   1.270  -6.530  1.00  0.00     0.049 A 
ATOM     37  N   UNL     1      -6.517   3.648  -7.151  1.00  0.00    -0.248 NA
ATOM     38  C   UNL     1      -5.388   4.842  -5.494  1.00  0.00     0.031 C 
ATOM     39  C   UNL     1      -3.938   0.094  -6.287  1.00  0.00     0.029 A 
ATOM     40  N   UNL     1      -5.597   0.889  -7.560  1.00  0.00    -0.354 N 
ATOM     41  C   UNL     1      -7.029   4.939  -7.085  1.00  0.00     0.074 A 
ATOM     42  C   UNL     1      -6.319   5.620  -6.024  1.00  0.00     0.031 C 
ATOM     43  C   UNL     1      -4.296  -0.879  -7.142  1.00  0.00     0.029 A 
ATOM     44  C   UNL     1      -5.404  -0.408  -7.971  1.00  0.00     0.049 A 
ATOM     45  H   UNL     1      -6.265   1.489  -7.965  1.00  0.00     0.167 HD
ATOM     46  C   UNL     1      -7.995   5.508  -7.845  1.00  0.00     0.037 A 
ATOM     47  C   UNL     1      -6.058  -1.137  -8.899  1.00  0.00     0.037 A 
ATOM     48  C   UNL     1      -8.694   4.829  -8.906  1.00  0.00     0.049 A 
ATOM     49  C   UNL     1      -7.175  -0.502  -9.686  1.00  0.00     0.074 A 
ATOM     50  C   UNL     1      -9.671   5.330  -9.749  1.00  0.00     0.029 A 
ATOM     51  N   UNL     1      -8.498   3.504  -9.264  1.00  0.00    -0.354 N 
ATOM     52  N   UNL     1      -7.630   0.728  -9.631  1.00  0.00    -0.248 NA
ATOM     53  C   UNL     1      -7.867  -1.353 -10.665  1.00  0.00     0.031 C 
ATOM     54  C   UNL     1     -10.103   4.292 -10.582  1.00  0.00     0.029 A 
ATOM     55  C   UNL     1      -9.356   3.161 -10.297  1.00  0.00     0.049 A 
ATOM     56  H   UNL     1      -7.845   2.897  -8.847  1.00  0.00     0.167 HD
ATOM     57  C   UNL     1      -8.639   0.805 -10.586  1.00  0.00     0.074 A 
ATOM     58  C   UNL     1      -8.722  -0.499 -11.211  1.00  0.00     0.031 C 
ATOM     59  C   UNL     1      -9.424   1.861 -10.918  1.00  0.00     0.037 A 
BRANCH  46  60
ATOM     60  C   UNL     1      -8.377   6.931  -7.540  1.00  0.00     0.058 A 
ATOM     61  C   UNL     1      -7.531   8.008  -7.845  1.00  0.00     0.135 A 
ATOM     62  C   UNL     1      -9.627   7.222  -6.969  1.00  0.00     0.135 A 
ATOM     63  F   UNL     1      -6.318   7.787  -8.377  1.00  0.00    -0.206 F 
ATOM     64  C   UNL     1      -7.900   9.322  -7.574  1.00  0.00     0.059 A 
ATOM     65  C   UNL     1     -10.028   8.530  -6.713  1.00  0.00     0.059 A 
ATOM     66  F   UNL     1     -10.474   6.229  -6.655  1.00  0.00    -0.206 F 
ATOM     67  C   UNL     1      -9.152   9.573  -7.007  1.00  0.00     0.060 A 
BRANCH  67  68
ATOM     68  S   UNL     1      -9.619  11.283  -6.666  1.00  0.00     0.124 S 
ATOM     69  O   UNL     1      -8.771  11.594  -5.520  1.00  0.00    -0.237 OA
ATOM     70  O   UNL     1      -9.271  11.956  -7.913  1.00  0.00    -0.237 OA
ATOM     71  O   UNL     1     -11.048  11.196  -6.382  1.00  0.00    -0.744 OA
ENDBRANCH  67  68
ENDBRANCH  46  60
BRANCH  47  72
ATOM     72  C   UNL     1      -5.681  -2.558  -9.128  1.00  0.00     0.058 A 
ATOM     73  C   UNL     1      -5.075  -2.966 -10.325  1.00  0.00     0.135 A 
ATOM     74  C   UNL     1      -5.929  -3.539  -8.154  1.00  0.00     0.135 A 
ATOM     75  F   UNL     1      -4.830  -2.069 -11.292  1.00  0.00    -0.206 F 
ATOM     76  C   UNL     1      -4.740  -4.297 -10.556  1.00  0.00     0.059 A 
ATOM     77  C   UNL     1      -5.578  -4.871  -8.351  1.00  0.00     0.059 A 
ATOM     78  F   UNL     1      -6.500  -3.200  -6.988  1.00  0.00    -0.206 F 
ATOM     79  C   UNL     1      -4.993  -5.242  -9.560  1.00  0.00     0.060 A 
BRANCH  79  80
ATOM     80  S   UNL     1      -4.512  -6.958  -9.851  1.00  0.00     0.124 S 
ATOM     81  O   UNL     1      -5.516  -7.386 -10.818  1.00  0.00    -0.237 OA
ATOM     82  O   UNL     1      -3.153  -6.813 -10.363  1.00  0.00    -0.237 OA
ATOM     83  O   UNL     1      -4.613  -7.564  -8.526  1.00  0.00    -0.744 OA
ENDBRANCH  79  80
ENDBRANCH  47  72
BRANCH  59  84
ATOM     84  C   UNL     1     -10.417   1.669 -12.032  1.00  0.00     0.058 A 
ATOM     85  C   UNL     1     -11.578   0.898 -11.866  1.00  0.00     0.135 A 
ATOM     86  C   UNL     1     -10.232   2.314 -13.267  1.00  0.00     0.135 A 
ATOM     87  F   UNL     1     -11.802   0.256 -10.709  1.00  0.00    -0.206 F 
ATOM     88  C   UNL     1     -12.507   0.753 -12.891  1.00  0.00     0.059 A 
ATOM     89  C   UNL     1     -11.162   2.206 -14.296  1.00  0.00     0.059 A 
ATOM     90  F   UNL     1      -9.145   3.074 -13.476  1.00  0.00    -0.206 F 
ATOM     91  C   UNL     1     -12.292   1.413 -14.103  1.00  0.00     0.060 A 
BRANCH  91  92
ATOM     92  S   UNL     1     -13.522   1.243 -15.414  1.00  0.00     0.124 S 
ATOM     93  O   UNL     1     -13.275  -0.119 -15.874  1.00  0.00    -0.237 OA
ATOM     94  O   UNL     1     -14.775   1.452 -14.695  1.00  0.00    -0.237 OA
ATOM     95  O   UNL     1     -13.163   2.299 -16.356  1.00  0.00    -0.744 OA
ENDBRANCH  91  92
ENDBRANCH  59  84
ENDBRANCH  33  34
ENDBRANCH  26  28
ENDBRANCH  25  26
ENDBRANCH  24  25
ENDBRANCH  23  24
ENDBRANCH  22  23
ENDBRANCH   1  22
TORSDOF 21
