REMARK SMILES Cc1nsc(NC(=O)[C@H]2Cc3[nH]cnc3C[NH2+]2)c1C(=O)OCCOCCOC(=O)c1ccc(-c2c3nc(c(-c4c(F)cc(S(=O)(=O)[O-])cc4F)c4ccc([nH]4)c(-c4c(F)cc(S(=O)(=O)[O-])cc4F)c4nc(c(-c5c(F)cc(S(=O)(=O)[O-])cc5F)c5ccc2[nH]5)C=C4)C=C3)cc1
REMARK SMILES IDX 25 1 24 2 23 3 22 4 21 5 19 6 20 7 18 8 1 9 2 10 3 11 4 12
REMARK SMILES IDX 5 13 6 14 7 15 8 17 9 18 10 19 17 20 11 21 16 22 12 25 15 26
REMARK SMILES IDX 13 27 14 29 26 30 27 31 28 32 29 33 30 34 31 35 95 36 32 37
REMARK SMILES IDX 94 38 33 39 34 40 35 41 88 42 36 43 93 44 87 45 89 46 37 47
REMARK SMILES IDX 92 48 86 49 85 50 38 52 72 53 51 54 71 55 52 56 55 57 70 58
REMARK SMILES IDX 90 59 53 60 54 61 69 63 91 64 56 65 39 66 40 67 49 68 41 69
REMARK SMILES IDX 42 70 48 71 50 72 43 73 44 74 45 75 46 76 47 77 73 78 74 79
REMARK SMILES IDX 83 80 75 81 76 82 82 83 84 84 77 85 78 86 79 87 80 88 81 89
REMARK SMILES IDX 57 90 58 91 67 92 59 93 60 94 66 95 68 96 61 97 62 98 63 99
REMARK SMILES IDX 64 100 65 101
REMARK H PARENT 6 16 17 23 17 24 12 28 89 51 55 62
REMARK Flexibility Score: inf
ROOT
ATOM      1  C   UNL     1       0.727   4.791  -1.548  1.00  0.00     0.202 C 
ENDROOT
BRANCH   1   2
ATOM      2  O   UNL     1       1.861   4.972  -2.388  1.00  0.00    -0.374 OA
BRANCH   2   3
ATOM      3  C   UNL     1       2.500   3.843  -2.987  1.00  0.00     0.202 C 
BRANCH   3   4
ATOM      4  C   UNL     1       3.356   2.952  -2.079  1.00  0.00     0.261 C 
BRANCH   4   5
ATOM      5  O   UNL     1       2.528   2.079  -1.290  1.00  0.00    -0.460 OA
BRANCH   5   6
ATOM      6  C   UNL     1       2.450   2.368   0.040  1.00  0.00     0.343 C 
ATOM      7  O   UNL     1       3.194   3.121   0.639  1.00  0.00    -0.246 OA
BRANCH   6   8
ATOM      8  C   UNL     1       1.188   1.898   0.588  1.00  0.00     0.117 A 
ATOM      9  C   UNL     1       1.065  -0.512  -0.385  1.00  0.00     0.069 C 
ATOM     10  C   UNL     1       0.493   0.676   0.308  1.00  0.00     0.068 A 
ATOM     11  N   UNL     1      -0.776   0.626   0.726  1.00  0.00    -0.195 NA
ATOM     12  S   UNL     1      -1.162   2.096   1.405  1.00  0.00    -0.017 S 
ATOM     13  C   UNL     1       0.451   2.644   1.490  1.00  0.00     0.131 A 
BRANCH  13  14
ATOM     14  N   UNL     1       0.821   3.804   2.116  1.00  0.00    -0.310 N 
ATOM     15  C   UNL     1       0.531   4.305   3.343  1.00  0.00     0.283 C 
ATOM     16  H   UNL     1       1.406   4.382   1.576  1.00  0.00     0.171 HD
ATOM     17  O   UNL     1       1.018   5.426   3.562  1.00  0.00    -0.268 OA
BRANCH  15  18
ATOM     18  C   UNL     1      -0.347   3.617   4.409  1.00  0.00     0.279 C 
ATOM     19  C   UNL     1      -0.396   2.066   4.579  1.00  0.00     0.131 C 
ATOM     20  N   UNL     1      -0.003   4.192   5.774  1.00  0.00    -0.331 N 
ATOM     21  C   UNL     1      -1.650   1.896   5.362  1.00  0.00     0.050 A 
ATOM     22  C   UNL     1      -0.895   3.742   6.885  1.00  0.00     0.320 C 
ATOM     23  H   UNL     1      -0.059   5.209   5.714  1.00  0.00     0.347 HD
ATOM     24  H   UNL     1       0.932   3.853   6.001  1.00  0.00     0.347 HD
ATOM     25  N   UNL     1      -2.861   1.427   4.940  1.00  0.00    -0.348 N 
ATOM     26  C   UNL     1      -1.917   2.756   6.407  1.00  0.00     0.116 A 
ATOM     27  C   UNL     1      -3.806   2.114   5.663  1.00  0.00     0.197 A 
ATOM     28  H   UNL     1      -3.023   0.737   4.256  1.00  0.00     0.167 HD
ATOM     29  N   UNL     1      -3.266   2.867   6.599  1.00  0.00    -0.236 NA
ENDBRANCH  15  18
ENDBRANCH  13  14
ENDBRANCH   6   8
ENDBRANCH   5   6
ENDBRANCH   4   5
ENDBRANCH   3   4
ENDBRANCH   2   3
ENDBRANCH   1   2
BRANCH   1  30
ATOM     30  C   UNL     1      -0.598   4.375  -2.171  1.00  0.00     0.261 C 
BRANCH  30  31
ATOM     31  O   UNL     1      -0.507   3.118  -2.820  1.00  0.00    -0.460 OA
BRANCH  31  32
ATOM     32  C   UNL     1      -0.405   3.213  -4.166  1.00  0.00     0.338 C 
ATOM     33  O   UNL     1      -0.109   4.201  -4.813  1.00  0.00    -0.246 OA
BRANCH  32  34
ATOM     34  C   UNL     1      -0.815   1.938  -4.757  1.00  0.00     0.060 A 
ATOM     35  C   UNL     1      -0.757   1.849  -6.150  1.00  0.00     0.016 A 
ATOM     36  C   UNL     1      -1.501   0.999  -3.973  1.00  0.00     0.016 A 
ATOM     37  C   UNL     1      -1.594   0.956  -6.775  1.00  0.00     0.010 A 
ATOM     38  C   UNL     1      -2.333   0.108  -4.599  1.00  0.00     0.010 A 
ATOM     39  C   UNL     1      -2.446   0.178  -5.984  1.00  0.00    -0.014 A 
BRANCH  39  40
ATOM     40  C   UNL     1      -3.433  -0.647  -6.639  1.00  0.00     0.031 A 
ATOM     41  C   UNL     1      -2.816  -1.817  -7.295  1.00  0.00     0.074 A 
ATOM     42  C   UNL     1      -4.752  -0.395  -6.531  1.00  0.00     0.049 A 
ATOM     43  N   UNL     1      -2.620  -1.994  -8.558  1.00  0.00    -0.248 NA
ATOM     44  C   UNL     1      -2.106  -2.783  -6.437  1.00  0.00     0.031 C 
ATOM     45  C   UNL     1      -5.419   0.617  -5.703  1.00  0.00     0.029 A 
ATOM     46  N   UNL     1      -5.797  -1.059  -7.093  1.00  0.00    -0.354 N 
ATOM     47  C   UNL     1      -2.017  -3.242  -8.655  1.00  0.00     0.074 A 
ATOM     48  C   UNL     1      -1.497  -3.543  -7.348  1.00  0.00     0.031 C 
ATOM     49  C   UNL     1      -6.745   0.351  -5.645  1.00  0.00     0.029 A 
ATOM     50  C   UNL     1      -7.039  -0.754  -6.539  1.00  0.00     0.049 A 
ATOM     51  H   UNL     1      -5.685  -1.702  -7.830  1.00  0.00     0.167 HD
ATOM     52  C   UNL     1      -2.299  -4.065  -9.700  1.00  0.00     0.037 A 
ATOM     53  C   UNL     1      -8.202  -1.417  -6.772  1.00  0.00     0.037 A 
ATOM     54  C   UNL     1      -2.908  -3.334 -10.784  1.00  0.00     0.049 A 
ATOM     55  C   UNL     1      -8.028  -2.125  -8.068  1.00  0.00     0.074 A 
ATOM     56  C   UNL     1      -2.513  -2.315 -11.626  1.00  0.00     0.029 A 
ATOM     57  N   UNL     1      -4.279  -3.376 -10.844  1.00  0.00    -0.354 N 
ATOM     58  N   UNL     1      -7.861  -1.504  -9.207  1.00  0.00    -0.248 NA
ATOM     59  C   UNL     1      -7.548  -3.497  -8.037  1.00  0.00     0.031 C 
ATOM     60  C   UNL     1      -3.684  -1.530 -11.844  1.00  0.00     0.029 A 
ATOM     61  C   UNL     1      -4.754  -2.135 -11.180  1.00  0.00     0.049 A 
ATOM     62  H   UNL     1      -4.833  -4.172 -10.673  1.00  0.00     0.167 HD
ATOM     63  C   UNL     1      -6.892  -2.237  -9.880  1.00  0.00     0.074 A 
ATOM     64  C   UNL     1      -6.811  -3.503  -9.152  1.00  0.00     0.031 C 
ATOM     65  C   UNL     1      -6.053  -1.632 -10.774  1.00  0.00     0.037 A 
BRANCH  52  66
ATOM     66  C   UNL     1      -2.453  -5.561  -9.553  1.00  0.00     0.058 A 
ATOM     67  C   UNL     1      -2.569  -6.353 -10.711  1.00  0.00     0.135 A 
ATOM     68  C   UNL     1      -2.778  -6.209  -8.338  1.00  0.00     0.135 A 
ATOM     69  F   UNL     1      -2.305  -5.833 -11.921  1.00  0.00    -0.206 F 
ATOM     70  C   UNL     1      -3.031  -7.669 -10.670  1.00  0.00     0.059 A 
ATOM     71  C   UNL     1      -3.183  -7.535  -8.269  1.00  0.00     0.059 A 
ATOM     72  F   UNL     1      -2.819  -5.569  -7.164  1.00  0.00    -0.206 F 
ATOM     73  C   UNL     1      -3.344  -8.246  -9.443  1.00  0.00     0.060 A 
BRANCH  73  74
ATOM     74  S   UNL     1      -4.019  -9.913  -9.388  1.00  0.00     0.124 S 
ATOM     75  O   UNL     1      -5.324  -9.719 -10.009  1.00  0.00    -0.237 OA
ATOM     76  O   UNL     1      -3.039 -10.658 -10.171  1.00  0.00    -0.237 OA
ATOM     77  O   UNL     1      -4.038 -10.221  -7.961  1.00  0.00    -0.744 OA
ENDBRANCH  73  74
ENDBRANCH  52  66
BRANCH  53  78
ATOM     78  C   UNL     1      -9.229  -1.800  -5.761  1.00  0.00     0.058 A 
ATOM     79  C   UNL     1     -10.514  -2.244  -6.123  1.00  0.00     0.135 A 
ATOM     80  C   UNL     1      -8.873  -1.987  -4.409  1.00  0.00     0.135 A 
ATOM     81  F   UNL     1     -10.924  -2.148  -7.397  1.00  0.00    -0.206 F 
ATOM     82  C   UNL     1     -11.388  -2.844  -5.202  1.00  0.00     0.059 A 
ATOM     83  C   UNL     1      -9.725  -2.577  -3.476  1.00  0.00     0.059 A 
ATOM     84  F   UNL     1      -7.644  -1.676  -3.971  1.00  0.00    -0.206 F 
ATOM     85  C   UNL     1     -10.979  -3.016  -3.880  1.00  0.00     0.060 A 
BRANCH  85  86
ATOM     86  S   UNL     1     -12.048  -3.888  -2.708  1.00  0.00     0.124 S 
ATOM     87  O   UNL     1     -13.165  -2.960  -2.568  1.00  0.00    -0.237 OA
ATOM     88  O   UNL     1     -12.336  -5.131  -3.415  1.00  0.00    -0.237 OA
ATOM     89  O   UNL     1     -11.207  -4.031  -1.522  1.00  0.00    -0.744 OA
ENDBRANCH  85  86
ENDBRANCH  53  78
BRANCH  65  90
ATOM     90  C   UNL     1      -6.409  -0.238 -11.238  1.00  0.00     0.058 A 
ATOM     91  C   UNL     1      -6.356   0.912 -10.428  1.00  0.00     0.135 A 
ATOM     92  C   UNL     1      -6.667  -0.043 -12.602  1.00  0.00     0.135 A 
ATOM     93  F   UNL     1      -6.025   0.826  -9.133  1.00  0.00    -0.206 F 
ATOM     94  C   UNL     1      -6.578   2.192 -10.946  1.00  0.00     0.059 A 
ATOM     95  C   UNL     1      -6.863   1.224 -13.146  1.00  0.00     0.059 A 
ATOM     96  F   UNL     1      -6.671  -1.094 -13.439  1.00  0.00    -0.206 F 
ATOM     97  C   UNL     1      -6.827   2.338 -12.310  1.00  0.00     0.060 A 
BRANCH  97  98
ATOM     98  S   UNL     1      -7.029   3.996 -13.000  1.00  0.00     0.124 S 
ATOM     99  O   UNL     1      -8.324   4.398 -12.462  1.00  0.00    -0.237 OA
ATOM    100  O   UNL     1      -5.872   4.706 -12.463  1.00  0.00    -0.237 OA
ATOM    101  O   UNL     1      -6.995   3.772 -14.444  1.00  0.00    -0.744 OA
ENDBRANCH  97  98
ENDBRANCH  65  90
ENDBRANCH  39  40
ENDBRANCH  32  34
ENDBRANCH  31  32
ENDBRANCH  30  31
ENDBRANCH   1  30
TORSDOF 19
