REMARK SMILES Cc1ccc(-c2nc(C)cc(N3CCCC[C@H]3C(=O)OCCOCCOC(=O)c3ccc(-c4c5nc(c(-c6c(F)cc(S(=O)(=O)[O-])cc6F)c6ccc([nH]6)c(-c6c(F)cc(S(=O)(=O)[O-])cc6F)c6nc(c(-c7c(F)cc(S(=O)(=O)[O-])cc7F)c7ccc4[nH]7)C=C6)C=C5)cc3)n2)cc1
REMARK SMILES IDX 24 1 23 2 22 3 21 4 20 5 18 6 19 7 17 8 12 9 13 10 14 11
REMARK SMILES IDX 16 12 15 13 11 14 6 15 7 16 95 17 8 18 9 19 10 20 5 21 1 22
REMARK SMILES IDX 2 23 3 24 97 25 4 26 96 27 25 28 26 29 27 30 28 31 29 32
REMARK SMILES IDX 30 33 94 34 31 35 93 36 32 37 33 38 34 39 87 40 35 41 92 42
REMARK SMILES IDX 86 43 88 44 36 45 91 46 85 47 84 48 37 50 71 51 50 52 70 53
REMARK SMILES IDX 51 54 54 55 69 56 89 57 52 58 53 59 68 61 90 62 55 63 38 64
REMARK SMILES IDX 39 65 48 66 40 67 41 68 47 69 49 70 42 71 43 72 44 73 45 74
REMARK SMILES IDX 46 75 72 76 73 77 82 78 74 79 75 80 81 81 83 82 76 83 77 84
REMARK SMILES IDX 78 85 79 86 80 87 56 88 57 89 66 90 58 91 59 92 65 93 67 94
REMARK SMILES IDX 60 95 61 96 62 97 63 98 64 99
REMARK H PARENT 88 49 54 60
REMARK Flexibility Score: inf
ROOT
ATOM      1  C   UNL     1      -7.832  -1.007  -4.361  1.00  0.00     0.202 C 
ENDROOT
BRANCH   1   2
ATOM      2  O   UNL     1      -8.187   0.316  -4.027  1.00  0.00    -0.374 OA
BRANCH   2   3
ATOM      3  C   UNL     1      -8.027   1.315  -5.026  1.00  0.00     0.202 C 
BRANCH   3   4
ATOM      4  C   UNL     1      -8.538   2.589  -4.423  1.00  0.00     0.261 C 
BRANCH   4   5
ATOM      5  O   UNL     1      -7.677   3.157  -3.427  1.00  0.00    -0.462 OA
BRANCH   5   6
ATOM      6  C   UNL     1      -7.416   2.493  -2.271  1.00  0.00     0.328 C 
ATOM      7  O   UNL     1      -8.177   1.748  -1.678  1.00  0.00    -0.250 OA
BRANCH   6   8
ATOM      8  C   UNL     1      -5.967   2.765  -1.859  1.00  0.00     0.193 C 
ATOM      9  N   UNL     1      -5.159   1.560  -2.032  1.00  0.00    -0.343 N 
ATOM     10  C   UNL     1      -4.697   1.147  -3.350  1.00  0.00     0.119 C 
ATOM     11  C   UNL     1      -4.171   2.299  -4.199  1.00  0.00     0.022 C 
ATOM     12  C   UNL     1      -5.295   3.922  -2.630  1.00  0.00     0.037 C 
ATOM     13  C   UNL     1      -4.979   3.581  -4.091  1.00  0.00     0.005 C 
BRANCH   9  14
ATOM     14  C   UNL     1      -4.794   0.798  -0.958  1.00  0.00     0.133 A 
ATOM     15  C   UNL     1      -3.035  -0.109   0.187  1.00  0.00     0.161 A 
ATOM     16  N   UNL     1      -3.793  -0.688   1.128  1.00  0.00    -0.233 NA
ATOM     17  N   UNL     1      -3.486   0.588  -0.858  1.00  0.00    -0.211 NA
ATOM     18  C   UNL     1      -5.122  -0.477   1.007  1.00  0.00     0.043 A 
ATOM     19  C   UNL     1      -5.995  -1.092   2.062  1.00  0.00     0.067 C 
ATOM     20  C   UNL     1      -5.666   0.288  -0.017  1.00  0.00     0.070 A 
BRANCH  15  21
ATOM     21  C   UNL     1      -1.583  -0.133   0.278  1.00  0.00     0.019 A 
ATOM     22  C   UNL     1       2.717  -0.074  -0.013  1.00  0.00     0.044 C 
ATOM     23  C   UNL     1       1.226  -0.087   0.117  1.00  0.00    -0.051 A 
ATOM     24  C   UNL     1       0.535  -1.304   0.213  1.00  0.00     0.004 A 
ATOM     25  C   UNL     1       0.509   1.110   0.117  1.00  0.00     0.004 A 
ATOM     26  C   UNL     1      -0.860  -1.327   0.303  1.00  0.00     0.012 A 
ATOM     27  C   UNL     1      -0.879   1.084   0.195  1.00  0.00     0.012 A 
ENDBRANCH  15  21
ENDBRANCH   9  14
ENDBRANCH   6   8
ENDBRANCH   5   6
ENDBRANCH   4   5
ENDBRANCH   3   4
ENDBRANCH   2   3
ENDBRANCH   1   2
BRANCH   1  28
ATOM     28  C   UNL     1      -8.337  -1.490  -5.726  1.00  0.00     0.261 C 
BRANCH  28  29
ATOM     29  O   UNL     1      -9.736  -1.869  -5.715  1.00  0.00    -0.460 OA
BRANCH  29  30
ATOM     30  C   UNL     1     -10.653  -0.979  -6.197  1.00  0.00     0.338 C 
ATOM     31  O   UNL     1     -11.074  -1.003  -7.349  1.00  0.00    -0.246 OA
BRANCH  30  32
ATOM     32  C   UNL     1     -11.205  -0.118  -5.116  1.00  0.00     0.060 A 
ATOM     33  C   UNL     1     -11.843   1.111  -5.369  1.00  0.00     0.016 A 
ATOM     34  C   UNL     1     -10.936  -0.490  -3.807  1.00  0.00     0.016 A 
ATOM     35  C   UNL     1     -12.085   2.018  -4.317  1.00  0.00     0.010 A 
ATOM     36  C   UNL     1     -11.014   0.462  -2.819  1.00  0.00     0.010 A 
ATOM     37  C   UNL     1     -11.605   1.715  -3.044  1.00  0.00    -0.014 A 
BRANCH  37  38
ATOM     38  C   UNL     1     -11.587   2.579  -1.858  1.00  0.00     0.031 A 
ATOM     39  C   UNL     1     -12.320   2.089  -0.661  1.00  0.00     0.074 A 
ATOM     40  C   UNL     1     -10.719   3.616  -1.727  1.00  0.00     0.049 A 
ATOM     41  N   UNL     1     -12.608   2.824   0.353  1.00  0.00    -0.248 NA
ATOM     42  C   UNL     1     -12.816   0.720  -0.508  1.00  0.00     0.031 C 
ATOM     43  C   UNL     1     -10.186   4.186  -0.486  1.00  0.00     0.029 A 
ATOM     44  N   UNL     1     -10.106   4.401  -2.708  1.00  0.00    -0.354 N 
ATOM     45  C   UNL     1     -12.992   1.992   1.381  1.00  0.00     0.074 A 
ATOM     46  C   UNL     1     -13.178   0.700   0.775  1.00  0.00     0.031 C 
ATOM     47  C   UNL     1      -9.557   5.346  -0.752  1.00  0.00     0.029 A 
ATOM     48  C   UNL     1      -9.761   5.641  -2.160  1.00  0.00     0.049 A 
ATOM     49  H   UNL     1      -9.943   4.124  -3.639  1.00  0.00     0.167 HD
ATOM     50  C   UNL     1     -12.961   2.467   2.656  1.00  0.00     0.037 A 
ATOM     51  C   UNL     1     -10.222   6.791  -2.722  1.00  0.00     0.037 A 
ATOM     52  C   UNL     1     -12.496   3.860   2.661  1.00  0.00     0.049 A 
ATOM     53  C   UNL     1     -11.172   7.437  -1.755  1.00  0.00     0.074 A 
ATOM     54  C   UNL     1     -11.264   4.433   2.935  1.00  0.00     0.029 A 
ATOM     55  N   UNL     1     -13.230   4.830   1.980  1.00  0.00    -0.354 N 
ATOM     56  N   UNL     1     -11.706   6.775  -0.764  1.00  0.00    -0.248 NA
ATOM     57  C   UNL     1     -11.534   8.848  -1.736  1.00  0.00     0.031 C 
ATOM     58  C   UNL     1     -11.253   5.741   2.380  1.00  0.00     0.029 A 
ATOM     59  C   UNL     1     -12.480   5.976   1.779  1.00  0.00     0.049 A 
ATOM     60  H   UNL     1     -14.161   4.715   1.681  1.00  0.00     0.167 HD
ATOM     61  C   UNL     1     -12.427   7.612   0.025  1.00  0.00     0.074 A 
ATOM     62  C   UNL     1     -12.304   8.902  -0.632  1.00  0.00     0.031 C 
ATOM     63  C   UNL     1     -13.062   7.157   1.144  1.00  0.00     0.037 A 
BRANCH  50  64
ATOM     64  C   UNL     1     -13.078   1.593   3.890  1.00  0.00     0.058 A 
ATOM     65  C   UNL     1     -12.466   1.971   5.104  1.00  0.00     0.135 A 
ATOM     66  C   UNL     1     -13.771   0.363   3.947  1.00  0.00     0.135 A 
ATOM     67  F   UNL     1     -11.832   3.143   5.235  1.00  0.00    -0.206 F 
ATOM     68  C   UNL     1     -12.478   1.170   6.249  1.00  0.00     0.059 A 
ATOM     69  C   UNL     1     -13.745  -0.485   5.060  1.00  0.00     0.059 A 
ATOM     70  F   UNL     1     -14.566  -0.040   2.947  1.00  0.00    -0.206 F 
ATOM     71  C   UNL     1     -13.103  -0.068   6.214  1.00  0.00     0.060 A 
BRANCH  71  72
ATOM     72  S   UNL     1     -13.113  -1.081   7.704  1.00  0.00     0.124 S 
ATOM     73  O   UNL     1     -11.694  -1.159   8.037  1.00  0.00    -0.237 OA
ATOM     74  O   UNL     1     -13.934  -0.281   8.606  1.00  0.00    -0.237 OA
ATOM     75  O   UNL     1     -13.713  -2.337   7.259  1.00  0.00    -0.744 OA
ENDBRANCH  71  72
ENDBRANCH  50  64
BRANCH  51  76
ATOM     76  C   UNL     1     -10.275   6.705  -4.219  1.00  0.00     0.058 A 
ATOM     77  C   UNL     1      -9.036   6.765  -4.899  1.00  0.00     0.135 A 
ATOM     78  C   UNL     1     -11.322   6.041  -4.882  1.00  0.00     0.135 A 
ATOM     79  F   UNL     1      -7.989   7.377  -4.322  1.00  0.00    -0.206 F 
ATOM     80  C   UNL     1      -8.798   6.068  -6.088  1.00  0.00     0.059 A 
ATOM     81  C   UNL     1     -11.098   5.317  -6.064  1.00  0.00     0.059 A 
ATOM     82  F   UNL     1     -12.524   5.934  -4.298  1.00  0.00    -0.206 F 
ATOM     83  C   UNL     1      -9.820   5.292  -6.631  1.00  0.00     0.060 A 
BRANCH  83  84
ATOM     84  S   UNL     1      -9.386   4.017  -7.864  1.00  0.00     0.124 S 
ATOM     85  O   UNL     1      -9.468   4.756  -9.115  1.00  0.00    -0.237 OA
ATOM     86  O   UNL     1      -8.040   3.611  -7.456  1.00  0.00    -0.237 OA
ATOM     87  O   UNL     1     -10.406   2.998  -7.645  1.00  0.00    -0.744 OA
ENDBRANCH  83  84
ENDBRANCH  51  76
BRANCH  63  88
ATOM     88  C   UNL     1     -14.233   7.844   1.791  1.00  0.00     0.058 A 
ATOM     89  C   UNL     1     -15.053   8.768   1.120  1.00  0.00     0.135 A 
ATOM     90  C   UNL     1     -14.672   7.462   3.082  1.00  0.00     0.135 A 
ATOM     91  F   UNL     1     -14.840   9.108  -0.158  1.00  0.00    -0.206 F 
ATOM     92  C   UNL     1     -16.161   9.351   1.722  1.00  0.00     0.059 A 
ATOM     93  C   UNL     1     -15.824   7.969   3.667  1.00  0.00     0.059 A 
ATOM     94  F   UNL     1     -14.008   6.562   3.822  1.00  0.00    -0.206 F 
ATOM     95  C   UNL     1     -16.536   8.948   2.997  1.00  0.00     0.060 A 
BRANCH  95  96
ATOM     96  S   UNL     1     -17.972   9.705   3.762  1.00  0.00     0.124 S 
ATOM     97  O   UNL     1     -17.405  10.956   4.254  1.00  0.00    -0.237 OA
ATOM     98  O   UNL     1     -18.900   9.828   2.642  1.00  0.00    -0.237 OA
ATOM     99  O   UNL     1     -18.360   8.740   4.786  1.00  0.00    -0.744 OA
ENDBRANCH  95  96
ENDBRANCH  63  88
ENDBRANCH  37  38
ENDBRANCH  30  32
ENDBRANCH  29  30
ENDBRANCH  28  29
ENDBRANCH   1  28
TORSDOF 19
