REMARK SMILES CC(C)Cc1ccc([C@@H]2CC[NH2+][C@H]2C(=O)OCCOCCOC(=O)c2ccc(-c3c4nc(c(-c5c(F)cc(S(=O)(=O)[O-])cc5F)c5ccc([nH]5)c(-c5c(F)cc(S(=O)(=O)[O-])cc5F)c5nc(c(-c6c(F)cc(S(=O)(=O)[O-])cc6F)c6ccc3[nH]6)C=C5)C=C4)cc2)cc1
REMARK SMILES IDX 19 1 18 2 17 3 16 4 14 5 15 6 13 7 9 8 10 9 11 10 12 11 8 14
REMARK SMILES IDX 5 15 6 16 92 17 7 18 91 19 4 20 2 21 1 22 3 23 20 24 21 25
REMARK SMILES IDX 22 26 23 27 24 28 25 29 26 30 90 31 27 32 89 33 28 34 29 35
REMARK SMILES IDX 30 36 83 37 31 38 88 39 82 40 84 41 32 42 87 43 81 44 80 45
REMARK SMILES IDX 33 47 67 48 46 49 66 50 47 51 50 52 65 53 85 54 48 55 49 56
REMARK SMILES IDX 64 58 86 59 51 60 34 61 35 62 44 63 36 64 37 65 43 66 45 67
REMARK SMILES IDX 38 68 39 69 40 70 41 71 42 72 68 73 69 74 78 75 70 76 71 77
REMARK SMILES IDX 77 78 79 79 72 80 73 81 74 82 75 83 76 84 52 85 53 86 62 87
REMARK SMILES IDX 54 88 55 89 61 90 63 91 56 92 57 93 58 94 59 95 60 96
REMARK H PARENT 12 12 12 13 84 46 50 57
REMARK Flexibility Score: inf
ROOT
ATOM      1  O   UNL     1      -5.718   7.217   2.405  1.00  0.00    -0.374 OA
ENDROOT
BRANCH   1   2
ATOM      2  C   UNL     1      -5.288   7.692   3.680  1.00  0.00     0.202 C 
BRANCH   2   3
ATOM      3  C   UNL     1      -5.264   6.667   4.817  1.00  0.00     0.261 C 
BRANCH   3   4
ATOM      4  O   UNL     1      -4.268   5.646   4.619  1.00  0.00    -0.459 OA
BRANCH   4   5
ATOM      5  C   UNL     1      -4.748   4.402   4.328  1.00  0.00     0.365 C 
ATOM      6  O   UNL     1      -5.936   4.110   4.255  1.00  0.00    -0.245 OA
BRANCH   5   7
ATOM      7  C   UNL     1      -3.620   3.375   4.156  1.00  0.00     0.301 C 
ATOM      8  C   UNL     1      -2.429   3.851   3.289  1.00  0.00     0.095 C 
ATOM      9  C   UNL     1      -1.240   3.801   4.252  1.00  0.00     0.076 C 
ATOM     10  C   UNL     1      -1.639   2.755   5.271  1.00  0.00     0.262 C 
ATOM     11  N   UNL     1      -3.068   2.992   5.491  1.00  0.00    -0.334 N 
ATOM     12  H   UNL     1      -3.205   3.746   6.163  1.00  0.00     0.347 HD
ATOM     13  H   UNL     1      -3.534   2.167   5.870  1.00  0.00     0.347 HD
BRANCH   8  14
ATOM     14  C   UNL     1      -2.148   3.015   2.044  1.00  0.00    -0.038 A 
ATOM     15  C   UNL     1      -1.429   1.494  -0.236  1.00  0.00    -0.048 A 
ATOM     16  C   UNL     1      -1.267   2.884  -0.230  1.00  0.00     0.004 A 
ATOM     17  C   UNL     1      -1.977   0.875   0.891  1.00  0.00     0.004 A 
ATOM     18  C   UNL     1      -1.620   3.634   0.898  1.00  0.00     0.004 A 
ATOM     19  C   UNL     1      -2.321   1.624   2.018  1.00  0.00     0.004 A 
BRANCH  15  20
ATOM     20  C   UNL     1      -0.952   0.655  -1.397  1.00  0.00     0.038 C 
BRANCH  20  21
ATOM     21  C   UNL     1       0.583   0.516  -1.467  1.00  0.00    -0.013 C 
ATOM     22  C   UNL     1       1.188  -0.051  -0.178  1.00  0.00     0.008 C 
ATOM     23  C   UNL     1       0.970  -0.380  -2.647  1.00  0.00     0.008 C 
ENDBRANCH  20  21
ENDBRANCH  15  20
ENDBRANCH   8  14
ENDBRANCH   5   7
ENDBRANCH   4   5
ENDBRANCH   3   4
ENDBRANCH   2   3
ENDBRANCH   1   2
BRANCH   1  24
ATOM     24  C   UNL     1      -4.770   6.496   1.620  1.00  0.00     0.202 C 
BRANCH  24  25
ATOM     25  C   UNL     1      -3.683   7.328   0.925  1.00  0.00     0.261 C 
BRANCH  25  26
ATOM     26  O   UNL     1      -2.795   7.966   1.863  1.00  0.00    -0.460 OA
BRANCH  26  27
ATOM     27  C   UNL     1      -2.869   9.319   1.865  1.00  0.00     0.338 C 
ATOM     28  O   UNL     1      -3.530  10.016   1.104  1.00  0.00    -0.246 OA
BRANCH  27  29
ATOM     29  C   UNL     1      -2.169   9.898   3.028  1.00  0.00     0.060 A 
ATOM     30  C   UNL     1      -2.871  10.848   3.781  1.00  0.00     0.016 A 
ATOM     31  C   UNL     1      -0.827   9.627   3.307  1.00  0.00     0.016 A 
ATOM     32  C   UNL     1      -2.212  11.597   4.753  1.00  0.00     0.010 A 
ATOM     33  C   UNL     1      -0.165  10.385   4.284  1.00  0.00     0.010 A 
ATOM     34  C   UNL     1      -0.841  11.412   4.969  1.00  0.00    -0.014 A 
BRANCH  34  35
ATOM     35  C   UNL     1      -0.098  12.436   5.750  1.00  0.00     0.031 A 
ATOM     36  C   UNL     1       0.655  13.508   5.002  1.00  0.00     0.074 A 
ATOM     37  C   UNL     1      -0.152  12.463   7.095  1.00  0.00     0.049 A 
ATOM     38  N   UNL     1       1.349  14.514   5.469  1.00  0.00    -0.248 NA
ATOM     39  C   UNL     1       0.620  13.438   3.531  1.00  0.00     0.031 C 
ATOM     40  C   UNL     1      -0.874  11.507   7.933  1.00  0.00     0.029 A 
ATOM     41  N   UNL     1       0.410  13.337   7.992  1.00  0.00    -0.354 N 
ATOM     42  C   UNL     1       1.839  15.188   4.355  1.00  0.00     0.074 A 
ATOM     43  C   UNL     1       1.385  14.464   3.188  1.00  0.00     0.031 C 
ATOM     44  C   UNL     1      -0.702  11.841   9.224  1.00  0.00     0.029 A 
ATOM     45  C   UNL     1       0.154  13.024   9.305  1.00  0.00     0.049 A 
ATOM     46  H   UNL     1       0.948  14.116   7.719  1.00  0.00     0.167 HD
ATOM     47  C   UNL     1       2.588  16.314   4.306  1.00  0.00     0.037 A 
ATOM     48  C   UNL     1       0.572  13.617  10.442  1.00  0.00     0.037 A 
ATOM     49  C   UNL     1       3.018  17.052   5.465  1.00  0.00     0.049 A 
ATOM     50  C   UNL     1       1.423  14.860  10.360  1.00  0.00     0.074 A 
ATOM     51  C   UNL     1       3.765  18.216   5.514  1.00  0.00     0.029 A 
ATOM     52  N   UNL     1       2.735  16.701   6.775  1.00  0.00    -0.354 N 
ATOM     53  N   UNL     1       1.857  15.495   9.296  1.00  0.00    -0.248 NA
ATOM     54  C   UNL     1       1.829  15.476  11.632  1.00  0.00     0.031 C 
ATOM     55  C   UNL     1       3.963  18.552   6.858  1.00  0.00     0.029 A 
ATOM     56  C   UNL     1       3.301  17.621   7.642  1.00  0.00     0.049 A 
ATOM     57  H   UNL     1       2.210  15.915   7.049  1.00  0.00     0.167 HD
ATOM     58  C   UNL     1       2.552  16.603   9.773  1.00  0.00     0.074 A 
ATOM     59  C   UNL     1       2.477  16.556  11.217  1.00  0.00     0.031 C 
ATOM     60  C   UNL     1       3.192  17.575   9.077  1.00  0.00     0.037 A 
BRANCH  47  61
ATOM     61  C   UNL     1       3.008  16.821   2.955  1.00  0.00     0.058 A 
ATOM     62  C   UNL     1       2.106  17.469   2.097  1.00  0.00     0.135 A 
ATOM     63  C   UNL     1       4.346  16.715   2.543  1.00  0.00     0.135 A 
ATOM     64  F   UNL     1       0.811  17.578   2.434  1.00  0.00    -0.206 F 
ATOM     65  C   UNL     1       2.515  17.990   0.874  1.00  0.00     0.059 A 
ATOM     66  C   UNL     1       4.782  17.248   1.334  1.00  0.00     0.059 A 
ATOM     67  F   UNL     1       5.246  16.099   3.325  1.00  0.00    -0.206 F 
ATOM     68  C   UNL     1       3.857  17.878   0.503  1.00  0.00     0.060 A 
BRANCH  68  69
ATOM     69  S   UNL     1       4.382  18.592  -1.070  1.00  0.00     0.124 S 
ATOM     70  O   UNL     1       3.827  17.637  -2.023  1.00  0.00    -0.237 OA
ATOM     71  O   UNL     1       3.746  19.905  -1.046  1.00  0.00    -0.237 OA
ATOM     72  O   UNL     1       5.838  18.603  -0.969  1.00  0.00    -0.744 OA
ENDBRANCH  68  69
ENDBRANCH  47  61
BRANCH  48  73
ATOM     73  C   UNL     1       0.206  13.046  11.766  1.00  0.00     0.058 A 
ATOM     74  C   UNL     1      -0.668  13.716  12.635  1.00  0.00     0.135 A 
ATOM     75  C   UNL     1       0.761  11.834  12.204  1.00  0.00     0.135 A 
ATOM     76  F   UNL     1      -1.218  14.882  12.265  1.00  0.00    -0.206 F 
ATOM     77  C   UNL     1      -0.953  13.223  13.905  1.00  0.00     0.059 A 
ATOM     78  C   UNL     1       0.471  11.307  13.458  1.00  0.00     0.059 A 
ATOM     79  F   UNL     1       1.593  11.147  11.405  1.00  0.00    -0.206 F 
ATOM     80  C   UNL     1      -0.373  12.019  14.309  1.00  0.00     0.060 A 
BRANCH  80  81
ATOM     81  S   UNL     1      -0.755  11.376  15.953  1.00  0.00     0.124 S 
ATOM     82  O   UNL     1       0.075  12.225  16.799  1.00  0.00    -0.237 OA
ATOM     83  O   UNL     1      -2.195  11.595  16.044  1.00  0.00    -0.237 OA
ATOM     84  O   UNL     1      -0.347   9.977  15.866  1.00  0.00    -0.744 OA
ENDBRANCH  80  81
ENDBRANCH  48  73
BRANCH  60  85
ATOM     85  C   UNL     1       3.806  18.702   9.860  1.00  0.00     0.058 A 
ATOM     86  C   UNL     1       4.982  18.533  10.606  1.00  0.00     0.135 A 
ATOM     87  C   UNL     1       3.230  19.983   9.824  1.00  0.00     0.135 A 
ATOM     88  F   UNL     1       5.572  17.329  10.674  1.00  0.00    -0.206 F 
ATOM     89  C   UNL     1       5.548  19.587  11.317  1.00  0.00     0.059 A 
ATOM     90  C   UNL     1       3.793  21.057  10.505  1.00  0.00     0.059 A 
ATOM     91  F   UNL     1       2.112  20.201   9.112  1.00  0.00    -0.206 F 
ATOM     92  C   UNL     1       4.944  20.845  11.262  1.00  0.00     0.060 A 
BRANCH  92  93
ATOM     93  S   UNL     1       5.695  22.211  12.173  1.00  0.00     0.124 S 
ATOM     94  O   UNL     1       5.277  21.917  13.540  1.00  0.00    -0.237 OA
ATOM     95  O   UNL     1       7.117  22.033  11.893  1.00  0.00    -0.237 OA
ATOM     96  O   UNL     1       5.088  23.394  11.571  1.00  0.00    -0.744 OA
ENDBRANCH  92  93
ENDBRANCH  60  85
ENDBRANCH  34  35
ENDBRANCH  27  29
ENDBRANCH  26  27
ENDBRANCH  25  26
ENDBRANCH  24  25
ENDBRANCH   1  24
TORSDOF 20
