REMARK SMILES COc1ccc(CC(=O)OCCOCCOC(=O)c2ccc(-c3c4nc(c(-c5c(F)cc(S(=O)(=O)[O-])cc5F)c5ccc([nH]5)c(-c5c(F)cc(S(=O)(=O)[O-])cc5F)c5nc(c(-c6c(F)cc(S(=O)(=O)[O-])cc6F)c6ccc3[nH]6)C=C5)C=C4)cc2)cc1S(=O)(=O)Nc1ccccc1Br
REMARK SMILES IDX 12 1 11 2 10 3 8 4 9 5 7 6 6 7 3 8 4 9 86 10 5 11 85 12 2 13
REMARK SMILES IDX 1 14 87 15 88 16 89 17 90 18 91 20 92 21 96 22 93 23 95 24
REMARK SMILES IDX 97 25 94 26 13 27 14 28 15 29 16 30 17 31 18 32 19 33 20 34
REMARK SMILES IDX 84 35 21 36 83 37 22 38 23 39 24 40 77 41 25 42 82 43 76 44
REMARK SMILES IDX 78 45 26 46 81 47 75 48 74 49 27 51 61 52 40 53 60 54 41 55
REMARK SMILES IDX 44 56 59 57 79 58 42 59 43 60 58 62 80 63 45 64 28 65 29 66
REMARK SMILES IDX 38 67 30 68 31 69 37 70 39 71 32 72 33 73 34 74 35 75 36 76
REMARK SMILES IDX 62 77 63 78 72 79 64 80 65 81 71 82 73 83 66 84 67 85 68 86
REMARK SMILES IDX 69 87 70 88 46 89 47 90 56 91 48 92 49 93 55 94 57 95 50 96
REMARK SMILES IDX 51 97 52 98 53 99 54 100
REMARK H PARENT 90 19 78 50 44 61
REMARK Flexibility Score: inf
ROOT
ATOM      1  C   UNL     1       1.299   0.701  -8.980  1.00  0.00     0.202 C 
ENDROOT
BRANCH   1   2
ATOM      2  C   UNL     1       2.607   1.339  -8.502  1.00  0.00     0.261 C 
BRANCH   2   3
ATOM      3  O   UNL     1       2.658   1.558  -7.081  1.00  0.00    -0.463 OA
BRANCH   3   4
ATOM      4  C   UNL     1       2.615   2.861  -6.696  1.00  0.00     0.310 C 
ATOM      5  O   UNL     1       2.470   3.813  -7.457  1.00  0.00    -0.252 OA
BRANCH   4   6
ATOM      6  C   UNL     1       2.870   3.054  -5.228  1.00  0.00     0.158 C 
BRANCH   6   7
ATOM      7  C   UNL     1       2.103   2.232  -4.213  1.00  0.00    -0.035 A 
ATOM      8  C   UNL     1       0.909   1.271  -1.857  1.00  0.00     0.139 A 
ATOM      9  C   UNL     1       0.152   1.978  -2.800  1.00  0.00     0.048 A 
ATOM     10  C   UNL     1       2.208   0.883  -2.159  1.00  0.00     0.129 A 
ATOM     11  C   UNL     1       0.748   2.472  -3.964  1.00  0.00     0.008 A 
ATOM     12  C   UNL     1       2.798   1.371  -3.346  1.00  0.00     0.030 A 
BRANCH   8  13
ATOM     13  O   UNL     1       0.301   1.051  -0.657  1.00  0.00    -0.495 OA
ATOM     14  C   UNL     1       0.737   1.989   0.330  1.00  0.00     0.278 C 
ENDBRANCH   8  13
BRANCH  10  15
ATOM     15  S   UNL     1       3.283  -0.019  -1.072  1.00  0.00     0.265 S 
ATOM     16  O   UNL     1       4.258  -0.698  -1.901  1.00  0.00    -0.201 OA
ATOM     17  O   UNL     1       3.743   0.958  -0.099  1.00  0.00    -0.201 OA
BRANCH  15  18
ATOM     18  N   UNL     1       2.541  -1.207  -0.135  1.00  0.00    -0.278 N 
ATOM     19  H   UNL     1       3.079  -1.635   0.570  1.00  0.00     0.180 HD
BRANCH  18  20
ATOM     20  C   UNL     1       1.187  -1.640  -0.289  1.00  0.00     0.063 A 
ATOM     21  C   UNL     1       0.369  -1.527   0.848  1.00  0.00     0.028 A 
ATOM     22  C   UNL     1       0.645  -2.186  -1.455  1.00  0.00     0.042 A 
ATOM     23  C   UNL     1      -0.989  -1.843   0.791  1.00  0.00     0.002 A 
ATOM     24  C   UNL     1      -0.721  -2.494  -1.516  1.00  0.00     0.018 A 
ATOM     25  Br  UNL     1       1.711  -2.626  -2.951  1.00  0.00    -0.049 Br
ATOM     26  C   UNL     1      -1.539  -2.304  -0.400  1.00  0.00     0.001 A 
ENDBRANCH  18  20
ENDBRANCH  15  18
ENDBRANCH  10  15
ENDBRANCH   6   7
ENDBRANCH   4   6
ENDBRANCH   3   4
ENDBRANCH   2   3
ENDBRANCH   1   2
BRANCH   1  27
ATOM     27  O   UNL     1       0.094   1.431  -8.760  1.00  0.00    -0.374 OA
BRANCH  27  28
ATOM     28  C   UNL     1      -0.411   1.477  -7.429  1.00  0.00     0.202 C 
BRANCH  28  29
ATOM     29  C   UNL     1      -1.078   0.209  -6.880  1.00  0.00     0.261 C 
BRANCH  29  30
ATOM     30  O   UNL     1      -0.177  -0.907  -6.795  1.00  0.00    -0.460 OA
BRANCH  30  31
ATOM     31  C   UNL     1      -0.426  -1.909  -7.678  1.00  0.00     0.338 C 
ATOM     32  O   UNL     1      -1.350  -1.979  -8.469  1.00  0.00    -0.246 OA
BRANCH  31  33
ATOM     33  C   UNL     1       0.696  -2.869  -7.672  1.00  0.00     0.060 A 
ATOM     34  C   UNL     1       1.277  -3.219  -8.895  1.00  0.00     0.016 A 
ATOM     35  C   UNL     1       1.131  -3.465  -6.490  1.00  0.00     0.016 A 
ATOM     36  C   UNL     1       2.267  -4.202  -8.939  1.00  0.00     0.010 A 
ATOM     37  C   UNL     1       2.135  -4.436  -6.530  1.00  0.00     0.010 A 
ATOM     38  C   UNL     1       2.678  -4.841  -7.760  1.00  0.00    -0.014 A 
BRANCH  38  39
ATOM     39  C   UNL     1       3.554  -6.037  -7.838  1.00  0.00     0.031 A 
ATOM     40  C   UNL     1       2.939  -7.401  -7.664  1.00  0.00     0.074 A 
ATOM     41  C   UNL     1       4.870  -5.913  -8.088  1.00  0.00     0.049 A 
ATOM     42  N   UNL     1       3.508  -8.579  -7.696  1.00  0.00    -0.248 NA
ATOM     43  C   UNL     1       1.488  -7.444  -7.418  1.00  0.00     0.031 C 
ATOM     44  C   UNL     1       5.577  -4.648  -8.282  1.00  0.00     0.029 A 
ATOM     45  N   UNL     1       5.848  -6.867  -8.217  1.00  0.00    -0.354 N 
ATOM     46  C   UNL     1       2.490  -9.498  -7.467  1.00  0.00     0.074 A 
ATOM     47  C   UNL     1       1.275  -8.742  -7.262  1.00  0.00     0.031 C 
ATOM     48  C   UNL     1       6.878  -4.904  -8.505  1.00  0.00     0.029 A 
ATOM     49  C   UNL     1       7.100  -6.347  -8.445  1.00  0.00     0.049 A 
ATOM     50  H   UNL     1       5.670  -7.833  -8.153  1.00  0.00     0.167 HD
ATOM     51  C   UNL     1       2.558 -10.850  -7.446  1.00  0.00     0.037 A 
ATOM     52  C   UNL     1       8.291  -6.966  -8.577  1.00  0.00     0.037 A 
ATOM     53  C   UNL     1       3.770 -11.598  -7.660  1.00  0.00     0.049 A 
ATOM     54  C   UNL     1       8.350  -8.470  -8.514  1.00  0.00     0.074 A 
ATOM     55  C   UNL     1       3.941 -12.971  -7.688  1.00  0.00     0.029 A 
ATOM     56  N   UNL     1       5.019 -11.034  -7.877  1.00  0.00    -0.354 N 
ATOM     57  N   UNL     1       7.372  -9.328  -8.338  1.00  0.00    -0.248 NA
ATOM     58  C   UNL     1       9.671  -9.093  -8.674  1.00  0.00     0.031 C 
ATOM     59  C   UNL     1       5.301 -13.237  -7.879  1.00  0.00     0.029 A 
ATOM     60  C   UNL     1       5.970 -12.031  -8.018  1.00  0.00     0.049 A 
ATOM     61  H   UNL     1       5.202 -10.068  -7.923  1.00  0.00     0.167 HD
ATOM     62  C   UNL     1       7.955 -10.589  -8.391  1.00  0.00     0.074 A 
ATOM     63  C   UNL     1       9.370 -10.384  -8.627  1.00  0.00     0.031 C 
ATOM     64  C   UNL     1       7.373 -11.808  -8.260  1.00  0.00     0.037 A 
BRANCH  51  65
ATOM     65  C   UNL     1       1.289 -11.607  -7.167  1.00  0.00     0.058 A 
ATOM     66  C   UNL     1       0.252 -11.683  -8.111  1.00  0.00     0.135 A 
ATOM     67  C   UNL     1       1.117 -12.286  -5.951  1.00  0.00     0.135 A 
ATOM     68  F   UNL     1       0.356 -11.037  -9.284  1.00  0.00    -0.206 F 
ATOM     69  C   UNL     1      -0.922 -12.382  -7.848  1.00  0.00     0.059 A 
ATOM     70  C   UNL     1      -0.038 -13.014  -5.676  1.00  0.00     0.059 A 
ATOM     71  F   UNL     1       2.075 -12.246  -5.012  1.00  0.00    -0.206 F 
ATOM     72  C   UNL     1      -1.059 -13.043  -6.626  1.00  0.00     0.060 A 
BRANCH  72  73
ATOM     73  S   UNL     1      -2.587 -13.946  -6.298  1.00  0.00     0.124 S 
ATOM     74  O   UNL     1      -3.525 -12.854  -6.059  1.00  0.00    -0.237 OA
ATOM     75  O   UNL     1      -2.784 -14.690  -7.538  1.00  0.00    -0.237 OA
ATOM     76  O   UNL     1      -2.260 -14.757  -5.130  1.00  0.00    -0.744 OA
ENDBRANCH  72  73
ENDBRANCH  51  65
BRANCH  52  77
ATOM     77  C   UNL     1       9.525  -6.163  -8.786  1.00  0.00     0.058 A 
ATOM     78  C   UNL     1      10.196  -6.169 -10.018  1.00  0.00     0.135 A 
ATOM     79  C   UNL     1      10.054  -5.365  -7.759  1.00  0.00     0.135 A 
ATOM     80  F   UNL     1       9.737  -6.923 -11.028  1.00  0.00    -0.206 F 
ATOM     81  C   UNL     1      11.353  -5.422 -10.222  1.00  0.00     0.059 A 
ATOM     82  C   UNL     1      11.195  -4.591  -7.946  1.00  0.00     0.059 A 
ATOM     83  F   UNL     1       9.445  -5.317  -6.564  1.00  0.00    -0.206 F 
ATOM     84  C   UNL     1      11.843  -4.633  -9.180  1.00  0.00     0.060 A 
BRANCH  84  85
ATOM     85  S   UNL     1      13.312  -3.624  -9.472  1.00  0.00     0.124 S 
ATOM     86  O   UNL     1      14.366  -4.632  -9.470  1.00  0.00    -0.237 OA
ATOM     87  O   UNL     1      13.015  -3.015 -10.765  1.00  0.00    -0.237 OA
ATOM     88  O   UNL     1      13.317  -2.701  -8.341  1.00  0.00    -0.744 OA
ENDBRANCH  84  85
ENDBRANCH  52  77
BRANCH  64  89
ATOM     89  C   UNL     1       8.255 -13.018  -8.403  1.00  0.00     0.058 A 
ATOM     90  C   UNL     1       9.159 -13.395  -7.397  1.00  0.00     0.135 A 
ATOM     91  C   UNL     1       8.151 -13.843  -9.535  1.00  0.00     0.135 A 
ATOM     92  F   UNL     1       9.300 -12.639  -6.297  1.00  0.00    -0.206 F 
ATOM     93  C   UNL     1       9.943 -14.538  -7.519  1.00  0.00     0.059 A 
ATOM     94  C   UNL     1       8.907 -15.003  -9.665  1.00  0.00     0.059 A 
ATOM     95  F   UNL     1       7.293 -13.533 -10.520  1.00  0.00    -0.206 F 
ATOM     96  C   UNL     1       9.809 -15.336  -8.656  1.00  0.00     0.060 A 
BRANCH  96  97
ATOM     97  S   UNL     1      10.806 -16.836  -8.785  1.00  0.00     0.124 S 
ATOM     98  O   UNL     1      12.121 -16.288  -9.104  1.00  0.00    -0.237 OA
ATOM     99  O   UNL     1      10.669 -17.420  -7.455  1.00  0.00    -0.237 OA
ATOM    100  O   UNL     1      10.159 -17.583  -9.860  1.00  0.00    -0.744 OA
ENDBRANCH  96  97
ENDBRANCH  64  89
ENDBRANCH  38  39
ENDBRANCH  31  33
ENDBRANCH  30  31
ENDBRANCH  29  30
ENDBRANCH  28  29
ENDBRANCH  27  28
ENDBRANCH   1  27
TORSDOF 22
