REMARK SMILES Cc1onc(-c2ccccc2Cl)c1C(=O)N1CCCC[C@@H]1C(=O)OCCOCCOC(=O)c1ccc(-c2c3nc(c(-c4c(F)cc(S(=O)(=O)[O-])cc4F)c4ccc([nH]4)c(-c4c(F)cc(S(=O)(=O)[O-])cc4F)c4nc(c(-c5c(F)cc(S(=O)(=O)[O-])cc5F)c5ccc2[nH]5)C=C4)C=C3)cc1
REMARK SMILES IDX 27 1 26 2 25 3 24 4 22 5 23 6 21 7 16 8 17 9 18 10 20 11
REMARK SMILES IDX 19 12 14 13 15 14 13 15 1 16 2 17 3 18 4 19 5 20 6 21 7 22
REMARK SMILES IDX 11 23 8 24 10 25 12 26 9 27 28 28 29 29 30 30 31 31 32 32
REMARK SMILES IDX 33 33 34 34 98 35 35 36 97 37 36 38 37 39 38 40 91 41 39 42
REMARK SMILES IDX 96 43 90 44 92 45 40 46 95 47 89 48 88 49 41 51 75 52 54 53
REMARK SMILES IDX 74 54 55 55 58 56 73 57 93 58 56 59 57 60 72 62 94 63 59 64
REMARK SMILES IDX 42 65 43 66 52 67 44 68 45 69 51 70 53 71 46 72 47 73 48 74
REMARK SMILES IDX 49 75 50 76 76 77 77 78 86 79 78 80 79 81 85 82 87 83 80 84
REMARK SMILES IDX 81 85 82 86 83 87 84 88 60 89 61 90 70 91 62 92 63 93 69 94
REMARK SMILES IDX 71 95 64 96 65 97 66 98 67 99 68 100
REMARK H PARENT 92 50 58 61
REMARK Flexibility Score: inf
ROOT
ATOM      1  O   UNL     1       2.743  -0.083   4.622  1.00  0.00    -0.374 OA
ENDROOT
BRANCH   1   2
ATOM      2  C   UNL     1       1.358  -0.398   4.731  1.00  0.00     0.202 C 
BRANCH   2   3
ATOM      3  C   UNL     1       0.610  -0.687   3.427  1.00  0.00     0.261 C 
BRANCH   3   4
ATOM      4  O   UNL     1       1.162  -1.773   2.668  1.00  0.00    -0.462 OA
BRANCH   4   5
ATOM      5  C   UNL     1       1.985  -1.405   1.651  1.00  0.00     0.328 C 
ATOM      6  O   UNL     1       2.347  -0.256   1.422  1.00  0.00    -0.250 OA
BRANCH   5   7
ATOM      7  C   UNL     1       2.411  -2.599   0.786  1.00  0.00     0.195 C 
ATOM      8  N   UNL     1       1.789  -2.826  -0.541  1.00  0.00    -0.325 N 
ATOM      9  C   UNL     1       2.489  -3.814  -1.360  1.00  0.00     0.121 C 
ATOM     10  C   UNL     1       2.680  -5.142  -0.626  1.00  0.00     0.022 C 
ATOM     11  C   UNL     1       2.549  -3.917   1.565  1.00  0.00     0.037 C 
ATOM     12  C   UNL     1       3.340  -4.933   0.736  1.00  0.00     0.005 C 
BRANCH   8  13
ATOM     13  C   UNL     1       0.415  -2.680  -0.773  1.00  0.00     0.260 C 
ATOM     14  O   UNL     1      -0.252  -3.582  -1.272  1.00  0.00    -0.269 OA
BRANCH  13  15
ATOM     15  C   UNL     1      -0.159  -1.362  -0.564  1.00  0.00     0.110 A 
ATOM     16  C   UNL     1       1.744   0.318  -1.349  1.00  0.00     0.092 C 
ATOM     17  C   UNL     1       0.444  -0.139  -0.813  1.00  0.00     0.147 A 
ATOM     18  O   UNL     1      -0.425   0.862  -0.529  1.00  0.00    -0.360 OA
ATOM     19  N   UNL     1      -1.646   0.333  -0.199  1.00  0.00    -0.079 NA
ATOM     20  C   UNL     1      -1.519  -1.002  -0.286  1.00  0.00     0.128 A 
BRANCH  20  21
ATOM     21  C   UNL     1      -2.722  -1.828  -0.204  1.00  0.00     0.023 A 
ATOM     22  C   UNL     1      -3.744  -1.565  -1.140  1.00  0.00     0.012 A 
ATOM     23  C   UNL     1      -2.936  -2.819   0.761  1.00  0.00     0.050 A 
ATOM     24  C   UNL     1      -4.947  -2.271  -1.113  1.00  0.00     0.001 A 
ATOM     25  C   UNL     1      -4.148  -3.523   0.787  1.00  0.00     0.021 A 
ATOM     26  Cl  UNL     1      -1.772  -3.199   1.980  1.00  0.00    -0.084 Cl
ATOM     27  C   UNL     1      -5.150  -3.250  -0.146  1.00  0.00     0.002 A 
ENDBRANCH  20  21
ENDBRANCH  13  15
ENDBRANCH   8  13
ENDBRANCH   5   7
ENDBRANCH   4   5
ENDBRANCH   3   4
ENDBRANCH   2   3
ENDBRANCH   1   2
BRANCH   1  28
ATOM     28  C   UNL     1       3.667  -1.159   4.460  1.00  0.00     0.202 C 
BRANCH  28  29
ATOM     29  C   UNL     1       3.825  -2.115   5.644  1.00  0.00     0.261 C 
BRANCH  29  30
ATOM     30  O   UNL     1       2.700  -3.011   5.753  1.00  0.00    -0.460 OA
BRANCH  30  31
ATOM     31  C   UNL     1       2.071  -2.974   6.950  1.00  0.00     0.338 C 
ATOM     32  O   UNL     1       2.399  -2.315   7.929  1.00  0.00    -0.246 OA
BRANCH  31  33
ATOM     33  C   UNL     1       0.805  -3.725   6.912  1.00  0.00     0.060 A 
ATOM     34  C   UNL     1      -0.349  -3.059   7.343  1.00  0.00     0.016 A 
ATOM     35  C   UNL     1       0.773  -5.092   6.626  1.00  0.00     0.016 A 
ATOM     36  C   UNL     1      -1.518  -3.775   7.580  1.00  0.00     0.010 A 
ATOM     37  C   UNL     1      -0.402  -5.812   6.872  1.00  0.00     0.010 A 
ATOM     38  C   UNL     1      -1.531  -5.165   7.406  1.00  0.00    -0.014 A 
BRANCH  38  39
ATOM     39  C   UNL     1      -2.648  -5.948   7.989  1.00  0.00     0.031 A 
ATOM     40  C   UNL     1      -2.472  -6.541   9.364  1.00  0.00     0.074 A 
ATOM     41  C   UNL     1      -3.817  -6.080   7.340  1.00  0.00     0.049 A 
ATOM     42  N   UNL     1      -3.310  -7.249  10.076  1.00  0.00    -0.248 NA
ATOM     43  C   UNL     1      -1.177  -6.300  10.023  1.00  0.00     0.031 C 
ATOM     44  C   UNL     1      -4.123  -5.517   6.026  1.00  0.00     0.029 A 
ATOM     45  N   UNL     1      -4.969  -6.729   7.707  1.00  0.00    -0.354 N 
ATOM     46  C   UNL     1      -2.645  -7.540  11.263  1.00  0.00     0.074 A 
ATOM     47  C   UNL     1      -1.326  -6.956  11.165  1.00  0.00     0.031 C 
ATOM     48  C   UNL     1      -5.381  -5.854   5.692  1.00  0.00     0.029 A 
ATOM     49  C   UNL     1      -5.961  -6.668   6.760  1.00  0.00     0.049 A 
ATOM     50  H   UNL     1      -5.074  -7.194   8.568  1.00  0.00     0.167 HD
ATOM     51  C   UNL     1      -3.095  -8.225  12.341  1.00  0.00     0.037 A 
ATOM     52  C   UNL     1      -7.191  -7.217   6.752  1.00  0.00     0.037 A 
ATOM     53  C   UNL     1      -4.408  -8.803  12.442  1.00  0.00     0.049 A 
ATOM     54  C   UNL     1      -7.658  -8.009   7.945  1.00  0.00     0.074 A 
ATOM     55  C   UNL     1      -4.959  -9.517  13.492  1.00  0.00     0.029 A 
ATOM     56  N   UNL     1      -5.378  -8.735  11.453  1.00  0.00    -0.354 N 
ATOM     57  N   UNL     1      -7.021  -8.271   9.062  1.00  0.00    -0.248 NA
ATOM     58  C   UNL     1      -9.013  -8.574   7.880  1.00  0.00     0.031 C 
ATOM     59  C   UNL     1      -6.253  -9.904  13.125  1.00  0.00     0.029 A 
ATOM     60  C   UNL     1      -6.519  -9.402  11.861  1.00  0.00     0.049 A 
ATOM     61  H   UNL     1      -5.270  -8.278  10.587  1.00  0.00     0.167 HD
ATOM     62  C   UNL     1      -7.906  -9.008   9.842  1.00  0.00     0.074 A 
ATOM     63  C   UNL     1      -9.125  -9.148   9.071  1.00  0.00     0.031 C 
ATOM     64  C   UNL     1      -7.727  -9.521  11.084  1.00  0.00     0.037 A 
BRANCH  51  65
ATOM     65  C   UNL     1      -2.143  -8.401  13.490  1.00  0.00     0.058 A 
ATOM     66  C   UNL     1      -1.837  -7.344  14.361  1.00  0.00     0.135 A 
ATOM     67  C   UNL     1      -1.537  -9.645  13.728  1.00  0.00     0.135 A 
ATOM     68  F   UNL     1      -2.375  -6.130  14.165  1.00  0.00    -0.206 F 
ATOM     69  C   UNL     1      -0.939  -7.505  15.412  1.00  0.00     0.059 A 
ATOM     70  C   UNL     1      -0.652  -9.834  14.785  1.00  0.00     0.059 A 
ATOM     71  F   UNL     1      -1.794 -10.687  12.922  1.00  0.00    -0.206 F 
ATOM     72  C   UNL     1      -0.346  -8.754  15.611  1.00  0.00     0.060 A 
BRANCH  72  73
ATOM     73  S   UNL     1       0.827  -8.951  16.969  1.00  0.00     0.124 S 
ATOM     74  O   UNL     1       2.020  -8.318  16.416  1.00  0.00    -0.237 OA
ATOM     75  O   UNL     1       0.175  -8.230  18.058  1.00  0.00    -0.237 OA
ATOM     76  O   UNL     1       0.906 -10.398  17.141  1.00  0.00    -0.744 OA
ENDBRANCH  72  73
ENDBRANCH  51  65
BRANCH  52  77
ATOM     77  C   UNL     1      -8.071  -7.035   5.570  1.00  0.00     0.058 A 
ATOM     78  C   UNL     1      -9.187  -6.188   5.619  1.00  0.00     0.135 A 
ATOM     79  C   UNL     1      -7.800  -7.694   4.361  1.00  0.00     0.135 A 
ATOM     80  F   UNL     1      -9.492  -5.545   6.757  1.00  0.00    -0.206 F 
ATOM     81  C   UNL     1     -10.009  -6.003   4.512  1.00  0.00     0.059 A 
ATOM     82  C   UNL     1      -8.595  -7.510   3.235  1.00  0.00     0.059 A 
ATOM     83  F   UNL     1      -6.737  -8.508   4.262  1.00  0.00    -0.206 F 
ATOM     84  C   UNL     1      -9.702  -6.667   3.322  1.00  0.00     0.060 A 
BRANCH  84  85
ATOM     85  S   UNL     1     -10.728  -6.368   1.866  1.00  0.00     0.124 S 
ATOM     86  O   UNL     1     -11.888  -7.206   2.147  1.00  0.00    -0.237 OA
ATOM     87  O   UNL     1     -10.948  -4.927   1.932  1.00  0.00    -0.237 OA
ATOM     88  O   UNL     1      -9.877  -6.811   0.765  1.00  0.00    -0.744 OA
ENDBRANCH  84  85
ENDBRANCH  52  77
BRANCH  64  89
ATOM     89  C   UNL     1      -8.885 -10.250  11.704  1.00  0.00     0.058 A 
ATOM     90  C   UNL     1      -9.229 -11.553  11.313  1.00  0.00     0.135 A 
ATOM     91  C   UNL     1      -9.627  -9.655  12.737  1.00  0.00     0.135 A 
ATOM     92  F   UNL     1      -8.552 -12.163  10.327  1.00  0.00    -0.206 F 
ATOM     93  C   UNL     1     -10.284 -12.235  11.911  1.00  0.00     0.059 A 
ATOM     94  C   UNL     1     -10.673 -10.326  13.363  1.00  0.00     0.059 A 
ATOM     95  F   UNL     1      -9.330  -8.415  13.155  1.00  0.00    -0.206 F 
ATOM     96  C   UNL     1     -11.002 -11.612  12.934  1.00  0.00     0.060 A 
BRANCH  96  97
ATOM     97  S   UNL     1     -12.351 -12.514  13.726  1.00  0.00     0.124 S 
ATOM     98  O   UNL     1     -13.421 -12.360  12.746  1.00  0.00    -0.237 OA
ATOM     99  O   UNL     1     -11.800 -13.859  13.855  1.00  0.00    -0.237 OA
ATOM    100  O   UNL     1     -12.542 -11.799  14.984  1.00  0.00    -0.744 OA
ENDBRANCH  96  97
ENDBRANCH  64  89
ENDBRANCH  38  39
ENDBRANCH  31  33
ENDBRANCH  30  31
ENDBRANCH  29  30
ENDBRANCH  28  29
ENDBRANCH   1  28
TORSDOF 20
