REMARK SMILES O=C(OCCOCCOC(=O)c1ccc(-n2cc(CSc3nc4ccccc4c(=O)n3-c3ccccc3)nn2)cc1)c1ccc(-c2c3nc(c(-c4c(F)cc(S(=O)(=O)[O-])cc4F)c4ccc([nH]4)c(-c4c(F)cc(S(=O)(=O)[O-])cc4F)c4nc(c(-c5c(F)cc(S(=O)(=O)[O-])cc5F)c5ccc2[nH]5)C=C4)C=C3)cc1
REMARK SMILES IDX 7 1 6 2 5 3 4 4 3 5 2 6 1 7 42 8 43 9 107 10 44 11 106 12
REMARK SMILES IDX 45 13 46 14 47 15 100 16 48 17 105 18 99 19 101 20 49 21
REMARK SMILES IDX 104 22 98 23 97 24 50 26 84 27 63 28 83 29 64 30 67 31 82 32
REMARK SMILES IDX 102 33 65 34 66 35 81 37 103 38 68 39 51 40 52 41 61 42
REMARK SMILES IDX 53 43 54 44 60 45 62 46 55 47 56 48 57 49 58 50 59 51 85 52
REMARK SMILES IDX 86 53 95 54 87 55 88 56 94 57 96 58 89 59 90 60 91 61 92 62
REMARK SMILES IDX 93 63 69 64 70 65 79 66 71 67 72 68 78 69 80 70 73 71 74 72
REMARK SMILES IDX 75 73 76 74 77 75 8 76 9 77 10 78 11 79 12 80 13 81 41 82
REMARK SMILES IDX 14 83 40 84 15 85 16 86 17 87 39 88 18 89 38 90 19 91 20 92
REMARK SMILES IDX 21 93 22 94 31 95 23 96 29 97 24 98 28 99 30 100 25 101
REMARK SMILES IDX 27 102 26 103 32 104 33 105 37 106 34 107 36 108 35 109
REMARK H PARENT 101 25 67 36
REMARK Flexibility Score: inf
ROOT
ATOM      1  C   UNL     1       3.102  -0.618   1.919  1.00  0.00     0.202 C 
ENDROOT
BRANCH   1   2
ATOM      2  O   UNL     1       4.282  -0.752   1.116  1.00  0.00    -0.374 OA
BRANCH   2   3
ATOM      3  C   UNL     1       4.834   0.449   0.595  1.00  0.00     0.202 C 
BRANCH   3   4
ATOM      4  C   UNL     1       4.551   0.795  -0.863  1.00  0.00     0.261 C 
BRANCH   4   5
ATOM      5  O   UNL     1       3.179   1.122  -1.145  1.00  0.00    -0.460 OA
BRANCH   5   6
ATOM      6  C   UNL     1       2.116   0.311  -0.954  1.00  0.00     0.338 C 
ATOM      7  O   UNL     1       1.103   0.748  -0.410  1.00  0.00    -0.246 OA
BRANCH   6   8
ATOM      8  C   UNL     1       2.065  -1.016  -1.623  1.00  0.00     0.060 A 
ATOM      9  C   UNL     1       3.152  -1.663  -2.202  1.00  0.00     0.016 A 
ATOM     10  C   UNL     1       0.782  -1.569  -1.783  1.00  0.00     0.016 A 
ATOM     11  C   UNL     1       2.944  -2.670  -3.124  1.00  0.00     0.010 A 
ATOM     12  C   UNL     1       0.572  -2.620  -2.659  1.00  0.00     0.010 A 
ATOM     13  C   UNL     1       1.645  -3.093  -3.401  1.00  0.00    -0.014 A 
BRANCH  13  14
ATOM     14  C   UNL     1       1.484  -4.109  -4.426  1.00  0.00     0.031 A 
ATOM     15  C   UNL     1       2.244  -5.356  -4.142  1.00  0.00     0.074 A 
ATOM     16  C   UNL     1       0.690  -3.942  -5.502  1.00  0.00     0.049 A 
ATOM     17  N   UNL     1       3.277  -5.815  -4.769  1.00  0.00    -0.248 NA
ATOM     18  C   UNL     1       1.942  -6.070  -2.890  1.00  0.00     0.031 C 
ATOM     19  C   UNL     1      -0.273  -2.872  -5.776  1.00  0.00     0.029 A 
ATOM     20  N   UNL     1       0.528  -4.767  -6.571  1.00  0.00    -0.354 N 
ATOM     21  C   UNL     1       3.615  -7.004  -4.127  1.00  0.00     0.074 A 
ATOM     22  C   UNL     1       2.883  -7.015  -2.889  1.00  0.00     0.031 C 
ATOM     23  C   UNL     1      -1.081  -3.244  -6.797  1.00  0.00     0.029 A 
ATOM     24  C   UNL     1      -0.595  -4.497  -7.346  1.00  0.00     0.049 A 
ATOM     25  H   UNL     1       1.155  -5.497  -6.779  1.00  0.00     0.167 HD
ATOM     26  C   UNL     1       4.293  -7.989  -4.778  1.00  0.00     0.037 A 
ATOM     27  C   UNL     1      -1.103  -5.292  -8.325  1.00  0.00     0.037 A 
ATOM     28  C   UNL     1       4.964  -7.472  -5.943  1.00  0.00     0.049 A 
ATOM     29  C   UNL     1       0.003  -6.187  -8.764  1.00  0.00     0.074 A 
ATOM     30  C   UNL     1       5.955  -6.531  -6.147  1.00  0.00     0.029 A 
ATOM     31  N   UNL     1       4.357  -7.651  -7.162  1.00  0.00    -0.354 N 
ATOM     32  N   UNL     1       1.082  -5.757  -9.365  1.00  0.00    -0.248 NA
ATOM     33  C   UNL     1       0.134  -7.470  -8.089  1.00  0.00     0.031 C 
ATOM     34  C   UNL     1       5.562  -5.839  -7.329  1.00  0.00     0.029 A 
ATOM     35  C   UNL     1       4.407  -6.450  -7.822  1.00  0.00     0.049 A 
ATOM     36  H   UNL     1       3.960  -8.486  -7.500  1.00  0.00     0.167 HD
ATOM     37  C   UNL     1       2.119  -6.486  -8.800  1.00  0.00     0.074 A 
ATOM     38  C   UNL     1       1.466  -7.564  -8.057  1.00  0.00     0.031 C 
ATOM     39  C   UNL     1       3.391  -5.994  -8.745  1.00  0.00     0.037 A 
BRANCH  26  40
ATOM     40  C   UNL     1       4.034  -9.463  -4.580  1.00  0.00     0.058 A 
ATOM     41  C   UNL     1       4.860 -10.403  -5.232  1.00  0.00     0.135 A 
ATOM     42  C   UNL     1       2.843  -9.983  -4.026  1.00  0.00     0.135 A 
ATOM     43  F   UNL     1       6.017 -10.022  -5.798  1.00  0.00    -0.206 F 
ATOM     44  C   UNL     1       4.489 -11.739  -5.393  1.00  0.00     0.059 A 
ATOM     45  C   UNL     1       2.479 -11.319  -4.132  1.00  0.00     0.059 A 
ATOM     46  F   UNL     1       1.925  -9.207  -3.439  1.00  0.00    -0.206 F 
ATOM     47  C   UNL     1       3.286 -12.182  -4.853  1.00  0.00     0.060 A 
BRANCH  47  48
ATOM     48  S   UNL     1       2.755 -13.877  -5.144  1.00  0.00     0.124 S 
ATOM     49  O   UNL     1       2.495 -13.858  -6.578  1.00  0.00    -0.237 OA
ATOM     50  O   UNL     1       3.925 -14.636  -4.714  1.00  0.00    -0.237 OA
ATOM     51  O   UNL     1       1.579 -14.011  -4.289  1.00  0.00    -0.744 OA
ENDBRANCH  47  48
ENDBRANCH  26  40
BRANCH  27  52
ATOM     52  C   UNL     1      -2.539  -5.613  -8.570  1.00  0.00     0.058 A 
ATOM     53  C   UNL     1      -2.955  -6.285  -9.735  1.00  0.00     0.135 A 
ATOM     54  C   UNL     1      -3.495  -5.526  -7.536  1.00  0.00     0.135 A 
ATOM     55  F   UNL     1      -2.106  -6.439 -10.762  1.00  0.00    -0.206 F 
ATOM     56  C   UNL     1      -4.224  -6.871  -9.851  1.00  0.00     0.059 A 
ATOM     57  C   UNL     1      -4.765  -6.096  -7.630  1.00  0.00     0.059 A 
ATOM     58  F   UNL     1      -3.189  -4.960  -6.359  1.00  0.00    -0.206 F 
ATOM     59  C   UNL     1      -5.117  -6.788  -8.782  1.00  0.00     0.060 A 
BRANCH  59  60
ATOM     60  S   UNL     1      -6.689  -7.683  -8.855  1.00  0.00     0.124 S 
ATOM     61  O   UNL     1      -7.420  -6.928  -9.867  1.00  0.00    -0.237 OA
ATOM     62  O   UNL     1      -6.266  -9.024  -9.243  1.00  0.00    -0.237 OA
ATOM     63  O   UNL     1      -7.209  -7.566  -7.494  1.00  0.00    -0.744 OA
ENDBRANCH  59  60
ENDBRANCH  27  52
BRANCH  39  64
ATOM     64  C   UNL     1       3.730  -4.760  -9.541  1.00  0.00     0.058 A 
ATOM     65  C   UNL     1       3.229  -3.472  -9.274  1.00  0.00     0.135 A 
ATOM     66  C   UNL     1       4.772  -4.861 -10.475  1.00  0.00     0.135 A 
ATOM     67  F   UNL     1       2.296  -3.278  -8.332  1.00  0.00    -0.206 F 
ATOM     68  C   UNL     1       3.739  -2.340  -9.917  1.00  0.00     0.059 A 
ATOM     69  C   UNL     1       5.314  -3.746 -11.104  1.00  0.00     0.059 A 
ATOM     70  F   UNL     1       5.330  -6.057 -10.729  1.00  0.00    -0.206 F 
ATOM     71  C   UNL     1       4.790  -2.486 -10.823  1.00  0.00     0.060 A 
BRANCH  71  72
ATOM     72  S   UNL     1       5.533  -1.017 -11.569  1.00  0.00     0.124 S 
ATOM     73  O   UNL     1       4.488  -0.578 -12.488  1.00  0.00    -0.237 OA
ATOM     74  O   UNL     1       5.765  -0.157 -10.412  1.00  0.00    -0.237 OA
ATOM     75  O   UNL     1       6.745  -1.531 -12.203  1.00  0.00    -0.744 OA
ENDBRANCH  71  72
ENDBRANCH  39  64
ENDBRANCH  13  14
ENDBRANCH   6   8
ENDBRANCH   5   6
ENDBRANCH   4   5
ENDBRANCH   3   4
ENDBRANCH   2   3
ENDBRANCH   1   2
BRANCH   1  76
ATOM     76  C   UNL     1       3.209   0.060   3.297  1.00  0.00     0.261 C 
BRANCH  76  77
ATOM     77  O   UNL     1       3.512   1.467   3.207  1.00  0.00    -0.460 OA
BRANCH  77  78
ATOM     78  C   UNL     1       4.782   1.814   3.544  1.00  0.00     0.338 C 
ATOM     79  O   UNL     1       5.634   1.107   4.033  1.00  0.00    -0.246 OA
BRANCH  78  80
ATOM     80  C   UNL     1       5.068   3.159   2.989  1.00  0.00     0.060 A 
ATOM     81  C   UNL     1       6.143   3.269   2.094  1.00  0.00     0.018 A 
ATOM     82  C   UNL     1       4.319   4.286   3.341  1.00  0.00     0.018 A 
ATOM     83  C   UNL     1       6.473   4.501   1.540  1.00  0.00     0.029 A 
ATOM     84  C   UNL     1       4.663   5.535   2.807  1.00  0.00     0.029 A 
ATOM     85  C   UNL     1       5.733   5.627   1.901  1.00  0.00     0.066 A 
BRANCH  85  86
ATOM     86  N   UNL     1       6.274   6.880   1.577  1.00  0.00    -0.220 N 
ATOM     87  C   UNL     1       7.276   7.482   2.297  1.00  0.00     0.141 A 
ATOM     88  N   UNL     1       5.733   7.757   0.719  1.00  0.00    -0.062 NA
ATOM     89  C   UNL     1       7.318   8.784   1.869  1.00  0.00     0.093 A 
ATOM     90  N   UNL     1       6.399   8.903   0.842  1.00  0.00    -0.134 NA
BRANCH  89  91
ATOM     91  C   UNL     1       7.853  10.024   2.488  1.00  0.00     0.138 C 
BRANCH  91  92
ATOM     92  S   UNL     1       9.530  10.343   3.011  1.00  0.00    -0.081 SA
BRANCH  92  93
ATOM     93  C   UNL     1      10.481   8.942   3.405  1.00  0.00     0.176 A 
ATOM     94  N   UNL     1      11.729   9.105   3.069  1.00  0.00    -0.223 NA
ATOM     95  N   UNL     1      10.045   7.771   4.002  1.00  0.00    -0.255 N 
ATOM     96  C   UNL     1      12.599   8.015   3.170  1.00  0.00     0.079 A 
ATOM     97  C   UNL     1      10.652   6.618   3.480  1.00  0.00     0.266 A 
ATOM     98  C   UNL     1      13.982   8.183   3.125  1.00  0.00     0.029 A 
ATOM     99  C   UNL     1      12.085   6.728   3.180  1.00  0.00     0.066 A 
ATOM    100  O   UNL     1      10.088   5.553   3.232  1.00  0.00    -0.268 OA
ATOM    101  C   UNL     1      14.822   7.069   3.009  1.00  0.00     0.002 A 
ATOM    102  C   UNL     1      12.901   5.609   2.998  1.00  0.00     0.016 A 
ATOM    103  C   UNL     1      14.279   5.786   2.901  1.00  0.00     0.001 A 
BRANCH  95 104
ATOM    104  C   UNL     1       9.007   7.607   5.003  1.00  0.00     0.051 A 
ATOM    105  C   UNL     1       8.803   6.344   5.600  1.00  0.00     0.027 A 
ATOM    106  C   UNL     1       8.130   8.616   5.407  1.00  0.00     0.027 A 
ATOM    107  C   UNL     1       7.656   6.048   6.341  1.00  0.00     0.002 A 
ATOM    108  C   UNL     1       6.939   8.314   6.085  1.00  0.00     0.002 A 
ATOM    109  C   UNL     1       6.686   7.020   6.521  1.00  0.00     0.000 A 
ENDBRANCH  95 104
ENDBRANCH  92  93
ENDBRANCH  91  92
ENDBRANCH  89  91
ENDBRANCH  85  86
ENDBRANCH  78  80
ENDBRANCH  77  78
ENDBRANCH  76  77
ENDBRANCH   1  76
TORSDOF 22
