REMARK SMILES CCN1C(=O)[C@@H](CC(=O)Nc2cccc(C(=O)OCCOCCOC(=O)c3ccc(-c4c5nc(c(-c6c(F)cc(S(=O)(=O)[O-])cc6F)c6ccc([nH]6)c(-c6c(F)cc(S(=O)(=O)[O-])cc6F)c6nc(c(-c7c(F)cc(S(=O)(=O)[O-])cc7F)c7ccc4[nH]7)C=C6)C=C5)cc3)c2)S/C1=[NH+]\c1cc(Cl)c(O)c(Cl)c1
REMARK SMILES IDX 20 1 19 2 18 3 16 4 17 5 15 6 11 7 12 8 93 9 13 10 14 11
REMARK SMILES IDX 10 12 8 13 9 14 7 16 6 17 3 18 4 19 95 20 5 21 94 22 96 23
REMARK SMILES IDX 2 25 1 26 97 27 98 28 105 29 99 30 103 31 100 32 101 33
REMARK SMILES IDX 104 34 102 35 21 37 22 38 23 39 24 40 25 41 26 42 27 43
REMARK SMILES IDX 28 44 92 45 29 46 91 47 30 48 31 49 32 50 85 51 33 52 90 53
REMARK SMILES IDX 84 54 86 55 34 56 89 57 83 58 82 59 35 61 69 62 48 63 68 64
REMARK SMILES IDX 49 65 52 66 67 67 87 68 50 69 51 70 66 72 88 73 53 74 36 75
REMARK SMILES IDX 37 76 46 77 38 78 39 79 45 80 47 81 40 82 41 83 42 84 43 85
REMARK SMILES IDX 44 86 70 87 71 88 80 89 72 90 73 91 79 92 81 93 74 94 75 95
REMARK SMILES IDX 76 96 77 97 78 98 54 99 55 100 64 101 56 102 57 103 63 104
REMARK SMILES IDX 65 105 58 106 59 107 60 108 61 109 62 110
REMARK H PARENT 10 15 96 24 102 36 86 60 52 71
REMARK Flexibility Score: inf
ROOT
ATOM      1  C   UNL     1       3.262   3.104   1.911  1.00  0.00     0.202 C 
ENDROOT
BRANCH   1   2
ATOM      2  C   UNL     1       1.819   2.532   2.115  1.00  0.00     0.261 C 
BRANCH   2   3
ATOM      3  O   UNL     1       0.792   3.207   1.306  1.00  0.00    -0.460 OA
BRANCH   3   4
ATOM      4  C   UNL     1      -0.529   2.844   1.372  1.00  0.00     0.338 C 
ATOM      5  O   UNL     1      -0.999   2.145   2.256  1.00  0.00    -0.246 OA
BRANCH   4   6
ATOM      6  C   UNL     1      -1.408   3.446   0.265  1.00  0.00     0.062 A 
ATOM      7  C   UNL     1      -1.911   3.973  -2.118  1.00  0.00     0.042 A 
ATOM      8  C   UNL     1      -2.892   4.862  -1.662  1.00  0.00     0.026 A 
ATOM      9  C   UNL     1      -1.284   3.194  -1.139  1.00  0.00     0.041 A 
ATOM     10  C   UNL     1      -3.138   5.038  -0.293  1.00  0.00     0.003 A 
ATOM     11  C   UNL     1      -2.379   4.360   0.667  1.00  0.00     0.016 A 
BRANCH   7  12
ATOM     12  N   UNL     1      -1.563   4.104  -3.494  1.00  0.00    -0.326 N 
ATOM     13  C   UNL     1      -0.617   3.707  -4.395  1.00  0.00     0.226 C 
ATOM     14  O   UNL     1      -0.584   4.361  -5.448  1.00  0.00    -0.275 OA
ATOM     15  H   UNL     1      -2.229   4.670  -3.947  1.00  0.00     0.169 HD
BRANCH  13  16
ATOM     16  C   UNL     1       0.337   2.548  -4.263  1.00  0.00     0.128 C 
BRANCH  16  17
ATOM     17  C   UNL     1       1.851   2.859  -4.099  1.00  0.00     0.183 C 
ATOM     18  N   UNL     1       1.923   2.324  -1.813  1.00  0.00    -0.190 N 
ATOM     19  C   UNL     1       2.332   1.877  -3.066  1.00  0.00     0.324 C 
ATOM     20  C   UNL     1       1.731   3.732  -1.765  1.00  0.00     0.319 C 
ATOM     21  O   UNL     1       2.790   0.775  -3.329  1.00  0.00    -0.245 OA
ATOM     22  S   UNL     1       2.280   4.412  -3.278  1.00  0.00    -0.022 SA
ATOM     23  N   UNL     1       1.138   4.434  -0.850  1.00  0.00    -0.235 N 
ATOM     24  H   UNL     1       0.957   3.941  -0.018  1.00  0.00     0.313 HD
BRANCH  18  25
ATOM     25  C   UNL     1       1.308   1.231  -1.018  1.00  0.00     0.243 C 
ATOM     26  C   UNL     1       2.051  -0.064  -0.714  1.00  0.00     0.054 C 
ENDBRANCH  18  25
BRANCH  23  27
ATOM     27  C   UNL     1       0.695   5.806  -0.830  1.00  0.00     0.128 A 
ATOM     28  C   UNL     1       0.425   6.385   0.430  1.00  0.00     0.076 A 
ATOM     29  C   UNL     1       0.257   6.575  -1.913  1.00  0.00     0.076 A 
ATOM     30  C   UNL     1      -0.043   7.691   0.621  1.00  0.00     0.088 A 
ATOM     31  C   UNL     1      -0.323   7.854  -1.735  1.00  0.00     0.088 A 
ATOM     32  Cl  UNL     1      -0.158   8.305   2.232  1.00  0.00    -0.080 Cl
ATOM     33  C   UNL     1      -0.433   8.437  -0.473  1.00  0.00     0.153 A 
ATOM     34  Cl  UNL     1      -0.993   8.672  -3.102  1.00  0.00    -0.080 Cl
BRANCH  33  35
ATOM     35  O   UNL     1      -0.965   9.685  -0.290  1.00  0.00    -0.505 OA
ATOM     36  H   UNL     1      -1.024  10.048   0.571  1.00  0.00     0.293 HD
ENDBRANCH  33  35
ENDBRANCH  23  27
ENDBRANCH  16  17
ENDBRANCH  13  16
ENDBRANCH   7  12
ENDBRANCH   4   6
ENDBRANCH   3   4
ENDBRANCH   2   3
ENDBRANCH   1   2
BRANCH   1  37
ATOM     37  O   UNL     1       3.569   4.280   2.686  1.00  0.00    -0.374 OA
BRANCH  37  38
ATOM     38  C   UNL     1       2.909   5.435   2.188  1.00  0.00     0.202 C 
BRANCH  38  39
ATOM     39  C   UNL     1       3.784   6.507   1.541  1.00  0.00     0.261 C 
BRANCH  39  40
ATOM     40  O   UNL     1       4.491   5.965   0.418  1.00  0.00    -0.460 OA
BRANCH  40  41
ATOM     41  C   UNL     1       5.755   5.606   0.708  1.00  0.00     0.338 C 
ATOM     42  O   UNL     1       6.350   5.768   1.772  1.00  0.00    -0.246 OA
BRANCH  41  43
ATOM     43  C   UNL     1       6.347   4.881  -0.418  1.00  0.00     0.060 A 
ATOM     44  C   UNL     1       6.996   3.679  -0.124  1.00  0.00     0.016 A 
ATOM     45  C   UNL     1       6.372   5.421  -1.707  1.00  0.00     0.016 A 
ATOM     46  C   UNL     1       7.737   3.040  -1.109  1.00  0.00     0.010 A 
ATOM     47  C   UNL     1       7.112   4.774  -2.697  1.00  0.00     0.010 A 
ATOM     48  C   UNL     1       7.829   3.604  -2.388  1.00  0.00    -0.014 A 
BRANCH  48  49
ATOM     49  C   UNL     1       8.756   3.019  -3.380  1.00  0.00     0.031 A 
ATOM     50  C   UNL     1      10.067   3.701  -3.652  1.00  0.00     0.074 A 
ATOM     51  C   UNL     1       8.416   1.884  -4.014  1.00  0.00     0.049 A 
ATOM     52  N   UNL     1      10.988   3.401  -4.529  1.00  0.00    -0.248 NA
ATOM     53  C   UNL     1      10.380   4.882  -2.830  1.00  0.00     0.031 C 
ATOM     54  C   UNL     1       7.182   1.132  -3.787  1.00  0.00     0.029 A 
ATOM     55  N   UNL     1       9.069   1.175  -4.987  1.00  0.00    -0.354 N 
ATOM     56  C   UNL     1      11.984   4.359  -4.375  1.00  0.00     0.074 A 
ATOM     57  C   UNL     1      11.543   5.266  -3.338  1.00  0.00     0.031 C 
ATOM     58  C   UNL     1       7.159   0.072  -4.611  1.00  0.00     0.029 A 
ATOM     59  C   UNL     1       8.353   0.099  -5.452  1.00  0.00     0.049 A 
ATOM     60  H   UNL     1       9.964   1.414  -5.321  1.00  0.00     0.167 HD
ATOM     61  C   UNL     1      13.160   4.462  -5.039  1.00  0.00     0.037 A 
ATOM     62  C   UNL     1       8.618  -0.745  -6.467  1.00  0.00     0.037 A 
ATOM     63  C   UNL     1      13.573   3.544  -6.069  1.00  0.00     0.049 A 
ATOM     64  C   UNL     1       9.895  -0.564  -7.243  1.00  0.00     0.074 A 
ATOM     65  C   UNL     1      14.753   3.533  -6.790  1.00  0.00     0.029 A 
ATOM     66  N   UNL     1      12.811   2.480  -6.533  1.00  0.00    -0.354 N 
ATOM     67  N   UNL     1      10.847   0.323  -7.067  1.00  0.00    -0.248 NA
ATOM     68  C   UNL     1      10.135  -1.490  -8.357  1.00  0.00     0.031 C 
ATOM     69  C   UNL     1      14.677   2.503  -7.732  1.00  0.00     0.029 A 
ATOM     70  C   UNL     1      13.477   1.831  -7.558  1.00  0.00     0.049 A 
ATOM     71  H   UNL     1      11.926   2.225  -6.184  1.00  0.00     0.167 HD
ATOM     72  C   UNL     1      11.807   0.051  -8.035  1.00  0.00     0.074 A 
ATOM     73  C   UNL     1      11.328  -1.095  -8.782  1.00  0.00     0.031 C 
ATOM     74  C   UNL     1      12.977   0.689  -8.286  1.00  0.00     0.037 A 
BRANCH  61  75
ATOM     75  C   UNL     1      14.065   5.617  -4.699  1.00  0.00     0.058 A 
ATOM     76  C   UNL     1      14.745   5.693  -3.473  1.00  0.00     0.135 A 
ATOM     77  C   UNL     1      14.289   6.642  -5.633  1.00  0.00     0.135 A 
ATOM     78  F   UNL     1      14.559   4.750  -2.536  1.00  0.00    -0.206 F 
ATOM     79  C   UNL     1      15.595   6.755  -3.176  1.00  0.00     0.059 A 
ATOM     80  C   UNL     1      15.157   7.699  -5.369  1.00  0.00     0.059 A 
ATOM     81  F   UNL     1      13.664   6.623  -6.821  1.00  0.00    -0.206 F 
ATOM     82  C   UNL     1      15.796   7.753  -4.132  1.00  0.00     0.060 A 
BRANCH  82  83
ATOM     83  S   UNL     1      16.911   9.117  -3.734  1.00  0.00     0.124 S 
ATOM     84  O   UNL     1      16.139   9.840  -2.728  1.00  0.00    -0.237 OA
ATOM     85  O   UNL     1      18.094   8.418  -3.242  1.00  0.00    -0.237 OA
ATOM     86  O   UNL     1      17.077   9.806  -5.010  1.00  0.00    -0.744 OA
ENDBRANCH  82  83
ENDBRANCH  61  75
BRANCH  62  87
ATOM     87  C   UNL     1       7.642  -1.812  -6.816  1.00  0.00     0.058 A 
ATOM     88  C   UNL     1       7.945  -3.166  -6.615  1.00  0.00     0.135 A 
ATOM     89  C   UNL     1       6.376  -1.496  -7.335  1.00  0.00     0.135 A 
ATOM     90  F   UNL     1       9.144  -3.520  -6.128  1.00  0.00    -0.206 F 
ATOM     91  C   UNL     1       7.034  -4.170  -6.927  1.00  0.00     0.059 A 
ATOM     92  C   UNL     1       5.437  -2.480  -7.627  1.00  0.00     0.059 A 
ATOM     93  F   UNL     1       6.030  -0.215  -7.536  1.00  0.00    -0.206 F 
ATOM     94  C   UNL     1       5.779  -3.816  -7.428  1.00  0.00     0.060 A 
BRANCH  94  95
ATOM     95  S   UNL     1       4.588  -5.126  -7.783  1.00  0.00     0.124 S 
ATOM     96  O   UNL     1       5.179  -5.750  -8.961  1.00  0.00    -0.237 OA
ATOM     97  O   UNL     1       4.626  -5.915  -6.555  1.00  0.00    -0.237 OA
ATOM     98  O   UNL     1       3.344  -4.397  -8.013  1.00  0.00    -0.744 OA
ENDBRANCH  94  95
ENDBRANCH  62  87
BRANCH  74  99
ATOM     99  C   UNL     1      13.832   0.157  -9.403  1.00  0.00     0.058 A 
ATOM    100  C   UNL     1      13.480   0.343 -10.748  1.00  0.00     0.135 A 
ATOM    101  C   UNL     1      15.057  -0.470  -9.124  1.00  0.00     0.135 A 
ATOM    102  F   UNL     1      12.315   0.927 -11.069  1.00  0.00    -0.206 F 
ATOM    103  C   UNL     1      14.310  -0.082 -11.780  1.00  0.00     0.059 A 
ATOM    104  C   UNL     1      15.917  -0.876 -10.140  1.00  0.00     0.059 A 
ATOM    105  F   UNL     1      15.444  -0.666  -7.853  1.00  0.00    -0.206 F 
ATOM    106  C   UNL     1      15.532  -0.681 -11.465  1.00  0.00     0.060 A 
BRANCH 106 107
ATOM    107  S   UNL     1      16.627  -1.165 -12.816  1.00  0.00     0.124 S 
ATOM    108  O   UNL     1      15.912  -2.304 -13.382  1.00  0.00    -0.237 OA
ATOM    109  O   UNL     1      16.654   0.040 -13.640  1.00  0.00    -0.237 OA
ATOM    110  O   UNL     1      17.881  -1.484 -12.140  1.00  0.00    -0.744 OA
ENDBRANCH 106 107
ENDBRANCH  74  99
ENDBRANCH  48  49
ENDBRANCH  41  43
ENDBRANCH  40  41
ENDBRANCH  39  40
ENDBRANCH  38  39
ENDBRANCH  37  38
ENDBRANCH   1  37
TORSDOF 23
