REMARK SMILES C[C@H](NC(=O)OCc1ccccc1)C(=O)NCC(=O)N1CCC[C@H]1C(=O)OCCOCCOC(=O)c1ccc(-c2c3nc(c(-c4c(F)cc(S(=O)(=O)[O-])cc4F)c4ccc([nH]4)c(-c4c(F)cc(S(=O)(=O)[O-])cc4F)c4nc(c(-c5c(F)cc(S(=O)(=O)[O-])cc5F)c5ccc2[nH]5)C=C4)C=C3)cc1
REMARK SMILES IDX 28 1 27 2 25 3 26 4 24 5 20 6 21 7 22 8 23 9 18 10 19 11
REMARK SMILES IDX 17 12 16 13 14 14 15 15 2 17 1 18 3 19 4 20 5 22 6 23 7 24
REMARK SMILES IDX 8 25 9 26 13 27 10 28 12 29 11 30 29 31 30 32 31 33 32 34
REMARK SMILES IDX 33 35 34 36 35 37 36 38 37 39 101 40 38 41 100 42 39 43
REMARK SMILES IDX 40 44 41 45 94 46 42 47 99 48 93 49 95 50 43 51 98 52 92 53
REMARK SMILES IDX 91 54 44 56 78 57 57 58 77 59 58 60 61 61 76 62 96 63 59 64
REMARK SMILES IDX 60 65 75 67 97 68 62 69 45 70 46 71 55 72 47 73 48 74 54 75
REMARK SMILES IDX 56 76 49 77 50 78 51 79 52 80 53 81 79 82 80 83 89 84 81 85
REMARK SMILES IDX 82 86 88 87 90 88 83 89 84 90 85 91 86 92 87 93 63 94 64 95
REMARK SMILES IDX 73 96 65 97 66 98 72 99 74 100 67 101 68 102 69 103 70 104
REMARK SMILES IDX 71 105
REMARK H PARENT 16 16 3 21 95 55 61 66
REMARK Flexibility Score: inf
ROOT
ATOM      1  C   UNL     1      -3.299  -2.576   5.718  1.00  0.00     0.261 C 
ENDROOT
BRANCH   1   2
ATOM      2  O   UNL     1      -2.396  -2.417   4.622  1.00  0.00    -0.462 OA
BRANCH   2   3
ATOM      3  C   UNL     1      -2.200  -1.142   4.199  1.00  0.00     0.328 C 
ATOM      4  O   UNL     1      -2.921  -0.186   4.462  1.00  0.00    -0.250 OA
BRANCH   3   5
ATOM      5  C   UNL     1      -0.921  -1.056   3.356  1.00  0.00     0.195 C 
ATOM      6  N   UNL     1      -1.251  -0.924   1.949  1.00  0.00    -0.327 N 
ATOM      7  C   UNL     1      -1.463   0.479   1.658  1.00  0.00     0.120 C 
ATOM      8  C   UNL     1      -0.483   1.205   2.575  1.00  0.00     0.024 C 
ATOM      9  C   UNL     1      -0.165   0.228   3.707  1.00  0.00     0.039 C 
BRANCH   6  10
ATOM     10  C   UNL     1      -1.354  -2.068   1.197  1.00  0.00     0.242 C 
ATOM     11  O   UNL     1      -1.222  -3.176   1.738  1.00  0.00    -0.273 OA
BRANCH  10  12
ATOM     12  C   UNL     1      -1.527  -2.056  -0.328  1.00  0.00     0.216 C 
BRANCH  12  13
ATOM     13  N   UNL     1      -1.766  -0.836  -1.060  1.00  0.00    -0.345 N 
ATOM     14  C   UNL     1      -0.899   0.003  -1.686  1.00  0.00     0.242 C 
ATOM     15  O   UNL     1      -1.393   0.935  -2.331  1.00  0.00    -0.273 OA
ATOM     16  H   UNL     1      -2.711  -0.567  -1.116  1.00  0.00     0.164 HD
BRANCH  14  17
ATOM     17  C   UNL     1       0.636  -0.182  -1.663  1.00  0.00     0.171 C 
ATOM     18  C   UNL     1       1.101  -1.196  -2.694  1.00  0.00     0.042 C 
BRANCH  17  19
ATOM     19  N   UNL     1       1.208  -0.281  -0.322  1.00  0.00    -0.310 N 
ATOM     20  C   UNL     1       1.676  -1.332   0.397  1.00  0.00     0.408 C 
ATOM     21  H   UNL     1       1.266   0.581   0.151  1.00  0.00     0.167 HD
ATOM     22  O   UNL     1       1.981  -1.183   1.576  1.00  0.00    -0.225 OA
BRANCH  20  23
ATOM     23  O   UNL     1       1.762  -2.480  -0.304  1.00  0.00    -0.445 OA
BRANCH  23  24
ATOM     24  C   UNL     1       2.259  -3.619   0.418  1.00  0.00     0.270 C 
BRANCH  24  25
ATOM     25  C   UNL     1       3.716  -3.471   0.787  1.00  0.00    -0.011 A 
ATOM     26  C   UNL     1       4.168  -3.919   2.035  1.00  0.00     0.007 A 
ATOM     27  C   UNL     1       4.627  -2.861  -0.088  1.00  0.00     0.007 A 
ATOM     28  C   UNL     1       5.491  -3.710   2.423  1.00  0.00     0.000 A 
ATOM     29  C   UNL     1       5.948  -2.645   0.305  1.00  0.00     0.000 A 
ATOM     30  C   UNL     1       6.376  -3.062   1.564  1.00  0.00     0.000 A 
ENDBRANCH  24  25
ENDBRANCH  23  24
ENDBRANCH  20  23
ENDBRANCH  17  19
ENDBRANCH  14  17
ENDBRANCH  12  13
ENDBRANCH  10  12
ENDBRANCH   6  10
ENDBRANCH   3   5
ENDBRANCH   2   3
ENDBRANCH   1   2
BRANCH   1  31
ATOM     31  C   UNL     1      -2.577  -3.268   6.874  1.00  0.00     0.202 C 
BRANCH  31  32
ATOM     32  O   UNL     1      -1.419  -2.626   7.411  1.00  0.00    -0.374 OA
BRANCH  32  33
ATOM     33  C   UNL     1      -0.222  -2.612   6.635  1.00  0.00     0.202 C 
BRANCH  33  34
ATOM     34  C   UNL     1       0.537  -3.926   6.388  1.00  0.00     0.261 C 
BRANCH  34  35
ATOM     35  O   UNL     1      -0.225  -4.923   5.692  1.00  0.00    -0.460 OA
BRANCH  35  36
ATOM     36  C   UNL     1      -0.635  -5.959   6.467  1.00  0.00     0.338 C 
ATOM     37  O   UNL     1      -0.415  -6.122   7.655  1.00  0.00    -0.246 OA
BRANCH  36  38
ATOM     38  C   UNL     1      -1.577  -6.804   5.713  1.00  0.00     0.060 A 
ATOM     39  C   UNL     1      -2.880  -6.943   6.213  1.00  0.00     0.016 A 
ATOM     40  C   UNL     1      -1.164  -7.522   4.592  1.00  0.00     0.016 A 
ATOM     41  C   UNL     1      -3.768  -7.828   5.610  1.00  0.00     0.010 A 
ATOM     42  C   UNL     1      -2.053  -8.421   3.996  1.00  0.00     0.010 A 
ATOM     43  C   UNL     1      -3.347  -8.601   4.522  1.00  0.00    -0.014 A 
BRANCH  43  44
ATOM     44  C   UNL     1      -4.204  -9.701   4.020  1.00  0.00     0.031 A 
ATOM     45  C   UNL     1      -3.863 -11.116   4.395  1.00  0.00     0.074 A 
ATOM     46  C   UNL     1      -5.269  -9.440   3.241  1.00  0.00     0.049 A 
ATOM     47  N   UNL     1      -4.411 -12.234   3.997  1.00  0.00    -0.248 NA
ATOM     48  C   UNL     1      -2.748 -11.293   5.339  1.00  0.00     0.031 C 
ATOM     49  C   UNL     1      -5.719  -8.106   2.849  1.00  0.00     0.029 A 
ATOM     50  N   UNL     1      -6.153 -10.290   2.626  1.00  0.00    -0.354 N 
ATOM     51  C   UNL     1      -3.695 -13.248   4.623  1.00  0.00     0.074 A 
ATOM     52  C   UNL     1      -2.658 -12.613   5.407  1.00  0.00     0.031 C 
ATOM     53  C   UNL     1      -6.785  -8.228   2.039  1.00  0.00     0.029 A 
ATOM     54  C   UNL     1      -7.063  -9.647   1.823  1.00  0.00     0.049 A 
ATOM     55  H   UNL     1      -6.136 -11.267   2.748  1.00  0.00     0.167 HD
ATOM     56  C   UNL     1      -3.889 -14.587   4.550  1.00  0.00     0.037 A 
ATOM     57  C   UNL     1      -7.990 -10.147   0.982  1.00  0.00     0.037 A 
ATOM     58  C   UNL     1      -4.926 -15.204   3.765  1.00  0.00     0.049 A 
ATOM     59  C   UNL     1      -8.149 -11.640   0.865  1.00  0.00     0.074 A 
ATOM     60  C   UNL     1      -5.229 -16.549   3.646  1.00  0.00     0.029 A 
ATOM     61  N   UNL     1      -5.822 -14.520   2.954  1.00  0.00    -0.354 N 
ATOM     62  N   UNL     1      -7.485 -12.591   1.480  1.00  0.00    -0.248 NA
ATOM     63  C   UNL     1      -9.183 -12.131  -0.057  1.00  0.00     0.031 C 
ATOM     64  C   UNL     1      -6.261 -16.683   2.713  1.00  0.00     0.029 A 
ATOM     65  C   UNL     1      -6.654 -15.418   2.305  1.00  0.00     0.049 A 
ATOM     66  H   UNL     1      -5.859 -13.542   2.854  1.00  0.00     0.167 HD
ATOM     67  C   UNL     1      -8.041 -13.790   1.044  1.00  0.00     0.074 A 
ATOM     68  C   UNL     1      -9.098 -13.444   0.116  1.00  0.00     0.031 C 
ATOM     69  C   UNL     1      -7.710 -15.059   1.388  1.00  0.00     0.037 A 
BRANCH  56  70
ATOM     70  C   UNL     1      -2.933 -15.473   5.302  1.00  0.00     0.058 A 
ATOM     71  C   UNL     1      -2.909 -15.527   6.705  1.00  0.00     0.135 A 
ATOM     72  C   UNL     1      -2.037 -16.300   4.604  1.00  0.00     0.135 A 
ATOM     73  F   UNL     1      -3.732 -14.748   7.426  1.00  0.00    -0.206 F 
ATOM     74  C   UNL     1      -2.008 -16.338   7.388  1.00  0.00     0.059 A 
ATOM     75  C   UNL     1      -1.150 -17.145   5.266  1.00  0.00     0.059 A 
ATOM     76  F   UNL     1      -2.014 -16.291   3.262  1.00  0.00    -0.206 F 
ATOM     77  C   UNL     1      -1.131 -17.142   6.659  1.00  0.00     0.060 A 
BRANCH  77  78
ATOM     78  S   UNL     1       0.039 -18.181   7.559  1.00  0.00     0.124 S 
ATOM     79  O   UNL     1       0.964 -17.184   8.090  1.00  0.00    -0.237 OA
ATOM     80  O   UNL     1      -0.818 -18.836   8.542  1.00  0.00    -0.237 OA
ATOM     81  O   UNL     1       0.586 -19.055   6.526  1.00  0.00    -0.744 OA
ENDBRANCH  77  78
ENDBRANCH  56  70
BRANCH  57  82
ATOM     82  C   UNL     1      -8.826  -9.218   0.175  1.00  0.00     0.058 A 
ATOM     83  C   UNL     1     -10.195  -9.064   0.431  1.00  0.00     0.135 A 
ATOM     84  C   UNL     1      -8.261  -8.438  -0.848  1.00  0.00     0.135 A 
ATOM     85  F   UNL     1     -10.785  -9.795   1.389  1.00  0.00    -0.206 F 
ATOM     86  C   UNL     1     -10.977  -8.172  -0.297  1.00  0.00     0.059 A 
ATOM     87  C   UNL     1      -9.015  -7.520  -1.571  1.00  0.00     0.059 A 
ATOM     88  F   UNL     1      -6.952  -8.541  -1.127  1.00  0.00    -0.206 F 
ATOM     89  C   UNL     1     -10.374  -7.397  -1.290  1.00  0.00     0.060 A 
BRANCH  89  90
ATOM     90  S   UNL     1     -11.383  -6.187  -2.174  1.00  0.00     0.124 S 
ATOM     91  O   UNL     1     -12.232  -7.050  -2.987  1.00  0.00    -0.237 OA
ATOM     92  O   UNL     1     -12.045  -5.486  -1.079  1.00  0.00    -0.237 OA
ATOM     93  O   UNL     1     -10.396  -5.399  -2.908  1.00  0.00    -0.744 OA
ENDBRANCH  89  90
ENDBRANCH  57  82
BRANCH  69  94
ATOM     94  C   UNL     1      -8.524 -16.182   0.800  1.00  0.00     0.058 A 
ATOM     95  C   UNL     1      -8.412 -16.556  -0.547  1.00  0.00     0.135 A 
ATOM     96  C   UNL     1      -9.366 -16.949   1.624  1.00  0.00     0.135 A 
ATOM     97  F   UNL     1      -7.628 -15.854  -1.381  1.00  0.00    -0.206 F 
ATOM     98  C   UNL     1      -9.113 -17.644  -1.060  1.00  0.00     0.059 A 
ATOM     99  C   UNL     1     -10.052 -18.058   1.140  1.00  0.00     0.059 A 
ATOM    100  F   UNL     1      -9.503 -16.641   2.924  1.00  0.00    -0.206 F 
ATOM    101  C   UNL     1      -9.924 -18.394  -0.206  1.00  0.00     0.060 A 
BRANCH 101 102
ATOM    102  S   UNL     1     -10.781 -19.837  -0.872  1.00  0.00     0.124 S 
ATOM    103  O   UNL     1     -11.798 -19.215  -1.713  1.00  0.00    -0.237 OA
ATOM    104  O   UNL     1      -9.712 -20.534  -1.581  1.00  0.00    -0.237 OA
ATOM    105  O   UNL     1     -11.282 -20.517   0.319  1.00  0.00    -0.744 OA
ENDBRANCH 101 102
ENDBRANCH  69  94
ENDBRANCH  43  44
ENDBRANCH  36  38
ENDBRANCH  35  36
ENDBRANCH  34  35
ENDBRANCH  33  34
ENDBRANCH  32  33
ENDBRANCH  31  32
ENDBRANCH   1  31
TORSDOF 25
