REMARK SMILES O=C(C[C@@H]([NH2+]Cc1cccnc1)C(=O)OCCOCCOC(=O)c1ccc(-c2c3nc(c(-c4c(F)cc(S(=O)(=O)[O-])cc4F)c4ccc([nH]4)c(-c4c(F)cc(S(=O)(=O)[O-])cc4F)c4nc(c(-c5c(F)cc(S(=O)(=O)[O-])cc5F)c5ccc2[nH]5)C=C4)C=C3)cc1)Nc1ccc2ccccc2c1
REMARK SMILES IDX 18 1 17 2 16 3 15 4 13 5 14 6 4 7 3 8 2 9 1 10 90 11 91 13
REMARK SMILES IDX 92 14 100 15 93 16 99 17 94 18 98 19 95 20 97 21 96 22 5 23
REMARK SMILES IDX 6 26 7 27 8 28 12 29 9 30 11 31 10 32 19 33 20 34 21 35
REMARK SMILES IDX 22 36 23 37 24 38 25 39 89 40 26 41 88 42 27 43 28 44 29 45
REMARK SMILES IDX 82 46 30 47 87 48 81 49 83 50 31 51 86 52 80 53 79 54 32 56
REMARK SMILES IDX 66 57 45 58 65 59 46 60 49 61 64 62 84 63 47 64 48 65 63 67
REMARK SMILES IDX 85 68 50 69 33 70 34 71 43 72 35 73 36 74 42 75 44 76 37 77
REMARK SMILES IDX 38 78 39 79 40 80 41 81 67 82 68 83 77 84 69 85 70 86 76 87
REMARK SMILES IDX 78 88 71 89 72 90 73 91 74 92 75 93 51 94 52 95 61 96 53 97
REMARK SMILES IDX 54 98 60 99 62 100 55 101 56 102 57 103 58 104 59 105
REMARK H PARENT 90 12 5 24 5 25 83 55 49 66
REMARK Flexibility Score: inf
ROOT
ATOM      1  O   UNL     1       4.359  -3.114  -4.532  1.00  0.00    -0.374 OA
ENDROOT
BRANCH   1   2
ATOM      2  C   UNL     1       5.512  -3.677  -3.917  1.00  0.00     0.202 C 
BRANCH   2   3
ATOM      3  C   UNL     1       6.290  -2.844  -2.885  1.00  0.00     0.261 C 
BRANCH   3   4
ATOM      4  O   UNL     1       5.474  -2.087  -1.981  1.00  0.00    -0.459 OA
BRANCH   4   5
ATOM      5  C   UNL     1       5.194  -0.836  -2.434  1.00  0.00     0.365 C 
ATOM      6  O   UNL     1       5.579  -0.414  -3.522  1.00  0.00    -0.245 OA
BRANCH   5   7
ATOM      7  C   UNL     1       4.262  -0.025  -1.505  1.00  0.00     0.303 C 
BRANCH   7   8
ATOM      8  C   UNL     1       3.759  -0.843  -0.286  1.00  0.00     0.177 C 
BRANCH   8   9
ATOM      9  C   UNL     1       2.757  -0.079   0.577  1.00  0.00     0.231 C 
ATOM     10  O   UNL     1       1.576  -0.398   0.647  1.00  0.00    -0.274 OA
ATOM     11  N   UNL     1       3.341   1.029   1.160  1.00  0.00    -0.326 N 
ATOM     12  H   UNL     1       4.322   1.087   1.103  1.00  0.00     0.169 HD
BRANCH  11  13
ATOM     13  C   UNL     1       2.693   2.080   1.823  1.00  0.00     0.041 A 
ATOM     14  C   UNL     1       3.166   3.365   1.546  1.00  0.00     0.027 A 
ATOM     15  C   UNL     1       1.676   1.899   2.758  1.00  0.00     0.034 A 
ATOM     16  C   UNL     1       2.607   4.475   2.168  1.00  0.00     0.011 A 
ATOM     17  C   UNL     1       1.182   3.008   3.482  1.00  0.00    -0.016 A 
ATOM     18  C   UNL     1       1.638   4.310   3.159  1.00  0.00    -0.018 A 
ATOM     19  C   UNL     1       0.278   2.864   4.549  1.00  0.00     0.009 A 
ATOM     20  C   UNL     1       1.148   5.422   3.859  1.00  0.00     0.009 A 
ATOM     21  C   UNL     1      -0.163   3.978   5.273  1.00  0.00     0.001 A 
ATOM     22  C   UNL     1       0.260   5.256   4.919  1.00  0.00     0.001 A 
ENDBRANCH  11  13
ENDBRANCH   8   9
ENDBRANCH   7   8
BRANCH   7  23
ATOM     23  N   UNL     1       4.867   1.270  -1.061  1.00  0.00    -0.330 N 
ATOM     24  H   UNL     1       5.462   1.067  -0.259  1.00  0.00     0.347 HD
ATOM     25  H   UNL     1       4.065   1.874  -0.879  1.00  0.00     0.347 HD
BRANCH  23  26
ATOM     26  C   UNL     1       5.679   2.023  -2.028  1.00  0.00     0.299 C 
BRANCH  26  27
ATOM     27  C   UNL     1       4.873   2.857  -2.990  1.00  0.00     0.024 A 
ATOM     28  C   UNL     1       4.052   2.308  -3.979  1.00  0.00     0.013 A 
ATOM     29  C   UNL     1       4.944   4.247  -2.941  1.00  0.00     0.120 A 
ATOM     30  C   UNL     1       3.334   3.135  -4.835  1.00  0.00     0.021 A 
ATOM     31  N   UNL     1       4.260   5.081  -3.759  1.00  0.00    -0.264 NA
ATOM     32  C   UNL     1       3.470   4.503  -4.688  1.00  0.00     0.111 A 
ENDBRANCH  26  27
ENDBRANCH  23  26
ENDBRANCH   7  23
ENDBRANCH   5   7
ENDBRANCH   4   5
ENDBRANCH   3   4
ENDBRANCH   2   3
ENDBRANCH   1   2
BRANCH   1  33
ATOM     33  C   UNL     1       3.166  -2.957  -3.765  1.00  0.00     0.202 C 
BRANCH  33  34
ATOM     34  C   UNL     1       2.550  -4.186  -3.091  1.00  0.00     0.261 C 
BRANCH  34  35
ATOM     35  O   UNL     1       3.409  -4.739  -2.077  1.00  0.00    -0.460 OA
BRANCH  35  36
ATOM     36  C   UNL     1       3.668  -6.062  -2.238  1.00  0.00     0.338 C 
ATOM     37  O   UNL     1       3.196  -6.806  -3.080  1.00  0.00    -0.246 OA
BRANCH  36  38
ATOM     38  C   UNL     1       4.785  -6.474  -1.370  1.00  0.00     0.060 A 
ATOM     39  C   UNL     1       5.919  -7.006  -1.997  1.00  0.00     0.016 A 
ATOM     40  C   UNL     1       4.680  -6.458   0.021  1.00  0.00     0.016 A 
ATOM     41  C   UNL     1       6.930  -7.577  -1.232  1.00  0.00     0.010 A 
ATOM     42  C   UNL     1       5.696  -7.042   0.788  1.00  0.00     0.010 A 
ATOM     43  C   UNL     1       6.804  -7.640   0.162  1.00  0.00    -0.014 A 
BRANCH  43  44
ATOM     44  C   UNL     1       7.775  -8.462   0.925  1.00  0.00     0.031 A 
ATOM     45  C   UNL     1       7.402  -9.867   1.315  1.00  0.00     0.074 A 
ATOM     46  C   UNL     1       9.005  -7.988   1.191  1.00  0.00     0.049 A 
ATOM     47  N   UNL     1       8.124 -10.779   1.913  1.00  0.00    -0.248 NA
ATOM     48  C   UNL     1       6.037 -10.305   0.981  1.00  0.00     0.031 C 
ATOM     49  C   UNL     1       9.489  -6.654   0.835  1.00  0.00     0.029 A 
ATOM     50  N   UNL     1      10.074  -8.580   1.812  1.00  0.00    -0.354 N 
ATOM     51  C   UNL     1       7.306 -11.899   2.023  1.00  0.00     0.074 A 
ATOM     52  C   UNL     1       6.021 -11.539   1.462  1.00  0.00     0.031 C 
ATOM     53  C   UNL     1      10.764  -6.531   1.241  1.00  0.00     0.029 A 
ATOM     54  C   UNL     1      11.179  -7.768   1.901  1.00  0.00     0.049 A 
ATOM     55  H   UNL     1      10.053  -9.501   2.160  1.00  0.00     0.167 HD
ATOM     56  C   UNL     1       7.604 -13.118   2.532  1.00  0.00     0.037 A 
ATOM     57  C   UNL     1      12.385  -7.995   2.456  1.00  0.00     0.037 A 
ATOM     58  C   UNL     1       8.884 -13.471   3.091  1.00  0.00     0.049 A 
ATOM     59  C   UNL     1      12.675  -9.342   3.064  1.00  0.00     0.074 A 
ATOM     60  C   UNL     1       9.290 -14.685   3.615  1.00  0.00     0.029 A 
ATOM     61  N   UNL     1       9.963 -12.606   3.205  1.00  0.00    -0.354 N 
ATOM     62  N   UNL     1      11.901 -10.400   3.133  1.00  0.00    -0.248 NA
ATOM     63  C   UNL     1      14.004  -9.528   3.661  1.00  0.00     0.031 C 
ATOM     64  C   UNL     1      10.600 -14.542   4.088  1.00  0.00     0.029 A 
ATOM     65  C   UNL     1      11.026 -13.252   3.815  1.00  0.00     0.049 A 
ATOM     66  H   UNL     1       9.972 -11.671   2.898  1.00  0.00     0.167 HD
ATOM     67  C   UNL     1      12.656 -11.382   3.766  1.00  0.00     0.074 A 
ATOM     68  C   UNL     1      13.953 -10.798   4.041  1.00  0.00     0.031 C 
ATOM     69  C   UNL     1      12.308 -12.653   4.091  1.00  0.00     0.037 A 
BRANCH  56  70
ATOM     70  C   UNL     1       6.517 -14.157   2.526  1.00  0.00     0.058 A 
ATOM     71  C   UNL     1       6.100 -14.782   1.340  1.00  0.00     0.135 A 
ATOM     72  C   UNL     1       5.905 -14.555   3.725  1.00  0.00     0.135 A 
ATOM     73  F   UNL     1       6.639 -14.427   0.163  1.00  0.00    -0.206 F 
ATOM     74  C   UNL     1       5.098 -15.748   1.340  1.00  0.00     0.059 A 
ATOM     75  C   UNL     1       4.917 -15.536   3.752  1.00  0.00     0.059 A 
ATOM     76  F   UNL     1       6.264 -13.988   4.888  1.00  0.00    -0.206 F 
ATOM     77  C   UNL     1       4.511 -16.117   2.551  1.00  0.00     0.060 A 
BRANCH  77  78
ATOM     78  S   UNL     1       3.214 -17.373   2.537  1.00  0.00     0.124 S 
ATOM     79  O   UNL     1       2.093 -16.627   1.974  1.00  0.00    -0.237 OA
ATOM     80  O   UNL     1       3.786 -18.403   1.675  1.00  0.00    -0.237 OA
ATOM     81  O   UNL     1       3.081 -17.741   3.943  1.00  0.00    -0.744 OA
ENDBRANCH  77  78
ENDBRANCH  56  70
BRANCH  57  82
ATOM     82  C   UNL     1      13.410  -6.919   2.465  1.00  0.00     0.058 A 
ATOM     83  C   UNL     1      14.564  -7.006   1.673  1.00  0.00     0.135 A 
ATOM     84  C   UNL     1      13.249  -5.775   3.263  1.00  0.00     0.135 A 
ATOM     85  F   UNL     1      14.768  -8.085   0.901  1.00  0.00    -0.206 F 
ATOM     86  C   UNL     1      15.529  -6.004   1.680  1.00  0.00     0.059 A 
ATOM     87  C   UNL     1      14.187  -4.749   3.268  1.00  0.00     0.059 A 
ATOM     88  F   UNL     1      12.156  -5.639   4.030  1.00  0.00    -0.206 F 
ATOM     89  C   UNL     1      15.329  -4.877   2.479  1.00  0.00     0.060 A 
BRANCH  89  90
ATOM     90  S   UNL     1      16.557  -3.553   2.437  1.00  0.00     0.124 S 
ATOM     91  O   UNL     1      17.642  -4.133   3.219  1.00  0.00    -0.237 OA
ATOM     92  O   UNL     1      16.806  -3.410   1.006  1.00  0.00    -0.237 OA
ATOM     93  O   UNL     1      15.859  -2.431   3.057  1.00  0.00    -0.744 OA
ENDBRANCH  89  90
ENDBRANCH  57  82
BRANCH  69  94
ATOM     94  C   UNL     1      13.352 -13.498   4.769  1.00  0.00     0.058 A 
ATOM     95  C   UNL     1      13.726 -13.275   6.103  1.00  0.00     0.135 A 
ATOM     96  C   UNL     1      13.968 -14.557   4.083  1.00  0.00     0.135 A 
ATOM     97  F   UNL     1      13.170 -12.272   6.802  1.00  0.00    -0.206 F 
ATOM     98  C   UNL     1      14.701 -14.049   6.724  1.00  0.00     0.059 A 
ATOM     99  C   UNL     1      14.926 -15.361   4.693  1.00  0.00     0.059 A 
ATOM    100  F   UNL     1      13.638 -14.822   2.810  1.00  0.00    -0.206 F 
ATOM    101  C   UNL     1      15.299 -15.088   6.008  1.00  0.00     0.060 A 
BRANCH 101 102
ATOM    102  S   UNL     1      16.561 -16.089   6.824  1.00  0.00     0.124 S 
ATOM    103  O   UNL     1      17.710 -15.192   6.796  1.00  0.00    -0.237 OA
ATOM    104  O   UNL     1      15.973 -16.326   8.139  1.00  0.00    -0.237 OA
ATOM    105  O   UNL     1      16.663 -17.268   5.969  1.00  0.00    -0.744 OA
ENDBRANCH 101 102
ENDBRANCH  69  94
ENDBRANCH  43  44
ENDBRANCH  36  38
ENDBRANCH  35  36
ENDBRANCH  34  35
ENDBRANCH  33  34
ENDBRANCH   1  33
TORSDOF 23
