REMARK SMILES CC1(C)[C@@]2(C(=O)OCCOCCOC(=O)c3ccc(-c4c5nc(c(-c6c(F)cc(S(=O)(=O)[O-])cc6F)c6ccc([nH]6)c(-c6c(F)cc(S(=O)(=O)[O-])cc6F)c6nc(c(-c7c(F)cc(S(=O)(=O)[O-])cc7F)c7ccc4[nH]7)C=C6)C=C5)cc3)CC[C@]1(C)/C(=N/NC(=O)c1ccc(Cl)cc1)C2
REMARK SMILES IDX 11 1 10 2 9 3 8 4 7 5 5 6 6 7 4 8 1 9 2 10 3 11 84 12 82 13
REMARK SMILES IDX 98 14 83 15 85 16 86 17 87 18 88 19 89 20 90 22 91 23 92 24
REMARK SMILES IDX 97 25 93 26 96 27 94 28 95 29 12 30 13 31 14 32 15 33 16 34
REMARK SMILES IDX 17 35 81 36 18 37 80 38 19 39 20 40 21 41 74 42 22 43 79 44
REMARK SMILES IDX 73 45 75 46 23 47 78 48 72 49 71 50 24 52 58 53 37 54 57 55
REMARK SMILES IDX 38 56 41 57 56 58 76 59 39 60 40 61 55 63 77 64 42 65 25 66
REMARK SMILES IDX 26 67 35 68 27 69 28 70 34 71 36 72 29 73 30 74 31 75 32 76
REMARK SMILES IDX 33 77 59 78 60 79 69 80 61 81 62 82 68 83 70 84 63 85 64 86
REMARK SMILES IDX 65 87 66 88 67 89 43 90 44 91 53 92 45 93 46 94 52 95 54 96
REMARK SMILES IDX 47 97 48 98 49 99 50 100 51 101
REMARK H PARENT 88 21 75 51 41 62
REMARK Flexibility Score: inf
ROOT
ATOM      1  C   UNL     1       2.993   1.419   4.170  1.00  0.00     0.202 C 
ENDROOT
BRANCH   1   2
ATOM      2  O   UNL     1       3.457   2.704   3.764  1.00  0.00    -0.374 OA
BRANCH   2   3
ATOM      3  C   UNL     1       2.459   3.728   3.701  1.00  0.00     0.202 C 
BRANCH   3   4
ATOM      4  C   UNL     1       1.623   3.762   2.416  1.00  0.00     0.261 C 
BRANCH   4   5
ATOM      5  O   UNL     1       0.787   2.595   2.295  1.00  0.00    -0.463 OA
BRANCH   5   6
ATOM      6  C   UNL     1       1.201   1.654   1.402  1.00  0.00     0.313 C 
ATOM      7  O   UNL     1       2.172   1.762   0.668  1.00  0.00    -0.252 OA
BRANCH   6   8
ATOM      8  C   UNL     1       0.281   0.447   1.425  1.00  0.00     0.079 C 
ATOM      9  C   UNL     1       1.175  -0.638  -0.761  1.00  0.00     0.013 C 
ATOM     10  C   UNL     1       0.801  -0.838   0.724  1.00  0.00    -0.008 C 
ATOM     11  C   UNL     1       2.018  -1.502   1.409  1.00  0.00     0.013 C 
ATOM     12  C   UNL     1      -0.553  -1.587   0.962  1.00  0.00     0.014 C 
ATOM     13  C   UNL     1      -1.056   0.747   0.677  1.00  0.00     0.021 C 
ATOM     14  C   UNL     1      -0.081  -0.067   2.841  1.00  0.00     0.073 C 
ATOM     15  C   UNL     1      -1.595  -0.654   0.319  1.00  0.00     0.014 C 
ATOM     16  C   UNL     1      -0.608  -3.034   0.524  1.00  0.00     0.018 C 
ATOM     17  C   UNL     1      -0.758  -1.355   2.475  1.00  0.00     0.046 C 
ATOM     18  N   UNL     1      -1.390  -2.226   3.196  1.00  0.00    -0.181 NA
BRANCH  18  19
ATOM     19  N   UNL     1      -1.545  -2.197   4.547  1.00  0.00    -0.243 N 
ATOM     20  C   UNL     1      -1.832  -1.232   5.489  1.00  0.00     0.271 C 
ATOM     21  H   UNL     1      -1.421  -3.085   4.953  1.00  0.00     0.194 HD
ATOM     22  O   UNL     1      -1.812  -1.523   6.686  1.00  0.00    -0.267 OA
BRANCH  20  23
ATOM     23  C   UNL     1      -2.175   0.147   5.128  1.00  0.00     0.041 A 
ATOM     24  C   UNL     1      -1.392   1.173   5.677  1.00  0.00     0.015 A 
ATOM     25  C   UNL     1      -3.189   0.437   4.209  1.00  0.00     0.015 A 
ATOM     26  C   UNL     1      -1.537   2.477   5.202  1.00  0.00     0.021 A 
ATOM     27  C   UNL     1      -3.351   1.753   3.765  1.00  0.00     0.021 A 
ATOM     28  C   UNL     1      -2.500   2.758   4.234  1.00  0.00     0.041 A 
ATOM     29  Cl  UNL     1      -2.579   4.337   3.558  1.00  0.00    -0.084 Cl
ENDBRANCH  20  23
ENDBRANCH  18  19
ENDBRANCH   6   8
ENDBRANCH   5   6
ENDBRANCH   4   5
ENDBRANCH   3   4
ENDBRANCH   2   3
ENDBRANCH   1   2
BRANCH   1  30
ATOM     30  C   UNL     1       2.969   1.149   5.676  1.00  0.00     0.261 C 
BRANCH  30  31
ATOM     31  O   UNL     1       2.012   1.990   6.345  1.00  0.00    -0.460 OA
BRANCH  31  32
ATOM     32  C   UNL     1       2.564   3.053   6.982  1.00  0.00     0.338 C 
ATOM     33  O   UNL     1       3.749   3.292   7.110  1.00  0.00    -0.246 OA
BRANCH  32  34
ATOM     34  C   UNL     1       1.511   4.018   7.362  1.00  0.00     0.060 A 
ATOM     35  C   UNL     1       1.755   5.362   7.064  1.00  0.00     0.016 A 
ATOM     36  C   UNL     1       0.342   3.643   8.030  1.00  0.00     0.016 A 
ATOM     37  C   UNL     1       0.870   6.342   7.501  1.00  0.00     0.010 A 
ATOM     38  C   UNL     1      -0.564   4.631   8.441  1.00  0.00     0.010 A 
ATOM     39  C   UNL     1      -0.275   5.991   8.231  1.00  0.00    -0.014 A 
BRANCH  39  40
ATOM     40  C   UNL     1      -1.053   7.074   8.889  1.00  0.00     0.031 A 
ATOM     41  C   UNL     1      -0.927   7.276  10.378  1.00  0.00     0.074 A 
ATOM     42  C   UNL     1      -1.771   7.944   8.155  1.00  0.00     0.049 A 
ATOM     43  N   UNL     1      -1.390   8.245  11.127  1.00  0.00    -0.248 NA
ATOM     44  C   UNL     1      -0.179   6.251  11.123  1.00  0.00     0.031 C 
ATOM     45  C   UNL     1      -1.960   7.870   6.707  1.00  0.00     0.029 A 
ATOM     46  N   UNL     1      -2.451   9.078   8.525  1.00  0.00    -0.354 N 
ATOM     47  C   UNL     1      -0.985   7.951  12.424  1.00  0.00     0.074 A 
ATOM     48  C   UNL     1      -0.287   6.685  12.369  1.00  0.00     0.031 C 
ATOM     49  C   UNL     1      -2.680   8.932   6.306  1.00  0.00     0.029 A 
ATOM     50  C   UNL     1      -3.023   9.747   7.470  1.00  0.00     0.049 A 
ATOM     51  H   UNL     1      -2.521   9.383   9.459  1.00  0.00     0.167 HD
ATOM     52  C   UNL     1      -1.157   8.676  13.557  1.00  0.00     0.037 A 
ATOM     53  C   UNL     1      -3.738  10.891   7.442  1.00  0.00     0.037 A 
ATOM     54  C   UNL     1      -1.859   9.933  13.613  1.00  0.00     0.049 A 
ATOM     55  C   UNL     1      -3.963  11.654   8.721  1.00  0.00     0.074 A 
ATOM     56  C   UNL     1      -2.068  10.755  14.707  1.00  0.00     0.029 A 
ATOM     57  N   UNL     1      -2.481  10.544  12.533  1.00  0.00    -0.354 N 
ATOM     58  N   UNL     1      -3.534  11.386   9.932  1.00  0.00    -0.248 NA
ATOM     59  C   UNL     1      -4.763  12.883   8.624  1.00  0.00     0.031 C 
ATOM     60  C   UNL     1      -2.869  11.829  14.302  1.00  0.00     0.029 A 
ATOM     61  C   UNL     1      -3.104  11.714  12.941  1.00  0.00     0.049 A 
ATOM     62  H   UNL     1      -2.480  10.198  11.611  1.00  0.00     0.167 HD
ATOM     63  C   UNL     1      -3.995  12.424  10.738  1.00  0.00     0.074 A 
ATOM     64  C   UNL     1      -4.713  13.335   9.870  1.00  0.00     0.031 C 
ATOM     65  C   UNL     1      -3.837  12.606  12.075  1.00  0.00     0.037 A 
BRANCH  52  66
ATOM     66  C   UNL     1      -0.598   8.105  14.835  1.00  0.00     0.058 A 
ATOM     67  C   UNL     1       0.785   7.995  15.060  1.00  0.00     0.135 A 
ATOM     68  C   UNL     1      -1.459   7.662  15.853  1.00  0.00     0.135 A 
ATOM     69  F   UNL     1       1.657   8.388  14.117  1.00  0.00    -0.206 F 
ATOM     70  C   UNL     1       1.292   7.427  16.225  1.00  0.00     0.059 A 
ATOM     71  C   UNL     1      -0.974   7.122  17.041  1.00  0.00     0.059 A 
ATOM     72  F   UNL     1      -2.790   7.744  15.696  1.00  0.00    -0.206 F 
ATOM     73  C   UNL     1       0.403   6.989  17.208  1.00  0.00     0.060 A 
BRANCH  73  74
ATOM     74  S   UNL     1       1.075   6.233  18.704  1.00  0.00     0.124 S 
ATOM     75  O   UNL     1       1.552   4.951  18.193  1.00  0.00    -0.237 OA
ATOM     76  O   UNL     1       2.111   7.183  19.095  1.00  0.00    -0.237 OA
ATOM     77  O   UNL     1      -0.077   6.162  19.597  1.00  0.00    -0.744 OA
ENDBRANCH  73  74
ENDBRANCH  52  66
BRANCH  53  78
ATOM     78  C   UNL     1      -4.274  11.393   6.148  1.00  0.00     0.058 A 
ATOM     79  C   UNL     1      -3.767  12.558   5.553  1.00  0.00     0.135 A 
ATOM     80  C   UNL     1      -5.290  10.702   5.470  1.00  0.00     0.135 A 
ATOM     81  F   UNL     1      -2.806  13.263   6.168  1.00  0.00    -0.206 F 
ATOM     82  C   UNL     1      -4.248  13.021   4.332  1.00  0.00     0.059 A 
ATOM     83  C   UNL     1      -5.768  11.129   4.235  1.00  0.00     0.059 A 
ATOM     84  F   UNL     1      -5.805   9.579   5.994  1.00  0.00    -0.206 F 
ATOM     85  C   UNL     1      -5.242  12.292   3.675  1.00  0.00     0.060 A 
BRANCH  85  86
ATOM     86  S   UNL     1      -5.800  12.857   2.053  1.00  0.00     0.124 S 
ATOM     87  O   UNL     1      -6.548  14.059   2.399  1.00  0.00    -0.237 OA
ATOM     88  O   UNL     1      -4.536  13.069   1.354  1.00  0.00    -0.237 OA
ATOM     89  O   UNL     1      -6.597  11.736   1.563  1.00  0.00    -0.744 OA
ENDBRANCH  85  86
ENDBRANCH  53  78
BRANCH  65  90
ATOM     90  C   UNL     1      -4.444  13.848  12.676  1.00  0.00     0.058 A 
ATOM     91  C   UNL     1      -5.835  14.026  12.766  1.00  0.00     0.135 A 
ATOM     92  C   UNL     1      -3.624  14.876  13.174  1.00  0.00     0.135 A 
ATOM     93  F   UNL     1      -6.668  13.078  12.307  1.00  0.00    -0.206 F 
ATOM     94  C   UNL     1      -6.389  15.196  13.276  1.00  0.00     0.059 A 
ATOM     95  C   UNL     1      -4.158  16.039  13.721  1.00  0.00     0.059 A 
ATOM     96  F   UNL     1      -2.288  14.756  13.132  1.00  0.00    -0.206 F 
ATOM     97  C   UNL     1      -5.542  16.201  13.745  1.00  0.00     0.060 A 
BRANCH  97  98
ATOM     98  S   UNL     1      -6.273  17.722  14.385  1.00  0.00     0.124 S 
ATOM     99  O   UNL     1      -6.730  18.367  13.159  1.00  0.00    -0.237 OA
ATOM    100  O   UNL     1      -7.323  17.219  15.266  1.00  0.00    -0.237 OA
ATOM    101  O   UNL     1      -5.157  18.378  15.061  1.00  0.00    -0.744 OA
ENDBRANCH  97  98
ENDBRANCH  65  90
ENDBRANCH  39  40
ENDBRANCH  32  34
ENDBRANCH  31  32
ENDBRANCH  30  31
ENDBRANCH   1  30
TORSDOF 19
