REMARK SMILES O=C(OCCOCCOC(=O)[C@H]1[C@H]2CC[C@H](C2)[C@@H]1C(=O)Nc1sc2c(c1C(=O)NC1CCCCC1)CCCC2)c1ccc(-c2c3nc(c(-c4c(F)cc(S(=O)(=O)[O-])cc4F)c4ccc([nH]4)c(-c4c(F)cc(S(=O)(=O)[O-])cc4F)c4nc(c(-c5c(F)cc(S(=O)(=O)[O-])cc5F)c5ccc2[nH]5)C=C4)C=C3)cc1
REMARK SMILES IDX 7 1 6 2 5 3 4 4 3 5 2 6 1 7 40 8 41 9 105 10 42 11 104 12
REMARK SMILES IDX 43 13 44 14 45 15 98 16 46 17 103 18 97 19 99 20 47 21
REMARK SMILES IDX 102 22 96 23 95 24 48 26 82 27 61 28 81 29 62 30 65 31 80 32
REMARK SMILES IDX 100 33 63 34 64 35 79 37 101 38 66 39 49 40 50 41 59 42
REMARK SMILES IDX 51 43 52 44 58 45 60 46 53 47 54 48 55 49 56 50 57 51 83 52
REMARK SMILES IDX 84 53 93 54 85 55 86 56 92 57 94 58 87 59 88 60 89 61 90 62
REMARK SMILES IDX 91 63 67 64 68 65 77 66 69 67 70 68 76 69 78 70 71 71 72 72
REMARK SMILES IDX 73 73 74 74 75 75 8 76 9 77 10 78 11 79 12 80 13 81 18 82
REMARK SMILES IDX 14 83 17 84 16 85 15 86 19 87 20 88 21 89 22 91 23 92 26 93
REMARK SMILES IDX 24 94 25 95 39 96 36 97 38 98 37 99 27 100 28 101 29 102
REMARK SMILES IDX 30 104 31 105 35 106 32 107 34 108 33 109
REMARK H PARENT 99 25 65 36 21 90 29 103
REMARK Flexibility Score: inf
ROOT
ATOM      1  C   UNL     1       5.796  -0.693   2.391  1.00  0.00     0.202 C 
ENDROOT
BRANCH   1   2
ATOM      2  O   UNL     1       4.536  -1.346   2.530  1.00  0.00    -0.374 OA
BRANCH   2   3
ATOM      3  C   UNL     1       3.763  -1.578   1.354  1.00  0.00     0.202 C 
BRANCH   3   4
ATOM      4  C   UNL     1       2.730  -0.488   1.065  1.00  0.00     0.261 C 
BRANCH   4   5
ATOM      5  O   UNL     1       3.367   0.791   0.954  1.00  0.00    -0.460 OA
BRANCH   5   6
ATOM      6  C   UNL     1       3.720   1.617   1.967  1.00  0.00     0.338 C 
ATOM      7  O   UNL     1       4.465   2.560   1.701  1.00  0.00    -0.246 OA
BRANCH   6   8
ATOM      8  C   UNL     1       3.270   1.463   3.391  1.00  0.00     0.060 A 
ATOM      9  C   UNL     1       2.885   0.271   4.016  1.00  0.00     0.016 A 
ATOM     10  C   UNL     1       3.351   2.618   4.187  1.00  0.00     0.016 A 
ATOM     11  C   UNL     1       2.638   0.196   5.373  1.00  0.00     0.010 A 
ATOM     12  C   UNL     1       3.056   2.569   5.549  1.00  0.00     0.010 A 
ATOM     13  C   UNL     1       2.698   1.351   6.133  1.00  0.00    -0.014 A 
BRANCH  13  14
ATOM     14  C   UNL     1       2.145   1.283   7.484  1.00  0.00     0.031 A 
ATOM     15  C   UNL     1       0.715   1.677   7.642  1.00  0.00     0.074 A 
ATOM     16  C   UNL     1       2.880   0.776   8.484  1.00  0.00     0.049 A 
ATOM     17  N   UNL     1       0.020   1.849   8.727  1.00  0.00    -0.248 NA
ATOM     18  C   UNL     1      -0.038   1.906   6.394  1.00  0.00     0.031 C 
ATOM     19  C   UNL     1       4.224   0.213   8.340  1.00  0.00     0.029 A 
ATOM     20  N   UNL     1       2.601   0.654   9.815  1.00  0.00    -0.354 N 
ATOM     21  C   UNL     1      -1.236   2.255   8.297  1.00  0.00     0.074 A 
ATOM     22  C   UNL     1      -1.215   2.290   6.855  1.00  0.00     0.031 C 
ATOM     23  C   UNL     1       4.669  -0.162   9.551  1.00  0.00     0.029 A 
ATOM     24  C   UNL     1       3.669   0.201  10.549  1.00  0.00     0.049 A 
ATOM     25  H   UNL     1       1.724   0.868  10.207  1.00  0.00     0.167 HD
ATOM     26  C   UNL     1      -2.296   2.594   9.064  1.00  0.00     0.037 A 
ATOM     27  C   UNL     1       3.826   0.162  11.885  1.00  0.00     0.037 A 
ATOM     28  C   UNL     1      -2.239   2.558  10.498  1.00  0.00     0.049 A 
ATOM     29  C   UNL     1       2.675   0.637  12.730  1.00  0.00     0.074 A 
ATOM     30  C   UNL     1      -3.201   2.927  11.414  1.00  0.00     0.029 A 
ATOM     31  N   UNL     1      -1.129   2.128  11.223  1.00  0.00    -0.354 N 
ATOM     32  N   UNL     1       1.508   1.099  12.338  1.00  0.00    -0.248 NA
ATOM     33  C   UNL     1       2.852   0.602  14.184  1.00  0.00     0.031 C 
ATOM     34  C   UNL     1      -2.651   2.777  12.692  1.00  0.00     0.029 A 
ATOM     35  C   UNL     1      -1.372   2.245  12.576  1.00  0.00     0.049 A 
ATOM     36  H   UNL     1      -0.293   1.791  10.827  1.00  0.00     0.167 HD
ATOM     37  C   UNL     1       0.797   1.384  13.496  1.00  0.00     0.074 A 
ATOM     38  C   UNL     1       1.673   1.047  14.604  1.00  0.00     0.031 C 
ATOM     39  C   UNL     1      -0.462   1.871  13.636  1.00  0.00     0.037 A 
BRANCH  26  40
ATOM     40  C   UNL     1      -3.505   3.132   8.352  1.00  0.00     0.058 A 
ATOM     41  C   UNL     1      -4.304   2.337   7.514  1.00  0.00     0.135 A 
ATOM     42  C   UNL     1      -3.810   4.501   8.437  1.00  0.00     0.135 A 
ATOM     43  F   UNL     1      -4.038   1.030   7.365  1.00  0.00    -0.206 F 
ATOM     44  C   UNL     1      -5.325   2.889   6.743  1.00  0.00     0.059 A 
ATOM     45  C   UNL     1      -4.846   5.067   7.701  1.00  0.00     0.059 A 
ATOM     46  F   UNL     1      -3.072   5.312   9.210  1.00  0.00    -0.206 F 
ATOM     47  C   UNL     1      -5.580   4.258   6.836  1.00  0.00     0.060 A 
BRANCH  47  48
ATOM     48  S   UNL     1      -6.864   4.974   5.788  1.00  0.00     0.124 S 
ATOM     49  O   UNL     1      -6.222   4.943   4.477  1.00  0.00    -0.237 OA
ATOM     50  O   UNL     1      -7.973   4.043   5.972  1.00  0.00    -0.237 OA
ATOM     51  O   UNL     1      -7.065   6.304   6.356  1.00  0.00    -0.744 OA
ENDBRANCH  47  48
ENDBRANCH  26  40
BRANCH  27  52
ATOM     52  C   UNL     1       5.127  -0.277  12.457  1.00  0.00     0.058 A 
ATOM     53  C   UNL     1       5.255  -1.491  13.145  1.00  0.00     0.135 A 
ATOM     54  C   UNL     1       6.295   0.479  12.251  1.00  0.00     0.135 A 
ATOM     55  F   UNL     1       4.172  -2.248  13.376  1.00  0.00    -0.206 F 
ATOM     56  C   UNL     1       6.492  -1.946  13.597  1.00  0.00     0.059 A 
ATOM     57  C   UNL     1       7.545   0.034  12.670  1.00  0.00     0.059 A 
ATOM     58  F   UNL     1       6.233   1.645  11.588  1.00  0.00    -0.206 F 
ATOM     59  C   UNL     1       7.633  -1.182  13.343  1.00  0.00     0.060 A 
BRANCH  59  60
ATOM     60  S   UNL     1       9.242  -1.824  13.859  1.00  0.00     0.124 S 
ATOM     61  O   UNL     1       9.153  -1.713  15.310  1.00  0.00    -0.237 OA
ATOM     62  O   UNL     1       9.217  -3.180  13.319  1.00  0.00    -0.237 OA
ATOM     63  O   UNL     1      10.190  -0.919  13.214  1.00  0.00    -0.744 OA
ENDBRANCH  59  60
ENDBRANCH  27  52
BRANCH  39  64
ATOM     64  C   UNL     1      -0.993   2.013  15.032  1.00  0.00     0.058 A 
ATOM     65  C   UNL     1      -0.607   3.072  15.864  1.00  0.00     0.135 A 
ATOM     66  C   UNL     1      -2.012   1.154  15.474  1.00  0.00     0.135 A 
ATOM     67  F   UNL     1       0.369   3.911  15.485  1.00  0.00    -0.206 F 
ATOM     68  C   UNL     1      -1.225   3.283  17.090  1.00  0.00     0.059 A 
ATOM     69  C   UNL     1      -2.663   1.364  16.682  1.00  0.00     0.059 A 
ATOM     70  F   UNL     1      -2.419   0.133  14.702  1.00  0.00    -0.206 F 
ATOM     71  C   UNL     1      -2.263   2.433  17.482  1.00  0.00     0.060 A 
BRANCH  71  72
ATOM     72  S   UNL     1      -3.129   2.784  19.025  1.00  0.00     0.124 S 
ATOM     73  O   UNL     1      -2.130   2.400  20.016  1.00  0.00    -0.237 OA
ATOM     74  O   UNL     1      -3.395   4.215  18.913  1.00  0.00    -0.237 OA
ATOM     75  O   UNL     1      -4.308   1.926  18.957  1.00  0.00    -0.744 OA
ENDBRANCH  71  72
ENDBRANCH  39  64
ENDBRANCH  13  14
ENDBRANCH   6   8
ENDBRANCH   5   6
ENDBRANCH   4   5
ENDBRANCH   3   4
ENDBRANCH   2   3
ENDBRANCH   1   2
BRANCH   1  76
ATOM     76  C   UNL     1       6.892  -1.630   2.886  1.00  0.00     0.261 C 
BRANCH  76  77
ATOM     77  O   UNL     1       6.954  -2.720   1.965  1.00  0.00    -0.463 OA
BRANCH  77  78
ATOM     78  C   UNL     1       5.983  -3.662   2.139  1.00  0.00     0.310 C 
ATOM     79  O   UNL     1       5.365  -3.896   3.172  1.00  0.00    -0.252 OA
BRANCH  78  80
ATOM     80  C   UNL     1       5.829  -4.387   0.836  1.00  0.00     0.115 C 
ATOM     81  C   UNL     1       7.050  -5.334   0.755  1.00  0.00     0.004 C 
ATOM     82  C   UNL     1       4.598  -5.316   0.709  1.00  0.00     0.096 C 
ATOM     83  C   UNL     1       7.157  -6.284   1.952  1.00  0.00     0.005 C 
ATOM     84  C   UNL     1       6.561  -6.298  -0.284  1.00  0.00     0.009 C 
ATOM     85  C   UNL     1       5.279  -6.670   0.470  1.00  0.00     0.003 C 
ATOM     86  C   UNL     1       5.892  -7.147   1.812  1.00  0.00     0.005 C 
BRANCH  82  87
ATOM     87  C   UNL     1       3.452  -4.832  -0.229  1.00  0.00     0.229 C 
ATOM     88  O   UNL     1       2.393  -4.471   0.314  1.00  0.00    -0.274 OA
ATOM     89  N   UNL     1       3.492  -4.597  -1.569  1.00  0.00    -0.317 N 
ATOM     90  H   UNL     1       2.757  -4.028  -1.892  1.00  0.00     0.170 HD
BRANCH  89  91
ATOM     91  C   UNL     1       4.356  -4.997  -2.561  1.00  0.00     0.108 A 
ATOM     92  S   UNL     1       4.594  -6.676  -2.729  1.00  0.00    -0.122 S 
ATOM     93  C   UNL     1       4.797  -4.298  -3.712  1.00  0.00     0.078 A 
ATOM     94  C   UNL     1       6.023  -6.335  -3.564  1.00  0.00     0.011 A 
ATOM     95  C   UNL     1       5.904  -5.142  -4.277  1.00  0.00    -0.019 A 
ATOM     96  C   UNL     1       7.202  -7.266  -3.536  1.00  0.00     0.047 C 
ATOM     97  C   UNL     1       6.939  -4.942  -5.362  1.00  0.00     0.037 C 
ATOM     98  C   UNL     1       8.403  -6.590  -4.195  1.00  0.00     0.006 C 
ATOM     99  C   UNL     1       7.946  -6.087  -5.558  1.00  0.00     0.005 C 
BRANCH  93 100
ATOM    100  C   UNL     1       4.075  -2.995  -3.968  1.00  0.00     0.254 C 
ATOM    101  O   UNL     1       2.916  -2.900  -3.523  1.00  0.00    -0.269 OA
ATOM    102  N   UNL     1       4.418  -1.811  -4.586  1.00  0.00    -0.349 N 
ATOM    103  H   UNL     1       3.646  -1.200  -4.545  1.00  0.00     0.164 HD
BRANCH 102 104
ATOM    104  C   UNL     1       5.522  -1.130  -5.286  1.00  0.00     0.082 C 
ATOM    105  C   UNL     1       6.163  -0.005  -4.452  1.00  0.00     0.025 C 
ATOM    106  C   UNL     1       6.524  -2.130  -5.734  1.00  0.00     0.025 C 
ATOM    107  C   UNL     1       7.529   0.457  -4.992  1.00  0.00     0.002 C 
ATOM    108  C   UNL     1       7.847  -1.637  -6.272  1.00  0.00     0.002 C 
ATOM    109  C   UNL     1       8.474  -0.712  -5.245  1.00  0.00     0.000 C 
ENDBRANCH 102 104
ENDBRANCH  93 100
ENDBRANCH  89  91
ENDBRANCH  82  87
ENDBRANCH  78  80
ENDBRANCH  77  78
ENDBRANCH  76  77
ENDBRANCH   1  76
TORSDOF 21
