REMARK SMILES C=CC[N@@H+](CC(=O)OCCOCCOC(=O)c1ccc(-c2c3nc(c(-c4c(F)cc(S(=O)(=O)[O-])cc4F)c4ccc([nH]4)c(-c4c(F)cc(S(=O)(=O)[O-])cc4F)c4nc(c(-c5c(F)cc(S(=O)(=O)[O-])cc5F)c5ccc2[nH]5)C=C4)C=C3)cc1)C[C@H]1CCC[C@H](C)C1
REMARK SMILES IDX 11 1 10 2 9 3 8 4 6 5 7 6 5 7 4 8 3 10 2 11 1 12 83 13 84 14
REMARK SMILES IDX 85 15 90 16 86 17 88 18 87 19 89 20 12 21 13 22 14 23 15 24
REMARK SMILES IDX 16 25 17 26 18 27 82 28 19 29 81 30 20 31 21 32 22 33 75 34
REMARK SMILES IDX 23 35 80 36 74 37 76 38 24 39 79 40 73 41 72 42 25 44 59 45
REMARK SMILES IDX 38 46 58 47 39 48 42 49 57 50 77 51 40 52 41 53 56 55 78 56
REMARK SMILES IDX 43 57 26 58 27 59 36 60 28 61 29 62 35 63 37 64 30 65 31 66
REMARK SMILES IDX 32 67 33 68 34 69 60 70 61 71 70 72 62 73 63 74 69 75 71 76
REMARK SMILES IDX 64 77 65 78 66 79 67 80 68 81 44 82 45 83 54 84 46 85 47 86
REMARK SMILES IDX 53 87 55 88 48 89 49 90 50 91 51 92 52 93
REMARK H PARENT 4 9 76 43 42 54
REMARK Flexibility Score: inf
ROOT
ATOM      1  O   UNL     1      -4.577   3.013  -1.254  1.00  0.00    -0.374 OA
ENDROOT
BRANCH   1   2
ATOM      2  C   UNL     1      -4.421   2.436   0.044  1.00  0.00     0.202 C 
BRANCH   2   3
ATOM      3  C   UNL     1      -4.803   0.956   0.139  1.00  0.00     0.261 C 
BRANCH   3   4
ATOM      4  O   UNL     1      -3.762   0.088  -0.359  1.00  0.00    -0.459 OA
BRANCH   4   5
ATOM      5  C   UNL     1      -4.069  -0.700  -1.425  1.00  0.00     0.361 C 
ATOM      6  O   UNL     1      -5.130  -0.642  -2.040  1.00  0.00    -0.245 OA
BRANCH   5   7
ATOM      7  C   UNL     1      -3.014  -1.763  -1.740  1.00  0.00     0.386 C 
BRANCH   7   8
ATOM      8  N   UNL     1      -1.576  -1.417  -1.587  1.00  0.00    -0.322 N 
ATOM      9  H   UNL     1      -1.030  -2.235  -1.856  1.00  0.00     0.348 HD
BRANCH   8  10
ATOM     10  C   UNL     1      -1.219  -1.165  -0.183  1.00  0.00     0.290 C 
BRANCH  10  11
ATOM     11  C   UNL     1       0.146  -1.692   0.154  1.00  0.00     0.025 C 
ATOM     12  C   UNL     1       1.074  -1.003   0.832  1.00  0.00     0.010 C 
ENDBRANCH  10  11
ENDBRANCH   8  10
BRANCH   8  13
ATOM     13  C   UNL     1      -1.152  -0.365  -2.526  1.00  0.00     0.266 C 
BRANCH  13  14
ATOM     14  C   UNL     1       0.373  -0.177  -2.684  1.00  0.00     0.044 C 
ATOM     15  C   UNL     1       1.072  -1.415  -3.264  1.00  0.00     0.009 C 
ATOM     16  C   UNL     1       0.696   1.044  -3.564  1.00  0.00     0.012 C 
ATOM     17  C   UNL     1       2.585  -1.205  -3.337  1.00  0.00     0.001 C 
ATOM     18  C   UNL     1       2.209   1.309  -3.657  1.00  0.00    -0.014 C 
ATOM     19  C   UNL     1       2.956   0.052  -4.124  1.00  0.00     0.003 C 
ATOM     20  C   UNL     1       2.771   1.845  -2.334  1.00  0.00     0.007 C 
ENDBRANCH  13  14
ENDBRANCH   8  13
ENDBRANCH   7   8
ENDBRANCH   5   7
ENDBRANCH   4   5
ENDBRANCH   3   4
ENDBRANCH   2   3
ENDBRANCH   1   2
BRANCH   1  21
ATOM     21  C   UNL     1      -3.562   2.708  -2.209  1.00  0.00     0.202 C 
BRANCH  21  22
ATOM     22  C   UNL     1      -2.271   3.511  -2.025  1.00  0.00     0.261 C 
BRANCH  22  23
ATOM     23  O   UNL     1      -1.582   3.114  -0.825  1.00  0.00    -0.460 OA
BRANCH  23  24
ATOM     24  C   UNL     1      -1.063   4.146  -0.120  1.00  0.00     0.338 C 
ATOM     25  O   UNL     1      -0.949   5.306  -0.491  1.00  0.00    -0.246 OA
BRANCH  24  26
ATOM     26  C   UNL     1      -0.795   3.732   1.267  1.00  0.00     0.060 A 
ATOM     27  C   UNL     1      -1.613   4.263   2.271  1.00  0.00     0.016 A 
ATOM     28  C   UNL     1       0.315   2.953   1.596  1.00  0.00     0.016 A 
ATOM     29  C   UNL     1      -1.286   4.066   3.613  1.00  0.00     0.010 A 
ATOM     30  C   UNL     1       0.636   2.749   2.946  1.00  0.00     0.010 A 
ATOM     31  C   UNL     1      -0.135   3.344   3.963  1.00  0.00    -0.014 A 
BRANCH  31  32
ATOM     32  C   UNL     1       0.332   3.362   5.378  1.00  0.00     0.031 A 
ATOM     33  C   UNL     1       1.485   4.254   5.764  1.00  0.00     0.074 A 
ATOM     34  C   UNL     1      -0.299   2.646   6.329  1.00  0.00     0.049 A 
ATOM     35  N   UNL     1       2.026   4.449   6.940  1.00  0.00    -0.248 NA
ATOM     36  C   UNL     1       2.113   5.028   4.681  1.00  0.00     0.031 C 
ATOM     37  C   UNL     1      -1.437   1.757   6.102  1.00  0.00     0.029 A 
ATOM     38  N   UNL     1      -0.071   2.559   7.681  1.00  0.00    -0.354 N 
ATOM     39  C   UNL     1       3.060   5.357   6.738  1.00  0.00     0.074 A 
ATOM     40  C   UNL     1       3.091   5.651   5.322  1.00  0.00     0.031 C 
ATOM     41  C   UNL     1      -1.810   1.216   7.276  1.00  0.00     0.029 A 
ATOM     42  C   UNL     1      -0.926   1.703   8.334  1.00  0.00     0.049 A 
ATOM     43  H   UNL     1       0.640   3.063   8.140  1.00  0.00     0.167 HD
ATOM     44  C   UNL     1       3.899   5.910   7.647  1.00  0.00     0.037 A 
ATOM     45  C   UNL     1      -0.987   1.346   9.633  1.00  0.00     0.037 A 
ATOM     46  C   UNL     1       3.858   5.645   9.062  1.00  0.00     0.049 A 
ATOM     47  C   UNL     1      -0.029   1.956  10.623  1.00  0.00     0.074 A 
ATOM     48  C   UNL     1       4.646   6.190  10.062  1.00  0.00     0.029 A 
ATOM     49  N   UNL     1       2.988   4.760   9.678  1.00  0.00    -0.354 N 
ATOM     50  N   UNL     1       0.918   2.840  10.418  1.00  0.00    -0.248 NA
ATOM     51  C   UNL     1      -0.152   1.524  12.024  1.00  0.00     0.031 C 
ATOM     52  C   UNL     1       4.276   5.607  11.278  1.00  0.00     0.029 A 
ATOM     53  C   UNL     1       3.231   4.728  11.041  1.00  0.00     0.049 A 
ATOM     54  H   UNL     1       2.298   4.231   9.215  1.00  0.00     0.167 HD
ATOM     55  C   UNL     1       1.487   3.085  11.665  1.00  0.00     0.074 A 
ATOM     56  C   UNL     1       0.772   2.266  12.620  1.00  0.00     0.031 C 
ATOM     57  C   UNL     1       2.510   3.915  11.987  1.00  0.00     0.037 A 
BRANCH  44  58
ATOM     58  C   UNL     1       4.949   6.856   7.137  1.00  0.00     0.058 A 
ATOM     59  C   UNL     1       4.628   8.157   6.717  1.00  0.00     0.135 A 
ATOM     60  C   UNL     1       6.298   6.469   7.102  1.00  0.00     0.135 A 
ATOM     61  F   UNL     1       3.352   8.571   6.716  1.00  0.00    -0.206 F 
ATOM     62  C   UNL     1       5.606   9.032   6.255  1.00  0.00     0.059 A 
ATOM     63  C   UNL     1       7.295   7.335   6.666  1.00  0.00     0.059 A 
ATOM     64  F   UNL     1       6.657   5.236   7.493  1.00  0.00    -0.206 F 
ATOM     65  C   UNL     1       6.937   8.611   6.231  1.00  0.00     0.060 A 
BRANCH  65  66
ATOM     66  S   UNL     1       8.197   9.757   5.632  1.00  0.00     0.124 S 
ATOM     67  O   UNL     1       7.970   9.710   4.191  1.00  0.00    -0.237 OA
ATOM     68  O   UNL     1       7.826  11.005   6.291  1.00  0.00    -0.237 OA
ATOM     69  O   UNL     1       9.447   9.157   6.091  1.00  0.00    -0.744 OA
ENDBRANCH  65  66
ENDBRANCH  44  58
BRANCH  45  70
ATOM     70  C   UNL     1      -1.996   0.349  10.080  1.00  0.00     0.058 A 
ATOM     71  C   UNL     1      -3.094   0.725  10.867  1.00  0.00     0.135 A 
ATOM     72  C   UNL     1      -1.874  -1.005   9.731  1.00  0.00     0.135 A 
ATOM     73  F   UNL     1      -3.246   2.006  11.237  1.00  0.00    -0.206 F 
ATOM     74  C   UNL     1      -4.030  -0.206  11.303  1.00  0.00     0.059 A 
ATOM     75  C   UNL     1      -2.809  -1.952  10.136  1.00  0.00     0.059 A 
ATOM     76  F   UNL     1      -0.845  -1.414   8.973  1.00  0.00    -0.206 F 
ATOM     77  C   UNL     1      -3.880  -1.544  10.931  1.00  0.00     0.060 A 
BRANCH  77  78
ATOM     78  S   UNL     1      -5.128  -2.740  11.454  1.00  0.00     0.124 S 
ATOM     79  O   UNL     1      -4.772  -2.943  12.853  1.00  0.00    -0.237 OA
ATOM     80  O   UNL     1      -6.372  -2.015  11.210  1.00  0.00    -0.237 OA
ATOM     81  O   UNL     1      -4.892  -3.876  10.569  1.00  0.00    -0.744 OA
ENDBRANCH  77  78
ENDBRANCH  45  70
BRANCH  57  82
ATOM     82  C   UNL     1       2.906   4.005  13.435  1.00  0.00     0.058 A 
ATOM     83  C   UNL     1       3.626   2.979  14.066  1.00  0.00     0.135 A 
ATOM     84  C   UNL     1       2.611   5.155  14.184  1.00  0.00     0.135 A 
ATOM     85  F   UNL     1       3.930   1.856  13.396  1.00  0.00    -0.206 F 
ATOM     86  C   UNL     1       4.022   3.081  15.396  1.00  0.00     0.059 A 
ATOM     87  C   UNL     1       3.016   5.288  15.509  1.00  0.00     0.059 A 
ATOM     88  F   UNL     1       1.934   6.171  13.625  1.00  0.00    -0.206 F 
ATOM     89  C   UNL     1       3.712   4.240  16.110  1.00  0.00     0.060 A 
BRANCH  89  90
ATOM     90  S   UNL     1       4.259   4.377  17.826  1.00  0.00     0.124 S 
ATOM     91  O   UNL     1       3.291   3.527  18.511  1.00  0.00    -0.237 OA
ATOM     92  O   UNL     1       5.623   3.862  17.764  1.00  0.00    -0.237 OA
ATOM     93  O   UNL     1       4.148   5.806  18.104  1.00  0.00    -0.744 OA
ENDBRANCH  89  90
ENDBRANCH  57  82
ENDBRANCH  31  32
ENDBRANCH  24  26
ENDBRANCH  23  24
ENDBRANCH  22  23
ENDBRANCH  21  22
ENDBRANCH   1  21
TORSDOF 22
