REMARK SMILES CC(C)[C@H](C(=O)OCCOCCOC(=O)c1ccc(-c2c3nc(c(-c4c(F)cc(S(=O)(=O)[O-])cc4F)c4ccc([nH]4)c(-c4c(F)cc(S(=O)(=O)[O-])cc4F)c4nc(c(-c5c(F)cc(S(=O)(=O)[O-])cc5F)c5ccc2[nH]5)C=C4)C=C3)cc1)c1ccc(Cl)cc1F
REMARK SMILES IDX 11 1 10 2 9 3 8 4 7 5 5 6 6 7 4 8 2 9 1 10 3 11 82 12 83 13
REMARK SMILES IDX 88 14 84 15 87 16 89 17 85 18 86 19 12 20 13 21 14 22 15 23
REMARK SMILES IDX 16 24 17 25 81 26 18 27 80 28 19 29 20 30 21 31 74 32 22 33
REMARK SMILES IDX 79 34 73 35 75 36 23 37 78 38 72 39 71 40 24 42 58 43 37 44
REMARK SMILES IDX 57 45 38 46 41 47 56 48 76 49 39 50 40 51 55 53 77 54 42 55
REMARK SMILES IDX 25 56 26 57 35 58 27 59 28 60 34 61 36 62 29 63 30 64 31 65
REMARK SMILES IDX 32 66 33 67 59 68 60 69 69 70 61 71 62 72 68 73 70 74 63 75
REMARK SMILES IDX 64 76 65 77 66 78 67 79 43 80 44 81 53 82 45 83 46 84 52 85
REMARK SMILES IDX 54 86 47 87 48 88 49 89 50 90 51 91
REMARK H PARENT 75 41 41 52
REMARK Flexibility Score: inf
ROOT
ATOM      1  C   UNL     1       1.468  -1.678  -2.424  1.00  0.00     0.202 C 
ENDROOT
BRANCH   1   2
ATOM      2  O   UNL     1       2.695  -1.284  -1.810  1.00  0.00    -0.374 OA
BRANCH   2   3
ATOM      3  C   UNL     1       3.013  -1.903  -0.557  1.00  0.00     0.202 C 
BRANCH   3   4
ATOM      4  C   UNL     1       2.334  -1.278   0.667  1.00  0.00     0.261 C 
BRANCH   4   5
ATOM      5  O   UNL     1       0.952  -1.679   0.674  1.00  0.00    -0.463 OA
BRANCH   5   6
ATOM      6  C   UNL     1       0.008  -0.734   0.604  1.00  0.00     0.313 C 
ATOM      7  O   UNL     1       0.230   0.441   0.892  1.00  0.00    -0.252 OA
BRANCH   6   8
ATOM      8  C   UNL     1      -1.349  -1.193   0.021  1.00  0.00     0.135 C 
BRANCH   8   9
ATOM      9  C   UNL     1      -1.643  -0.151  -1.151  1.00  0.00     0.001 C 
ATOM     10  C   UNL     1      -2.390  -0.615  -2.407  1.00  0.00     0.008 C 
ATOM     11  C   UNL     1      -2.375   1.084  -0.592  1.00  0.00     0.008 C 
ENDBRANCH   8   9
BRANCH   8  12
ATOM     12  C   UNL     1      -1.677  -2.674  -0.301  1.00  0.00     0.002 A 
ATOM     13  C   UNL     1      -3.027  -2.962  -0.620  1.00  0.00     0.009 A 
ATOM     14  C   UNL     1      -0.825  -3.793  -0.297  1.00  0.00     0.128 A 
ATOM     15  C   UNL     1      -3.456  -4.232  -1.030  1.00  0.00     0.021 A 
ATOM     16  C   UNL     1      -1.252  -5.075  -0.662  1.00  0.00     0.060 A 
ATOM     17  F   UNL     1       0.461  -3.732   0.049  1.00  0.00    -0.207 F 
ATOM     18  C   UNL     1      -2.558  -5.287  -1.057  1.00  0.00     0.043 A 
ATOM     19  Cl  UNL     1      -3.064  -6.847  -1.567  1.00  0.00    -0.084 Cl
ENDBRANCH   8  12
ENDBRANCH   6   8
ENDBRANCH   5   6
ENDBRANCH   4   5
ENDBRANCH   3   4
ENDBRANCH   2   3
ENDBRANCH   1   2
BRANCH   1  20
ATOM     20  C   UNL     1       1.505  -2.941  -3.293  1.00  0.00     0.261 C 
BRANCH  20  21
ATOM     21  O   UNL     1       1.766  -4.121  -2.519  1.00  0.00    -0.460 OA
BRANCH  21  22
ATOM     22  C   UNL     1       3.052  -4.538  -2.550  1.00  0.00     0.338 C 
ATOM     23  O   UNL     1       3.951  -4.084  -3.245  1.00  0.00    -0.246 OA
BRANCH  22  24
ATOM     24  C   UNL     1       3.295  -5.526  -1.480  1.00  0.00     0.060 A 
ATOM     25  C   UNL     1       4.467  -5.377  -0.729  1.00  0.00     0.016 A 
ATOM     26  C   UNL     1       2.438  -6.604  -1.247  1.00  0.00     0.016 A 
ATOM     27  C   UNL     1       4.828  -6.346   0.203  1.00  0.00     0.010 A 
ATOM     28  C   UNL     1       2.797  -7.573  -0.304  1.00  0.00     0.010 A 
ATOM     29  C   UNL     1       4.021  -7.476   0.385  1.00  0.00    -0.014 A 
BRANCH  29  30
ATOM     30  C   UNL     1       4.558  -8.635   1.143  1.00  0.00     0.031 A 
ATOM     31  C   UNL     1       5.052  -9.833   0.372  1.00  0.00     0.074 A 
ATOM     32  C   UNL     1       4.661  -8.605   2.484  1.00  0.00     0.049 A 
ATOM     33  N   UNL     1       5.544 -10.961   0.816  1.00  0.00    -0.248 NA
ATOM     34  C   UNL     1       4.976  -9.749  -1.096  1.00  0.00     0.031 C 
ATOM     35  C   UNL     1       4.259  -7.488   3.338  1.00  0.00     0.029 A 
ATOM     36  N   UNL     1       5.138  -9.546   3.363  1.00  0.00    -0.354 N 
ATOM     37  C   UNL     1       5.824 -11.722  -0.314  1.00  0.00     0.074 A 
ATOM     38  C   UNL     1       5.411 -10.945  -1.461  1.00  0.00     0.031 C 
ATOM     39  C   UNL     1       4.502  -7.811   4.620  1.00  0.00     0.029 A 
ATOM     40  C   UNL     1       5.045  -9.167   4.681  1.00  0.00     0.049 A 
ATOM     41  H   UNL     1       5.511 -10.410   3.076  1.00  0.00     0.167 HD
ATOM     42  C   UNL     1       6.389 -12.951  -0.390  1.00  0.00     0.037 A 
ATOM     43  C   UNL     1       5.346  -9.845   5.807  1.00  0.00     0.037 A 
ATOM     44  C   UNL     1       6.811 -13.714   0.754  1.00  0.00     0.049 A 
ATOM     45  C   UNL     1       5.917 -11.237   5.700  1.00  0.00     0.074 A 
ATOM     46  C   UNL     1       7.411 -14.961   0.782  1.00  0.00     0.029 A 
ATOM     47  N   UNL     1       6.675 -13.308   2.073  1.00  0.00    -0.354 N 
ATOM     48  N   UNL     1       6.194 -11.937   4.625  1.00  0.00    -0.248 NA
ATOM     49  C   UNL     1       6.221 -11.930   6.960  1.00  0.00     0.031 C 
ATOM     50  C   UNL     1       7.587 -15.332   2.118  1.00  0.00     0.029 A 
ATOM     51  C   UNL     1       7.156 -14.290   2.923  1.00  0.00     0.049 A 
ATOM     52  H   UNL     1       6.292 -12.448   2.363  1.00  0.00     0.167 HD
ATOM     53  C   UNL     1       6.737 -13.136   5.078  1.00  0.00     0.074 A 
ATOM     54  C   UNL     1       6.757 -13.062   6.524  1.00  0.00     0.031 C 
ATOM     55  C   UNL     1       7.183 -14.199   4.363  1.00  0.00     0.037 A 
BRANCH  42  56
ATOM     56  C   UNL     1       6.561 -13.557  -1.757  1.00  0.00     0.058 A 
ATOM     57  C   UNL     1       7.499 -13.062  -2.677  1.00  0.00     0.135 A 
ATOM     58  C   UNL     1       5.799 -14.674  -2.138  1.00  0.00     0.135 A 
ATOM     59  F   UNL     1       8.241 -11.985  -2.373  1.00  0.00    -0.206 F 
ATOM     60  C   UNL     1       7.658 -13.636  -3.935  1.00  0.00     0.059 A 
ATOM     61  C   UNL     1       5.962 -15.283  -3.379  1.00  0.00     0.059 A 
ATOM     62  F   UNL     1       4.885 -15.187  -1.300  1.00  0.00    -0.206 F 
ATOM     63  C   UNL     1       6.885 -14.748  -4.276  1.00  0.00     0.060 A 
BRANCH  63  64
ATOM     64  S   UNL     1       7.110 -15.486  -5.907  1.00  0.00     0.124 S 
ATOM     65  O   UNL     1       6.510 -14.474  -6.771  1.00  0.00    -0.237 OA
ATOM     66  O   UNL     1       8.561 -15.613  -5.995  1.00  0.00    -0.237 OA
ATOM     67  O   UNL     1       6.378 -16.745  -5.816  1.00  0.00    -0.744 OA
ENDBRANCH  63  64
ENDBRANCH  42  56
BRANCH  43  68
ATOM     68  C   UNL     1       5.106  -9.223   7.138  1.00  0.00     0.058 A 
ATOM     69  C   UNL     1       6.172  -8.870   7.979  1.00  0.00     0.135 A 
ATOM     70  C   UNL     1       3.803  -8.978   7.599  1.00  0.00     0.135 A 
ATOM     71  F   UNL     1       7.436  -9.095   7.591  1.00  0.00    -0.206 F 
ATOM     72  C   UNL     1       5.955  -8.313   9.236  1.00  0.00     0.059 A 
ATOM     73  C   UNL     1       3.561  -8.396   8.839  1.00  0.00     0.059 A 
ATOM     74  F   UNL     1       2.748  -9.288   6.829  1.00  0.00    -0.206 F 
ATOM     75  C   UNL     1       4.645  -8.077   9.656  1.00  0.00     0.060 A 
BRANCH  75  76
ATOM     76  S   UNL     1       4.376  -7.315  11.271  1.00  0.00     0.124 S 
ATOM     77  O   UNL     1       4.731  -8.404  12.173  1.00  0.00    -0.237 OA
ATOM     78  O   UNL     1       5.302  -6.188  11.234  1.00  0.00    -0.237 OA
ATOM     79  O   UNL     1       2.961  -6.956  11.241  1.00  0.00    -0.744 OA
ENDBRANCH  75  76
ENDBRANCH  43  68
BRANCH  55  80
ATOM     80  C   UNL     1       7.779 -15.354   5.123  1.00  0.00     0.058 A 
ATOM     81  C   UNL     1       6.991 -16.224   5.893  1.00  0.00     0.135 A 
ATOM     82  C   UNL     1       9.154 -15.627   5.029  1.00  0.00     0.135 A 
ATOM     83  F   UNL     1       5.672 -16.008   6.020  1.00  0.00    -0.206 F 
ATOM     84  C   UNL     1       7.549 -17.307   6.565  1.00  0.00     0.059 A 
ATOM     85  C   UNL     1       9.728 -16.723   5.667  1.00  0.00     0.059 A 
ATOM     86  F   UNL     1       9.953 -14.836   4.296  1.00  0.00    -0.206 F 
ATOM     87  C   UNL     1       8.919 -17.550   6.443  1.00  0.00     0.060 A 
BRANCH  87  88
ATOM     88  S   UNL     1       9.624 -18.978   7.294  1.00  0.00     0.124 S 
ATOM     89  O   UNL     1       9.588 -18.539   8.685  1.00  0.00    -0.237 OA
ATOM     90  O   UNL     1       8.691 -20.044   6.942  1.00  0.00    -0.237 OA
ATOM     91  O   UNL     1      10.956 -19.100   6.709  1.00  0.00    -0.744 OA
ENDBRANCH  87  88
ENDBRANCH  55  80
ENDBRANCH  29  30
ENDBRANCH  22  24
ENDBRANCH  21  22
ENDBRANCH  20  21
ENDBRANCH   1  20
TORSDOF 19
