REMARK SMILES CC(C)N(CC1CC1)C(=O)N1CC[C@H](C(=O)OCCOCCOC(=O)c2ccc(-c3c4nc(c(-c5c(F)cc(S(=O)(=O)[O-])cc5F)c5ccc([nH]5)c(-c5c(F)cc(S(=O)(=O)[O-])cc5F)c5nc(c(-c6c(F)cc(S(=O)(=O)[O-])cc6F)c6ccc3[nH]6)C=C5)C=C4)cc2)[C@H]1C
REMARK SMILES IDX 19 1 18 2 17 3 15 4 16 5 14 6 11 7 12 8 92 9 13 10 93 11
REMARK SMILES IDX 9 12 10 13 4 14 2 15 1 16 3 17 5 18 6 19 7 20 8 21 20 22
REMARK SMILES IDX 21 23 22 24 23 25 24 26 25 27 26 28 27 29 91 30 28 31 90 32
REMARK SMILES IDX 29 33 30 34 31 35 84 36 32 37 89 38 83 39 85 40 33 41 88 42
REMARK SMILES IDX 82 43 81 44 34 46 68 47 47 48 67 49 48 50 51 51 66 52 86 53
REMARK SMILES IDX 49 54 50 55 65 57 87 58 52 59 35 60 36 61 45 62 37 63 38 64
REMARK SMILES IDX 44 65 46 66 39 67 40 68 41 69 42 70 43 71 69 72 70 73 79 74
REMARK SMILES IDX 71 75 72 76 78 77 80 78 73 79 74 80 75 81 76 82 77 83 53 84
REMARK SMILES IDX 54 85 63 86 55 87 56 88 62 89 64 90 57 91 58 92 59 93 60 94
REMARK SMILES IDX 61 95
REMARK H PARENT 85 45 51 56
REMARK Flexibility Score: inf
ROOT
ATOM      1  C   UNL     1      -6.049   4.570   4.236  1.00  0.00     0.202 C 
ENDROOT
BRANCH   1   2
ATOM      2  C   UNL     1      -5.643   4.751   2.770  1.00  0.00     0.261 C 
BRANCH   2   3
ATOM      3  O   UNL     1      -5.941   3.597   1.972  1.00  0.00    -0.463 OA
BRANCH   3   4
ATOM      4  C   UNL     1      -4.872   2.795   1.701  1.00  0.00     0.311 C 
ATOM      5  O   UNL     1      -3.725   3.015   2.058  1.00  0.00    -0.252 OA
BRANCH   4   6
ATOM      6  C   UNL     1      -5.336   1.554   0.964  1.00  0.00     0.123 C 
ATOM      7  N   UNL     1      -3.304   0.528   0.294  1.00  0.00    -0.321 N 
ATOM      8  C   UNL     1      -3.757   1.391  -0.807  1.00  0.00     0.122 C 
ATOM      9  C   UNL     1      -4.413   0.352   1.251  1.00  0.00     0.098 C 
ATOM     10  C   UNL     1      -5.220   1.719  -0.543  1.00  0.00     0.039 C 
ATOM     11  C   UNL     1      -5.245  -0.927   1.030  1.00  0.00     0.032 C 
BRANCH   7  12
ATOM     12  C   UNL     1      -1.957   0.672   0.638  1.00  0.00     0.320 C 
ATOM     13  O   UNL     1      -1.315   1.619   0.172  1.00  0.00    -0.248 OA
BRANCH  12  14
ATOM     14  N   UNL     1      -1.306  -0.295   1.396  1.00  0.00    -0.322 N 
BRANCH  14  15
ATOM     15  C   UNL     1       0.165  -0.170   1.571  1.00  0.00     0.080 C 
ATOM     16  C   UNL     1       0.929  -0.095   0.239  1.00  0.00     0.031 C 
ATOM     17  C   UNL     1       0.567   0.959   2.520  1.00  0.00     0.031 C 
ENDBRANCH  14  15
BRANCH  14  18
ATOM     18  C   UNL     1      -1.854  -1.579   1.797  1.00  0.00     0.125 C 
BRANCH  18  19
ATOM     19  C   UNL     1      -1.832  -1.802   3.286  1.00  0.00     0.009 C 
ATOM     20  C   UNL     1      -2.482  -0.887   4.298  1.00  0.00     0.006 C 
ATOM     21  C   UNL     1      -3.106  -2.216   3.987  1.00  0.00     0.006 C 
ENDBRANCH  18  19
ENDBRANCH  14  18
ENDBRANCH  12  14
ENDBRANCH   7  12
ENDBRANCH   4   6
ENDBRANCH   3   4
ENDBRANCH   2   3
ENDBRANCH   1   2
BRANCH   1  22
ATOM     22  O   UNL     1      -5.399   3.531   4.965  1.00  0.00    -0.374 OA
BRANCH  22  23
ATOM     23  C   UNL     1      -5.867   2.195   4.788  1.00  0.00     0.202 C 
BRANCH  23  24
ATOM     24  C   UNL     1      -7.211   1.839   5.434  1.00  0.00     0.261 C 
BRANCH  24  25
ATOM     25  O   UNL     1      -8.316   2.462   4.752  1.00  0.00    -0.460 OA
BRANCH  25  26
ATOM     26  C   UNL     1      -9.002   3.367   5.489  1.00  0.00     0.338 C 
ATOM     27  O   UNL     1      -8.822   3.649   6.667  1.00  0.00    -0.246 OA
BRANCH  26  28
ATOM     28  C   UNL     1      -9.910   4.137   4.622  1.00  0.00     0.060 A 
ATOM     29  C   UNL     1      -9.772   5.531   4.608  1.00  0.00     0.016 A 
ATOM     30  C   UNL     1     -10.929   3.516   3.898  1.00  0.00     0.016 A 
ATOM     31  C   UNL     1     -10.683   6.315   3.904  1.00  0.00     0.010 A 
ATOM     32  C   UNL     1     -11.848   4.305   3.200  1.00  0.00     0.010 A 
ATOM     33  C   UNL     1     -11.749   5.708   3.227  1.00  0.00    -0.014 A 
BRANCH  33  34
ATOM     34  C   UNL     1     -12.836   6.548   2.669  1.00  0.00     0.031 A 
ATOM     35  C   UNL     1     -14.110   6.708   3.452  1.00  0.00     0.074 A 
ATOM     36  C   UNL     1     -12.681   7.176   1.491  1.00  0.00     0.049 A 
ATOM     37  N   UNL     1     -15.195   7.368   3.145  1.00  0.00    -0.248 NA
ATOM     38  C   UNL     1     -14.164   6.031   4.757  1.00  0.00     0.031 C 
ATOM     39  C   UNL     1     -11.476   7.132   0.664  1.00  0.00     0.029 A 
ATOM     40  N   UNL     1     -13.546   7.974   0.787  1.00  0.00    -0.354 N 
ATOM     41  C   UNL     1     -16.066   7.183   4.213  1.00  0.00     0.074 A 
ATOM     42  C   UNL     1     -15.392   6.321   5.161  1.00  0.00     0.031 C 
ATOM     43  C   UNL     1     -11.680   7.870  -0.440  1.00  0.00     0.029 A 
ATOM     44  C   UNL     1     -13.038   8.411  -0.413  1.00  0.00     0.049 A 
ATOM     45  H   UNL     1     -14.445   8.212   1.110  1.00  0.00     0.167 HD
ATOM     46  C   UNL     1     -17.309   7.692   4.391  1.00  0.00     0.037 A 
ATOM     47  C   UNL     1     -13.611   9.148  -1.384  1.00  0.00     0.037 A 
ATOM     48  C   UNL     1     -17.976   8.540   3.438  1.00  0.00     0.049 A 
ATOM     49  C   UNL     1     -15.023   9.639  -1.203  1.00  0.00     0.074 A 
ATOM     50  C   UNL     1     -19.230   9.119   3.528  1.00  0.00     0.029 A 
ATOM     51  N   UNL     1     -17.448   8.923   2.213  1.00  0.00    -0.354 N 
ATOM     52  N   UNL     1     -15.830   9.471  -0.182  1.00  0.00    -0.248 NA
ATOM     53  C   UNL     1     -15.602  10.418  -2.306  1.00  0.00     0.031 C 
ATOM     54  C   UNL     1     -19.480   9.810   2.336  1.00  0.00     0.029 A 
ATOM     55  C   UNL     1     -18.360   9.706   1.525  1.00  0.00     0.049 A 
ATOM     56  H   UNL     1     -16.555   8.674   1.881  1.00  0.00     0.167 HD
ATOM     57  C   UNL     1     -17.002  10.146  -0.507  1.00  0.00     0.074 A 
ATOM     58  C   UNL     1     -16.797  10.728  -1.818  1.00  0.00     0.031 C 
ATOM     59  C   UNL     1     -18.142  10.277   0.217  1.00  0.00     0.037 A 
BRANCH  46  60
ATOM     60  C   UNL     1     -18.035   7.304   5.651  1.00  0.00     0.058 A 
ATOM     61  C   UNL     1     -17.638   7.780   6.911  1.00  0.00     0.135 A 
ATOM     62  C   UNL     1     -19.132   6.429   5.599  1.00  0.00     0.135 A 
ATOM     63  F   UNL     1     -16.586   8.607   7.021  1.00  0.00    -0.206 F 
ATOM     64  C   UNL     1     -18.272   7.365   8.078  1.00  0.00     0.059 A 
ATOM     65  C   UNL     1     -19.799   6.023   6.751  1.00  0.00     0.059 A 
ATOM     66  F   UNL     1     -19.555   5.944   4.421  1.00  0.00    -0.206 F 
ATOM     67  C   UNL     1     -19.346   6.478   7.988  1.00  0.00     0.060 A 
BRANCH  67  68
ATOM     68  S   UNL     1     -20.131   5.911   9.512  1.00  0.00     0.124 S 
ATOM     69  O   UNL     1     -19.137   4.969  10.017  1.00  0.00    -0.237 OA
ATOM     70  O   UNL     1     -20.274   7.149  10.271  1.00  0.00    -0.237 OA
ATOM     71  O   UNL     1     -21.381   5.316   9.049  1.00  0.00    -0.744 OA
ENDBRANCH  67  68
ENDBRANCH  46  60
BRANCH  47  72
ATOM     72  C   UNL     1     -12.838   9.474  -2.611  1.00  0.00     0.058 A 
ATOM     73  C   UNL     1     -12.373  10.775  -2.845  1.00  0.00     0.135 A 
ATOM     74  C   UNL     1     -12.516   8.483  -3.552  1.00  0.00     0.135 A 
ATOM     75  F   UNL     1     -12.667  11.758  -1.980  1.00  0.00    -0.206 F 
ATOM     76  C   UNL     1     -11.611  11.085  -3.967  1.00  0.00     0.059 A 
ATOM     77  C   UNL     1     -11.737   8.764  -4.670  1.00  0.00     0.059 A 
ATOM     78  F   UNL     1     -12.931   7.220  -3.369  1.00  0.00    -0.206 F 
ATOM     79  C   UNL     1     -11.290  10.069  -4.869  1.00  0.00     0.060 A 
BRANCH  79  80
ATOM     80  S   UNL     1     -10.230  10.466  -6.277  1.00  0.00     0.124 S 
ATOM     81  O   UNL     1     -11.135  11.240  -7.118  1.00  0.00    -0.237 OA
ATOM     82  O   UNL     1      -9.149  11.214  -5.642  1.00  0.00    -0.237 OA
ATOM     83  O   UNL     1      -9.854   9.153  -6.793  1.00  0.00    -0.744 OA
ENDBRANCH  79  80
ENDBRANCH  47  72
BRANCH  59  84
ATOM     84  C   UNL     1     -19.249  11.106  -0.376  1.00  0.00     0.058 A 
ATOM     85  C   UNL     1     -20.030  10.640  -1.446  1.00  0.00     0.135 A 
ATOM     86  C   UNL     1     -19.566  12.362   0.168  1.00  0.00     0.135 A 
ATOM     87  F   UNL     1     -19.765   9.450  -2.007  1.00  0.00    -0.206 F 
ATOM     88  C   UNL     1     -21.072  11.399  -1.969  1.00  0.00     0.059 A 
ATOM     89  C   UNL     1     -20.620  13.126  -0.323  1.00  0.00     0.059 A 
ATOM     90  F   UNL     1     -18.858  12.850   1.198  1.00  0.00    -0.206 F 
ATOM     91  C   UNL     1     -21.361  12.641  -1.399  1.00  0.00     0.060 A 
BRANCH  91  92
ATOM     92  S   UNL     1     -22.738  13.601  -2.065  1.00  0.00     0.124 S 
ATOM     93  O   UNL     1     -22.175  14.092  -3.318  1.00  0.00    -0.237 OA
ATOM     94  O   UNL     1     -23.788  12.595  -2.192  1.00  0.00    -0.237 OA
ATOM     95  O   UNL     1     -22.971  14.615  -1.041  1.00  0.00    -0.744 OA
ENDBRANCH  91  92
ENDBRANCH  59  84
ENDBRANCH  33  34
ENDBRANCH  26  28
ENDBRANCH  25  26
ENDBRANCH  24  25
ENDBRANCH  23  24
ENDBRANCH  22  23
ENDBRANCH   1  22
TORSDOF 22
