REMARK SMILES CCc1cc(OC(F)(F)F)cc2c1O[C@@H](C(F)(F)F)C(C(=O)OCCOCCOC(=O)c1ccc(-c3c4nc(c(-c5c(F)cc(S(=O)(=O)[O-])cc5F)c5ccc([nH]5)c(-c5c(F)cc(S(=O)(=O)[O-])cc5F)c5nc(c(-c6c(F)cc(S(=O)(=O)[O-])cc6F)c6ccc3[nH]6)C=C5)C=C4)cc1)=C2
REMARK SMILES IDX 27 1 26 2 25 3 24 4 23 5 21 6 22 7 20 8 3 9 4 10 13 11 5 12
REMARK SMILES IDX 12 13 14 14 11 15 98 16 15 17 2 18 1 19 6 20 7 21 8 22 9 23
REMARK SMILES IDX 10 24 16 25 17 26 18 27 19 28 28 29 29 30 30 31 31 32 32 33
REMARK SMILES IDX 33 34 97 35 34 36 96 37 35 38 36 39 37 40 90 41 38 42 95 43
REMARK SMILES IDX 89 44 91 45 39 46 94 47 88 48 87 49 40 51 74 52 53 53 73 54
REMARK SMILES IDX 54 55 57 56 72 57 92 58 55 59 56 60 71 62 93 63 58 64 41 65
REMARK SMILES IDX 42 66 51 67 43 68 44 69 50 70 52 71 45 72 46 73 47 74 48 75
REMARK SMILES IDX 49 76 75 77 76 78 85 79 77 80 78 81 84 82 86 83 79 84 80 85
REMARK SMILES IDX 81 86 82 87 83 88 59 89 60 90 69 91 61 92 62 93 68 94 70 95
REMARK SMILES IDX 63 96 64 97 65 98 66 99 67 100
REMARK H PARENT 91 50 57 61
REMARK Flexibility Score: inf
ROOT
ATOM      1  C   UNL     1       0.603   7.183  -0.336  1.00  0.00     0.202 C 
ENDROOT
BRANCH   1   2
ATOM      2  O   UNL     1      -0.503   8.077  -0.436  1.00  0.00    -0.374 OA
BRANCH   2   3
ATOM      3  C   UNL     1      -0.989   8.695   0.753  1.00  0.00     0.202 C 
BRANCH   3   4
ATOM      4  C   UNL     1      -1.784   7.833   1.738  1.00  0.00     0.261 C 
BRANCH   4   5
ATOM      5  O   UNL     1      -1.074   6.644   2.116  1.00  0.00    -0.460 OA
BRANCH   5   6
ATOM      6  C   UNL     1      -1.632   5.493   1.672  1.00  0.00     0.338 C 
ATOM      7  O   UNL     1      -2.709   5.375   1.113  1.00  0.00    -0.246 OA
BRANCH   6   8
ATOM      8  C   UNL     1      -0.700   4.365   1.823  1.00  0.00     0.087 C 
ATOM      9  C   UNL     1       0.959   0.573   2.284  1.00  0.00    -0.002 A 
ATOM     10  C   UNL     1       1.786   0.311   3.386  1.00  0.00     0.054 A 
ATOM     11  C   UNL     1       0.415   1.855   2.148  1.00  0.00     0.131 A 
ATOM     12  C   UNL     1       2.050   1.304   4.337  1.00  0.00     0.130 A 
ATOM     13  C   UNL     1       0.665   2.864   3.094  1.00  0.00     0.021 A 
ATOM     14  O   UNL     1      -0.441   2.064   1.094  1.00  0.00    -0.475 OA
ATOM     15  C   UNL     1       1.499   2.584   4.178  1.00  0.00     0.058 A 
ATOM     16  C   UNL     1      -0.071   4.129   2.987  1.00  0.00     0.027 C 
ATOM     17  C   UNL     1      -0.479   3.441   0.649  1.00  0.00     0.316 C 
BRANCH   9  18
ATOM     18  C   UNL     1       0.630  -0.524   1.297  1.00  0.00     0.036 C 
ATOM     19  C   UNL     1       1.240  -0.301  -0.081  1.00  0.00     0.009 C 
ENDBRANCH   9  18
BRANCH  12  20
ATOM     20  O   UNL     1       2.809   1.150   5.465  1.00  0.00    -0.406 OA
BRANCH  20  21
ATOM     21  C   UNL     1       3.143  -0.173   5.854  1.00  0.00     0.573 C 
ATOM     22  F   UNL     1       2.042  -0.950   5.961  1.00  0.00    -0.132 F 
ATOM     23  F   UNL     1       4.001  -0.733   4.974  1.00  0.00    -0.132 F 
ATOM     24  F   UNL     1       3.747  -0.136   7.062  1.00  0.00    -0.132 F 
ENDBRANCH  20  21
ENDBRANCH  12  20
BRANCH  17  25
ATOM     25  C   UNL     1      -1.398   3.528  -0.580  1.00  0.00     0.430 C 
ATOM     26  F   UNL     1      -1.365   4.761  -1.137  1.00  0.00    -0.167 F 
ATOM     27  F   UNL     1      -0.950   2.677  -1.545  1.00  0.00    -0.167 F 
ATOM     28  F   UNL     1      -2.676   3.188  -0.327  1.00  0.00    -0.167 F 
ENDBRANCH  17  25
ENDBRANCH   6   8
ENDBRANCH   5   6
ENDBRANCH   4   5
ENDBRANCH   3   4
ENDBRANCH   2   3
ENDBRANCH   1   2
BRANCH   1  29
ATOM     29  C   UNL     1       1.984   7.752   0.014  1.00  0.00     0.261 C 
BRANCH  29  30
ATOM     30  O   UNL     1       2.029   8.382   1.304  1.00  0.00    -0.460 OA
BRANCH  30  31
ATOM     31  C   UNL     1       2.206   9.727   1.261  1.00  0.00     0.338 C 
ATOM     32  O   UNL     1       2.378  10.415   0.269  1.00  0.00    -0.246 OA
BRANCH  31  33
ATOM     33  C   UNL     1       1.971  10.310   2.594  1.00  0.00     0.060 A 
ATOM     34  C   UNL     1       0.970  11.284   2.705  1.00  0.00     0.016 A 
ATOM     35  C   UNL     1       2.770   9.981   3.690  1.00  0.00     0.016 A 
ATOM     36  C   UNL     1       0.795  11.968   3.904  1.00  0.00     0.010 A 
ATOM     37  C   UNL     1       2.598  10.677   4.891  1.00  0.00     0.010 A 
ATOM     38  C   UNL     1       1.635  11.698   4.992  1.00  0.00    -0.014 A 
BRANCH  38  39
ATOM     39  C   UNL     1       1.591  12.588   6.177  1.00  0.00     0.031 A 
ATOM     40  C   UNL     1       2.648  13.648   6.334  1.00  0.00     0.074 A 
ATOM     41  C   UNL     1       0.596  12.481   7.075  1.00  0.00     0.049 A 
ATOM     42  N   UNL     1       2.802  14.528   7.289  1.00  0.00    -0.248 NA
ATOM     43  C   UNL     1       3.667  13.726   5.275  1.00  0.00     0.031 C 
ATOM     44  C   UNL     1      -0.499  11.514   7.010  1.00  0.00     0.029 A 
ATOM     45  N   UNL     1       0.347  13.193   8.222  1.00  0.00    -0.354 N 
ATOM     46  C   UNL     1       3.936  15.258   6.952  1.00  0.00     0.074 A 
ATOM     47  C   UNL     1       4.450  14.697   5.722  1.00  0.00     0.031 C 
ATOM     48  C   UNL     1      -1.299  11.688   8.075  1.00  0.00     0.029 A 
ATOM     49  C   UNL     1      -0.757  12.756   8.913  1.00  0.00     0.049 A 
ATOM     50  H   UNL     1       0.907  13.946   8.521  1.00  0.00     0.167 HD
ATOM     51  C   UNL     1       4.492  16.306   7.606  1.00  0.00     0.037 A 
ATOM     52  C   UNL     1      -1.261  13.160  10.096  1.00  0.00     0.037 A 
ATOM     53  C   UNL     1       3.968  16.863   8.826  1.00  0.00     0.049 A 
ATOM     54  C   UNL     1      -0.595  14.294  10.831  1.00  0.00     0.074 A 
ATOM     55  C   UNL     1       4.440  17.945   9.548  1.00  0.00     0.029 A 
ATOM     56  N   UNL     1       2.862  16.379   9.509  1.00  0.00    -0.354 N 
ATOM     57  N   UNL     1       0.457  14.998  10.483  1.00  0.00    -0.248 NA
ATOM     58  C   UNL     1      -1.186  14.694  12.115  1.00  0.00     0.031 C 
ATOM     59  C   UNL     1       3.654  18.080  10.697  1.00  0.00     0.029 A 
ATOM     60  C   UNL     1       2.655  17.120  10.661  1.00  0.00     0.049 A 
ATOM     61  H   UNL     1       2.307  15.620   9.218  1.00  0.00     0.167 HD
ATOM     62  C   UNL     1       0.637  15.940  11.492  1.00  0.00     0.074 A 
ATOM     63  C   UNL     1      -0.423  15.725  12.455  1.00  0.00     0.031 C 
ATOM     64  C   UNL     1       1.592  16.896  11.610  1.00  0.00     0.037 A 
BRANCH  51  65
ATOM     65  C   UNL     1       5.746  16.906   7.030  1.00  0.00     0.058 A 
ATOM     66  C   UNL     1       5.733  17.664   5.849  1.00  0.00     0.135 A 
ATOM     67  C   UNL     1       6.973  16.756   7.697  1.00  0.00     0.135 A 
ATOM     68  F   UNL     1       4.591  17.824   5.161  1.00  0.00    -0.206 F 
ATOM     69  C   UNL     1       6.894  18.235   5.337  1.00  0.00     0.059 A 
ATOM     70  C   UNL     1       8.142  17.341   7.219  1.00  0.00     0.059 A 
ATOM     71  F   UNL     1       7.045  16.038   8.829  1.00  0.00    -0.206 F 
ATOM     72  C   UNL     1       8.095  18.069   6.031  1.00  0.00     0.060 A 
BRANCH  72  73
ATOM     73  S   UNL     1       9.590  18.828   5.362  1.00  0.00     0.124 S 
ATOM     74  O   UNL     1       9.848  17.985   4.199  1.00  0.00    -0.237 OA
ATOM     75  O   UNL     1       9.147  20.188   5.073  1.00  0.00    -0.237 OA
ATOM     76  O   UNL     1      10.553  18.703   6.452  1.00  0.00    -0.744 OA
ENDBRANCH  72  73
ENDBRANCH  51  65
BRANCH  52  77
ATOM     77  C   UNL     1      -2.452  12.477  10.668  1.00  0.00     0.058 A 
ATOM     78  C   UNL     1      -3.687  13.133  10.778  1.00  0.00     0.135 A 
ATOM     79  C   UNL     1      -2.376  11.149  11.119  1.00  0.00     0.135 A 
ATOM     80  F   UNL     1      -3.809  14.405  10.372  1.00  0.00    -0.206 F 
ATOM     81  C   UNL     1      -4.799  12.505  11.330  1.00  0.00     0.059 A 
ATOM     82  C   UNL     1      -3.481  10.490  11.647  1.00  0.00     0.059 A 
ATOM     83  F   UNL     1      -1.221  10.471  11.025  1.00  0.00    -0.206 F 
ATOM     84  C   UNL     1      -4.687  11.181  11.759  1.00  0.00     0.060 A 
BRANCH  84  85
ATOM     85  S   UNL     1      -6.148  10.360  12.431  1.00  0.00     0.124 S 
ATOM     86  O   UNL     1      -6.280  11.011  13.729  1.00  0.00    -0.237 OA
ATOM     87  O   UNL     1      -7.167  10.693  11.441  1.00  0.00    -0.237 OA
ATOM     88  O   UNL     1      -5.755   8.954  12.466  1.00  0.00    -0.744 OA
ENDBRANCH  84  85
ENDBRANCH  52  77
BRANCH  64  89
ATOM     89  C   UNL     1       1.520  17.807  12.806  1.00  0.00     0.058 A 
ATOM     90  C   UNL     1       1.833  17.356  14.098  1.00  0.00     0.135 A 
ATOM     91  C   UNL     1       1.185  19.162  12.649  1.00  0.00     0.135 A 
ATOM     92  F   UNL     1       2.154  16.070  14.306  1.00  0.00    -0.206 F 
ATOM     93  C   UNL     1       1.790  18.210  15.196  1.00  0.00     0.059 A 
ATOM     94  C   UNL     1       1.165  20.041  13.727  1.00  0.00     0.059 A 
ATOM     95  F   UNL     1       0.889  19.649  11.433  1.00  0.00    -0.206 F 
ATOM     96  C   UNL     1       1.457  19.552  15.000  1.00  0.00     0.060 A 
BRANCH  96  97
ATOM     97  S   UNL     1       1.434  20.656  16.428  1.00  0.00     0.124 S 
ATOM     98  O   UNL     1       0.220  20.225  17.114  1.00  0.00    -0.237 OA
ATOM     99  O   UNL     1       2.690  20.328  17.096  1.00  0.00    -0.237 OA
ATOM    100  O   UNL     1       1.378  21.986  15.830  1.00  0.00    -0.744 OA
ENDBRANCH  96  97
ENDBRANCH  64  89
ENDBRANCH  38  39
ENDBRANCH  31  33
ENDBRANCH  30  31
ENDBRANCH  29  30
ENDBRANCH   1  29
TORSDOF 21
