REMARK SMILES Cc1c(N)cccc1SCc1cc(C(=O)OCCOCCOC(=O)c2ccc(-c3c4nc(c(-c5c(F)cc(S(=O)(=O)[O-])cc5F)c5ccc([nH]5)c(-c5c(F)cc(S(=O)(=O)[O-])cc5F)c5nc(c(-c6c(F)cc(S(=O)(=O)[O-])cc6F)c6ccc3[nH]6)C=C5)C=C4)cc2)no1
REMARK SMILES IDX 18 1 17 2 16 3 14 4 15 5 13 6 11 7 12 8 92 9 91 10 10 11
REMARK SMILES IDX 9 12 8 13 1 14 2 15 3 16 5 17 7 18 6 19 4 20 19 23 20 24
REMARK SMILES IDX 21 25 22 26 23 27 24 28 25 29 26 30 90 31 27 32 89 33 28 34
REMARK SMILES IDX 29 35 30 36 83 37 31 38 88 39 82 40 84 41 32 42 87 43 81 44
REMARK SMILES IDX 80 45 33 47 67 48 46 49 66 50 47 51 50 52 65 53 85 54 48 55
REMARK SMILES IDX 49 56 64 58 86 59 51 60 34 61 35 62 44 63 36 64 37 65 43 66
REMARK SMILES IDX 45 67 38 68 39 69 40 70 41 71 42 72 68 73 69 74 78 75 70 76
REMARK SMILES IDX 71 77 77 78 79 79 72 80 73 81 74 82 75 83 76 84 52 85 53 86
REMARK SMILES IDX 62 87 54 88 55 89 61 90 63 91 56 92 57 93 58 94 59 95 60 96
REMARK H PARENT 4 21 4 22 84 46 50 57
REMARK Flexibility Score: inf
ROOT
ATOM      1  C   UNL     1       3.466  -1.095   4.509  1.00  0.00     0.202 C 
ENDROOT
BRANCH   1   2
ATOM      2  C   UNL     1       2.167  -0.594   5.146  1.00  0.00     0.261 C 
BRANCH   2   3
ATOM      3  O   UNL     1       1.589   0.430   4.319  1.00  0.00    -0.458 OA
BRANCH   3   4
ATOM      4  C   UNL     1       1.837   1.722   4.688  1.00  0.00     0.360 C 
ATOM      5  O   UNL     1       2.305   2.059   5.770  1.00  0.00    -0.244 OA
BRANCH   4   6
ATOM      6  C   UNL     1       1.574   2.644   3.584  1.00  0.00     0.191 A 
ATOM      7  C   UNL     1       1.053   3.501   1.602  1.00  0.00     0.147 A 
ATOM      8  C   UNL     1       0.814   2.410   2.405  1.00  0.00     0.085 A 
ATOM      9  O   UNL     1       1.835   4.377   2.297  1.00  0.00    -0.360 OA
ATOM     10  N   UNL     1       2.151   3.855   3.531  1.00  0.00    -0.072 NA
BRANCH   7  11
ATOM     11  C   UNL     1       0.783   3.917   0.206  1.00  0.00     0.153 C 
BRANCH  11  12
ATOM     12  S   UNL     1      -0.613   3.181  -0.688  1.00  0.00    -0.118 SA
BRANCH  12  13
ATOM     13  C   UNL     1      -0.488   1.402  -0.475  1.00  0.00     0.013 A 
ATOM     14  C   UNL     1       2.018   1.144  -0.924  1.00  0.00     0.048 C 
ATOM     15  C   UNL     1       0.670   0.593  -0.542  1.00  0.00    -0.015 A 
ATOM     16  C   UNL     1       0.560  -0.788  -0.236  1.00  0.00     0.035 A 
ATOM     17  C   UNL     1      -0.692  -1.342   0.060  1.00  0.00     0.026 A 
ATOM     18  C   UNL     1      -1.735   0.796  -0.225  1.00  0.00     0.015 A 
ATOM     19  C   UNL     1      -1.840  -0.565   0.032  1.00  0.00     0.003 A 
BRANCH  16  20
ATOM     20  N   UNL     1       1.677  -1.601  -0.067  1.00  0.00    -0.398 N 
ATOM     21  H   UNL     1       2.575  -1.250  -0.263  1.00  0.00     0.156 HD
ATOM     22  H   UNL     1       1.568  -2.527   0.250  1.00  0.00     0.156 HD
ENDBRANCH  16  20
ENDBRANCH  12  13
ENDBRANCH  11  12
ENDBRANCH   7  11
ENDBRANCH   4   6
ENDBRANCH   3   4
ENDBRANCH   2   3
ENDBRANCH   1   2
BRANCH   1  23
ATOM     23  O   UNL     1       4.521  -0.140   4.644  1.00  0.00    -0.374 OA
BRANCH  23  24
ATOM     24  C   UNL     1       4.791   0.637   3.475  1.00  0.00     0.202 C 
BRANCH  24  25
ATOM     25  C   UNL     1       5.878   0.020   2.591  1.00  0.00     0.261 C 
BRANCH  25  26
ATOM     26  O   UNL     1       5.349  -1.092   1.847  1.00  0.00    -0.460 OA
BRANCH  26  27
ATOM     27  C   UNL     1       5.626  -2.317   2.355  1.00  0.00     0.338 C 
ATOM     28  O   UNL     1       6.342  -2.577   3.307  1.00  0.00    -0.246 OA
BRANCH  27  29
ATOM     29  C   UNL     1       4.787  -3.324   1.673  1.00  0.00     0.060 A 
ATOM     30  C   UNL     1       4.234  -4.351   2.449  1.00  0.00     0.016 A 
ATOM     31  C   UNL     1       4.562  -3.282   0.294  1.00  0.00     0.016 A 
ATOM     32  C   UNL     1       3.474  -5.353   1.845  1.00  0.00     0.010 A 
ATOM     33  C   UNL     1       3.799  -4.284  -0.309  1.00  0.00     0.010 A 
ATOM     34  C   UNL     1       3.273  -5.338   0.459  1.00  0.00    -0.014 A 
BRANCH  34  35
ATOM     35  C   UNL     1       2.673  -6.506  -0.227  1.00  0.00     0.031 A 
ATOM     36  C   UNL     1       3.592  -7.457  -0.943  1.00  0.00     0.074 A 
ATOM     37  C   UNL     1       1.343  -6.711  -0.232  1.00  0.00     0.049 A 
ATOM     38  N   UNL     1       3.300  -8.459  -1.729  1.00  0.00    -0.248 NA
ATOM     39  C   UNL     1       5.036  -7.238  -0.754  1.00  0.00     0.031 C 
ATOM     40  C   UNL     1       0.355  -5.889   0.466  1.00  0.00     0.029 A 
ATOM     41  N   UNL     1       0.596  -7.673  -0.863  1.00  0.00    -0.354 N 
ATOM     42  C   UNL     1       4.521  -8.974  -2.148  1.00  0.00     0.074 A 
ATOM     43  C   UNL     1       5.556  -8.165  -1.544  1.00  0.00     0.031 C 
ATOM     44  C   UNL     1      -0.873  -6.374   0.209  1.00  0.00     0.029 A 
ATOM     45  C   UNL     1      -0.759  -7.517  -0.697  1.00  0.00     0.049 A 
ATOM     46  H   UNL     1       0.993  -8.407  -1.385  1.00  0.00     0.167 HD
ATOM     47  C   UNL     1       4.758 -10.029  -2.961  1.00  0.00     0.037 A 
ATOM     48  C   UNL     1      -1.787  -8.203  -1.237  1.00  0.00     0.037 A 
ATOM     49  C   UNL     1       3.727 -10.843  -3.544  1.00  0.00     0.049 A 
ATOM     50  C   UNL     1      -1.503  -9.351  -2.171  1.00  0.00     0.074 A 
ATOM     51  C   UNL     1       3.864 -11.935  -4.382  1.00  0.00     0.029 A 
ATOM     52  N   UNL     1       2.369 -10.658  -3.342  1.00  0.00    -0.354 N 
ATOM     53  N   UNL     1      -0.344  -9.821  -2.569  1.00  0.00    -0.248 NA
ATOM     54  C   UNL     1      -2.662 -10.060  -2.735  1.00  0.00     0.031 C 
ATOM     55  C   UNL     1       2.584 -12.395  -4.709  1.00  0.00     0.029 A 
ATOM     56  C   UNL     1       1.653 -11.610  -4.045  1.00  0.00     0.049 A 
ATOM     57  H   UNL     1       1.971  -9.952  -2.781  1.00  0.00     0.167 HD
ATOM     58  C   UNL     1      -0.634 -10.899  -3.400  1.00  0.00     0.074 A 
ATOM     59  C   UNL     1      -2.077 -11.010  -3.454  1.00  0.00     0.031 C 
ATOM     60  C   UNL     1       0.217 -11.723  -4.056  1.00  0.00     0.037 A 
BRANCH  47  61
ATOM     61  C   UNL     1       6.189 -10.341  -3.284  1.00  0.00     0.058 A 
ATOM     62  C   UNL     1       7.042 -10.941  -2.345  1.00  0.00     0.135 A 
ATOM     63  C   UNL     1       6.711 -10.043  -4.553  1.00  0.00     0.135 A 
ATOM     64  F   UNL     1       6.596 -11.224  -1.111  1.00  0.00    -0.206 F 
ATOM     65  C   UNL     1       8.373 -11.210  -2.644  1.00  0.00     0.059 A 
ATOM     66  C   UNL     1       8.033 -10.323  -4.881  1.00  0.00     0.059 A 
ATOM     67  F   UNL     1       5.936  -9.462  -5.483  1.00  0.00    -0.206 F 
ATOM     68  C   UNL     1       8.861 -10.892  -3.913  1.00  0.00     0.060 A 
BRANCH  68  69
ATOM     69  S   UNL     1      10.593 -11.234  -4.287  1.00  0.00     0.124 S 
ATOM     70  O   UNL     1      11.260 -10.135  -3.595  1.00  0.00    -0.237 OA
ATOM     71  O   UNL     1      10.786 -12.558  -3.705  1.00  0.00    -0.237 OA
ATOM     72  O   UNL     1      10.642 -11.180  -5.745  1.00  0.00    -0.744 OA
ENDBRANCH  68  69
ENDBRANCH  47  61
BRANCH  48  73
ATOM     73  C   UNL     1      -3.187  -7.814  -0.920  1.00  0.00     0.058 A 
ATOM     74  C   UNL     1      -3.994  -8.620  -0.105  1.00  0.00     0.135 A 
ATOM     75  C   UNL     1      -3.744  -6.630  -1.426  1.00  0.00     0.135 A 
ATOM     76  F   UNL     1      -3.510  -9.768   0.393  1.00  0.00    -0.206 F 
ATOM     77  C   UNL     1      -5.308  -8.272   0.192  1.00  0.00     0.059 A 
ATOM     78  C   UNL     1      -5.048  -6.250  -1.129  1.00  0.00     0.059 A 
ATOM     79  F   UNL     1      -3.007  -5.819  -2.202  1.00  0.00    -0.206 F 
ATOM     80  C   UNL     1      -5.826  -7.082  -0.325  1.00  0.00     0.060 A 
BRANCH  80  81
ATOM     81  S   UNL     1      -7.513  -6.606   0.110  1.00  0.00     0.124 S 
ATOM     82  O   UNL     1      -8.296  -7.476  -0.760  1.00  0.00    -0.237 OA
ATOM     83  O   UNL     1      -7.564  -6.913   1.536  1.00  0.00    -0.237 OA
ATOM     84  O   UNL     1      -7.550  -5.183  -0.217  1.00  0.00    -0.744 OA
ENDBRANCH  80  81
ENDBRANCH  48  73
BRANCH  60  85
ATOM     85  C   UNL     1      -0.368 -12.857  -4.847  1.00  0.00     0.058 A 
ATOM     86  C   UNL     1      -0.916 -12.659  -6.122  1.00  0.00     0.135 A 
ATOM     87  C   UNL     1      -0.272 -14.174  -4.366  1.00  0.00     0.135 A 
ATOM     88  F   UNL     1      -1.033 -11.419  -6.622  1.00  0.00    -0.206 F 
ATOM     89  C   UNL     1      -1.345 -13.730  -6.899  1.00  0.00     0.059 A 
ATOM     90  C   UNL     1      -0.678 -15.260  -5.133  1.00  0.00     0.059 A 
ATOM     91  F   UNL     1       0.254 -14.413  -3.154  1.00  0.00    -0.206 F 
ATOM     92  C   UNL     1      -1.213 -15.028  -6.400  1.00  0.00     0.060 A 
BRANCH  92  93
ATOM     93  S   UNL     1      -1.693 -16.417  -7.450  1.00  0.00     0.124 S 
ATOM     94  O   UNL     1      -3.147 -16.380  -7.340  1.00  0.00    -0.237 OA
ATOM     95  O   UNL     1      -1.145 -16.034  -8.748  1.00  0.00    -0.237 OA
ATOM     96  O   UNL     1      -1.044 -17.561  -6.817  1.00  0.00    -0.744 OA
ENDBRANCH  92  93
ENDBRANCH  60  85
ENDBRANCH  34  35
ENDBRANCH  27  29
ENDBRANCH  26  27
ENDBRANCH  25  26
ENDBRANCH  24  25
ENDBRANCH  23  24
ENDBRANCH   1  23
TORSDOF 21
