REMARK SMILES C[C@@H](Nc1ccc(C(=O)OCCOCCOC(=O)c2ccc(-c3c4nc(c(-c5c(F)cc(S(=O)(=O)[O-])cc5F)c5ccc([nH]5)c(-c5c(F)cc(S(=O)(=O)[O-])cc5F)c5nc(c(-c6c(F)cc(S(=O)(=O)[O-])cc6F)c6ccc3[nH]6)C=C5)C=C4)cc2)c(F)c1F)C(N)=O
REMARK SMILES IDX 13 1 12 2 11 3 10 4 8 5 9 6 7 7 4 8 5 9 87 10 6 11 85 12
REMARK SMILES IDX 88 13 86 14 3 15 2 17 1 18 89 19 90 20 91 21 14 24 15 25
REMARK SMILES IDX 16 26 17 27 18 28 19 29 20 30 84 31 21 32 83 33 22 34 23 35
REMARK SMILES IDX 24 36 77 37 25 38 82 39 76 40 78 41 26 42 81 43 75 44 74 45
REMARK SMILES IDX 27 47 61 48 40 49 60 50 41 51 44 52 59 53 79 54 42 55 43 56
REMARK SMILES IDX 58 58 80 59 45 60 28 61 29 62 38 63 30 64 31 65 37 66 39 67
REMARK SMILES IDX 32 68 33 69 34 70 35 71 36 72 62 73 63 74 72 75 64 76 65 77
REMARK SMILES IDX 71 78 73 79 66 80 67 81 68 82 69 83 70 84 46 85 47 86 56 87
REMARK SMILES IDX 48 88 49 89 55 90 57 91 50 92 51 93 52 94 53 95 54 96
REMARK H PARENT 3 16 90 22 90 23 78 46 44 57
REMARK Flexibility Score: inf
ROOT
ATOM      1  O   UNL     1      -5.163  -3.208  -6.588  1.00  0.00    -0.374 OA
ENDROOT
BRANCH   1   2
ATOM      2  C   UNL     1      -4.455  -4.152  -7.395  1.00  0.00     0.202 C 
BRANCH   2   3
ATOM      3  C   UNL     1      -3.177  -3.633  -8.061  1.00  0.00     0.261 C 
BRANCH   3   4
ATOM      4  O   UNL     1      -2.214  -3.218  -7.080  1.00  0.00    -0.460 OA
BRANCH   4   5
ATOM      5  C   UNL     1      -1.906  -1.903  -7.077  1.00  0.00     0.341 C 
ATOM      6  O   UNL     1      -2.283  -1.055  -7.875  1.00  0.00    -0.246 OA
BRANCH   5   7
ATOM      7  C   UNL     1      -1.190  -1.541  -5.842  1.00  0.00     0.099 A 
ATOM      8  C   UNL     1       0.069  -0.734  -3.440  1.00  0.00     0.074 A 
ATOM      9  C   UNL     1      -0.873   0.087  -4.061  1.00  0.00     0.030 A 
ATOM     10  C   UNL     1       0.379  -1.956  -4.074  1.00  0.00     0.182 A 
ATOM     11  C   UNL     1      -1.500  -0.310  -5.248  1.00  0.00     0.021 A 
ATOM     12  C   UNL     1      -0.241  -2.363  -5.252  1.00  0.00     0.175 A 
ATOM     13  F   UNL     1       1.299  -2.756  -3.509  1.00  0.00    -0.201 F 
ATOM     14  F   UNL     1       0.100  -3.539  -5.798  1.00  0.00    -0.203 F 
BRANCH   8  15
ATOM     15  N   UNL     1       0.681  -0.440  -2.236  1.00  0.00    -0.371 N 
ATOM     16  H   UNL     1       1.497  -0.954  -2.039  1.00  0.00     0.161 HD
BRANCH  15  17
ATOM     17  C   UNL     1       0.284   0.531  -1.215  1.00  0.00     0.165 C 
ATOM     18  C   UNL     1       0.940   0.130   0.108  1.00  0.00     0.041 C 
BRANCH  17  19
ATOM     19  C   UNL     1      -1.238   0.597  -0.970  1.00  0.00     0.239 C 
ATOM     20  N   UNL     1      -1.808   1.833  -1.134  1.00  0.00    -0.368 N 
ATOM     21  O   UNL     1      -1.939  -0.355  -0.638  1.00  0.00    -0.273 OA
ATOM     22  H   UNL     1      -1.250   2.600  -1.401  1.00  0.00     0.159 HD
ATOM     23  H   UNL     1      -2.773   1.955  -0.985  1.00  0.00     0.159 HD
ENDBRANCH  17  19
ENDBRANCH  15  17
ENDBRANCH   8  15
ENDBRANCH   5   7
ENDBRANCH   4   5
ENDBRANCH   3   4
ENDBRANCH   2   3
ENDBRANCH   1   2
BRANCH   1  24
ATOM     24  C   UNL     1      -4.690  -3.023  -5.252  1.00  0.00     0.202 C 
BRANCH  24  25
ATOM     25  C   UNL     1      -5.092  -4.097  -4.232  1.00  0.00     0.261 C 
BRANCH  25  26
ATOM     26  O   UNL     1      -4.459  -5.361  -4.498  1.00  0.00    -0.460 OA
BRANCH  26  27
ATOM     27  C   UNL     1      -5.290  -6.343  -4.920  1.00  0.00     0.338 C 
ATOM     28  O   UNL     1      -6.509  -6.285  -5.019  1.00  0.00    -0.246 OA
BRANCH  27  29
ATOM     29  C   UNL     1      -4.505  -7.478  -5.439  1.00  0.00     0.060 A 
ATOM     30  C   UNL     1      -4.802  -7.936  -6.729  1.00  0.00     0.016 A 
ATOM     31  C   UNL     1      -3.529  -8.115  -4.668  1.00  0.00     0.016 A 
ATOM     32  C   UNL     1      -4.149  -9.056  -7.240  1.00  0.00     0.010 A 
ATOM     33  C   UNL     1      -2.882  -9.245  -5.181  1.00  0.00     0.010 A 
ATOM     34  C   UNL     1      -3.206  -9.735  -6.458  1.00  0.00    -0.014 A 
BRANCH  34  35
ATOM     35  C   UNL     1      -2.629 -11.012  -6.944  1.00  0.00     0.031 A 
ATOM     36  C   UNL     1      -3.170 -12.314  -6.422  1.00  0.00     0.074 A 
ATOM     37  C   UNL     1      -1.633 -11.008  -7.848  1.00  0.00     0.049 A 
ATOM     38  N   UNL     1      -2.788 -13.536  -6.688  1.00  0.00    -0.248 NA
ATOM     39  C   UNL     1      -4.290 -12.226  -5.473  1.00  0.00     0.031 C 
ATOM     40  C   UNL     1      -1.039  -9.811  -8.441  1.00  0.00     0.029 A 
ATOM     41  N   UNL     1      -0.936 -12.046  -8.414  1.00  0.00    -0.354 N 
ATOM     42  C   UNL     1      -3.610 -14.363  -5.932  1.00  0.00     0.074 A 
ATOM     43  C   UNL     1      -4.497 -13.502  -5.179  1.00  0.00     0.031 C 
ATOM     44  C   UNL     1      -0.052 -10.181  -9.274  1.00  0.00     0.029 A 
ATOM     45  C   UNL     1       0.074 -11.637  -9.251  1.00  0.00     0.049 A 
ATOM     46  H   UNL     1      -1.141 -12.993  -8.238  1.00  0.00     0.167 HD
ATOM     47  C   UNL     1      -3.625 -15.717  -5.874  1.00  0.00     0.037 A 
ATOM     48  C   UNL     1       1.012 -12.354  -9.902  1.00  0.00     0.037 A 
ATOM     49  C   UNL     1      -2.738 -16.567  -6.626  1.00  0.00     0.049 A 
ATOM     50  C   UNL     1       1.010 -13.854  -9.785  1.00  0.00     0.074 A 
ATOM     51  C   UNL     1      -2.707 -17.950  -6.674  1.00  0.00     0.029 A 
ATOM     52  N   UNL     1      -1.713 -16.117  -7.446  1.00  0.00    -0.354 N 
ATOM     53  N   UNL     1       0.196 -14.627  -9.106  1.00  0.00    -0.248 NA
ATOM     54  C   UNL     1       2.053 -14.581 -10.523  1.00  0.00     0.031 C 
ATOM     55  C   UNL     1      -1.630 -18.336  -7.480  1.00  0.00     0.029 A 
ATOM     56  C   UNL     1      -1.021 -17.195  -7.976  1.00  0.00     0.049 A 
ATOM     57  H   UNL     1      -1.508 -15.171  -7.626  1.00  0.00     0.167 HD
ATOM     58  C   UNL     1       0.619 -15.931  -9.344  1.00  0.00     0.074 A 
ATOM     59  C   UNL     1       1.751 -15.843 -10.244  1.00  0.00     0.031 C 
ATOM     60  C   UNL     1       0.115 -17.094  -8.861  1.00  0.00     0.037 A 
BRANCH  47  61
ATOM     61  C   UNL     1      -4.612 -16.361  -4.940  1.00  0.00     0.058 A 
ATOM     62  C   UNL     1      -5.991 -16.368  -5.206  1.00  0.00     0.135 A 
ATOM     63  C   UNL     1      -4.169 -16.997  -3.769  1.00  0.00     0.135 A 
ATOM     64  F   UNL     1      -6.471 -15.762  -6.304  1.00  0.00    -0.206 F 
ATOM     65  C   UNL     1      -6.898 -16.954  -4.328  1.00  0.00     0.059 A 
ATOM     66  C   UNL     1      -5.056 -17.612  -2.890  1.00  0.00     0.059 A 
ATOM     67  F   UNL     1      -2.862 -17.020  -3.466  1.00  0.00    -0.206 F 
ATOM     68  C   UNL     1      -6.421 -17.570  -3.170  1.00  0.00     0.060 A 
BRANCH  68  69
ATOM     69  S   UNL     1      -7.610 -18.316  -2.034  1.00  0.00     0.124 S 
ATOM     70  O   UNL     1      -8.206 -17.133  -1.420  1.00  0.00    -0.237 OA
ATOM     71  O   UNL     1      -8.477 -19.066  -2.937  1.00  0.00    -0.237 OA
ATOM     72  O   UNL     1      -6.776 -19.127  -1.153  1.00  0.00    -0.744 OA
ENDBRANCH  68  69
ENDBRANCH  47  61
BRANCH  48  73
ATOM     73  C   UNL     1       2.042 -11.648 -10.709  1.00  0.00     0.058 A 
ATOM     74  C   UNL     1       2.028 -11.695 -12.110  1.00  0.00     0.135 A 
ATOM     75  C   UNL     1       3.041 -10.879 -10.090  1.00  0.00     0.135 A 
ATOM     76  F   UNL     1       1.101 -12.428 -12.746  1.00  0.00    -0.206 F 
ATOM     77  C   UNL     1       2.966 -11.005 -12.871  1.00  0.00     0.059 A 
ATOM     78  C   UNL     1       3.975 -10.161 -10.829  1.00  0.00     0.059 A 
ATOM     79  F   UNL     1       3.092 -10.796  -8.751  1.00  0.00    -0.206 F 
ATOM     80  C   UNL     1       3.930 -10.232 -12.221  1.00  0.00     0.060 A 
BRANCH  80  81
ATOM     81  S   UNL     1       5.091  -9.274 -13.219  1.00  0.00     0.124 S 
ATOM     82  O   UNL     1       5.973 -10.318 -13.729  1.00  0.00    -0.237 OA
ATOM     83  O   UNL     1       4.208  -8.649 -14.199  1.00  0.00    -0.237 OA
ATOM     84  O   UNL     1       5.689  -8.358 -12.253  1.00  0.00    -0.744 OA
ENDBRANCH  80  81
ENDBRANCH  48  73
BRANCH  60  85
ATOM     85  C   UNL     1       0.778 -18.371  -9.300  1.00  0.00     0.058 A 
ATOM     86  C   UNL     1       2.037 -18.752  -8.809  1.00  0.00     0.135 A 
ATOM     87  C   UNL     1       0.125 -19.250 -10.180  1.00  0.00     0.135 A 
ATOM     88  F   UNL     1       2.707 -17.946  -7.971  1.00  0.00    -0.206 F 
ATOM     89  C   UNL     1       2.636 -19.948  -9.193  1.00  0.00     0.059 A 
ATOM     90  C   UNL     1       0.693 -20.464 -10.556  1.00  0.00     0.059 A 
ATOM     91  F   UNL     1      -1.085 -18.940 -10.671  1.00  0.00    -0.206 F 
ATOM     92  C   UNL     1       1.955 -20.799 -10.066  1.00  0.00     0.060 A 
BRANCH  92  93
ATOM     93  S   UNL     1       2.728 -22.363 -10.531  1.00  0.00     0.124 S 
ATOM     94  O   UNL     1       3.761 -21.916 -11.460  1.00  0.00    -0.237 OA
ATOM     95  O   UNL     1       3.206 -22.870  -9.249  1.00  0.00    -0.237 OA
ATOM     96  O   UNL     1       1.632 -23.120 -11.128  1.00  0.00    -0.744 OA
ENDBRANCH  92  93
ENDBRANCH  60  85
ENDBRANCH  34  35
ENDBRANCH  27  29
ENDBRANCH  26  27
ENDBRANCH  25  26
ENDBRANCH  24  25
ENDBRANCH   1  24
TORSDOF 20
