REMARK SMILES CC[C@](C)(NC(=O)CCOc1ccc(Cl)c(Cl)c1)C(=O)OCCOCCOC(=O)c1ccc(-c2c3nc(c(-c4c(F)cc(S(=O)(=O)[O-])cc4F)c4ccc([nH]4)c(-c4c(F)cc(S(=O)(=O)[O-])cc4F)c4nc(c(-c5c(F)cc(S(=O)(=O)[O-])cc5F)c5ccc2[nH]5)C=C4)C=C3)cc1
REMARK SMILES IDX 23 1 22 2 21 3 19 4 20 5 3 6 4 7 2 8 1 9 5 10 6 11 7 13 8 14
REMARK SMILES IDX 9 15 10 16 11 17 12 18 18 19 13 20 16 21 14 22 17 23 15 24
REMARK SMILES IDX 24 25 25 26 26 27 27 28 28 29 29 30 30 31 31 32 95 33 32 34
REMARK SMILES IDX 94 35 33 36 34 37 35 38 88 39 36 40 93 41 87 42 89 43 37 44
REMARK SMILES IDX 92 45 86 46 85 47 38 49 72 50 51 51 71 52 52 53 55 54 70 55
REMARK SMILES IDX 90 56 53 57 54 58 69 60 91 61 56 62 39 63 40 64 49 65 41 66
REMARK SMILES IDX 42 67 48 68 50 69 43 70 44 71 45 72 46 73 47 74 73 75 74 76
REMARK SMILES IDX 83 77 75 78 76 79 82 80 84 81 77 82 78 83 79 84 80 85 81 86
REMARK SMILES IDX 57 87 58 88 67 89 59 90 60 91 66 92 68 93 61 94 62 95 63 96
REMARK SMILES IDX 64 97 65 98
REMARK H PARENT 5 12 89 48 55 59
REMARK Flexibility Score: inf
ROOT
ATOM      1  C   UNL     1       5.508   1.866  -2.485  1.00  0.00     0.202 C 
ENDROOT
BRANCH   1   2
ATOM      2  C   UNL     1       4.725   0.549  -2.510  1.00  0.00     0.261 C 
BRANCH   2   3
ATOM      3  O   UNL     1       3.337   0.799  -2.855  1.00  0.00    -0.462 OA
BRANCH   3   4
ATOM      4  C   UNL     1       2.546  -0.311  -2.817  1.00  0.00     0.331 C 
ATOM      5  O   UNL     1       2.973  -1.416  -2.493  1.00  0.00    -0.249 OA
BRANCH   4   6
ATOM      6  C   UNL     1       1.021   0.005  -2.961  1.00  0.00     0.135 C 
ATOM      7  C   UNL     1       0.497   0.153  -1.519  1.00  0.00     0.047 C 
BRANCH   6   8
ATOM      8  C   UNL     1       0.346  -1.269  -3.588  1.00  0.00     0.037 C 
ATOM      9  C   UNL     1      -1.176  -1.341  -3.410  1.00  0.00     0.007 C 
ENDBRANCH   6   8
BRANCH   6  10
ATOM     10  N   UNL     1       0.561   1.141  -3.830  1.00  0.00    -0.340 N 
ATOM     11  C   UNL     1       0.654   2.477  -3.957  1.00  0.00     0.224 C 
ATOM     12  H   UNL     1      -0.001   0.785  -4.556  1.00  0.00     0.164 HD
ATOM     13  O   UNL     1      -0.251   3.014  -4.607  1.00  0.00    -0.275 OA
BRANCH  11  14
ATOM     14  C   UNL     1       1.816   3.305  -3.510  1.00  0.00     0.141 C 
BRANCH  14  15
ATOM     15  C   UNL     1       2.031   3.368  -2.022  1.00  0.00     0.239 C 
BRANCH  15  16
ATOM     16  O   UNL     1       1.290   4.390  -1.351  1.00  0.00    -0.493 OA
BRANCH  16  17
ATOM     17  C   UNL     1       0.108   3.898  -0.884  1.00  0.00     0.120 A 
ATOM     18  C   UNL     1      -1.036   4.172  -1.622  1.00  0.00     0.048 A 
ATOM     19  C   UNL     1       0.047   3.157   0.295  1.00  0.00     0.068 A 
ATOM     20  C   UNL     1      -2.253   3.627  -1.228  1.00  0.00     0.026 A 
ATOM     21  C   UNL     1      -1.176   2.613   0.694  1.00  0.00     0.063 A 
ATOM     22  C   UNL     1      -2.326   2.837  -0.077  1.00  0.00     0.059 A 
ATOM     23  Cl  UNL     1      -1.194   1.633   2.117  1.00  0.00    -0.083 Cl
ATOM     24  Cl  UNL     1      -3.859   2.150   0.324  1.00  0.00    -0.083 Cl
ENDBRANCH  16  17
ENDBRANCH  15  16
ENDBRANCH  14  15
ENDBRANCH  11  14
ENDBRANCH   6  10
ENDBRANCH   4   6
ENDBRANCH   3   4
ENDBRANCH   2   3
ENDBRANCH   1   2
BRANCH   1  25
ATOM     25  O   UNL     1       5.950   2.272  -1.183  1.00  0.00    -0.374 OA
BRANCH  25  26
ATOM     26  C   UNL     1       5.119   3.191  -0.477  1.00  0.00     0.202 C 
BRANCH  26  27
ATOM     27  C   UNL     1       5.186   4.668  -0.940  1.00  0.00     0.261 C 
BRANCH  27  28
ATOM     28  O   UNL     1       5.068   4.826  -2.369  1.00  0.00    -0.460 OA
BRANCH  28  29
ATOM     29  C   UNL     1       6.245   5.068  -3.004  1.00  0.00     0.338 C 
ATOM     30  O   UNL     1       7.305   5.330  -2.475  1.00  0.00    -0.246 OA
BRANCH  29  31
ATOM     31  C   UNL     1       6.135   4.779  -4.457  1.00  0.00     0.060 A 
ATOM     32  C   UNL     1       7.194   4.056  -5.018  1.00  0.00     0.016 A 
ATOM     33  C   UNL     1       5.098   5.241  -5.274  1.00  0.00     0.016 A 
ATOM     34  C   UNL     1       7.269   3.869  -6.397  1.00  0.00     0.010 A 
ATOM     35  C   UNL     1       5.175   5.049  -6.667  1.00  0.00     0.010 A 
ATOM     36  C   UNL     1       6.290   4.408  -7.241  1.00  0.00    -0.014 A 
BRANCH  36  37
ATOM     37  C   UNL     1       6.575   4.442  -8.704  1.00  0.00     0.031 A 
ATOM     38  C   UNL     1       7.090   5.719  -9.322  1.00  0.00     0.074 A 
ATOM     39  C   UNL     1       6.522   3.325  -9.455  1.00  0.00     0.049 A 
ATOM     40  N   UNL     1       7.546   5.931 -10.531  1.00  0.00    -0.248 NA
ATOM     41  C   UNL     1       7.104   6.912  -8.460  1.00  0.00     0.031 C 
ATOM     42  C   UNL     1       6.082   2.011  -8.988  1.00  0.00     0.029 A 
ATOM     43  N   UNL     1       6.867   3.114 -10.770  1.00  0.00    -0.354 N 
ATOM     44  C   UNL     1       7.910   7.272 -10.572  1.00  0.00     0.074 A 
ATOM     45  C   UNL     1       7.581   7.836  -9.280  1.00  0.00     0.031 C 
ATOM     46  C   UNL     1       6.197   1.129  -9.996  1.00  0.00     0.029 A 
ATOM     47  C   UNL     1       6.705   1.814 -11.185  1.00  0.00     0.049 A 
ATOM     48  H   UNL     1       7.201   3.829 -11.359  1.00  0.00     0.167 HD
ATOM     49  C   UNL     1       8.487   7.971 -11.579  1.00  0.00     0.037 A 
ATOM     50  C   UNL     1       6.938   1.237 -12.383  1.00  0.00     0.037 A 
ATOM     51  C   UNL     1       8.829   7.424 -12.865  1.00  0.00     0.049 A 
ATOM     52  C   UNL     1       7.518   2.051 -13.512  1.00  0.00     0.074 A 
ATOM     53  C   UNL     1       9.437   8.060 -13.934  1.00  0.00     0.029 A 
ATOM     54  N   UNL     1       8.587   6.119 -13.263  1.00  0.00    -0.354 N 
ATOM     55  N   UNL     1       7.895   3.307 -13.516  1.00  0.00    -0.248 NA
ATOM     56  C   UNL     1       7.712   1.365 -14.799  1.00  0.00     0.031 C 
ATOM     57  C   UNL     1       9.521   7.152 -14.995  1.00  0.00     0.029 A 
ATOM     58  C   UNL     1       9.008   5.938 -14.571  1.00  0.00     0.049 A 
ATOM     59  H   UNL     1       8.177   5.423 -12.700  1.00  0.00     0.167 HD
ATOM     60  C   UNL     1       8.393   3.552 -14.793  1.00  0.00     0.074 A 
ATOM     61  C   UNL     1       8.279   2.313 -15.533  1.00  0.00     0.031 C 
ATOM     62  C   UNL     1       8.901   4.701 -15.304  1.00  0.00     0.037 A 
BRANCH  49  63
ATOM     63  C   UNL     1       8.774   9.425 -11.333  1.00  0.00     0.058 A 
ATOM     64  C   UNL     1       9.825   9.837 -10.499  1.00  0.00     0.135 A 
ATOM     65  C   UNL     1       8.007  10.418 -11.963  1.00  0.00     0.135 A 
ATOM     66  F   UNL     1      10.578   8.928  -9.860  1.00  0.00    -0.206 F 
ATOM     67  C   UNL     1      10.090  11.185 -10.278  1.00  0.00     0.059 A 
ATOM     68  C   UNL     1       8.269  11.771 -11.775  1.00  0.00     0.059 A 
ATOM     69  F   UNL     1       6.990  10.076 -12.770  1.00  0.00    -0.206 F 
ATOM     70  C   UNL     1       9.304  12.144 -10.918  1.00  0.00     0.060 A 
BRANCH  70  71
ATOM     71  S   UNL     1       9.655  13.889 -10.618  1.00  0.00     0.124 S 
ATOM     72  O   UNL     1       9.127  14.063  -9.269  1.00  0.00    -0.237 OA
ATOM     73  O   UNL     1      11.109  13.942 -10.741  1.00  0.00    -0.237 OA
ATOM     74  O   UNL     1       8.915  14.571 -11.675  1.00  0.00    -0.744 OA
ENDBRANCH  70  71
ENDBRANCH  49  63
BRANCH  50  75
ATOM     75  C   UNL     1       6.617  -0.201 -12.588  1.00  0.00     0.058 A 
ATOM     76  C   UNL     1       7.628  -1.159 -12.760  1.00  0.00     0.135 A 
ATOM     77  C   UNL     1       5.285  -0.640 -12.639  1.00  0.00     0.135 A 
ATOM     78  F   UNL     1       8.917  -0.786 -12.736  1.00  0.00    -0.206 F 
ATOM     79  C   UNL     1       7.330  -2.499 -12.990  1.00  0.00     0.059 A 
ATOM     80  C   UNL     1       4.963  -1.977 -12.844  1.00  0.00     0.059 A 
ATOM     81  F   UNL     1       4.282   0.237 -12.475  1.00  0.00    -0.206 F 
ATOM     82  C   UNL     1       5.992  -2.898 -13.029  1.00  0.00     0.060 A 
BRANCH  82  83
ATOM     83  S   UNL     1       5.612  -4.645 -13.282  1.00  0.00     0.124 S 
ATOM     84  O   UNL     1       5.880  -4.800 -14.707  1.00  0.00    -0.237 OA
ATOM     85  O   UNL     1       6.555  -5.299 -12.379  1.00  0.00    -0.237 OA
ATOM     86  O   UNL     1       4.210  -4.742 -12.887  1.00  0.00    -0.744 OA
ENDBRANCH  82  83
ENDBRANCH  50  75
BRANCH  62  87
ATOM     87  C   UNL     1       9.404   4.680 -16.723  1.00  0.00     0.058 A 
ATOM     88  C   UNL     1       8.525   4.641 -17.816  1.00  0.00     0.135 A 
ATOM     89  C   UNL     1      10.780   4.766 -16.993  1.00  0.00     0.135 A 
ATOM     90  F   UNL     1       7.201   4.555 -17.616  1.00  0.00    -0.206 F 
ATOM     91  C   UNL     1       8.993   4.669 -19.127  1.00  0.00     0.059 A 
ATOM     92  C   UNL     1      11.269   4.820 -18.295  1.00  0.00     0.059 A 
ATOM     93  F   UNL     1      11.665   4.818 -15.984  1.00  0.00    -0.206 F 
ATOM     94  C   UNL     1      10.367   4.761 -19.357  1.00  0.00     0.060 A 
BRANCH  94  95
ATOM     95  S   UNL     1      10.960   4.837 -21.062  1.00  0.00     0.124 S 
ATOM     96  O   UNL     1      10.804   3.451 -21.490  1.00  0.00    -0.237 OA
ATOM     97  O   UNL     1      10.043   5.795 -21.671  1.00  0.00    -0.237 OA
ATOM     98  O   UNL     1      12.338   5.300 -20.922  1.00  0.00    -0.744 OA
ENDBRANCH  94  95
ENDBRANCH  62  87
ENDBRANCH  36  37
ENDBRANCH  29  31
ENDBRANCH  28  29
ENDBRANCH  27  28
ENDBRANCH  26  27
ENDBRANCH  25  26
ENDBRANCH   1  25
TORSDOF 23
