REMARK SMILES Cc1c(NC(=O)c2ccc(-c3cccc(Cl)c3)o2)cccc1C(=O)OCCOCCOC(=O)c1ccc(-c2c3nc(c(-c4c(F)cc(S(=O)(=O)[O-])cc4F)c4ccc([nH]4)c(-c4c(F)cc(S(=O)(=O)[O-])cc4F)c4nc(c(-c5c(F)cc(S(=O)(=O)[O-])cc5F)c5ccc2[nH]5)C=C4)C=C3)cc1
REMARK SMILES IDX 28 1 27 2 26 3 25 4 23 5 24 6 22 7 1 8 2 9 3 10 19 11 21 12
REMARK SMILES IDX 20 13 4 14 5 15 6 17 7 18 8 19 18 20 9 21 10 22 11 23 12 24
REMARK SMILES IDX 17 25 13 26 15 27 14 28 16 29 29 30 30 31 31 32 32 33 33 34
REMARK SMILES IDX 34 35 35 36 99 37 36 38 98 39 37 40 38 41 39 42 92 43 40 44
REMARK SMILES IDX 97 45 91 46 93 47 41 48 96 49 90 50 89 51 42 53 76 54 55 55
REMARK SMILES IDX 75 56 56 57 59 58 74 59 94 60 57 61 58 62 73 64 95 65 60 66
REMARK SMILES IDX 43 67 44 68 53 69 45 70 46 71 52 72 54 73 47 74 48 75 49 76
REMARK SMILES IDX 50 77 51 78 77 79 78 80 87 81 79 82 80 83 86 84 88 85 81 86
REMARK SMILES IDX 82 87 83 88 84 89 85 90 61 91 62 92 71 93 63 94 64 95 70 96
REMARK SMILES IDX 72 97 65 98 66 99 67 100 68 101 69 102
REMARK H PARENT 4 16 93 52 59 63
REMARK Flexibility Score: inf
ROOT
ATOM      1  O   UNL     1       1.059   3.252  -2.264  1.00  0.00    -0.374 OA
ENDROOT
BRANCH   1   2
ATOM      2  C   UNL     1       2.247   2.500  -2.451  1.00  0.00     0.202 C 
BRANCH   2   3
ATOM      3  C   UNL     1       2.851   2.403  -1.090  1.00  0.00     0.261 C 
BRANCH   3   4
ATOM      4  O   UNL     1       2.053   1.605  -0.196  1.00  0.00    -0.460 OA
BRANCH   4   5
ATOM      5  C   UNL     1       0.777   1.901   0.103  1.00  0.00     0.338 C 
ATOM      6  O   UNL     1       0.271   2.992   0.246  1.00  0.00    -0.246 OA
BRANCH   5   7
ATOM      7  C   UNL     1       0.038   0.620   0.234  1.00  0.00     0.065 A 
ATOM      8  C   UNL     1       2.031  -0.969  -0.307  1.00  0.00     0.047 C 
ATOM      9  C   UNL     1       0.600  -0.680   0.106  1.00  0.00    -0.013 A 
ATOM     10  C   UNL     1      -0.231  -1.781   0.391  1.00  0.00     0.045 A 
ATOM     11  C   UNL     1      -1.572  -1.569   0.745  1.00  0.00     0.026 A 
ATOM     12  C   UNL     1      -1.335   0.791   0.492  1.00  0.00     0.016 A 
ATOM     13  C   UNL     1      -2.143  -0.302   0.735  1.00  0.00     0.003 A 
BRANCH  10  14
ATOM     14  N   UNL     1       0.345  -3.071   0.331  1.00  0.00    -0.319 N 
ATOM     15  C   UNL     1      -0.209  -4.301   0.065  1.00  0.00     0.291 C 
ATOM     16  H   UNL     1       1.312  -3.093   0.512  1.00  0.00     0.170 HD
ATOM     17  O   UNL     1       0.506  -5.301   0.143  1.00  0.00    -0.265 OA
BRANCH  15  18
ATOM     18  C   UNL     1      -1.583  -4.342  -0.346  1.00  0.00     0.192 A 
ATOM     19  C   UNL     1      -2.250  -3.773  -1.417  1.00  0.00     0.057 A 
ATOM     20  O   UNL     1      -2.477  -4.886   0.526  1.00  0.00    -0.451 OA
ATOM     21  C   UNL     1      -3.630  -3.917  -1.141  1.00  0.00     0.052 A 
ATOM     22  C   UNL     1      -3.717  -4.591   0.059  1.00  0.00     0.135 A 
BRANCH  22  23
ATOM     23  C   UNL     1      -4.811  -5.025   0.898  1.00  0.00     0.019 A 
ATOM     24  C   UNL     1      -5.897  -5.682   0.312  1.00  0.00     0.012 A 
ATOM     25  C   UNL     1      -4.799  -4.801   2.282  1.00  0.00     0.032 A 
ATOM     26  C   UNL     1      -6.961  -6.120   1.095  1.00  0.00     0.002 A 
ATOM     27  C   UNL     1      -5.873  -5.230   3.058  1.00  0.00     0.041 A 
ATOM     28  C   UNL     1      -6.952  -5.891   2.470  1.00  0.00     0.020 A 
ATOM     29  Cl  UNL     1      -5.877  -4.947   4.756  1.00  0.00    -0.084 Cl
ENDBRANCH  22  23
ENDBRANCH  15  18
ENDBRANCH  10  14
ENDBRANCH   5   7
ENDBRANCH   4   5
ENDBRANCH   3   4
ENDBRANCH   2   3
ENDBRANCH   1   2
BRANCH   1  30
ATOM     30  C   UNL     1       0.245   3.426  -3.393  1.00  0.00     0.202 C 
BRANCH  30  31
ATOM     31  C   UNL     1       0.983   4.162  -4.510  1.00  0.00     0.261 C 
BRANCH  31  32
ATOM     32  O   UNL     1       1.247   5.532  -4.126  1.00  0.00    -0.460 OA
BRANCH  32  33
ATOM     33  C   UNL     1       2.525   5.826  -3.733  1.00  0.00     0.338 C 
ATOM     34  O   UNL     1       3.449   5.986  -4.510  1.00  0.00    -0.246 OA
BRANCH  33  35
ATOM     35  C   UNL     1       2.605   5.984  -2.248  1.00  0.00     0.060 A 
ATOM     36  C   UNL     1       3.828   5.898  -1.550  1.00  0.00     0.016 A 
ATOM     37  C   UNL     1       1.415   6.034  -1.532  1.00  0.00     0.016 A 
ATOM     38  C   UNL     1       3.844   5.713  -0.150  1.00  0.00     0.010 A 
ATOM     39  C   UNL     1       1.432   5.757  -0.183  1.00  0.00     0.010 A 
ATOM     40  C   UNL     1       2.634   5.563   0.523  1.00  0.00    -0.014 A 
BRANCH  40  41
ATOM     41  C   UNL     1       2.418   5.123   1.911  1.00  0.00     0.031 A 
ATOM     42  C   UNL     1       1.634   6.029   2.785  1.00  0.00     0.074 A 
ATOM     43  C   UNL     1       2.565   3.818   2.261  1.00  0.00     0.049 A 
ATOM     44  N   UNL     1       1.313   5.750   3.996  1.00  0.00    -0.248 NA
ATOM     45  C   UNL     1       1.159   7.354   2.381  1.00  0.00     0.031 C 
ATOM     46  C   UNL     1       1.809   3.047   3.255  1.00  0.00     0.029 A 
ATOM     47  N   UNL     1       3.436   2.859   1.743  1.00  0.00    -0.354 N 
ATOM     48  C   UNL     1       0.353   6.643   4.404  1.00  0.00     0.074 A 
ATOM     49  C   UNL     1       0.386   7.692   3.420  1.00  0.00     0.031 C 
ATOM     50  C   UNL     1       2.396   1.852   3.454  1.00  0.00     0.029 A 
ATOM     51  C   UNL     1       3.629   1.842   2.686  1.00  0.00     0.049 A 
ATOM     52  H   UNL     1       3.852   2.893   0.852  1.00  0.00     0.167 HD
ATOM     53  C   UNL     1      -0.415   6.295   5.473  1.00  0.00     0.037 A 
ATOM     54  C   UNL     1       4.885   1.560   3.122  1.00  0.00     0.037 A 
ATOM     55  C   UNL     1       0.149   5.097   6.118  1.00  0.00     0.049 A 
ATOM     56  C   UNL     1       4.950   2.012   4.552  1.00  0.00     0.074 A 
ATOM     57  C   UNL     1      -0.233   3.769   6.184  1.00  0.00     0.029 A 
ATOM     58  N   UNL     1       1.480   5.139   6.545  1.00  0.00    -0.354 N 
ATOM     59  N   UNL     1       4.141   2.925   5.026  1.00  0.00    -0.248 NA
ATOM     60  C   UNL     1       5.757   1.384   5.591  1.00  0.00     0.031 C 
ATOM     61  C   UNL     1       0.926   3.005   6.533  1.00  0.00     0.029 A 
ATOM     62  C   UNL     1       1.999   3.869   6.719  1.00  0.00     0.049 A 
ATOM     63  H   UNL     1       1.985   5.969   6.703  1.00  0.00     0.167 HD
ATOM     64  C   UNL     1       4.208   2.929   6.380  1.00  0.00     0.074 A 
ATOM     65  C   UNL     1       5.275   1.992   6.692  1.00  0.00     0.031 C 
ATOM     66  C   UNL     1       3.382   3.682   7.158  1.00  0.00     0.037 A 
BRANCH  53  67
ATOM     67  C   UNL     1      -1.735   6.932   5.873  1.00  0.00     0.058 A 
ATOM     68  C   UNL     1      -2.384   6.524   7.059  1.00  0.00     0.135 A 
ATOM     69  C   UNL     1      -2.462   7.877   5.112  1.00  0.00     0.135 A 
ATOM     70  F   UNL     1      -1.835   5.603   7.866  1.00  0.00    -0.206 F 
ATOM     71  C   UNL     1      -3.629   7.020   7.463  1.00  0.00     0.059 A 
ATOM     72  C   UNL     1      -3.686   8.420   5.517  1.00  0.00     0.059 A 
ATOM     73  F   UNL     1      -2.061   8.284   3.903  1.00  0.00    -0.206 F 
ATOM     74  C   UNL     1      -4.271   7.979   6.691  1.00  0.00     0.060 A 
BRANCH  74  75
ATOM     75  S   UNL     1      -5.869   8.622   7.224  1.00  0.00     0.124 S 
ATOM     76  O   UNL     1      -6.721   7.442   7.116  1.00  0.00    -0.237 OA
ATOM     77  O   UNL     1      -5.582   9.079   8.579  1.00  0.00    -0.237 OA
ATOM     78  O   UNL     1      -6.151   9.682   6.259  1.00  0.00    -0.744 OA
ENDBRANCH  74  75
ENDBRANCH  53  67
BRANCH  54  79
ATOM     79  C   UNL     1       5.887   1.627   2.004  1.00  0.00     0.058 A 
ATOM     80  C   UNL     1       5.867   0.546   1.089  1.00  0.00     0.135 A 
ATOM     81  C   UNL     1       6.377   2.849   1.511  1.00  0.00     0.135 A 
ATOM     82  F   UNL     1       5.392  -0.649   1.480  1.00  0.00    -0.206 F 
ATOM     83  C   UNL     1       6.160   0.702  -0.269  1.00  0.00     0.059 A 
ATOM     84  C   UNL     1       6.650   3.034   0.144  1.00  0.00     0.059 A 
ATOM     85  F   UNL     1       6.422   3.926   2.309  1.00  0.00    -0.206 F 
ATOM     86  C   UNL     1       6.487   1.969  -0.747  1.00  0.00     0.060 A 
BRANCH  86  87
ATOM     87  S   UNL     1       6.374   2.273  -2.544  1.00  0.00     0.124 S 
ATOM     88  O   UNL     1       7.686   1.848  -3.012  1.00  0.00    -0.237 OA
ATOM     89  O   UNL     1       5.255   1.420  -2.947  1.00  0.00    -0.237 OA
ATOM     90  O   UNL     1       6.095   3.702  -2.613  1.00  0.00    -0.744 OA
ENDBRANCH  86  87
ENDBRANCH  54  79
BRANCH  66  91
ATOM     91  C   UNL     1       3.863   4.260   8.456  1.00  0.00     0.058 A 
ATOM     92  C   UNL     1       5.230   4.445   8.739  1.00  0.00     0.135 A 
ATOM     93  C   UNL     1       2.959   4.812   9.387  1.00  0.00     0.135 A 
ATOM     94  F   UNL     1       6.189   4.111   7.862  1.00  0.00    -0.206 F 
ATOM     95  C   UNL     1       5.671   5.014   9.923  1.00  0.00     0.059 A 
ATOM     96  C   UNL     1       3.380   5.458  10.541  1.00  0.00     0.059 A 
ATOM     97  F   UNL     1       1.632   4.760   9.201  1.00  0.00    -0.206 F 
ATOM     98  C   UNL     1       4.737   5.505  10.825  1.00  0.00     0.060 A 
BRANCH  98  99
ATOM     99  S   UNL     1       5.316   6.201  12.373  1.00  0.00     0.124 S 
ATOM    100  O   UNL     1       5.514   4.992  13.167  1.00  0.00    -0.237 OA
ATOM    101  O   UNL     1       6.534   6.899  11.973  1.00  0.00    -0.237 OA
ATOM    102  O   UNL     1       4.214   7.061  12.789  1.00  0.00    -0.744 OA
ENDBRANCH  98  99
ENDBRANCH  66  91
ENDBRANCH  40  41
ENDBRANCH  33  35
ENDBRANCH  32  33
ENDBRANCH  31  32
ENDBRANCH  30  31
ENDBRANCH   1  30
TORSDOF 20
