REMARK SMILES Cc1cc(C(=O)OCCOCCOC(=O)c2ccc(-c3c4nc(c(-c5c(F)cc(S(=O)(=O)[O-])cc5F)c5ccc([nH]5)c(-c5c(F)cc(S(=O)(=O)[O-])cc5F)c5nc(c(-c6c(F)cc(S(=O)(=O)[O-])cc6F)c6ccc3[nH]6)C=C5)C=C4)cc2)ccc1NC(=O)N1C[C@@H](C)[C@H](C)C1
REMARK SMILES IDX 11 1 10 2 9 3 8 4 7 5 5 6 6 7 4 8 1 9 2 10 3 11 84 12 83 13
REMARK SMILES IDX 82 14 85 15 86 16 87 18 88 19 89 20 94 21 90 22 92 23 91 24
REMARK SMILES IDX 93 25 12 26 13 27 14 28 15 29 16 30 17 31 81 32 18 33 80 34
REMARK SMILES IDX 19 35 20 36 21 37 74 38 22 39 79 40 73 41 75 42 23 43 78 44
REMARK SMILES IDX 72 45 71 46 24 48 58 49 37 50 57 51 38 52 41 53 56 54 76 55
REMARK SMILES IDX 39 56 40 57 55 59 77 60 42 61 25 62 26 63 35 64 27 65 28 66
REMARK SMILES IDX 34 67 36 68 29 69 30 70 31 71 32 72 33 73 59 74 60 75 69 76
REMARK SMILES IDX 61 77 62 78 68 79 70 80 63 81 64 82 65 83 66 84 67 85 43 86
REMARK SMILES IDX 44 87 53 88 45 89 46 90 52 91 54 92 47 93 48 94 49 95 50 96
REMARK SMILES IDX 51 97
REMARK H PARENT 85 17 75 47 41 58
REMARK Flexibility Score: inf
ROOT
ATOM      1  C   UNL     1      -1.047  -3.463  -3.400  1.00  0.00     0.202 C 
ENDROOT
BRANCH   1   2
ATOM      2  O   UNL     1      -1.838  -3.241  -2.255  1.00  0.00    -0.374 OA
BRANCH   2   3
ATOM      3  C   UNL     1      -2.993  -2.438  -2.448  1.00  0.00     0.202 C 
BRANCH   3   4
ATOM      4  C   UNL     1      -3.608  -2.252  -1.093  1.00  0.00     0.261 C 
BRANCH   4   5
ATOM      5  O   UNL     1      -2.762  -1.587  -0.125  1.00  0.00    -0.460 OA
BRANCH   5   6
ATOM      6  C   UNL     1      -1.460  -1.943   0.024  1.00  0.00     0.338 C 
ATOM      7  O   UNL     1      -1.004  -2.987   0.436  1.00  0.00    -0.246 OA
BRANCH   6   8
ATOM      8  C   UNL     1      -0.667  -0.735  -0.253  1.00  0.00     0.060 A 
ATOM      9  C   UNL     1       2.822   0.584   0.306  1.00  0.00     0.046 C 
ATOM     10  C   UNL     1       1.344   0.585   0.044  1.00  0.00    -0.027 A 
ATOM     11  C   UNL     1       0.664  -0.641   0.155  1.00  0.00     0.021 A 
ATOM     12  C   UNL     1       0.613   1.708  -0.382  1.00  0.00     0.045 A 
ATOM     13  C   UNL     1      -0.600   1.516  -1.039  1.00  0.00     0.027 A 
ATOM     14  C   UNL     1      -1.259   0.318  -0.941  1.00  0.00     0.018 A 
BRANCH  12  15
ATOM     15  N   UNL     1       1.039   3.024  -0.123  1.00  0.00    -0.308 N 
ATOM     16  C   UNL     1       0.294   4.176  -0.185  1.00  0.00     0.321 C 
ATOM     17  H   UNL     1       1.983   3.131   0.132  1.00  0.00     0.171 HD
ATOM     18  O   UNL     1       0.860   5.239  -0.446  1.00  0.00    -0.248 OA
ATOM     19  N   UNL     1      -1.063   4.108   0.034  1.00  0.00    -0.324 N 
ATOM     20  C   UNL     1      -1.989   4.943  -0.703  1.00  0.00     0.125 C 
ATOM     21  C   UNL     1      -1.716   3.482   1.188  1.00  0.00     0.125 C 
ATOM     22  C   UNL     1      -3.161   5.173   0.243  1.00  0.00     0.010 C 
ATOM     23  C   UNL     1      -3.197   3.884   1.086  1.00  0.00     0.010 C 
ATOM     24  C   UNL     1      -4.462   5.447  -0.498  1.00  0.00     0.010 C 
ATOM     25  C   UNL     1      -3.869   4.086   2.443  1.00  0.00     0.010 C 
ENDBRANCH  12  15
ENDBRANCH   6   8
ENDBRANCH   5   6
ENDBRANCH   4   5
ENDBRANCH   3   4
ENDBRANCH   2   3
ENDBRANCH   1   2
BRANCH   1  26
ATOM     26  C   UNL     1      -1.807  -4.218  -4.492  1.00  0.00     0.261 C 
BRANCH  26  27
ATOM     27  O   UNL     1      -2.063  -5.580  -4.083  1.00  0.00    -0.460 OA
BRANCH  27  28
ATOM     28  C   UNL     1      -3.341  -5.857  -3.686  1.00  0.00     0.338 C 
ATOM     29  O   UNL     1      -4.266  -6.028  -4.459  1.00  0.00    -0.246 OA
BRANCH  28  30
ATOM     30  C   UNL     1      -3.419  -5.965  -2.199  1.00  0.00     0.060 A 
ATOM     31  C   UNL     1      -4.641  -5.844  -1.511  1.00  0.00     0.016 A 
ATOM     32  C   UNL     1      -2.229  -6.012  -1.480  1.00  0.00     0.016 A 
ATOM     33  C   UNL     1      -4.657  -5.638  -0.116  1.00  0.00     0.010 A 
ATOM     34  C   UNL     1      -2.245  -5.719  -0.134  1.00  0.00     0.010 A 
ATOM     35  C   UNL     1      -3.447  -5.508   0.563  1.00  0.00    -0.014 A 
BRANCH  35  36
ATOM     36  C   UNL     1      -3.241  -5.083   1.955  1.00  0.00     0.031 A 
ATOM     37  C   UNL     1      -2.482  -5.990   2.850  1.00  0.00     0.074 A 
ATOM     38  C   UNL     1      -3.376  -3.777   2.298  1.00  0.00     0.049 A 
ATOM     39  N   UNL     1      -2.196  -5.712   4.071  1.00  0.00    -0.248 NA
ATOM     40  C   UNL     1      -1.997  -7.316   2.461  1.00  0.00     0.031 C 
ATOM     41  C   UNL     1      -2.619  -3.016   3.298  1.00  0.00     0.029 A 
ATOM     42  N   UNL     1      -4.217  -2.804   1.755  1.00  0.00    -0.354 N 
ATOM     43  C   UNL     1      -1.236  -6.595   4.498  1.00  0.00     0.074 A 
ATOM     44  C   UNL     1      -1.250  -7.650   3.520  1.00  0.00     0.031 C 
ATOM     45  C   UNL     1      -3.186  -1.810   3.480  1.00  0.00     0.029 A 
ATOM     46  C   UNL     1      -4.411  -1.786   2.700  1.00  0.00     0.049 A 
ATOM     47  H   UNL     1      -4.611  -2.829   0.854  1.00  0.00     0.167 HD
ATOM     48  C   UNL     1      -0.476  -6.234   5.571  1.00  0.00     0.037 A 
ATOM     49  C   UNL     1      -5.666  -1.488   3.130  1.00  0.00     0.037 A 
ATOM     50  C   UNL     1      -1.041  -5.029   6.202  1.00  0.00     0.049 A 
ATOM     51  C   UNL     1      -5.754  -1.910   4.567  1.00  0.00     0.074 A 
ATOM     52  C   UNL     1      -0.643  -3.706   6.279  1.00  0.00     0.029 A 
ATOM     53  N   UNL     1      -2.377  -5.056   6.616  1.00  0.00    -0.354 N 
ATOM     54  N   UNL     1      -4.944  -2.802   5.075  1.00  0.00    -0.248 NA
ATOM     55  C   UNL     1      -6.607  -1.294   5.576  1.00  0.00     0.031 C 
ATOM     56  C   UNL     1      -1.794  -2.929   6.620  1.00  0.00     0.029 A 
ATOM     57  C   UNL     1      -2.878  -3.780   6.795  1.00  0.00     0.049 A 
ATOM     58  H   UNL     1      -2.895  -5.880   6.761  1.00  0.00     0.167 HD
ATOM     59  C   UNL     1      -5.067  -2.817   6.424  1.00  0.00     0.074 A 
ATOM     60  C   UNL     1      -6.160  -1.896   6.694  1.00  0.00     0.031 C 
ATOM     61  C   UNL     1      -4.262  -3.572   7.222  1.00  0.00     0.037 A 
BRANCH  48  62
ATOM     62  C   UNL     1       0.846  -6.863   5.983  1.00  0.00     0.058 A 
ATOM     63  C   UNL     1       1.485  -6.452   7.174  1.00  0.00     0.135 A 
ATOM     64  C   UNL     1       1.583  -7.805   5.228  1.00  0.00     0.135 A 
ATOM     65  F   UNL     1       0.928  -5.533   7.977  1.00  0.00    -0.206 F 
ATOM     66  C   UNL     1       2.730  -6.943   7.587  1.00  0.00     0.059 A 
ATOM     67  C   UNL     1       2.806  -8.345   5.643  1.00  0.00     0.059 A 
ATOM     68  F   UNL     1       1.194  -8.212   4.015  1.00  0.00    -0.206 F 
ATOM     69  C   UNL     1       3.381  -7.900   6.821  1.00  0.00     0.060 A 
BRANCH  69  70
ATOM     70  S   UNL     1       4.978  -8.537   7.363  1.00  0.00     0.124 S 
ATOM     71  O   UNL     1       5.832  -7.360   7.241  1.00  0.00    -0.237 OA
ATOM     72  O   UNL     1       4.692  -8.978   8.724  1.00  0.00    -0.237 OA
ATOM     73  O   UNL     1       5.260  -9.610   6.411  1.00  0.00    -0.744 OA
ENDBRANCH  69  70
ENDBRANCH  48  62
BRANCH  49  74
ATOM     74  C   UNL     1      -6.666  -1.548   2.014  1.00  0.00     0.058 A 
ATOM     75  C   UNL     1      -6.623  -0.485   1.081  1.00  0.00     0.135 A 
ATOM     76  C   UNL     1      -7.192  -2.766   1.548  1.00  0.00     0.135 A 
ATOM     77  F   UNL     1      -6.119   0.706   1.450  1.00  0.00    -0.206 F 
ATOM     78  C   UNL     1      -6.927  -0.659  -0.272  1.00  0.00     0.059 A 
ATOM     79  C   UNL     1      -7.479  -2.969   0.188  1.00  0.00     0.059 A 
ATOM     80  F   UNL     1      -7.267  -3.824   2.369  1.00  0.00    -0.206 F 
ATOM     81  C   UNL     1      -7.289  -1.926  -0.723  1.00  0.00     0.060 A 
BRANCH  81  82
ATOM     82  S   UNL     1      -7.215  -2.263  -2.513  1.00  0.00     0.124 S 
ATOM     83  O   UNL     1      -8.519  -1.799  -2.967  1.00  0.00    -0.237 OA
ATOM     84  O   UNL     1      -6.074  -1.456  -2.947  1.00  0.00    -0.237 OA
ATOM     85  O   UNL     1      -6.988  -3.702  -2.564  1.00  0.00    -0.744 OA
ENDBRANCH  81  82
ENDBRANCH  49  74
BRANCH  61  86
ATOM     86  C   UNL     1      -4.749  -4.122   8.529  1.00  0.00     0.058 A 
ATOM     87  C   UNL     1      -6.116  -4.317   8.803  1.00  0.00     0.135 A 
ATOM     88  C   UNL     1      -3.847  -4.640   9.482  1.00  0.00     0.135 A 
ATOM     89  F   UNL     1      -7.069  -4.007   7.911  1.00  0.00    -0.206 F 
ATOM     90  C   UNL     1      -6.561  -4.872   9.993  1.00  0.00     0.059 A 
ATOM     91  C   UNL     1      -4.271  -5.267  10.645  1.00  0.00     0.059 A 
ATOM     92  F   UNL     1      -2.519  -4.571   9.306  1.00  0.00    -0.206 F 
ATOM     93  C   UNL     1      -5.630  -5.333  10.914  1.00  0.00     0.060 A 
BRANCH  93  94
ATOM     94  S   UNL     1      -6.214  -6.022  12.465  1.00  0.00     0.124 S 
ATOM     95  O   UNL     1      -6.412  -4.810  13.254  1.00  0.00    -0.237 OA
ATOM     96  O   UNL     1      -7.431  -6.722  12.066  1.00  0.00    -0.237 OA
ATOM     97  O   UNL     1      -5.113  -6.881  12.886  1.00  0.00    -0.744 OA
ENDBRANCH  93  94
ENDBRANCH  61  86
ENDBRANCH  35  36
ENDBRANCH  28  30
ENDBRANCH  27  28
ENDBRANCH  26  27
ENDBRANCH   1  26
TORSDOF 18
