REMARK SMILES CC[C@@H]1CCCN1c1cc(C)c(N)c(C(=O)OCCOCCOC(=O)c2ccc(-c3c4nc(c(-c5c(F)cc(S(=O)(=O)[O-])cc5F)c5ccc([nH]5)c(-c5c(F)cc(S(=O)(=O)[O-])cc5F)c5nc(c(-c6c(F)cc(S(=O)(=O)[O-])cc6F)c6ccc3[nH]6)C=C5)C=C4)cc2)c1
REMARK SMILES IDX 21 1 20 2 19 3 18 4 17 5 15 6 16 7 14 8 8 9 9 10 92 11 10 12
REMARK SMILES IDX 11 13 12 14 7 15 3 16 4 17 5 18 6 19 2 20 1 21 13 22 22 25
REMARK SMILES IDX 23 26 24 27 25 28 26 29 27 30 91 31 28 32 90 33 29 34 30 35
REMARK SMILES IDX 31 36 84 37 32 38 89 39 83 40 85 41 33 42 88 43 82 44 81 45
REMARK SMILES IDX 34 47 68 48 47 49 67 50 48 51 51 52 66 53 86 54 49 55 50 56
REMARK SMILES IDX 65 58 87 59 52 60 35 61 36 62 45 63 37 64 38 65 44 66 46 67
REMARK SMILES IDX 39 68 40 69 41 70 42 71 43 72 69 73 70 74 79 75 71 76 72 77
REMARK SMILES IDX 78 78 80 79 73 80 74 81 75 82 76 83 77 84 53 85 54 86 63 87
REMARK SMILES IDX 55 88 56 89 62 90 64 91 57 92 58 93 59 94 60 95 61 96
REMARK H PARENT 13 23 13 24 85 46 51 57
REMARK Flexibility Score: inf
ROOT
ATOM      1  C   UNL     1       0.721   4.359   4.119  1.00  0.00     0.202 C 
ENDROOT
BRANCH   1   2
ATOM      2  O   UNL     1       0.492   4.886   5.429  1.00  0.00    -0.374 OA
BRANCH   2   3
ATOM      3  C   UNL     1       0.986   4.114   6.525  1.00  0.00     0.202 C 
BRANCH   3   4
ATOM      4  C   UNL     1       0.101   2.952   6.986  1.00  0.00     0.261 C 
BRANCH   4   5
ATOM      5  O   UNL     1      -0.091   1.990   5.933  1.00  0.00    -0.460 OA
BRANCH   5   6
ATOM      6  C   UNL     1      -1.345   1.961   5.419  1.00  0.00     0.340 C 
ATOM      7  O   UNL     1      -2.323   2.540   5.872  1.00  0.00    -0.246 OA
BRANCH   6   8
ATOM      8  C   UNL     1      -1.368   1.259   4.109  1.00  0.00     0.085 A 
ATOM      9  C   UNL     1      -0.646  -0.598   2.685  1.00  0.00     0.038 A 
ATOM     10  C   UNL     1      -1.538  -0.112   1.723  1.00  0.00     0.031 A 
ATOM     11  C   UNL     1      -0.597   0.099   3.899  1.00  0.00     0.043 A 
ATOM     12  C   UNL     1      -2.287   1.068   1.888  1.00  0.00    -0.025 A 
ATOM     13  C   UNL     1      -3.159   1.534   0.755  1.00  0.00     0.047 C 
ATOM     14  C   UNL     1      -2.205   1.773   3.095  1.00  0.00     0.049 A 
BRANCH   9  15
ATOM     15  N   UNL     1       0.083  -1.739   2.473  1.00  0.00    -0.369 N 
ATOM     16  C   UNL     1       0.964  -2.120   1.353  1.00  0.00     0.082 C 
ATOM     17  C   UNL     1       0.767  -3.643   1.335  1.00  0.00     0.027 C 
ATOM     18  C   UNL     1       0.763  -3.992   2.815  1.00  0.00     0.024 C 
ATOM     19  C   UNL     1       0.058  -2.807   3.482  1.00  0.00     0.117 C 
BRANCH  16  20
ATOM     20  C   UNL     1       0.737  -1.529  -0.036  1.00  0.00     0.021 C 
ATOM     21  C   UNL     1       1.269  -0.108  -0.183  1.00  0.00     0.006 C 
ENDBRANCH  16  20
ENDBRANCH   9  15
BRANCH  14  22
ATOM     22  N   UNL     1      -2.797   3.036   3.209  1.00  0.00    -0.398 N 
ATOM     23  H   UNL     1      -3.377   3.375   2.490  1.00  0.00     0.156 HD
ATOM     24  H   UNL     1      -2.633   3.586   4.010  1.00  0.00     0.156 HD
ENDBRANCH  14  22
ENDBRANCH   6   8
ENDBRANCH   5   6
ENDBRANCH   4   5
ENDBRANCH   3   4
ENDBRANCH   2   3
ENDBRANCH   1   2
BRANCH   1  25
ATOM     25  C   UNL     1       2.124   4.572   3.539  1.00  0.00     0.261 C 
BRANCH  25  26
ATOM     26  O   UNL     1       3.122   3.819   4.254  1.00  0.00    -0.460 OA
BRANCH  26  27
ATOM     27  C   UNL     1       3.981   4.564   4.987  1.00  0.00     0.338 C 
ATOM     28  O   UNL     1       4.058   5.785   5.016  1.00  0.00    -0.246 OA
BRANCH  27  29
ATOM     29  C   UNL     1       4.728   3.702   5.925  1.00  0.00     0.060 A 
ATOM     30  C   UNL     1       4.754   4.090   7.271  1.00  0.00     0.016 A 
ATOM     31  C   UNL     1       5.434   2.574   5.500  1.00  0.00     0.016 A 
ATOM     32  C   UNL     1       5.531   3.384   8.186  1.00  0.00     0.010 A 
ATOM     33  C   UNL     1       6.220   1.870   6.421  1.00  0.00     0.010 A 
ATOM     34  C   UNL     1       6.300   2.294   7.760  1.00  0.00    -0.014 A 
BRANCH  34  35
ATOM     35  C   UNL     1       7.282   1.690   8.695  1.00  0.00     0.031 A 
ATOM     36  C   UNL     1       8.731   2.083   8.591  1.00  0.00     0.074 A 
ATOM     37  C   UNL     1       6.880   0.836   9.654  1.00  0.00     0.049 A 
ATOM     38  N   UNL     1       9.750   1.690   9.311  1.00  0.00    -0.248 NA
ATOM     39  C   UNL     1       9.080   3.044   7.531  1.00  0.00     0.031 C 
ATOM     40  C   UNL     1       5.502   0.395   9.867  1.00  0.00     0.029 A 
ATOM     41  N   UNL     1       7.595   0.184  10.626  1.00  0.00    -0.354 N 
ATOM     42  C   UNL     1      10.858   2.349   8.792  1.00  0.00     0.074 A 
ATOM     43  C   UNL     1      10.393   3.146   7.678  1.00  0.00     0.031 C 
ATOM     44  C   UNL     1       5.474  -0.467  10.899  1.00  0.00     0.029 A 
ATOM     45  C   UNL     1       6.833  -0.654  11.405  1.00  0.00     0.049 A 
ATOM     46  H   UNL     1       8.564   0.304  10.754  1.00  0.00     0.167 HD
ATOM     47  C   UNL     1      12.145   2.302   9.213  1.00  0.00     0.037 A 
ATOM     48  C   UNL     1       7.192  -1.487  12.401  1.00  0.00     0.037 A 
ATOM     49  C   UNL     1      12.602   1.516  10.330  1.00  0.00     0.049 A 
ATOM     50  C   UNL     1       8.636  -1.546  12.830  1.00  0.00     0.074 A 
ATOM     51  C   UNL     1      13.879   1.433  10.857  1.00  0.00     0.029 A 
ATOM     52  N   UNL     1      11.803   0.672  11.086  1.00  0.00    -0.354 N 
ATOM     53  N   UNL     1       9.665  -0.883  12.358  1.00  0.00    -0.248 NA
ATOM     54  C   UNL     1       8.965  -2.460  13.933  1.00  0.00     0.031 C 
ATOM     55  C   UNL     1      13.862   0.504  11.903  1.00  0.00     0.029 A 
ATOM     56  C   UNL     1      12.564   0.045  12.059  1.00  0.00     0.049 A 
ATOM     57  H   UNL     1      10.837   0.539  10.951  1.00  0.00     0.167 HD
ATOM     58  C   UNL     1      10.758  -1.283  13.120  1.00  0.00     0.074 A 
ATOM     59  C   UNL     1      10.262  -2.233  14.094  1.00  0.00     0.031 C 
ATOM     60  C   UNL     1      12.056  -0.899  13.023  1.00  0.00     0.037 A 
BRANCH  47  61
ATOM     61  C   UNL     1      13.161   3.107   8.451  1.00  0.00     0.058 A 
ATOM     62  C   UNL     1      13.223   4.506   8.554  1.00  0.00     0.135 A 
ATOM     63  C   UNL     1      14.117   2.465   7.648  1.00  0.00     0.135 A 
ATOM     64  F   UNL     1      12.322   5.171   9.294  1.00  0.00    -0.206 F 
ATOM     65  C   UNL     1      14.189   5.241   7.874  1.00  0.00     0.059 A 
ATOM     66  C   UNL     1      15.106   3.179   6.978  1.00  0.00     0.059 A 
ATOM     67  F   UNL     1      14.099   1.130   7.512  1.00  0.00    -0.206 F 
ATOM     68  C   UNL     1      15.128   4.568   7.089  1.00  0.00     0.060 A 
BRANCH  68  69
ATOM     69  S   UNL     1      16.389   5.534   6.230  1.00  0.00     0.124 S 
ATOM     70  O   UNL     1      15.607   6.147   5.160  1.00  0.00    -0.237 OA
ATOM     71  O   UNL     1      16.853   6.441   7.275  1.00  0.00    -0.237 OA
ATOM     72  O   UNL     1      17.356   4.528   5.803  1.00  0.00    -0.744 OA
ENDBRANCH  68  69
ENDBRANCH  47  61
BRANCH  48  73
ATOM     73  C   UNL     1       6.171  -2.349  13.054  1.00  0.00     0.058 A 
ATOM     74  C   UNL     1       5.768  -2.128  14.379  1.00  0.00     0.135 A 
ATOM     75  C   UNL     1       5.583  -3.419  12.361  1.00  0.00     0.135 A 
ATOM     76  F   UNL     1       6.310  -1.125  15.086  1.00  0.00    -0.206 F 
ATOM     77  C   UNL     1       4.832  -2.948  15.002  1.00  0.00     0.059 A 
ATOM     78  C   UNL     1       4.627  -4.237  12.954  1.00  0.00     0.059 A 
ATOM     79  F   UNL     1       5.925  -3.665  11.087  1.00  0.00    -0.206 F 
ATOM     80  C   UNL     1       4.266  -4.001  14.280  1.00  0.00     0.060 A 
BRANCH  80  81
ATOM     81  S   UNL     1       3.021  -5.035  15.080  1.00  0.00     0.124 S 
ATOM     82  O   UNL     1       3.843  -5.853  15.964  1.00  0.00    -0.237 OA
ATOM     83  O   UNL     1       2.171  -4.044  15.733  1.00  0.00    -0.237 OA
ATOM     84  O   UNL     1       2.402  -5.739  13.961  1.00  0.00    -0.744 OA
ENDBRANCH  80  81
ENDBRANCH  48  73
BRANCH  60  85
ATOM     85  C   UNL     1      13.026  -1.486  14.011  1.00  0.00     0.058 A 
ATOM     86  C   UNL     1      13.443  -2.824  13.930  1.00  0.00     0.135 A 
ATOM     87  C   UNL     1      13.574  -0.689  15.030  1.00  0.00     0.135 A 
ATOM     88  F   UNL     1      12.947  -3.629  12.978  1.00  0.00    -0.206 F 
ATOM     89  C   UNL     1      14.345  -3.360  14.844  1.00  0.00     0.059 A 
ATOM     90  C   UNL     1      14.498  -1.197  15.938  1.00  0.00     0.059 A 
ATOM     91  F   UNL     1      13.220   0.601  15.144  1.00  0.00    -0.206 F 
ATOM     92  C   UNL     1      14.865  -2.539  15.846  1.00  0.00     0.060 A 
BRANCH  92  93
ATOM     93  S   UNL     1      16.046  -3.241  17.018  1.00  0.00     0.124 S 
ATOM     94  O   UNL     1      15.170  -4.026  17.882  1.00  0.00    -0.237 OA
ATOM     95  O   UNL     1      16.932  -4.010  16.149  1.00  0.00    -0.237 OA
ATOM     96  O   UNL     1      16.650  -2.065  17.637  1.00  0.00    -0.744 OA
ENDBRANCH  92  93
ENDBRANCH  60  85
ENDBRANCH  34  35
ENDBRANCH  27  29
ENDBRANCH  26  27
ENDBRANCH  25  26
ENDBRANCH   1  25
TORSDOF 20
