REMARK SMILES CC[C@H](NC(=O)c1nn(C)cc1C(=O)OCCOCCOC(=O)c1ccc(-c2c3nc(c(-c4c(F)cc(S(=O)(=O)[O-])cc4F)c4ccc([nH]4)c(-c4c(F)cc(S(=O)(=O)[O-])cc4F)c4nc(c(-c5c(F)cc(S(=O)(=O)[O-])cc5F)c5ccc2[nH]5)C=C4)C=C3)cc1)c1ccccc1
REMARK SMILES IDX 18 1 17 2 16 3 15 4 13 5 14 6 12 7 7 8 8 9 9 10 11 11 10 12
REMARK SMILES IDX 5 13 4 14 6 16 3 17 2 18 1 19 90 20 91 21 95 22 92 23 94 24
REMARK SMILES IDX 93 25 19 26 20 27 21 28 22 29 23 30 24 31 25 32 89 33 26 34
REMARK SMILES IDX 88 35 27 36 28 37 29 38 82 39 30 40 87 41 81 42 83 43 31 44
REMARK SMILES IDX 86 45 80 46 79 47 32 49 66 50 45 51 65 52 46 53 49 54 64 55
REMARK SMILES IDX 84 56 47 57 48 58 63 60 85 61 50 62 33 63 34 64 43 65 35 66
REMARK SMILES IDX 36 67 42 68 44 69 37 70 38 71 39 72 40 73 41 74 67 75 68 76
REMARK SMILES IDX 77 77 69 78 70 79 76 80 78 81 71 82 72 83 73 84 74 85 75 86
REMARK SMILES IDX 51 87 52 88 61 89 53 90 54 91 60 92 62 93 55 94 56 95 57 96
REMARK SMILES IDX 58 97 59 98
REMARK H PARENT 4 15 83 48 49 59
REMARK Flexibility Score: inf
ROOT
ATOM      1  O   UNL     1       0.519   2.345   4.832  1.00  0.00    -0.374 OA
ENDROOT
BRANCH   1   2
ATOM      2  C   UNL     1      -0.802   2.089   5.347  1.00  0.00     0.202 C 
BRANCH   2   3
ATOM      3  C   UNL     1      -1.868   1.952   4.247  1.00  0.00     0.261 C 
BRANCH   3   4
ATOM      4  O   UNL     1      -2.268   0.567   4.142  1.00  0.00    -0.460 OA
BRANCH   4   5
ATOM      5  C   UNL     1      -2.812   0.181   2.946  1.00  0.00     0.342 C 
ATOM      6  O   UNL     1      -2.996   0.922   1.997  1.00  0.00    -0.246 OA
BRANCH   5   7
ATOM      7  C   UNL     1      -3.008  -1.254   2.900  1.00  0.00     0.111 A 
ATOM      8  C   UNL     1      -2.672  -2.157   1.848  1.00  0.00     0.164 A 
ATOM      9  N   UNL     1      -2.947  -3.431   2.194  1.00  0.00    -0.167 NA
ATOM     10  N   UNL     1      -3.419  -3.340   3.446  1.00  0.00    -0.274 N 
ATOM     11  C   UNL     1      -3.477  -2.065   3.918  1.00  0.00     0.125 A 
ATOM     12  C   UNL     1      -3.774  -4.548   4.149  1.00  0.00     0.173 C 
BRANCH   8  13
ATOM     13  C   UNL     1      -2.127  -1.861   0.527  1.00  0.00     0.273 C 
ATOM     14  N   UNL     1      -0.796  -2.073   0.252  1.00  0.00    -0.344 N 
ATOM     15  H   UNL     1      -0.629  -2.269  -0.699  1.00  0.00     0.164 HD
ATOM     16  O   UNL     1      -2.847  -1.504  -0.407  1.00  0.00    -0.267 OA
BRANCH  14  17
ATOM     17  C   UNL     1       0.426  -2.074   1.053  1.00  0.00     0.112 C 
BRANCH  17  18
ATOM     18  C   UNL     1       1.116  -0.684   1.083  1.00  0.00     0.026 C 
ATOM     19  C   UNL     1       0.198   0.528   1.090  1.00  0.00     0.006 C 
ENDBRANCH  17  18
BRANCH  17  20
ATOM     20  C   UNL     1       0.434  -2.839   2.365  1.00  0.00    -0.026 A 
ATOM     21  C   UNL     1       0.045  -2.267   3.581  1.00  0.00     0.006 A 
ATOM     22  C   UNL     1       0.901  -4.163   2.404  1.00  0.00     0.006 A 
ATOM     23  C   UNL     1       0.111  -2.968   4.788  1.00  0.00     0.000 A 
ATOM     24  C   UNL     1       0.984  -4.869   3.610  1.00  0.00     0.000 A 
ATOM     25  C   UNL     1       0.587  -4.272   4.803  1.00  0.00     0.000 A 
ENDBRANCH  17  20
ENDBRANCH  14  17
ENDBRANCH   8  13
ENDBRANCH   5   7
ENDBRANCH   4   5
ENDBRANCH   3   4
ENDBRANCH   2   3
ENDBRANCH   1   2
BRANCH   1  26
ATOM     26  C   UNL     1       1.188   1.193   4.322  1.00  0.00     0.202 C 
BRANCH  26  27
ATOM     27  C   UNL     1       2.131   0.488   5.305  1.00  0.00     0.261 C 
BRANCH  27  28
ATOM     28  O   UNL     1       1.595   0.527   6.628  1.00  0.00    -0.460 OA
BRANCH  28  29
ATOM     29  C   UNL     1       2.079   1.569   7.349  1.00  0.00     0.338 C 
ATOM     30  O   UNL     1       3.105   2.195   7.137  1.00  0.00    -0.246 OA
BRANCH  29  31
ATOM     31  C   UNL     1       1.064   1.989   8.329  1.00  0.00     0.060 A 
ATOM     32  C   UNL     1       0.902   3.366   8.512  1.00  0.00     0.016 A 
ATOM     33  C   UNL     1       0.281   1.073   9.043  1.00  0.00     0.016 A 
ATOM     34  C   UNL     1      -0.000   3.833   9.457  1.00  0.00     0.010 A 
ATOM     35  C   UNL     1      -0.625   1.545   9.994  1.00  0.00     0.010 A 
ATOM     36  C   UNL     1      -0.733   2.924  10.230  1.00  0.00    -0.014 A 
BRANCH  36  37
ATOM     37  C   UNL     1      -1.445   3.446  11.414  1.00  0.00     0.031 A 
ATOM     38  C   UNL     1      -0.697   3.502  12.716  1.00  0.00     0.074 A 
ATOM     39  C   UNL     1      -2.685   3.951  11.301  1.00  0.00     0.049 A 
ATOM     40  N   UNL     1      -1.035   4.076  13.839  1.00  0.00    -0.248 NA
ATOM     41  C   UNL     1       0.614   2.829  12.753  1.00  0.00     0.031 C 
ATOM     42  C   UNL     1      -3.494   3.948  10.082  1.00  0.00     0.029 A 
ATOM     43  N   UNL     1      -3.471   4.585  12.227  1.00  0.00    -0.354 N 
ATOM     44  C   UNL     1       0.028   3.856  14.707  1.00  0.00     0.074 A 
ATOM     45  C   UNL     1       1.005   3.061  13.997  1.00  0.00     0.031 C 
ATOM     46  C   UNL     1      -4.665   4.561  10.336  1.00  0.00     0.029 A 
ATOM     47  C   UNL     1      -4.679   5.004  11.728  1.00  0.00     0.049 A 
ATOM     48  H   UNL     1      -3.195   4.726  13.161  1.00  0.00     0.167 HD
ATOM     49  C   UNL     1       0.184   4.296  15.976  1.00  0.00     0.037 A 
ATOM     50  C   UNL     1      -5.672   5.686  12.330  1.00  0.00     0.037 A 
ATOM     51  C   UNL     1      -0.793   5.084  16.675  1.00  0.00     0.049 A 
ATOM     52  C   UNL     1      -5.486   6.141  13.753  1.00  0.00     0.074 A 
ATOM     53  C   UNL     1      -0.729   5.603  17.954  1.00  0.00     0.029 A 
ATOM     54  N   UNL     1      -2.019   5.459  16.147  1.00  0.00    -0.354 N 
ATOM     55  N   UNL     1      -4.449   5.980  14.541  1.00  0.00    -0.248 NA
ATOM     56  C   UNL     1      -6.599   6.880  14.364  1.00  0.00     0.031 C 
ATOM     57  C   UNL     1      -1.933   6.271  18.211  1.00  0.00     0.029 A 
ATOM     58  C   UNL     1      -2.733   6.185  17.082  1.00  0.00     0.049 A 
ATOM     59  H   UNL     1      -2.335   5.240  15.241  1.00  0.00     0.167 HD
ATOM     60  C   UNL     1      -4.778   6.610  15.735  1.00  0.00     0.074 A 
ATOM     61  C   UNL     1      -6.105   7.167  15.562  1.00  0.00     0.031 C 
ATOM     62  C   UNL     1      -4.052   6.721  16.875  1.00  0.00     0.037 A 
BRANCH  49  63
ATOM     63  C   UNL     1       1.454   3.927  16.679  1.00  0.00     0.058 A 
ATOM     64  C   UNL     1       2.658   4.597  16.410  1.00  0.00     0.135 A 
ATOM     65  C   UNL     1       1.471   2.899  17.633  1.00  0.00     0.135 A 
ATOM     66  F   UNL     1       2.697   5.570  15.486  1.00  0.00    -0.206 F 
ATOM     67  C   UNL     1       3.841   4.251  17.054  1.00  0.00     0.059 A 
ATOM     68  C   UNL     1       2.639   2.545  18.300  1.00  0.00     0.059 A 
ATOM     69  F   UNL     1       0.348   2.219  17.913  1.00  0.00    -0.206 F 
ATOM     70  C   UNL     1       3.822   3.220  17.995  1.00  0.00     0.060 A 
BRANCH  70  71
ATOM     71  S   UNL     1       5.361   2.778  18.830  1.00  0.00     0.124 S 
ATOM     72  O   UNL     1       6.034   1.992  17.801  1.00  0.00    -0.237 OA
ATOM     73  O   UNL     1       5.950   4.081  19.118  1.00  0.00    -0.237 OA
ATOM     74  O   UNL     1       4.908   2.028  19.997  1.00  0.00    -0.744 OA
ENDBRANCH  70  71
ENDBRANCH  49  63
BRANCH  50  75
ATOM     75  C   UNL     1      -6.923   5.994  11.591  1.00  0.00     0.058 A 
ATOM     76  C   UNL     1      -7.208   7.296  11.156  1.00  0.00     0.135 A 
ATOM     77  C   UNL     1      -7.863   4.989  11.319  1.00  0.00     0.135 A 
ATOM     78  F   UNL     1      -6.341   8.289  11.399  1.00  0.00    -0.206 F 
ATOM     79  C   UNL     1      -8.393   7.597  10.492  1.00  0.00     0.059 A 
ATOM     80  C   UNL     1      -9.047   5.262  10.642  1.00  0.00     0.059 A 
ATOM     81  F   UNL     1      -7.627   3.725  11.705  1.00  0.00    -0.206 F 
ATOM     82  C   UNL     1      -9.309   6.573  10.244  1.00  0.00     0.060 A 
BRANCH  82  83
ATOM     83  S   UNL     1     -10.833   6.952   9.350  1.00  0.00     0.124 S 
ATOM     84  O   UNL     1     -11.680   7.463  10.421  1.00  0.00    -0.237 OA
ATOM     85  O   UNL     1     -10.384   7.933   8.366  1.00  0.00    -0.237 OA
ATOM     86  O   UNL     1     -11.220   5.657   8.797  1.00  0.00    -0.744 OA
ENDBRANCH  82  83
ENDBRANCH  50  75
BRANCH  62  87
ATOM     87  C   UNL     1      -4.682   7.470  18.011  1.00  0.00     0.058 A 
ATOM     88  C   UNL     1      -5.657   6.871  18.821  1.00  0.00     0.135 A 
ATOM     89  C   UNL     1      -4.280   8.779  18.314  1.00  0.00     0.135 A 
ATOM     90  F   UNL     1      -6.074   5.621  18.564  1.00  0.00    -0.206 F 
ATOM     91  C   UNL     1      -6.230   7.554  19.887  1.00  0.00     0.059 A 
ATOM     92  C   UNL     1      -4.828   9.476  19.386  1.00  0.00     0.059 A 
ATOM     93  F   UNL     1      -3.342   9.388  17.571  1.00  0.00    -0.206 F 
ATOM     94  C   UNL     1      -5.812   8.859  20.158  1.00  0.00     0.060 A 
BRANCH  94  95
ATOM     95  S   UNL     1      -6.540   9.737  21.558  1.00  0.00     0.124 S 
ATOM     96  O   UNL     1      -7.774  10.248  20.971  1.00  0.00    -0.237 OA
ATOM     97  O   UNL     1      -6.701   8.679  22.551  1.00  0.00    -0.237 OA
ATOM     98  O   UNL     1      -5.532  10.741  21.882  1.00  0.00    -0.744 OA
ENDBRANCH  94  95
ENDBRANCH  62  87
ENDBRANCH  36  37
ENDBRANCH  29  31
ENDBRANCH  28  29
ENDBRANCH  27  28
ENDBRANCH  26  27
ENDBRANCH   1  26
TORSDOF 21
