REMARK SMILES O=C(OCCOCCOC(=O)c1ccc(-c2c3nc(c(-c4c(F)cc(S(=O)(=O)[O-])cc4F)c4ccc([nH]4)c(-c4c(F)cc(S(=O)(=O)[O-])cc4F)c4nc(c(-c5c(F)cc(S(=O)(=O)[O-])cc5F)c5ccc2[nH]5)C=C4)C=C3)cc1)c1ccc(/[NH+]=C2\S[C@@H](Cc3ccc(F)cc3)C(=O)N2Cc2ccccc2)cc1
REMARK SMILES IDX 6 1 5 2 4 3 3 4 2 5 1 6 78 7 79 8 105 9 80 10 104 11 81 12
REMARK SMILES IDX 82 13 83 14 84 16 96 17 85 18 94 19 95 20 97 21 98 22 99 23
REMARK SMILES IDX 103 24 100 25 102 26 101 27 86 28 87 29 88 30 93 31 89 32
REMARK SMILES IDX 92 33 90 34 91 35 7 36 8 37 9 38 10 39 11 40 12 41 13 42
REMARK SMILES IDX 77 43 14 44 76 45 15 46 16 47 17 48 70 49 18 50 75 51 69 52
REMARK SMILES IDX 71 53 19 54 74 55 68 56 67 57 20 59 54 60 33 61 53 62 34 63
REMARK SMILES IDX 37 64 52 65 72 66 35 67 36 68 51 70 73 71 38 72 21 73 22 74
REMARK SMILES IDX 31 75 23 76 24 77 30 78 32 79 25 80 26 81 27 82 28 83 29 84
REMARK SMILES IDX 55 85 56 86 65 87 57 88 58 89 64 90 66 91 59 92 60 93 61 94
REMARK SMILES IDX 62 95 63 96 39 97 40 98 49 99 41 100 42 101 48 102 50 103
REMARK SMILES IDX 43 104 44 105 45 106 46 107 47 108
REMARK H PARENT 82 15 71 58 37 69
REMARK Flexibility Score: inf
ROOT
ATOM      1  O   UNL     1       4.090   0.263  -1.608  1.00  0.00    -0.374 OA
ENDROOT
BRANCH   1   2
ATOM      2  C   UNL     1       4.384  -1.030  -1.074  1.00  0.00     0.202 C 
BRANCH   2   3
ATOM      3  C   UNL     1       4.059  -1.165   0.416  1.00  0.00     0.261 C 
BRANCH   3   4
ATOM      4  O   UNL     1       2.648  -0.963   0.633  1.00  0.00    -0.460 OA
BRANCH   4   5
ATOM      5  C   UNL     1       2.016   0.113   1.155  1.00  0.00     0.338 C 
ATOM      6  O   UNL     1       0.791   0.098   1.256  1.00  0.00    -0.246 OA
BRANCH   5   7
ATOM      7  C   UNL     1       2.730   1.327   1.642  1.00  0.00     0.060 A 
ATOM      8  C   UNL     1       3.869   1.861   1.045  1.00  0.00     0.020 A 
ATOM      9  C   UNL     1       2.147   2.036   2.708  1.00  0.00     0.020 A 
ATOM     10  C   UNL     1       4.462   3.014   1.538  1.00  0.00     0.052 A 
ATOM     11  C   UNL     1       2.732   3.212   3.196  1.00  0.00     0.052 A 
ATOM     12  C   UNL     1       3.918   3.677   2.634  1.00  0.00     0.125 A 
BRANCH  12  13
ATOM     13  N   UNL     1       4.646   4.753   3.148  1.00  0.00    -0.235 N 
ATOM     14  C   UNL     1       5.530   4.497   4.056  1.00  0.00     0.320 C 
ATOM     15  H   UNL     1       4.491   5.672   2.831  1.00  0.00     0.313 HD
ATOM     16  S   UNL     1       5.711   3.001   4.941  1.00  0.00    -0.022 SA
ATOM     17  N   UNL     1       6.496   5.390   4.423  1.00  0.00    -0.186 N 
ATOM     18  C   UNL     1       6.721   3.808   6.203  1.00  0.00     0.178 C 
ATOM     19  C   UNL     1       7.294   5.028   5.492  1.00  0.00     0.324 C 
ATOM     20  O   UNL     1       8.280   5.651   5.870  1.00  0.00    -0.245 OA
BRANCH  17  21
ATOM     21  C   UNL     1       6.758   6.603   3.658  1.00  0.00     0.283 C 
BRANCH  21  22
ATOM     22  C   UNL     1       7.602   6.356   2.420  1.00  0.00    -0.006 A 
ATOM     23  C   UNL     1       8.985   6.585   2.432  1.00  0.00     0.008 A 
ATOM     24  C   UNL     1       7.015   5.894   1.232  1.00  0.00     0.008 A 
ATOM     25  C   UNL     1       9.754   6.357   1.285  1.00  0.00     0.000 A 
ATOM     26  C   UNL     1       7.786   5.637   0.096  1.00  0.00     0.000 A 
ATOM     27  C   UNL     1       9.156   5.875   0.122  1.00  0.00     0.000 A 
ENDBRANCH  21  22
ENDBRANCH  17  21
BRANCH  18  28
ATOM     28  C   UNL     1       7.743   2.827   6.765  1.00  0.00     0.063 C 
BRANCH  28  29
ATOM     29  C   UNL     1       8.382   3.314   8.045  1.00  0.00    -0.046 A 
ATOM     30  C   UNL     1       9.771   3.497   8.106  1.00  0.00     0.007 A 
ATOM     31  C   UNL     1       7.603   3.584   9.183  1.00  0.00     0.007 A 
ATOM     32  C   UNL     1      10.366   3.975   9.273  1.00  0.00     0.039 A 
ATOM     33  C   UNL     1       8.200   4.072  10.344  1.00  0.00     0.039 A 
ATOM     34  C   UNL     1       9.575   4.267  10.377  1.00  0.00     0.123 A 
ATOM     35  F   UNL     1      10.147   4.744  11.490  1.00  0.00    -0.207 F 
ENDBRANCH  28  29
ENDBRANCH  18  28
ENDBRANCH  12  13
ENDBRANCH   5   7
ENDBRANCH   4   5
ENDBRANCH   3   4
ENDBRANCH   2   3
ENDBRANCH   1   2
BRANCH   1  36
ATOM     36  C   UNL     1       2.747   0.443  -2.078  1.00  0.00     0.202 C 
BRANCH  36  37
ATOM     37  C   UNL     1       2.768   0.907  -3.535  1.00  0.00     0.261 C 
BRANCH  37  38
ATOM     38  O   UNL     1       3.314  -0.151  -4.333  1.00  0.00    -0.460 OA
BRANCH  38  39
ATOM     39  C   UNL     1       4.668  -0.146  -4.429  1.00  0.00     0.338 C 
ATOM     40  O   UNL     1       5.415   0.806  -4.277  1.00  0.00    -0.246 OA
BRANCH  39  41
ATOM     41  C   UNL     1       5.120  -1.551  -4.529  1.00  0.00     0.060 A 
ATOM     42  C   UNL     1       6.332  -1.901  -3.919  1.00  0.00     0.016 A 
ATOM     43  C   UNL     1       4.332  -2.527  -5.148  1.00  0.00     0.016 A 
ATOM     44  C   UNL     1       6.765  -3.227  -3.938  1.00  0.00     0.010 A 
ATOM     45  C   UNL     1       4.766  -3.849  -5.171  1.00  0.00     0.010 A 
ATOM     46  C   UNL     1       5.994  -4.199  -4.585  1.00  0.00    -0.014 A 
BRANCH  46  47
ATOM     47  C   UNL     1       6.526  -5.559  -4.807  1.00  0.00     0.031 A 
ATOM     48  C   UNL     1       7.157  -5.858  -6.137  1.00  0.00     0.074 A 
ATOM     49  C   UNL     1       6.399  -6.511  -3.866  1.00  0.00     0.049 A 
ATOM     50  N   UNL     1       7.585  -6.995  -6.613  1.00  0.00    -0.248 NA
ATOM     51  C   UNL     1       7.312  -4.719  -7.061  1.00  0.00     0.031 C 
ATOM     52  C   UNL     1       5.810  -6.319  -2.541  1.00  0.00     0.029 A 
ATOM     53  N   UNL     1       6.735  -7.840  -3.896  1.00  0.00    -0.354 N 
ATOM     54  C   UNL     1       8.049  -6.715  -7.892  1.00  0.00     0.074 A 
ATOM     55  C   UNL     1       7.831  -5.305  -8.129  1.00  0.00     0.031 C 
ATOM     56  C   UNL     1       5.801  -7.498  -1.893  1.00  0.00     0.029 A 
ATOM     57  C   UNL     1       6.354  -8.529  -2.768  1.00  0.00     0.049 A 
ATOM     58  H   UNL     1       7.204  -8.261  -4.652  1.00  0.00     0.167 HD
ATOM     59  C   UNL     1       8.611  -7.561  -8.785  1.00  0.00     0.037 A 
ATOM     60  C   UNL     1       6.419  -9.847  -2.495  1.00  0.00     0.037 A 
ATOM     61  C   UNL     1       8.822  -8.960  -8.534  1.00  0.00     0.049 A 
ATOM     62  C   UNL     1       7.007 -10.777  -3.528  1.00  0.00     0.074 A 
ATOM     63  C   UNL     1       9.420  -9.900  -9.353  1.00  0.00     0.029 A 
ATOM     64  N   UNL     1       8.431  -9.622  -7.379  1.00  0.00    -0.354 N 
ATOM     65  N   UNL     1       7.490 -10.492  -4.715  1.00  0.00    -0.248 NA
ATOM     66  C   UNL     1       7.057 -12.205  -3.187  1.00  0.00     0.031 C 
ATOM     67  C   UNL     1       9.349 -11.142  -8.712  1.00  0.00     0.029 A 
ATOM     68  C   UNL     1       8.750 -10.965  -7.475  1.00  0.00     0.049 A 
ATOM     69  H   UNL     1       7.992  -9.199  -6.606  1.00  0.00     0.167 HD
ATOM     70  C   UNL     1       7.919 -11.701  -5.252  1.00  0.00     0.074 A 
ATOM     71  C   UNL     1       7.654 -12.717  -4.254  1.00  0.00     0.031 C 
ATOM     72  C   UNL     1       8.479 -11.953  -6.461  1.00  0.00     0.037 A 
BRANCH  59  73
ATOM     73  C   UNL     1       9.023  -7.002 -10.116  1.00  0.00     0.058 A 
ATOM     74  C   UNL     1      10.151  -6.178 -10.250  1.00  0.00     0.135 A 
ATOM     75  C   UNL     1       8.312  -7.338 -11.279  1.00  0.00     0.135 A 
ATOM     76  F   UNL     1      10.851  -5.806  -9.166  1.00  0.00    -0.206 F 
ATOM     77  C   UNL     1      10.557  -5.701 -11.492  1.00  0.00     0.059 A 
ATOM     78  C   UNL     1       8.713  -6.891 -12.534  1.00  0.00     0.059 A 
ATOM     79  F   UNL     1       7.218  -8.113 -11.202  1.00  0.00    -0.206 F 
ATOM     80  C   UNL     1       9.835  -6.068 -12.629  1.00  0.00     0.060 A 
BRANCH  80  81
ATOM     81  S   UNL     1      10.401  -5.474 -14.237  1.00  0.00     0.124 S 
ATOM     82  O   UNL     1      10.037  -4.062 -14.171  1.00  0.00    -0.237 OA
ATOM     83  O   UNL     1      11.830  -5.763 -14.190  1.00  0.00    -0.237 OA
ATOM     84  O   UNL     1       9.633  -6.276 -15.185  1.00  0.00    -0.744 OA
ENDBRANCH  80  81
ENDBRANCH  59  73
BRANCH  60  85
ATOM     85  C   UNL     1       5.893 -10.379  -1.209  1.00  0.00     0.058 A 
ATOM     86  C   UNL     1       6.753 -10.911  -0.238  1.00  0.00     0.135 A 
ATOM     87  C   UNL     1       4.515 -10.391  -0.937  1.00  0.00     0.135 A 
ATOM     88  F   UNL     1       8.077 -10.932  -0.455  1.00  0.00    -0.206 F 
ATOM     89  C   UNL     1       6.268 -11.461   0.945  1.00  0.00     0.059 A 
ATOM     90  C   UNL     1       4.008 -10.911   0.250  1.00  0.00     0.059 A 
ATOM     91  F   UNL     1       3.649  -9.883  -1.827  1.00  0.00    -0.206 F 
ATOM     92  C   UNL     1       4.892 -11.458   1.179  1.00  0.00     0.060 A 
BRANCH  92  93
ATOM     93  S   UNL     1       4.273 -12.151   2.728  1.00  0.00     0.124 S 
ATOM     94  O   UNL     1       4.415 -13.582   2.486  1.00  0.00    -0.237 OA
ATOM     95  O   UNL     1       5.188 -11.575   3.709  1.00  0.00    -0.237 OA
ATOM     96  O   UNL     1       2.902 -11.652   2.793  1.00  0.00    -0.744 OA
ENDBRANCH  92  93
ENDBRANCH  60  85
BRANCH  72  97
ATOM     97  C   UNL     1       8.865 -13.374  -6.761  1.00  0.00     0.058 A 
ATOM     98  C   UNL     1       7.900 -14.349  -7.059  1.00  0.00     0.135 A 
ATOM     99  C   UNL     1      10.217 -13.749  -6.811  1.00  0.00     0.135 A 
ATOM    100  F   UNL     1       6.594 -14.041  -7.020  1.00  0.00    -0.206 F 
ATOM    101  C   UNL     1       8.263 -15.653  -7.376  1.00  0.00     0.059 A 
ATOM    102  C   UNL     1      10.603 -15.041  -7.152  1.00  0.00     0.059 A 
ATOM    103  F   UNL     1      11.178 -12.850  -6.547  1.00  0.00    -0.206 F 
ATOM    104  C   UNL     1       9.617 -15.989  -7.421  1.00  0.00     0.060 A 
BRANCH 104 105
ATOM    105  S   UNL     1      10.077 -17.677  -7.868  1.00  0.00     0.124 S 
ATOM    106  O   UNL     1       9.752 -18.403  -6.645  1.00  0.00    -0.237 OA
ATOM    107  O   UNL     1       9.212 -17.944  -9.013  1.00  0.00    -0.237 OA
ATOM    108  O   UNL     1      11.499 -17.571  -8.177  1.00  0.00    -0.744 OA
ENDBRANCH 104 105
ENDBRANCH  72  97
ENDBRANCH  46  47
ENDBRANCH  39  41
ENDBRANCH  38  39
ENDBRANCH  37  38
ENDBRANCH  36  37
ENDBRANCH   1  36
TORSDOF 22
