REMARK SMILES O=C(OCCOCCOC(=O)[C@]1(NC(=O)C2CCN(C(=O)C3CC3)CC2)CCCc2ccccc21)c1ccc(-c2c3nc(c(-c4c(F)cc(S(=O)(=O)[O-])cc4F)c4ccc([nH]4)c(-c4c(F)cc(S(=O)(=O)[O-])cc4F)c4nc(c(-c5c(F)cc(S(=O)(=O)[O-])cc5F)c5ccc2[nH]5)C=C4)C=C3)cc1
REMARK SMILES IDX 6 1 5 2 4 3 3 4 2 5 1 6 36 7 37 8 101 9 38 10 100 11 39 12
REMARK SMILES IDX 40 13 41 14 94 15 42 16 99 17 93 18 95 19 43 20 98 21 92 22
REMARK SMILES IDX 91 23 44 25 78 26 57 27 77 28 58 29 61 30 76 31 96 32 59 33
REMARK SMILES IDX 60 34 75 36 97 37 62 38 45 39 46 40 55 41 47 42 48 43 54 44
REMARK SMILES IDX 56 45 49 46 50 47 51 48 52 49 53 50 79 51 80 52 89 53 81 54
REMARK SMILES IDX 82 55 88 56 90 57 83 58 84 59 85 60 86 61 87 62 63 63 64 64
REMARK SMILES IDX 73 65 65 66 66 67 72 68 74 69 67 70 68 71 69 72 70 73 71 74
REMARK SMILES IDX 7 75 8 76 9 77 10 78 11 79 12 80 27 81 35 82 28 83 30 84
REMARK SMILES IDX 34 85 29 86 31 87 33 88 32 89 13 90 14 91 15 93 16 94 17 95
REMARK SMILES IDX 26 96 18 97 25 98 19 99 20 100 21 101 22 102 23 103 24 104
REMARK H PARENT 95 24 61 35 13 92
REMARK Flexibility Score: inf
ROOT
ATOM      1  O   UNL     1       2.714   0.065   0.848  1.00  0.00    -0.374 OA
ENDROOT
BRANCH   1   2
ATOM      2  C   UNL     1       3.265   1.347   0.586  1.00  0.00     0.202 C 
BRANCH   2   3
ATOM      3  C   UNL     1       3.382   1.554  -0.924  1.00  0.00     0.261 C 
BRANCH   3   4
ATOM      4  O   UNL     1       2.141   1.231  -1.569  1.00  0.00    -0.460 OA
BRANCH   4   5
ATOM      5  C   UNL     1       1.704  -0.056  -1.639  1.00  0.00     0.338 C 
ATOM      6  O   UNL     1       0.505  -0.315  -1.599  1.00  0.00    -0.246 OA
BRANCH   5   7
ATOM      7  C   UNL     1       2.672  -1.129  -1.999  1.00  0.00     0.060 A 
ATOM      8  C   UNL     1       3.760  -1.524  -1.207  1.00  0.00     0.016 A 
ATOM      9  C   UNL     1       2.383  -1.849  -3.162  1.00  0.00     0.016 A 
ATOM     10  C   UNL     1       4.551  -2.599  -1.559  1.00  0.00     0.010 A 
ATOM     11  C   UNL     1       3.152  -2.960  -3.502  1.00  0.00     0.010 A 
ATOM     12  C   UNL     1       4.226  -3.342  -2.686  1.00  0.00    -0.014 A 
BRANCH  12  13
ATOM     13  C   UNL     1       5.068  -4.499  -3.010  1.00  0.00     0.031 A 
ATOM     14  C   UNL     1       5.966  -4.399  -4.195  1.00  0.00     0.074 A 
ATOM     15  C   UNL     1       5.053  -5.568  -2.191  1.00  0.00     0.049 A 
ATOM     16  N   UNL     1       6.653  -5.334  -4.783  1.00  0.00    -0.248 NA
ATOM     17  C   UNL     1       6.109  -3.064  -4.805  1.00  0.00     0.031 C 
ATOM     18  C   UNL     1       4.286  -5.669  -0.943  1.00  0.00     0.029 A 
ATOM     19  N   UNL     1       5.702  -6.769  -2.274  1.00  0.00    -0.354 N 
ATOM     20  C   UNL     1       7.260  -4.718  -5.868  1.00  0.00     0.074 A 
ATOM     21  C   UNL     1       6.884  -3.324  -5.847  1.00  0.00     0.031 C 
ATOM     22  C   UNL     1       4.513  -6.865  -0.379  1.00  0.00     0.029 A 
ATOM     23  C   UNL     1       5.353  -7.647  -1.274  1.00  0.00     0.049 A 
ATOM     24  H   UNL     1       6.354  -6.984  -2.980  1.00  0.00     0.167 HD
ATOM     25  C   UNL     1       8.041  -5.299  -6.803  1.00  0.00     0.037 A 
ATOM     26  C   UNL     1       5.625  -8.959  -1.151  1.00  0.00     0.037 A 
ATOM     27  C   UNL     1       8.399  -6.690  -6.755  1.00  0.00     0.049 A 
ATOM     28  C   UNL     1       6.433  -9.595  -2.252  1.00  0.00     0.074 A 
ATOM     29  C   UNL     1       9.169  -7.415  -7.642  1.00  0.00     0.029 A 
ATOM     30  N   UNL     1       8.001  -7.566  -5.751  1.00  0.00    -0.354 N 
ATOM     31  N   UNL     1       6.970  -9.027  -3.309  1.00  0.00    -0.248 NA
ATOM     32  C   UNL     1       6.651 -11.042  -2.167  1.00  0.00     0.031 C 
ATOM     33  C   UNL     1       9.191  -8.742  -7.203  1.00  0.00     0.029 A 
ATOM     34  C   UNL     1       8.484  -8.833  -6.012  1.00  0.00     0.049 A 
ATOM     35  H   UNL     1       7.455  -7.319  -4.970  1.00  0.00     0.167 HD
ATOM     36  C   UNL     1       7.596 -10.047  -4.012  1.00  0.00     0.074 A 
ATOM     37  C   UNL     1       7.398 -11.260  -3.241  1.00  0.00     0.031 C 
ATOM     38  C   UNL     1       8.264 -10.000  -5.192  1.00  0.00     0.037 A 
BRANCH  25  39
ATOM     39  C   UNL     1       8.481  -4.464  -7.969  1.00  0.00     0.058 A 
ATOM     40  C   UNL     1       9.461  -3.468  -7.854  1.00  0.00     0.135 A 
ATOM     41  C   UNL     1       7.919  -4.689  -9.236  1.00  0.00     0.135 A 
ATOM     42  F   UNL     1      10.000  -3.182  -6.658  1.00  0.00    -0.206 F 
ATOM     43  C   UNL     1       9.874  -2.727  -8.957  1.00  0.00     0.059 A 
ATOM     44  C   UNL     1       8.332  -3.977 -10.357  1.00  0.00     0.059 A 
ATOM     45  F   UNL     1       6.956  -5.611  -9.394  1.00  0.00    -0.206 F 
ATOM     46  C   UNL     1       9.311  -2.997 -10.207  1.00  0.00     0.060 A 
BRANCH  46  47
ATOM     47  S   UNL     1       9.900  -2.067 -11.638  1.00  0.00     0.124 S 
ATOM     48  O   UNL     1       9.354  -0.740 -11.370  1.00  0.00    -0.237 OA
ATOM     49  O   UNL     1      11.349  -2.193 -11.512  1.00  0.00    -0.237 OA
ATOM     50  O   UNL     1       9.308  -2.772 -12.770  1.00  0.00    -0.744 OA
ENDBRANCH  46  47
ENDBRANCH  25  39
BRANCH  26  51
ATOM     51  C   UNL     1       5.050  -9.764  -0.036  1.00  0.00     0.058 A 
ATOM     52  C   UNL     1       5.871 -10.413   0.897  1.00  0.00     0.135 A 
ATOM     53  C   UNL     1       3.661  -9.939   0.094  1.00  0.00     0.135 A 
ATOM     54  F   UNL     1       7.205 -10.279   0.823  1.00  0.00    -0.206 F 
ATOM     55  C   UNL     1       5.344 -11.243   1.885  1.00  0.00     0.059 A 
ATOM     56  C   UNL     1       3.108 -10.733   1.094  1.00  0.00     0.059 A 
ATOM     57  F   UNL     1       2.821  -9.333  -0.759  1.00  0.00    -0.206 F 
ATOM     58  C   UNL     1       3.959 -11.405   1.967  1.00  0.00     0.060 A 
BRANCH  58  59
ATOM     59  S   UNL     1       3.282 -12.520   3.217  1.00  0.00     0.124 S 
ATOM     60  O   UNL     1       3.626 -13.824   2.659  1.00  0.00    -0.237 OA
ATOM     61  O   UNL     1       4.015 -12.128   4.416  1.00  0.00    -0.237 OA
ATOM     62  O   UNL     1       1.859 -12.194   3.223  1.00  0.00    -0.744 OA
ENDBRANCH  58  59
ENDBRANCH  26  51
BRANCH  38  63
ATOM     63  C   UNL     1       8.847 -11.290  -5.688  1.00  0.00     0.058 A 
ATOM     64  C   UNL     1       8.036 -12.300  -6.226  1.00  0.00     0.135 A 
ATOM     65  C   UNL     1      10.237 -11.479  -5.691  1.00  0.00     0.135 A 
ATOM     66  F   UNL     1       6.701 -12.164  -6.233  1.00  0.00    -0.206 F 
ATOM     67  C   UNL     1       8.586 -13.467  -6.737  1.00  0.00     0.059 A 
ATOM     68  C   UNL     1      10.810 -12.623  -6.229  1.00  0.00     0.059 A 
ATOM     69  F   UNL     1      11.051 -10.532  -5.197  1.00  0.00    -0.206 F 
ATOM     70  C   UNL     1       9.975 -13.615  -6.742  1.00  0.00     0.060 A 
BRANCH  70  71
ATOM     71  S   UNL     1      10.678 -15.111  -7.462  1.00  0.00     0.124 S 
ATOM     72  O   UNL     1      10.349 -16.107  -6.448  1.00  0.00    -0.237 OA
ATOM     73  O   UNL     1       9.950 -15.221  -8.722  1.00  0.00    -0.237 OA
ATOM     74  O   UNL     1      12.097 -14.791  -7.590  1.00  0.00    -0.744 OA
ENDBRANCH  70  71
ENDBRANCH  38  63
ENDBRANCH  12  13
ENDBRANCH   5   7
ENDBRANCH   4   5
ENDBRANCH   3   4
ENDBRANCH   2   3
ENDBRANCH   1   2
BRANCH   1  75
ATOM     75  C   UNL     1       1.705  -0.092   1.824  1.00  0.00     0.202 C 
BRANCH  75  76
ATOM     76  C   UNL     1       2.246  -0.928   2.982  1.00  0.00     0.261 C 
BRANCH  76  77
ATOM     77  O   UNL     1       3.093  -0.114   3.806  1.00  0.00    -0.461 OA
BRANCH  77  78
ATOM     78  C   UNL     1       4.347   0.134   3.333  1.00  0.00     0.336 C 
ATOM     79  O   UNL     1       4.863  -0.446   2.382  1.00  0.00    -0.249 OA
BRANCH  78  80
ATOM     80  C   UNL     1       5.090   1.179   4.213  1.00  0.00     0.164 C 
ATOM     81  C   UNL     1       4.176   1.802   5.305  1.00  0.00     0.046 C 
ATOM     82  C   UNL     1       5.538   2.303   3.237  1.00  0.00    -0.008 A 
ATOM     83  C   UNL     1       3.053   2.673   4.722  1.00  0.00     0.008 C 
ATOM     84  C   UNL     1       4.766   3.469   3.033  1.00  0.00    -0.042 A 
ATOM     85  C   UNL     1       6.641   2.076   2.386  1.00  0.00     0.007 A 
ATOM     86  C   UNL     1       3.603   3.840   3.917  1.00  0.00     0.036 C 
ATOM     87  C   UNL     1       5.092   4.346   1.981  1.00  0.00     0.004 A 
ATOM     88  C   UNL     1       6.946   2.950   1.343  1.00  0.00     0.000 A 
ATOM     89  C   UNL     1       6.163   4.078   1.132  1.00  0.00     0.000 A 
BRANCH  80  90
ATOM     90  N   UNL     1       6.309   0.593   4.861  1.00  0.00    -0.336 N 
ATOM     91  C   UNL     1       6.708  -0.666   5.220  1.00  0.00     0.224 C 
ATOM     92  H   UNL     1       6.983   1.276   5.080  1.00  0.00     0.164 HD
ATOM     93  O   UNL     1       7.673  -0.743   5.987  1.00  0.00    -0.275 OA
BRANCH  91  94
ATOM     94  C   UNL     1       6.108  -1.937   4.616  1.00  0.00     0.082 C 
ATOM     95  C   UNL     1       5.690  -2.975   5.664  1.00  0.00     0.035 C 
ATOM     96  C   UNL     1       7.012  -2.477   3.481  1.00  0.00     0.035 C 
ATOM     97  C   UNL     1       6.734  -4.042   5.944  1.00  0.00     0.120 C 
ATOM     98  C   UNL     1       8.004  -3.543   3.950  1.00  0.00     0.120 C 
ATOM     99  N   UNL     1       7.281  -4.559   4.695  1.00  0.00    -0.342 N 
ATOM    100  C   UNL     1       6.809  -5.798   4.241  1.00  0.00     0.225 C 
ATOM    101  O   UNL     1       5.875  -6.345   4.818  1.00  0.00    -0.275 OA
BRANCH 100 102
ATOM    102  C   UNL     1       7.417  -6.572   3.113  1.00  0.00     0.079 C 
ATOM    103  C   UNL     1       7.941  -6.075   1.798  1.00  0.00     0.014 C 
ATOM    104  C   UNL     1       8.899  -6.588   2.842  1.00  0.00     0.014 C 
ENDBRANCH 100 102
ENDBRANCH  91  94
ENDBRANCH  80  90
ENDBRANCH  78  80
ENDBRANCH  77  78
ENDBRANCH  76  77
ENDBRANCH  75  76
ENDBRANCH   1  75
TORSDOF 20
