REMARK SMILES O=C(OCCOCCOC(=O)[C@@H]1CCCCC[C@H]1NC(=O)C1CC1)c1ccc(-c2c3nc(c(-c4c(F)cc(S(=O)(=O)[O-])cc4F)c4ccc([nH]4)c(-c4c(F)cc(S(=O)(=O)[O-])cc4F)c4nc(c(-c5c(F)cc(S(=O)(=O)[O-])cc5F)c5ccc2[nH]5)C=C4)C=C3)cc1
REMARK SMILES IDX 6 1 5 2 4 3 3 4 2 5 1 6 25 7 26 8 90 9 27 10 89 11 28 12
REMARK SMILES IDX 29 13 30 14 83 15 31 16 88 17 82 18 84 19 32 20 87 21 81 22
REMARK SMILES IDX 80 23 33 25 67 26 46 27 66 28 47 29 50 30 65 31 85 32 48 33
REMARK SMILES IDX 49 34 64 36 86 37 51 38 34 39 35 40 44 41 36 42 37 43 43 44
REMARK SMILES IDX 45 45 38 46 39 47 40 48 41 49 42 50 68 51 69 52 78 53 70 54
REMARK SMILES IDX 71 55 77 56 79 57 72 58 73 59 74 60 75 61 76 62 52 63 53 64
REMARK SMILES IDX 62 65 54 66 55 67 61 68 63 69 56 70 57 71 58 72 59 73 60 74
REMARK SMILES IDX 7 75 8 76 9 77 10 78 11 79 12 80 13 81 14 82 15 83 18 85
REMARK SMILES IDX 17 86 16 87 19 89 20 90 21 92 22 93 23 94 24 95
REMARK H PARENT 84 24 50 35 19 91
REMARK Flexibility Score: 100.00
ROOT
ATOM      1  O   UNL     1       3.659  -0.562  -1.368  1.00  0.00    -0.374 OA
ENDROOT
BRANCH   1   2
ATOM      2  C   UNL     1       3.864  -1.295  -0.168  1.00  0.00     0.202 C 
BRANCH   2   3
ATOM      3  C   UNL     1       3.443  -0.630   1.135  1.00  0.00     0.261 C 
BRANCH   3   4
ATOM      4  O   UNL     1       2.064  -0.253   1.070  1.00  0.00    -0.460 OA
BRANCH   4   5
ATOM      5  C   UNL     1       1.616   1.003   0.832  1.00  0.00     0.338 C 
ATOM      6  O   UNL     1       0.411   1.218   0.746  1.00  0.00    -0.246 OA
BRANCH   5   7
ATOM      7  C   UNL     1       2.562   2.142   0.741  1.00  0.00     0.060 A 
ATOM      8  C   UNL     1       3.700   2.120  -0.065  1.00  0.00     0.016 A 
ATOM      9  C   UNL     1       2.250   3.313   1.433  1.00  0.00     0.016 A 
ATOM     10  C   UNL     1       4.572   3.181  -0.120  1.00  0.00     0.010 A 
ATOM     11  C   UNL     1       3.069   4.436   1.298  1.00  0.00     0.010 A 
ATOM     12  C   UNL     1       4.229   4.365   0.513  1.00  0.00    -0.014 A 
BRANCH  12  13
ATOM     13  C   UNL     1       5.140   5.502   0.337  1.00  0.00     0.031 A 
ATOM     14  C   UNL     1       5.934   5.957   1.512  1.00  0.00     0.074 A 
ATOM     15  C   UNL     1       5.306   6.014  -0.897  1.00  0.00     0.049 A 
ATOM     16  N   UNL     1       6.686   7.011   1.635  1.00  0.00    -0.248 NA
ATOM     17  C   UNL     1       5.874   5.107   2.715  1.00  0.00     0.031 C 
ATOM     18  C   UNL     1       4.661   5.511  -2.118  1.00  0.00     0.029 A 
ATOM     19  N   UNL     1       6.085   7.045  -1.342  1.00  0.00    -0.354 N 
ATOM     20  C   UNL     1       7.146   6.986   2.943  1.00  0.00     0.074 A 
ATOM     21  C   UNL     1       6.596   5.808   3.575  1.00  0.00     0.031 C 
ATOM     22  C   UNL     1       5.093   6.218  -3.172  1.00  0.00     0.029 A 
ATOM     23  C   UNL     1       5.955   7.285  -2.690  1.00  0.00     0.049 A 
ATOM     24  H   UNL     1       6.680   7.565  -0.755  1.00  0.00     0.167 HD
ATOM     25  C   UNL     1       7.944   7.893   3.549  1.00  0.00     0.037 A 
ATOM     26  C   UNL     1       6.436   8.300  -3.431  1.00  0.00     0.037 A 
ATOM     27  C   UNL     1       8.466   9.042   2.860  1.00  0.00     0.049 A 
ATOM     28  C   UNL     1       7.245   9.343  -2.713  1.00  0.00     0.074 A 
ATOM     29  C   UNL     1       9.234  10.076   3.357  1.00  0.00     0.029 A 
ATOM     30  N   UNL     1       8.268   9.299   1.506  1.00  0.00    -0.354 N 
ATOM     31  N   UNL     1       7.601   9.378  -1.448  1.00  0.00    -0.248 NA
ATOM     32  C   UNL     1       7.695  10.493  -3.501  1.00  0.00     0.031 C 
ATOM     33  C   UNL     1       9.459  10.982   2.314  1.00  0.00     0.029 A 
ATOM     34  C   UNL     1       8.883  10.484   1.153  1.00  0.00     0.049 A 
ATOM     35  H   UNL     1       7.763   8.720   0.891  1.00  0.00     0.167 HD
ATOM     36  C   UNL     1       8.332  10.546  -1.289  1.00  0.00     0.074 A 
ATOM     37  C   UNL     1       8.381  11.178  -2.596  1.00  0.00     0.031 C 
ATOM     38  C   UNL     1       8.906  11.059  -0.172  1.00  0.00     0.037 A 
BRANCH  25  39
ATOM     39  C   UNL     1       8.200   7.709   5.017  1.00  0.00     0.058 A 
ATOM     40  C   UNL     1       8.998   6.666   5.515  1.00  0.00     0.135 A 
ATOM     41  C   UNL     1       7.591   8.566   5.947  1.00  0.00     0.135 A 
ATOM     42  F   UNL     1       9.572   5.791   4.674  1.00  0.00    -0.206 F 
ATOM     43  C   UNL     1       9.157   6.462   6.883  1.00  0.00     0.059 A 
ATOM     44  C   UNL     1       7.758   8.398   7.318  1.00  0.00     0.059 A 
ATOM     45  F   UNL     1       6.801   9.567   5.527  1.00  0.00    -0.206 F 
ATOM     46  C   UNL     1       8.530   7.332   7.777  1.00  0.00     0.060 A 
BRANCH  46  47
ATOM     47  S   UNL     1       8.729   7.045   9.548  1.00  0.00     0.124 S 
ATOM     48  O   UNL     1       7.915   5.849   9.743  1.00  0.00    -0.237 OA
ATOM     49  O   UNL     1      10.171   6.856   9.671  1.00  0.00    -0.237 OA
ATOM     50  O   UNL     1       8.206   8.266  10.152  1.00  0.00    -0.744 OA
ENDBRANCH  46  47
ENDBRANCH  25  39
BRANCH  26  51
ATOM     51  C   UNL     1       6.104   8.406  -4.879  1.00  0.00     0.058 A 
ATOM     52  C   UNL     1       7.098   8.314  -5.864  1.00  0.00     0.135 A 
ATOM     53  C   UNL     1       4.779   8.589  -5.313  1.00  0.00     0.135 A 
ATOM     54  F   UNL     1       8.380   8.143  -5.508  1.00  0.00    -0.206 F 
ATOM     55  C   UNL     1       6.796   8.415  -7.220  1.00  0.00     0.059 A 
ATOM     56  C   UNL     1       4.448   8.662  -6.662  1.00  0.00     0.059 A 
ATOM     57  F   UNL     1       3.782   8.672  -4.418  1.00  0.00    -0.206 F 
ATOM     58  C   UNL     1       5.466   8.588  -7.610  1.00  0.00     0.060 A 
BRANCH  58  59
ATOM     59  S   UNL     1       5.081   8.691  -9.372  1.00  0.00     0.124 S 
ATOM     60  O   UNL     1       5.620  10.003  -9.713  1.00  0.00    -0.237 OA
ATOM     61  O   UNL     1       5.803   7.544  -9.912  1.00  0.00    -0.237 OA
ATOM     62  O   UNL     1       3.626   8.579  -9.406  1.00  0.00    -0.744 OA
ENDBRANCH  58  59
ENDBRANCH  26  51
BRANCH  38  63
ATOM     63  C   UNL     1       9.666  12.341  -0.338  1.00  0.00     0.058 A 
ATOM     64  C   UNL     1       9.010  13.566  -0.522  1.00  0.00     0.135 A 
ATOM     65  C   UNL     1      11.066  12.343  -0.244  1.00  0.00     0.135 A 
ATOM     66  F   UNL     1       7.672  13.610  -0.628  1.00  0.00    -0.206 F 
ATOM     67  C   UNL     1       9.721  14.754  -0.628  1.00  0.00     0.059 A 
ATOM     68  C   UNL     1      11.795  13.522  -0.315  1.00  0.00     0.059 A 
ATOM     69  F   UNL     1      11.734  11.193  -0.057  1.00  0.00    -0.206 F 
ATOM     70  C   UNL     1      11.113  14.722  -0.516  1.00  0.00     0.060 A 
BRANCH  70  71
ATOM     71  S   UNL     1      12.021  16.277  -0.605  1.00  0.00     0.124 S 
ATOM     72  O   UNL     1      11.929  16.589  -2.027  1.00  0.00    -0.237 OA
ATOM     73  O   UNL     1      11.248  17.139   0.285  1.00  0.00    -0.237 OA
ATOM     74  O   UNL     1      13.352  15.921  -0.123  1.00  0.00    -0.744 OA
ENDBRANCH  70  71
ENDBRANCH  38  63
ENDBRANCH  12  13
ENDBRANCH   5   7
ENDBRANCH   4   5
ENDBRANCH   3   4
ENDBRANCH   2   3
ENDBRANCH   1   2
BRANCH   1  75
ATOM     75  C   UNL     1       2.384  -0.720  -1.993  1.00  0.00     0.202 C 
BRANCH  75  76
ATOM     76  C   UNL     1       2.596  -1.296  -3.392  1.00  0.00     0.261 C 
BRANCH  76  77
ATOM     77  O   UNL     1       3.334  -2.528  -3.265  1.00  0.00    -0.463 OA
BRANCH  77  78
ATOM     78  C   UNL     1       4.681  -2.437  -3.454  1.00  0.00     0.311 C 
ATOM     79  O   UNL     1       5.263  -1.456  -3.900  1.00  0.00    -0.252 OA
BRANCH  78  80
ATOM     80  C   UNL     1       5.420  -3.686  -2.971  1.00  0.00     0.121 C 
BRANCH  80  81
ATOM     81  C   UNL     1       4.497  -4.909  -2.954  1.00  0.00     0.017 C 
BRANCH  81  82
ATOM     82  C   UNL     1       5.217  -6.197  -2.579  1.00  0.00     0.001 C 
BRANCH  82  83
ATOM     83  C   UNL     1       5.157  -6.493  -1.086  1.00  0.00     0.000 CG0
ATOM     84  G   UNL     1       5.967  -5.546  -0.209  1.00  0.00     0.000 G0
ENDBRANCH  82  83
ENDBRANCH  81  82
ENDBRANCH  80  81
BRANCH  80  85
ATOM     85  C   UNL     1       6.140  -3.357  -1.641  1.00  0.00     0.096 C 
BRANCH  85  86
ATOM     86  C   UNL     1       5.622  -4.069  -0.371  1.00  0.00     0.026 C 
BRANCH  86  87
ATOM     87  C   UNL     1       5.967  -5.546  -0.209  1.00  0.00     0.002 CG0
ATOM     88  G   UNL     1       5.157  -6.493  -1.086  1.00  0.00     0.000 G0
ENDBRANCH  86  87
ENDBRANCH  85  86
BRANCH  85  89
ATOM     89  N   UNL     1       7.590  -3.514  -1.743  1.00  0.00    -0.352 N 
ATOM     90  C   UNL     1       8.568  -2.631  -1.363  1.00  0.00     0.223 C 
ATOM     91  H   UNL     1       7.904  -4.361  -2.135  1.00  0.00     0.163 HD
ATOM     92  O   UNL     1       9.749  -2.970  -1.409  1.00  0.00    -0.275 OA
BRANCH  90  93
ATOM     93  C   UNL     1       8.188  -1.290  -0.845  1.00  0.00     0.078 C 
ATOM     94  C   UNL     1       9.005  -0.082  -1.264  1.00  0.00     0.014 C 
ATOM     95  C   UNL     1       7.594  -0.224  -1.740  1.00  0.00     0.014 C 
ENDBRANCH  90  93
ENDBRANCH  85  89
ENDBRANCH  80  85
ENDBRANCH  78  80
ENDBRANCH  77  78
ENDBRANCH  76  77
ENDBRANCH  75  76
ENDBRANCH   1  75
TORSDOF 19
