REMARK SMILES O=C(OCCOCCOC(=O)[C@@]1([NH2+]C2CC2)CC[C@H](OC2CCC2)C1)c1ccc(-c2c3nc(c(-c4c(F)cc(S(=O)(=O)[O-])cc4F)c4ccc([nH]4)c(-c4c(F)cc(S(=O)(=O)[O-])cc4F)c4nc(c(-c5c(F)cc(S(=O)(=O)[O-])cc5F)c5ccc2[nH]5)C=C4)C=C3)cc1
REMARK SMILES IDX 5 1 4 2 3 3 2 4 1 5 26 6 27 7 91 8 28 9 90 10 29 11 30 12
REMARK SMILES IDX 31 13 84 14 32 15 89 16 83 17 85 18 33 19 88 20 82 21 81 22
REMARK SMILES IDX 34 24 68 25 47 26 67 27 48 28 51 29 66 30 86 31 49 32 50 33
REMARK SMILES IDX 65 35 87 36 52 37 35 38 36 39 45 40 37 41 38 42 44 43 46 44
REMARK SMILES IDX 39 45 40 46 41 47 42 48 43 49 69 50 70 51 79 52 71 53 72 54
REMARK SMILES IDX 78 55 80 56 73 57 74 58 75 59 76 60 77 61 53 62 54 63 63 64
REMARK SMILES IDX 55 65 56 66 62 67 64 68 57 69 58 70 59 71 60 72 61 73 6 74
REMARK SMILES IDX 7 75 8 76 9 77 10 78 11 79 12 80 17 81 25 82 18 83 19 84
REMARK SMILES IDX 13 85 14 88 15 89 16 90 20 91 21 92 22 93 24 94 23 95
REMARK H PARENT 85 23 51 34 13 86 13 87
REMARK Flexibility Score: inf
ROOT
ATOM      1  C   UNL     1       4.294   1.023   1.059  1.00  0.00     0.202 C 
ENDROOT
BRANCH   1   2
ATOM      2  C   UNL     1       3.969   1.532  -0.345  1.00  0.00     0.261 C 
BRANCH   2   3
ATOM      3  O   UNL     1       2.557   1.431  -0.603  1.00  0.00    -0.460 OA
BRANCH   3   4
ATOM      4  C   UNL     1       1.964   0.596  -1.493  1.00  0.00     0.338 C 
ATOM      5  O   UNL     1       0.759   0.684  -1.706  1.00  0.00    -0.246 OA
BRANCH   4   6
ATOM      6  C   UNL     1       2.753  -0.425  -2.231  1.00  0.00     0.060 A 
ATOM      7  C   UNL     1       3.757  -1.186  -1.630  1.00  0.00     0.016 A 
ATOM      8  C   UNL     1       2.416  -0.684  -3.563  1.00  0.00     0.016 A 
ATOM      9  C   UNL     1       4.503  -2.094  -2.354  1.00  0.00     0.010 A 
ATOM     10  C   UNL     1       3.105  -1.665  -4.279  1.00  0.00     0.010 A 
ATOM     11  C   UNL     1       4.159  -2.363  -3.673  1.00  0.00    -0.014 A 
BRANCH  11  12
ATOM     12  C   UNL     1       4.934  -3.387  -4.391  1.00  0.00     0.031 A 
ATOM     13  C   UNL     1       5.854  -2.954  -5.485  1.00  0.00     0.074 A 
ATOM     14  C   UNL     1       4.849  -4.668  -3.985  1.00  0.00     0.049 A 
ATOM     15  N   UNL     1       6.502  -3.685  -6.346  1.00  0.00    -0.248 NA
ATOM     16  C   UNL     1       6.080  -1.505  -5.627  1.00  0.00     0.031 C 
ATOM     17  C   UNL     1       4.060  -5.140  -2.839  1.00  0.00     0.029 A 
ATOM     18  N   UNL     1       5.434  -5.805  -4.469  1.00  0.00    -0.354 N 
ATOM     19  C   UNL     1       7.163  -2.787  -7.173  1.00  0.00     0.074 A 
ATOM     20  C   UNL     1       6.869  -1.457  -6.691  1.00  0.00     0.031 C 
ATOM     21  C   UNL     1       4.223  -6.464  -2.705  1.00  0.00     0.029 A 
ATOM     22  C   UNL     1       5.038  -6.946  -3.809  1.00  0.00     0.049 A 
ATOM     23  H   UNL     1       6.076  -5.807  -5.215  1.00  0.00     0.167 HD
ATOM     24  C   UNL     1       7.922  -3.072  -8.254  1.00  0.00     0.037 A 
ATOM     25  C   UNL     1       5.253  -8.238  -4.118  1.00  0.00     0.037 A 
ATOM     26  C   UNL     1       8.200  -4.418  -8.675  1.00  0.00     0.049 A 
ATOM     27  C   UNL     1       6.037  -8.525  -5.369  1.00  0.00     0.074 A 
ATOM     28  C   UNL     1       8.935  -4.850  -9.761  1.00  0.00     0.029 A 
ATOM     29  N   UNL     1       7.745  -5.553  -8.015  1.00  0.00    -0.354 N 
ATOM     30  N   UNL     1       6.619  -7.674  -6.185  1.00  0.00    -0.248 NA
ATOM     31  C   UNL     1       6.163  -9.930  -5.770  1.00  0.00     0.031 C 
ATOM     32  C   UNL     1       8.884  -6.248  -9.784  1.00  0.00     0.029 A 
ATOM     33  C   UNL     1       8.153  -6.687  -8.689  1.00  0.00     0.049 A 
ATOM     34  H   UNL     1       7.210  -5.550  -7.188  1.00  0.00     0.167 HD
ATOM     35  C   UNL     1       7.172  -8.440  -7.201  1.00  0.00     0.074 A 
ATOM     36  C   UNL     1       6.884  -9.825  -6.878  1.00  0.00     0.031 C 
ATOM     37  C   UNL     1       7.840  -8.044  -8.312  1.00  0.00     0.037 A 
BRANCH  24  38
ATOM     38  C   UNL     1       8.414  -1.925  -9.085  1.00  0.00     0.058 A 
ATOM     39  C   UNL     1       9.481  -1.108  -8.685  1.00  0.00     0.135 A 
ATOM     40  C   UNL     1       7.800  -1.646 -10.318  1.00  0.00     0.135 A 
ATOM     41  F   UNL     1      10.080  -1.309  -7.501  1.00  0.00    -0.206 F 
ATOM     42  C   UNL     1       9.921  -0.050  -9.477  1.00  0.00     0.059 A 
ATOM     43  C   UNL     1       8.234  -0.606 -11.133  1.00  0.00     0.059 A 
ATOM     44  F   UNL     1       6.760  -2.385 -10.736  1.00  0.00    -0.206 F 
ATOM     45  C   UNL     1       9.291   0.192 -10.700  1.00  0.00     0.060 A 
BRANCH  45  46
ATOM     46  S   UNL     1       9.881   1.558 -11.724  1.00  0.00     0.124 S 
ATOM     47  O   UNL     1       9.390   2.713 -10.979  1.00  0.00    -0.237 OA
ATOM     48  O   UNL     1      11.327   1.361 -11.705  1.00  0.00    -0.237 OA
ATOM     49  O   UNL     1       9.236   1.323 -13.012  1.00  0.00    -0.744 OA
ENDBRANCH  45  46
ENDBRANCH  24  38
BRANCH  25  50
ATOM     50  C   UNL     1       4.624  -9.327  -3.320  1.00  0.00     0.058 A 
ATOM     51  C   UNL     1       5.397 -10.259  -2.613  1.00  0.00     0.135 A 
ATOM     52  C   UNL     1       3.226  -9.469  -3.263  1.00  0.00     0.135 A 
ATOM     53  F   UNL     1       6.736 -10.176  -2.638  1.00  0.00    -0.206 F 
ATOM     54  C   UNL     1       4.812 -11.305  -1.903  1.00  0.00     0.059 A 
ATOM     55  C   UNL     1       2.617 -10.486  -2.535  1.00  0.00     0.059 A 
ATOM     56  F   UNL     1       2.433  -8.600  -3.910  1.00  0.00    -0.206 F 
ATOM     57  C   UNL     1       3.420 -11.413  -1.875  1.00  0.00     0.060 A 
BRANCH  57  58
ATOM     58  S   UNL     1       2.663 -12.772  -0.956  1.00  0.00     0.124 S 
ATOM     59  O   UNL     1       2.889 -13.895  -1.859  1.00  0.00    -0.237 OA
ATOM     60  O   UNL     1       3.439 -12.781   0.280  1.00  0.00    -0.237 OA
ATOM     61  O   UNL     1       1.274 -12.346  -0.811  1.00  0.00    -0.744 OA
ENDBRANCH  57  58
ENDBRANCH  25  50
BRANCH  37  62
ATOM     62  C   UNL     1       8.297  -9.123  -9.243  1.00  0.00     0.058 A 
ATOM     63  C   UNL     1       7.399  -9.750 -10.119  1.00  0.00     0.135 A 
ATOM     64  C   UNL     1       9.656  -9.464  -9.322  1.00  0.00     0.135 A 
ATOM     65  F   UNL     1       6.090  -9.461 -10.067  1.00  0.00    -0.206 F 
ATOM     66  C   UNL     1       7.836 -10.685 -11.047  1.00  0.00     0.059 A 
ATOM     67  C   UNL     1      10.117 -10.379 -10.259  1.00  0.00     0.059 A 
ATOM     68  F   UNL     1      10.548  -8.881  -8.506  1.00  0.00    -0.206 F 
ATOM     69  C   UNL     1       9.198 -10.986 -11.116  1.00  0.00     0.060 A 
BRANCH  69  70
ATOM     70  S   UNL     1       9.763 -12.141 -12.380  1.00  0.00     0.124 S 
ATOM     71  O   UNL     1       9.341 -13.420 -11.818  1.00  0.00    -0.237 OA
ATOM     72  O   UNL     1       9.032 -11.695 -13.562  1.00  0.00    -0.237 OA
ATOM     73  O   UNL     1      11.205 -11.918 -12.422  1.00  0.00    -0.744 OA
ENDBRANCH  69  70
ENDBRANCH  37  62
ENDBRANCH  11  12
ENDBRANCH   4   6
ENDBRANCH   3   4
ENDBRANCH   2   3
ENDBRANCH   1   2
BRANCH   1  74
ATOM     74  O   UNL     1       3.866  -0.300   1.367  1.00  0.00    -0.374 OA
BRANCH  74  75
ATOM     75  C   UNL     1       2.479  -0.494   1.672  1.00  0.00     0.202 C 
BRANCH  75  76
ATOM     76  C   UNL     1       2.324  -1.710   2.599  1.00  0.00     0.261 C 
BRANCH  76  77
ATOM     77  O   UNL     1       2.956  -1.402   3.850  1.00  0.00    -0.459 OA
BRANCH  77  78
ATOM     78  C   UNL     1       4.316  -1.554   3.812  1.00  0.00     0.368 C 
ATOM     79  O   UNL     1       4.910  -2.275   3.027  1.00  0.00    -0.245 OA
BRANCH  78  80
ATOM     80  C   UNL     1       5.004  -0.610   4.810  1.00  0.00     0.197 C 
ATOM     81  C   UNL     1       6.403  -0.230   4.298  1.00  0.00     0.084 C 
ATOM     82  C   UNL     1       4.320   0.782   4.810  1.00  0.00     0.113 C 
ATOM     83  C   UNL     1       6.734   1.075   5.002  1.00  0.00     0.039 C 
ATOM     84  C   UNL     1       5.406   1.817   5.129  1.00  0.00     0.125 C 
BRANCH  80  85
ATOM     85  N   UNL     1       4.975  -1.098   6.196  1.00  0.00    -0.330 N 
ATOM     86  H   UNL     1       4.053  -0.858   6.559  1.00  0.00     0.347 HD
ATOM     87  H   UNL     1       5.808  -0.655   6.585  1.00  0.00     0.347 HD
BRANCH  85  88
ATOM     88  C   UNL     1       5.195  -2.490   6.551  1.00  0.00     0.183 C 
ATOM     89  C   UNL     1       5.750  -3.578   5.683  1.00  0.00     0.071 C 
ATOM     90  C   UNL     1       6.605  -2.977   6.754  1.00  0.00     0.071 C 
ENDBRANCH  85  88
ENDBRANCH  80  85
BRANCH  84  91
ATOM     91  O   UNL     1       5.196   2.285   6.456  1.00  0.00    -0.375 OA
BRANCH  91  92
ATOM     92  C   UNL     1       5.841   3.478   6.950  1.00  0.00     0.118 C 
ATOM     93  C   UNL     1       7.298   3.343   7.456  1.00  0.00     0.032 C 
ATOM     94  C   UNL     1       6.362   4.585   6.001  1.00  0.00     0.032 C 
ATOM     95  C   UNL     1       7.511   4.801   7.012  1.00  0.00     0.005 C 
ENDBRANCH  91  92
ENDBRANCH  84  91
ENDBRANCH  78  80
ENDBRANCH  77  78
ENDBRANCH  76  77
ENDBRANCH  75  76
ENDBRANCH  74  75
ENDBRANCH   1  74
TORSDOF 21
