REMARK SMILES O=Cc1ccc(-c2ccc(C(=O)OCCOCCOC(=O)c3ccc(-c4c5nc(c(-c6c(F)cc(S(=O)(=O)[O-])cc6F)c6ccc([nH]6)c(-c6c(F)cc(S(=O)(=O)[O-])cc6F)c6nc(c(-c7c(F)cc(S(=O)(=O)[O-])cc7F)c7ccc4[nH]7)C=C6)C=C5)cc3)cn2)cc1
REMARK SMILES IDX 17 1 16 2 15 3 14 4 13 5 11 6 12 7 10 8 7 9 8 10 89 11 9 12
REMARK SMILES IDX 88 13 6 14 3 15 4 16 91 17 5 18 90 19 2 20 1 21 18 22 19 23
REMARK SMILES IDX 20 24 21 25 22 26 23 27 87 28 24 29 86 30 25 31 26 32 27 33
REMARK SMILES IDX 80 34 28 35 85 36 79 37 81 38 29 39 84 40 78 41 77 42 30 44
REMARK SMILES IDX 64 45 43 46 63 47 44 48 47 49 62 50 82 51 45 52 46 53 61 55
REMARK SMILES IDX 83 56 48 57 31 58 32 59 41 60 33 61 34 62 40 63 42 64 35 65
REMARK SMILES IDX 36 66 37 67 38 68 39 69 65 70 66 71 75 72 67 73 68 74 74 75
REMARK SMILES IDX 76 76 69 77 70 78 71 79 72 80 73 81 49 82 50 83 59 84 51 85
REMARK SMILES IDX 52 86 58 87 60 88 53 89 54 90 55 91 56 92 57 93
REMARK H PARENT 81 43 47 54
REMARK Flexibility Score: inf
ROOT
ATOM      1  C   UNL     1       9.185   0.057   8.547  1.00  0.00     0.202 C 
ENDROOT
BRANCH   1   2
ATOM      2  O   UNL     1       9.165  -0.135   9.962  1.00  0.00    -0.374 OA
BRANCH   2   3
ATOM      3  C   UNL     1       9.048  -1.475  10.440  1.00  0.00     0.202 C 
BRANCH   3   4
ATOM      4  C   UNL     1       7.636  -2.069  10.467  1.00  0.00     0.261 C 
BRANCH   4   5
ATOM      5  O   UNL     1       7.078  -2.154   9.145  1.00  0.00    -0.460 OA
BRANCH   5   6
ATOM      6  C   UNL     1       6.091  -1.267   8.887  1.00  0.00     0.339 C 
ATOM      7  O   UNL     1       5.558  -0.505   9.684  1.00  0.00    -0.246 OA
BRANCH   6   8
ATOM      8  C   UNL     1       5.816  -1.206   7.443  1.00  0.00     0.078 A 
ATOM      9  C   UNL     1       5.088  -0.870   4.815  1.00  0.00     0.070 A 
ATOM     10  C   UNL     1       5.567  -2.113   5.234  1.00  0.00     0.030 A 
ATOM     11  N   UNL     1       5.045   0.207   5.637  1.00  0.00    -0.255 NA
ATOM     12  C   UNL     1       5.949  -2.282   6.567  1.00  0.00     0.019 A 
ATOM     13  C   UNL     1       5.391   0.011   6.930  1.00  0.00     0.127 A 
BRANCH   9  14
ATOM     14  C   UNL     1       4.440  -0.664   3.517  1.00  0.00     0.000 A 
ATOM     15  C   UNL     1       3.014  -0.131   1.154  1.00  0.00     0.014 A 
ATOM     16  C   UNL     1       4.181   0.584   1.438  1.00  0.00     0.012 A 
ATOM     17  C   UNL     1       2.561  -1.119   2.028  1.00  0.00     0.012 A 
ATOM     18  C   UNL     1       4.883   0.322   2.620  1.00  0.00     0.011 A 
ATOM     19  C   UNL     1       3.276  -1.386   3.197  1.00  0.00     0.011 A 
BRANCH  15  20
ATOM     20  C   UNL     1       2.244   0.184  -0.065  1.00  0.00     0.260 C 
ATOM     21  O   UNL     1       1.165  -0.341  -0.312  1.00  0.00    -0.298 OA
ENDBRANCH  15  20
ENDBRANCH   9  14
ENDBRANCH   6   8
ENDBRANCH   5   6
ENDBRANCH   4   5
ENDBRANCH   3   4
ENDBRANCH   2   3
ENDBRANCH   1   2
BRANCH   1  22
ATOM     22  C   UNL     1      10.501  -0.249   7.822  1.00  0.00     0.261 C 
BRANCH  22  23
ATOM     23  O   UNL     1      10.836  -1.647   7.866  1.00  0.00    -0.460 OA
BRANCH  23  24
ATOM     24  C   UNL     1      11.885  -1.952   8.666  1.00  0.00     0.338 C 
ATOM     25  O   UNL     1      12.596  -1.166   9.278  1.00  0.00    -0.246 OA
BRANCH  24  26
ATOM     26  C   UNL     1      11.963  -3.411   8.865  1.00  0.00     0.060 A 
ATOM     27  C   UNL     1      12.021  -3.881  10.184  1.00  0.00     0.016 A 
ATOM     28  C   UNL     1      12.041  -4.299   7.791  1.00  0.00     0.016 A 
ATOM     29  C   UNL     1      12.207  -5.239  10.433  1.00  0.00     0.010 A 
ATOM     30  C   UNL     1      12.234  -5.662   8.044  1.00  0.00     0.010 A 
ATOM     31  C   UNL     1      12.351  -6.133   9.364  1.00  0.00    -0.014 A 
BRANCH  31  32
ATOM     32  C   UNL     1      12.748  -7.537   9.633  1.00  0.00     0.031 A 
ATOM     33  C   UNL     1      14.182  -7.946   9.431  1.00  0.00     0.074 A 
ATOM     34  C   UNL     1      11.845  -8.431  10.076  1.00  0.00     0.049 A 
ATOM     35  N   UNL     1      14.737  -9.121   9.576  1.00  0.00    -0.248 NA
ATOM     36  C   UNL     1      15.113  -6.889   9.005  1.00  0.00     0.031 C 
ATOM     37  C   UNL     1      10.435  -8.145  10.340  1.00  0.00     0.029 A 
ATOM     38  N   UNL     1      11.981  -9.763  10.377  1.00  0.00    -0.354 N 
ATOM     39  C   UNL     1      16.079  -8.949   9.255  1.00  0.00     0.074 A 
ATOM     40  C   UNL     1      16.248  -7.562   8.877  1.00  0.00     0.031 C 
ATOM     41  C   UNL     1       9.832  -9.273  10.754  1.00  0.00     0.029 A 
ATOM     42  C   UNL     1      10.804 -10.365  10.754  1.00  0.00     0.049 A 
ATOM     43  H   UNL     1      12.839 -10.242  10.327  1.00  0.00     0.167 HD
ATOM     44  C   UNL     1      17.079  -9.861   9.283  1.00  0.00     0.037 A 
ATOM     45  C   UNL     1      10.538 -11.654  11.046  1.00  0.00     0.037 A 
ATOM     46  C   UNL     1      16.905 -11.239   9.664  1.00  0.00     0.049 A 
ATOM     47  C   UNL     1      11.656 -12.663  11.014  1.00  0.00     0.074 A 
ATOM     48  C   UNL     1      17.861 -12.236   9.747  1.00  0.00     0.029 A 
ATOM     49  N   UNL     1      15.694 -11.817  10.017  1.00  0.00    -0.354 N 
ATOM     50  N   UNL     1      12.925 -12.481  10.735  1.00  0.00    -0.248 NA
ATOM     51  C   UNL     1      11.307 -14.053  11.341  1.00  0.00     0.031 C 
ATOM     52  C   UNL     1      17.221 -13.428  10.102  1.00  0.00     0.029 A 
ATOM     53  C   UNL     1      15.874 -13.163  10.294  1.00  0.00     0.049 A 
ATOM     54  H   UNL     1      14.834 -11.341  10.065  1.00  0.00     0.167 HD
ATOM     55  C   UNL     1      13.530 -13.726  10.878  1.00  0.00     0.074 A 
ATOM     56  C   UNL     1      12.490 -14.650  11.280  1.00  0.00     0.031 C 
ATOM     57  C   UNL     1      14.829 -14.072  10.697  1.00  0.00     0.037 A 
BRANCH  44  58
ATOM     58  C   UNL     1      18.451  -9.405   8.867  1.00  0.00     0.058 A 
ATOM     59  C   UNL     1      19.224  -8.553   9.671  1.00  0.00     0.135 A 
ATOM     60  C   UNL     1      19.016  -9.858   7.663  1.00  0.00     0.135 A 
ATOM     61  F   UNL     1      18.727  -8.076  10.823  1.00  0.00    -0.206 F 
ATOM     62  C   UNL     1      20.497  -8.146   9.285  1.00  0.00     0.059 A 
ATOM     63  C   UNL     1      20.298  -9.485   7.270  1.00  0.00     0.059 A 
ATOM     64  F   UNL     1      18.320 -10.673   6.854  1.00  0.00    -0.206 F 
ATOM     65  C   UNL     1      21.026  -8.617   8.082  1.00  0.00     0.060 A 
BRANCH  65  66
ATOM     66  S   UNL     1      22.681  -8.084   7.598  1.00  0.00     0.124 S 
ATOM     67  O   UNL     1      22.440  -6.694   7.224  1.00  0.00    -0.237 OA
ATOM     68  O   UNL     1      23.445  -8.286   8.824  1.00  0.00    -0.237 OA
ATOM     69  O   UNL     1      23.019  -8.980   6.497  1.00  0.00    -0.744 OA
ENDBRANCH  65  66
ENDBRANCH  44  58
BRANCH  45  70
ATOM     70  C   UNL     1       9.150 -12.066  11.384  1.00  0.00     0.058 A 
ATOM     71  C   UNL     1       8.807 -12.470  12.682  1.00  0.00     0.135 A 
ATOM     72  C   UNL     1       8.137 -12.060  10.412  1.00  0.00     0.135 A 
ATOM     73  F   UNL     1       9.743 -12.504  13.643  1.00  0.00    -0.206 F 
ATOM     74  C   UNL     1       7.513 -12.867  13.004  1.00  0.00     0.059 A 
ATOM     75  C   UNL     1       6.830 -12.427  10.715  1.00  0.00     0.059 A 
ATOM     76  F   UNL     1       8.410 -11.670   9.157  1.00  0.00    -0.206 F 
ATOM     77  C   UNL     1       6.530 -12.838  12.013  1.00  0.00     0.060 A 
BRANCH  77  78
ATOM     78  S   UNL     1       4.841 -13.302  12.453  1.00  0.00     0.124 S 
ATOM     79  O   UNL     1       4.960 -14.749  12.590  1.00  0.00    -0.237 OA
ATOM     80  O   UNL     1       4.632 -12.557  13.691  1.00  0.00    -0.237 OA
ATOM     81  O   UNL     1       4.058 -12.837  11.311  1.00  0.00    -0.744 OA
ENDBRANCH  77  78
ENDBRANCH  45  70
BRANCH  57  82
ATOM     82  C   UNL     1      15.211 -15.503  10.962  1.00  0.00     0.058 A 
ATOM     83  C   UNL     1      14.841 -16.541  10.093  1.00  0.00     0.135 A 
ATOM     84  C   UNL     1      16.000 -15.832  12.077  1.00  0.00     0.135 A 
ATOM     85  F   UNL     1      14.083 -16.282   9.016  1.00  0.00    -0.206 F 
ATOM     86  C   UNL     1      15.219 -17.858  10.332  1.00  0.00     0.059 A 
ATOM     87  C   UNL     1      16.413 -17.139  12.320  1.00  0.00     0.059 A 
ATOM     88  F   UNL     1      16.392 -14.877  12.935  1.00  0.00    -0.206 F 
ATOM     89  C   UNL     1      16.006 -18.148  11.448  1.00  0.00     0.060 A 
BRANCH  89  90
ATOM     90  S   UNL     1      16.513 -19.857  11.731  1.00  0.00     0.124 S 
ATOM     91  O   UNL     1      15.269 -20.459  12.199  1.00  0.00    -0.237 OA
ATOM     92  O   UNL     1      16.960 -20.274  10.406  1.00  0.00    -0.237 OA
ATOM     93  O   UNL     1      17.569 -19.737  12.733  1.00  0.00    -0.744 OA
ENDBRANCH  89  90
ENDBRANCH  57  82
ENDBRANCH  31  32
ENDBRANCH  24  26
ENDBRANCH  23  24
ENDBRANCH  22  23
ENDBRANCH   1  22
TORSDOF 19
