REMARK SMILES O=C(CCn1cc(/C=C\C(=O)c2ccc(F)cc2)c(-c2cccc(Cl)c2)n1)OCCOCCOC(=O)c1ccc(-c2c3nc(c(-c4c(F)cc(S(=O)(=O)[O-])cc4F)c4ccc([nH]4)c(-c4c(F)cc(S(=O)(=O)[O-])cc4F)c4nc(c(-c5c(F)cc(S(=O)(=O)[O-])cc5F)c5ccc2[nH]5)C=C4)C=C3)cc1
REMARK SMILES IDX 30 1 29 2 28 3 2 4 1 5 3 6 4 7 5 8 6 9 27 10 7 11 19 12 8 13
REMARK SMILES IDX 9 14 10 15 11 16 12 17 13 18 18 19 14 20 17 21 15 22 16 23
REMARK SMILES IDX 20 24 21 25 26 26 22 27 24 28 23 29 25 30 31 31 32 32 33 33
REMARK SMILES IDX 34 34 35 35 36 36 37 37 38 38 102 39 39 40 101 41 40 42
REMARK SMILES IDX 41 43 42 44 95 45 43 46 100 47 94 48 96 49 44 50 99 51 93 52
REMARK SMILES IDX 92 53 45 55 79 56 58 57 78 58 59 59 62 60 77 61 97 62 60 63
REMARK SMILES IDX 61 64 76 66 98 67 63 68 46 69 47 70 56 71 48 72 49 73 55 74
REMARK SMILES IDX 57 75 50 76 51 77 52 78 53 79 54 80 80 81 81 82 90 83 82 84
REMARK SMILES IDX 83 85 89 86 91 87 84 88 85 89 86 90 87 91 88 92 64 93 65 94
REMARK SMILES IDX 74 95 66 96 67 97 73 98 75 99 68 100 69 101 70 102 71 103
REMARK SMILES IDX 72 104
REMARK H PARENT 96 54 62 65
REMARK Flexibility Score: inf
ROOT
ATOM      1  C   UNL     1       4.103   1.252  -1.116  1.00  0.00     0.202 C 
ENDROOT
BRANCH   1   2
ATOM      2  C   UNL     1       3.660  -0.187  -1.240  1.00  0.00     0.261 C 
BRANCH   2   3
ATOM      3  O   UNL     1       2.364  -0.440  -0.709  1.00  0.00    -0.463 OA
BRANCH   3   4
ATOM      4  C   UNL     1       2.185  -0.985   0.515  1.00  0.00     0.307 C 
ATOM      5  O   UNL     1       1.153  -1.620   0.730  1.00  0.00    -0.252 OA
BRANCH   4   6
ATOM      6  C   UNL     1       3.140  -0.672   1.657  1.00  0.00     0.146 C 
BRANCH   6   7
ATOM      7  C   UNL     1       4.258  -1.641   1.994  1.00  0.00     0.156 C 
BRANCH   7   8
ATOM      8  N   UNL     1       5.488  -1.624   1.223  1.00  0.00    -0.271 N 
ATOM      9  C   UNL     1       6.230  -0.601   0.675  1.00  0.00     0.117 A 
ATOM     10  N   UNL     1       5.947  -2.821   0.841  1.00  0.00    -0.172 NA
ATOM     11  C   UNL     1       6.841  -1.156  -0.449  1.00  0.00     0.021 A 
ATOM     12  C   UNL     1       6.549  -2.554  -0.315  1.00  0.00     0.100 A 
BRANCH  11  13
ATOM     13  C   UNL     1       7.487  -0.424  -1.526  1.00  0.00     0.016 C 
ATOM     14  C   UNL     1       7.892  -0.764  -2.779  1.00  0.00     0.053 C 
BRANCH  14  15
ATOM     15  C   UNL     1       7.906  -2.017  -3.681  1.00  0.00     0.185 C 
ATOM     16  O   UNL     1       8.335  -1.938  -4.826  1.00  0.00    -0.289 OA
BRANCH  15  17
ATOM     17  C   UNL     1       7.234  -3.313  -3.154  1.00  0.00     0.022 A 
ATOM     18  C   UNL     1       5.575  -2.648  -2.840  1.00  0.00     0.015 A 
ATOM     19  C   UNL     1       7.734  -5.030  -2.204  1.00  0.00     0.015 A 
ATOM     20  C   UNL     1       4.545  -3.454  -1.665  1.00  0.00     0.040 A 
ATOM     21  C   UNL     1       6.568  -5.725  -1.016  1.00  0.00     0.040 A 
ATOM     22  C   UNL     1       5.043  -4.903  -0.788  1.00  0.00     0.123 A 
ATOM     23  F   UNL     1       4.182  -5.402   0.114  1.00  0.00    -0.207 F 
ENDBRANCH  15  17
ENDBRANCH  14  15
ENDBRANCH  11  13
BRANCH  12  24
ATOM     24  C   UNL     1       6.910  -3.599  -1.323  1.00  0.00     0.004 A 
ATOM     25  C   UNL     1       6.002  -4.680  -2.770  1.00  0.00     0.010 A 
ATOM     26  C   UNL     1       8.703  -3.319  -1.520  1.00  0.00     0.031 A 
ATOM     27  C   UNL     1       6.957  -5.218  -4.184  1.00  0.00     0.002 A 
ATOM     28  C   UNL     1       9.486  -3.909  -2.976  1.00  0.00     0.041 A 
ATOM     29  C   UNL     1       8.645  -4.801  -4.240  1.00  0.00     0.020 A 
ATOM     30  Cl  UNL     1      11.171  -3.610  -3.180  1.00  0.00    -0.084 Cl
ENDBRANCH  12  24
ENDBRANCH   7   8
ENDBRANCH   6   7
ENDBRANCH   4   6
ENDBRANCH   3   4
ENDBRANCH   2   3
ENDBRANCH   1   2
BRANCH   1  31
ATOM     31  O   UNL     1       4.000   1.816   0.190  1.00  0.00    -0.374 OA
BRANCH  31  32
ATOM     32  C   UNL     1       2.738   2.421   0.500  1.00  0.00     0.202 C 
BRANCH  32  33
ATOM     33  C   UNL     1       2.593   3.863   0.045  1.00  0.00     0.261 C 
BRANCH  33  34
ATOM     34  O   UNL     1       2.834   3.966  -1.344  1.00  0.00    -0.460 OA
BRANCH  34  35
ATOM     35  C   UNL     1       4.130   4.069  -1.730  1.00  0.00     0.338 C 
ATOM     36  O   UNL     1       5.119   4.155  -1.026  1.00  0.00    -0.246 OA
BRANCH  35  37
ATOM     37  C   UNL     1       4.115   4.110  -3.203  1.00  0.00     0.060 A 
ATOM     38  C   UNL     1       5.200   4.762  -3.769  1.00  0.00     0.016 A 
ATOM     39  C   UNL     1       2.868   4.044  -3.838  1.00  0.00     0.016 A 
ATOM     40  C   UNL     1       4.904   5.733  -4.694  1.00  0.00     0.010 A 
ATOM     41  C   UNL     1       2.567   5.034  -4.730  1.00  0.00     0.010 A 
ATOM     42  C   UNL     1       3.559   5.955  -5.044  1.00  0.00    -0.014 A 
BRANCH  42  43
ATOM     43  C   UNL     1       3.246   6.970  -6.028  1.00  0.00     0.031 A 
ATOM     44  C   UNL     1       3.680   6.446  -7.342  1.00  0.00     0.074 A 
ATOM     45  C   UNL     1       2.622   8.143  -5.781  1.00  0.00     0.049 A 
ATOM     46  N   UNL     1       4.858   6.615  -7.845  1.00  0.00    -0.248 NA
ATOM     47  C   UNL     1       2.942   5.321  -7.951  1.00  0.00     0.031 C 
ATOM     48  C   UNL     1       2.004   8.633  -4.546  1.00  0.00     0.029 A 
ATOM     49  N   UNL     1       2.382   9.173  -6.651  1.00  0.00    -0.354 N 
ATOM     50  C   UNL     1       4.835   5.903  -9.032  1.00  0.00     0.074 A 
ATOM     51  C   UNL     1       3.823   4.901  -8.864  1.00  0.00     0.031 C 
ATOM     52  C   UNL     1       1.258   9.738  -4.811  1.00  0.00     0.029 A 
ATOM     53  C   UNL     1       1.460  10.133  -6.193  1.00  0.00     0.049 A 
ATOM     54  H   UNL     1       2.820   9.236  -7.531  1.00  0.00     0.167 HD
ATOM     55  C   UNL     1       5.340   6.483 -10.154  1.00  0.00     0.037 A 
ATOM     56  C   UNL     1       0.942  11.166  -6.929  1.00  0.00     0.037 A 
ATOM     57  C   UNL     1       6.178   7.606  -9.791  1.00  0.00     0.049 A 
ATOM     58  C   UNL     1       1.898  11.393  -8.050  1.00  0.00     0.074 A 
ATOM     59  C   UNL     1       7.314   7.767  -9.020  1.00  0.00     0.029 A 
ATOM     60  N   UNL     1       5.586   8.842  -9.873  1.00  0.00    -0.354 N 
ATOM     61  N   UNL     1       3.115  11.831  -7.870  1.00  0.00    -0.248 NA
ATOM     62  C   UNL     1       1.677  10.609  -9.256  1.00  0.00     0.031 C 
ATOM     63  C   UNL     1       7.124   8.997  -8.326  1.00  0.00     0.029 A 
ATOM     64  C   UNL     1       5.954   9.597  -8.793  1.00  0.00     0.049 A 
ATOM     65  H   UNL     1       4.989   9.140 -10.597  1.00  0.00     0.167 HD
ATOM     66  C   UNL     1       3.897  11.000  -8.658  1.00  0.00     0.074 A 
ATOM     67  C   UNL     1       2.946  10.283  -9.513  1.00  0.00     0.031 C 
ATOM     68  C   UNL     1       5.194  10.734  -8.321  1.00  0.00     0.037 A 
BRANCH  55  69
ATOM     69  C   UNL     1       4.701   6.364 -11.520  1.00  0.00     0.058 A 
ATOM     70  C   UNL     1       3.377   5.934 -11.771  1.00  0.00     0.135 A 
ATOM     71  C   UNL     1       5.356   6.961 -12.616  1.00  0.00     0.135 A 
ATOM     72  F   UNL     1       2.574   5.438 -10.825  1.00  0.00    -0.206 F 
ATOM     73  C   UNL     1       2.759   6.067 -13.005  1.00  0.00     0.059 A 
ATOM     74  C   UNL     1       4.735   7.151 -13.851  1.00  0.00     0.059 A 
ATOM     75  F   UNL     1       6.605   7.436 -12.488  1.00  0.00    -0.206 F 
ATOM     76  C   UNL     1       3.439   6.690 -14.036  1.00  0.00     0.060 A 
BRANCH  76  77
ATOM     77  S   UNL     1       2.576   6.893 -15.599  1.00  0.00     0.124 S 
ATOM     78  O   UNL     1       2.390   5.504 -16.006  1.00  0.00    -0.237 OA
ATOM     79  O   UNL     1       1.370   7.602 -15.187  1.00  0.00    -0.237 OA
ATOM     80  O   UNL     1       3.518   7.663 -16.403  1.00  0.00    -0.744 OA
ENDBRANCH  76  77
ENDBRANCH  55  69
BRANCH  56  81
ATOM     81  C   UNL     1      -0.468  11.672  -7.029  1.00  0.00     0.058 A 
ATOM     82  C   UNL     1      -1.555  10.879  -6.623  1.00  0.00     0.135 A 
ATOM     83  C   UNL     1      -0.798  12.791  -7.833  1.00  0.00     0.135 A 
ATOM     84  F   UNL     1      -1.362   9.784  -5.875  1.00  0.00    -0.206 F 
ATOM     85  C   UNL     1      -2.864  11.122  -7.050  1.00  0.00     0.059 A 
ATOM     86  C   UNL     1      -2.107  13.057  -8.272  1.00  0.00     0.059 A 
ATOM     87  F   UNL     1       0.169  13.609  -8.278  1.00  0.00    -0.206 F 
ATOM     88  C   UNL     1      -3.130  12.190  -7.904  1.00  0.00     0.060 A 
BRANCH  88  89
ATOM     89  S   UNL     1      -4.807  12.344  -8.574  1.00  0.00     0.124 S 
ATOM     90  O   UNL     1      -4.940  11.104  -9.332  1.00  0.00    -0.237 OA
ATOM     91  O   UNL     1      -5.613  12.427  -7.360  1.00  0.00    -0.237 OA
ATOM     92  O   UNL     1      -4.752  13.564  -9.371  1.00  0.00    -0.744 OA
ENDBRANCH  88  89
ENDBRANCH  56  81
BRANCH  68  93
ATOM     93  C   UNL     1       5.873  11.608  -7.296  1.00  0.00     0.058 A 
ATOM     94  C   UNL     1       7.043  12.261  -7.713  1.00  0.00     0.135 A 
ATOM     95  C   UNL     1       5.542  11.693  -5.930  1.00  0.00     0.135 A 
ATOM     96  F   UNL     1       7.439  12.175  -8.994  1.00  0.00    -0.206 F 
ATOM     97  C   UNL     1       7.858  12.953  -6.831  1.00  0.00     0.059 A 
ATOM     98  C   UNL     1       6.330  12.420  -5.027  1.00  0.00     0.059 A 
ATOM     99  F   UNL     1       4.489  11.025  -5.433  1.00  0.00    -0.206 F 
ATOM    100  C   UNL     1       7.492  13.039  -5.490  1.00  0.00     0.060 A 
BRANCH 100 101
ATOM    101  S   UNL     1       8.580  13.973  -4.394  1.00  0.00     0.124 S 
ATOM    102  O   UNL     1       9.800  13.170  -4.421  1.00  0.00    -0.237 OA
ATOM    103  O   UNL     1       8.663  15.264  -5.072  1.00  0.00    -0.237 OA
ATOM    104  O   UNL     1       7.868  13.982  -3.120  1.00  0.00    -0.744 OA
ENDBRANCH 100 101
ENDBRANCH  68  93
ENDBRANCH  42  43
ENDBRANCH  35  37
ENDBRANCH  34  35
ENDBRANCH  33  34
ENDBRANCH  32  33
ENDBRANCH  31  32
ENDBRANCH   1  31
TORSDOF 23
