REMARK SMILES Cc1ccc(N2C(=O)C[C@H](Sc3ccccc3C(=O)OCCOCCOC(=O)c3ccc(-c4c5nc(c(-c6c(F)cc(S(=O)(=O)[O-])cc6F)c6ccc([nH]6)c(-c6c(F)cc(S(=O)(=O)[O-])cc6F)c6nc(c(-c7c(F)cc(S(=O)(=O)[O-])cc7F)c7ccc4[nH]7)C=C6)C=C5)cc3)C2=O)cc1
REMARK SMILES IDX 23 1 22 2 21 3 20 4 18 5 19 6 17 7 12 8 13 9 14 10 16 11
REMARK SMILES IDX 15 12 11 13 10 14 6 15 7 16 95 17 8 18 9 19 96 20 5 21 1 22
REMARK SMILES IDX 2 23 3 24 98 25 4 26 97 27 24 28 25 29 26 30 27 31 28 32
REMARK SMILES IDX 29 33 30 34 94 35 31 36 93 37 32 38 33 39 34 40 87 41 35 42
REMARK SMILES IDX 92 43 86 44 88 45 36 46 91 47 85 48 84 49 37 51 71 52 50 53
REMARK SMILES IDX 70 54 51 55 54 56 69 57 89 58 52 59 53 60 68 62 90 63 55 64
REMARK SMILES IDX 38 65 39 66 48 67 40 68 41 69 47 70 49 71 42 72 43 73 44 74
REMARK SMILES IDX 45 75 46 76 72 77 73 78 82 79 74 80 75 81 81 82 83 83 76 84
REMARK SMILES IDX 77 85 78 86 79 87 80 88 56 89 57 90 66 91 58 92 59 93 65 94
REMARK SMILES IDX 67 95 60 96 61 97 62 98 63 99 64 100
REMARK H PARENT 88 50 54 61
REMARK Flexibility Score: inf
ROOT
ATOM      1  O   UNL     1      -4.486   2.353  -1.745  1.00  0.00    -0.374 OA
ENDROOT
BRANCH   1   2
ATOM      2  C   UNL     1      -4.322   3.686  -2.173  1.00  0.00     0.202 C 
BRANCH   2   3
ATOM      3  C   UNL     1      -5.438   4.358  -1.485  1.00  0.00     0.261 C 
BRANCH   3   4
ATOM      4  O   UNL     1      -5.466   4.072  -0.060  1.00  0.00    -0.460 OA
BRANCH   4   5
ATOM      5  C   UNL     1      -6.071   2.974   0.489  1.00  0.00     0.339 C 
ATOM      6  O   UNL     1      -6.785   2.169  -0.046  1.00  0.00    -0.246 OA
BRANCH   5   7
ATOM      7  C   UNL     1      -5.656   2.902   1.910  1.00  0.00     0.073 A 
ATOM      8  C   UNL     1      -5.652   1.703   2.650  1.00  0.00     0.023 A 
ATOM      9  C   UNL     1      -5.096   1.746   3.941  1.00  0.00     0.016 A 
ATOM     10  C   UNL     1      -4.564   2.926   4.474  1.00  0.00     0.001 A 
ATOM     11  C   UNL     1      -5.202   4.102   2.496  1.00  0.00     0.017 A 
ATOM     12  C   UNL     1      -4.642   4.112   3.762  1.00  0.00     0.001 A 
BRANCH   8  13
ATOM     13  S   UNL     1      -6.514   0.182   2.217  1.00  0.00    -0.111 SA
BRANCH  13  14
ATOM     14  C   UNL     1      -5.280  -0.949   1.501  1.00  0.00     0.151 C 
ATOM     15  N   UNL     1      -3.136  -0.935   0.606  1.00  0.00    -0.250 N 
ATOM     16  C   UNL     1      -3.957  -1.403  -0.397  1.00  0.00     0.235 C 
ATOM     17  C   UNL     1      -3.830  -0.640   1.756  1.00  0.00     0.247 C 
ATOM     18  O   UNL     1      -3.635  -1.879  -1.476  1.00  0.00    -0.274 OA
ATOM     19  C   UNL     1      -5.373  -1.076  -0.009  1.00  0.00     0.126 C 
ATOM     20  O   UNL     1      -3.340  -0.364   2.844  1.00  0.00    -0.273 OA
BRANCH  15  21
ATOM     21  C   UNL     1      -1.746  -0.740   0.467  1.00  0.00     0.052 A 
ATOM     22  C   UNL     1       2.482  -0.051  -0.036  1.00  0.00     0.044 C 
ATOM     23  C   UNL     1       1.006  -0.272   0.108  1.00  0.00    -0.051 A 
ATOM     24  C   UNL     1       0.454  -1.536  -0.144  1.00  0.00     0.005 A 
ATOM     25  C   UNL     1       0.169   0.759   0.541  1.00  0.00     0.005 A 
ATOM     26  C   UNL     1      -0.920  -1.756  -0.010  1.00  0.00     0.027 A 
ATOM     27  C   UNL     1      -1.189   0.514   0.761  1.00  0.00     0.027 A 
ENDBRANCH  15  21
ENDBRANCH  13  14
ENDBRANCH   8  13
ENDBRANCH   5   7
ENDBRANCH   4   5
ENDBRANCH   3   4
ENDBRANCH   2   3
ENDBRANCH   1   2
BRANCH   1  28
ATOM     28  C   UNL     1      -3.257   1.742  -1.534  1.00  0.00     0.202 C 
BRANCH  28  29
ATOM     29  C   UNL     1      -2.646   1.377  -2.871  1.00  0.00     0.261 C 
BRANCH  29  30
ATOM     30  O   UNL     1      -3.546   0.519  -3.622  1.00  0.00    -0.460 OA
BRANCH  30  31
ATOM     31  C   UNL     1      -4.259   1.066  -4.657  1.00  0.00     0.338 C 
ATOM     32  O   UNL     1      -3.843   1.136  -5.802  1.00  0.00    -0.246 OA
BRANCH  31  33
ATOM     33  C   UNL     1      -5.671   1.371  -4.271  1.00  0.00     0.060 A 
ATOM     34  C   UNL     1      -6.385   2.456  -4.819  1.00  0.00     0.016 A 
ATOM     35  C   UNL     1      -6.242   0.638  -3.241  1.00  0.00     0.016 A 
ATOM     36  C   UNL     1      -7.562   2.927  -4.198  1.00  0.00     0.010 A 
ATOM     37  C   UNL     1      -7.372   1.131  -2.610  1.00  0.00     0.010 A 
ATOM     38  C   UNL     1      -8.005   2.318  -3.028  1.00  0.00    -0.014 A 
BRANCH  38  39
ATOM     39  C   UNL     1      -9.098   2.776  -2.143  1.00  0.00     0.031 A 
ATOM     40  C   UNL     1     -10.277   1.892  -2.048  1.00  0.00     0.074 A 
ATOM     41  C   UNL     1      -8.957   3.774  -1.225  1.00  0.00     0.049 A 
ATOM     42  N   UNL     1     -11.338   2.194  -1.391  1.00  0.00    -0.248 NA
ATOM     43  C   UNL     1     -10.396   0.603  -2.730  1.00  0.00     0.031 C 
ATOM     44  C   UNL     1      -9.631   3.969   0.067  1.00  0.00     0.029 A 
ATOM     45  N   UNL     1      -8.067   4.848  -1.207  1.00  0.00    -0.354 N 
ATOM     46  C   UNL     1     -12.062   1.041  -1.226  1.00  0.00     0.074 A 
ATOM     47  C   UNL     1     -11.548   0.148  -2.229  1.00  0.00     0.031 C 
ATOM     48  C   UNL     1      -9.355   5.204   0.543  1.00  0.00     0.029 A 
ATOM     49  C   UNL     1      -8.613   5.913  -0.493  1.00  0.00     0.049 A 
ATOM     50  H   UNL     1      -7.181   4.853  -1.636  1.00  0.00     0.167 HD
ATOM     51  C   UNL     1     -12.893   0.970  -0.146  1.00  0.00     0.037 A 
ATOM     52  C   UNL     1      -8.908   7.065  -1.157  1.00  0.00     0.037 A 
ATOM     53  C   UNL     1     -12.990   2.294   0.509  1.00  0.00     0.049 A 
ATOM     54  C   UNL     1     -10.408   7.200  -1.209  1.00  0.00     0.074 A 
ATOM     55  C   UNL     1     -12.588   2.840   1.717  1.00  0.00     0.029 A 
ATOM     56  N   UNL     1     -13.334   3.384  -0.281  1.00  0.00    -0.354 N 
ATOM     57  N   UNL     1     -11.198   6.281  -0.728  1.00  0.00    -0.248 NA
ATOM     58  C   UNL     1     -11.156   8.307  -1.784  1.00  0.00     0.031 C 
ATOM     59  C   UNL     1     -12.667   4.273   1.607  1.00  0.00     0.029 A 
ATOM     60  C   UNL     1     -13.146   4.598   0.347  1.00  0.00     0.049 A 
ATOM     61  H   UNL     1     -13.678   3.298  -1.199  1.00  0.00     0.167 HD
ATOM     62  C   UNL     1     -12.495   6.616  -0.880  1.00  0.00     0.074 A 
ATOM     63  C   UNL     1     -12.424   7.881  -1.605  1.00  0.00     0.031 C 
ATOM     64  C   UNL     1     -13.491   5.820  -0.388  1.00  0.00     0.037 A 
BRANCH  51  65
ATOM     65  C   UNL     1     -13.512  -0.302   0.416  1.00  0.00     0.058 A 
ATOM     66  C   UNL     1     -14.357  -0.231   1.546  1.00  0.00     0.135 A 
ATOM     67  C   UNL     1     -13.284  -1.621  -0.045  1.00  0.00     0.135 A 
ATOM     68  F   UNL     1     -14.664   0.946   2.112  1.00  0.00    -0.206 F 
ATOM     69  C   UNL     1     -14.917  -1.357   2.160  1.00  0.00     0.059 A 
ATOM     70  C   UNL     1     -13.863  -2.758   0.529  1.00  0.00     0.059 A 
ATOM     71  F   UNL     1     -12.453  -1.904  -1.049  1.00  0.00    -0.206 F 
ATOM     72  C   UNL     1     -14.672  -2.619   1.641  1.00  0.00     0.060 A 
BRANCH  72  73
ATOM     73  S   UNL     1     -15.405  -4.062   2.431  1.00  0.00     0.124 S 
ATOM     74  O   UNL     1     -14.758  -4.053   3.739  1.00  0.00    -0.237 OA
ATOM     75  O   UNL     1     -16.826  -3.729   2.421  1.00  0.00    -0.237 OA
ATOM     76  O   UNL     1     -15.020  -5.166   1.555  1.00  0.00    -0.744 OA
ENDBRANCH  72  73
ENDBRANCH  51  65
BRANCH  52  77
ATOM     77  C   UNL     1      -7.888   7.400  -2.220  1.00  0.00     0.058 A 
ATOM     78  C   UNL     1      -6.606   7.852  -1.818  1.00  0.00     0.135 A 
ATOM     79  C   UNL     1      -7.969   6.857  -3.513  1.00  0.00     0.135 A 
ATOM     80  F   UNL     1      -6.426   8.329  -0.574  1.00  0.00    -0.206 F 
ATOM     81  C   UNL     1      -5.457   7.678  -2.608  1.00  0.00     0.059 A 
ATOM     82  C   UNL     1      -6.827   6.636  -4.302  1.00  0.00     0.059 A 
ATOM     83  F   UNL     1      -9.142   6.398  -3.971  1.00  0.00    -0.206 F 
ATOM     84  C   UNL     1      -5.568   7.012  -3.828  1.00  0.00     0.060 A 
BRANCH  84  85
ATOM     85  S   UNL     1      -4.060   6.371  -4.631  1.00  0.00     0.124 S 
ATOM     86  O   UNL     1      -3.660   7.486  -5.478  1.00  0.00    -0.237 OA
ATOM     87  O   UNL     1      -3.186   6.096  -3.492  1.00  0.00    -0.237 OA
ATOM     88  O   UNL     1      -4.541   5.181  -5.323  1.00  0.00    -0.744 OA
ENDBRANCH  84  85
ENDBRANCH  52  77
BRANCH  64  89
ATOM     89  C   UNL     1     -14.928   6.143  -0.626  1.00  0.00     0.058 A 
ATOM     90  C   UNL     1     -15.427   7.446  -0.516  1.00  0.00     0.135 A 
ATOM     91  C   UNL     1     -15.863   5.134  -0.942  1.00  0.00     0.135 A 
ATOM     92  F   UNL     1     -14.650   8.451  -0.082  1.00  0.00    -0.206 F 
ATOM     93  C   UNL     1     -16.739   7.753  -0.849  1.00  0.00     0.059 A 
ATOM     94  C   UNL     1     -17.194   5.405  -1.196  1.00  0.00     0.059 A 
ATOM     95  F   UNL     1     -15.520   3.845  -1.065  1.00  0.00    -0.206 F 
ATOM     96  C   UNL     1     -17.609   6.724  -1.202  1.00  0.00     0.060 A 
BRANCH  96  97
ATOM     97  S   UNL     1     -19.294   7.119  -1.670  1.00  0.00     0.124 S 
ATOM     98  O   UNL     1     -19.660   8.129  -0.682  1.00  0.00    -0.237 OA
ATOM     99  O   UNL     1     -19.105   7.604  -3.034  1.00  0.00    -0.237 OA
ATOM    100  O   UNL     1     -19.990   5.843  -1.544  1.00  0.00    -0.744 OA
ENDBRANCH  96  97
ENDBRANCH  64  89
ENDBRANCH  38  39
ENDBRANCH  31  33
ENDBRANCH  30  31
ENDBRANCH  29  30
ENDBRANCH  28  29
ENDBRANCH   1  28
TORSDOF 20
