REMARK SMILES CCc1cc(OC(F)(F)F)cc2c1O[C@H](C(F)(F)F)C(C(=O)OCCOCCOC(=O)c1ccc(-c3c4nc(c(-c5c(F)cc(S(=O)(=O)[O-])cc5F)c5ccc([nH]5)c(-c5c(F)cc(S(=O)(=O)[O-])cc5F)c5nc(c(-c6c(F)cc(S(=O)(=O)[O-])cc6F)c6ccc3[nH]6)C=C5)C=C4)cc1)=C2
REMARK SMILES IDX 27 1 26 2 25 3 24 4 23 5 21 6 22 7 20 8 3 9 4 10 13 11 5 12
REMARK SMILES IDX 12 13 14 14 11 15 98 16 15 17 2 18 1 19 6 20 7 21 8 22 9 23
REMARK SMILES IDX 10 24 16 25 17 26 18 27 19 28 28 29 29 30 30 31 31 32 32 33
REMARK SMILES IDX 33 34 97 35 34 36 96 37 35 38 36 39 37 40 90 41 38 42 95 43
REMARK SMILES IDX 89 44 91 45 39 46 94 47 88 48 87 49 40 51 74 52 53 53 73 54
REMARK SMILES IDX 54 55 57 56 72 57 92 58 55 59 56 60 71 62 93 63 58 64 41 65
REMARK SMILES IDX 42 66 51 67 43 68 44 69 50 70 52 71 45 72 46 73 47 74 48 75
REMARK SMILES IDX 49 76 75 77 76 78 85 79 77 80 78 81 84 82 86 83 79 84 80 85
REMARK SMILES IDX 81 86 82 87 83 88 59 89 60 90 69 91 61 92 62 93 68 94 70 95
REMARK SMILES IDX 63 96 64 97 65 98 66 99 67 100
REMARK H PARENT 91 50 57 61
REMARK Flexibility Score: inf
ROOT
ATOM      1  C   UNL     1       1.558   7.045   2.080  1.00  0.00     0.202 C 
ENDROOT
BRANCH   1   2
ATOM      2  O   UNL     1       0.525   8.016   2.250  1.00  0.00    -0.374 OA
BRANCH   2   3
ATOM      3  C   UNL     1      -0.018   8.151   3.563  1.00  0.00     0.202 C 
BRANCH   3   4
ATOM      4  C   UNL     1      -1.093   7.133   3.959  1.00  0.00     0.261 C 
BRANCH   4   5
ATOM      5  O   UNL     1      -0.570   5.792   4.030  1.00  0.00    -0.460 OA
BRANCH   5   6
ATOM      6  C   UNL     1      -0.897   5.005   2.980  1.00  0.00     0.338 C 
ATOM      7  O   UNL     1      -1.615   5.316   2.042  1.00  0.00    -0.246 OA
BRANCH   6   8
ATOM      8  C   UNL     1      -0.175   3.716   3.000  1.00  0.00     0.087 C 
ATOM      9  C   UNL     1       0.941  -0.269   2.509  1.00  0.00    -0.002 A 
ATOM     10  C   UNL     1       1.645  -0.917   3.534  1.00  0.00     0.054 A 
ATOM     11  C   UNL     1       0.558   1.062   2.709  1.00  0.00     0.131 A 
ATOM     12  C   UNL     1       1.942  -0.256   4.732  1.00  0.00     0.130 A 
ATOM     13  C   UNL     1       0.831   1.742   3.908  1.00  0.00     0.021 A 
ATOM     14  O   UNL     1      -0.150   1.660   1.698  1.00  0.00    -0.475 OA
ATOM     15  C   UNL     1       1.537   1.076   4.911  1.00  0.00     0.058 A 
ATOM     16  C   UNL     1       0.272   3.089   4.101  1.00  0.00     0.027 C 
ATOM     17  C   UNL     1       0.017   3.094   1.637  1.00  0.00     0.316 C 
BRANCH   9  18
ATOM     18  C   UNL     1       0.561  -1.024   1.254  1.00  0.00     0.036 C 
ATOM     19  C   UNL     1       1.170  -0.470  -0.029  1.00  0.00     0.009 C 
ENDBRANCH   9  18
BRANCH  12  20
ATOM     20  O   UNL     1       2.603  -0.800   5.799  1.00  0.00    -0.406 OA
BRANCH  20  21
ATOM     21  C   UNL     1       2.816  -2.203   5.794  1.00  0.00     0.573 C 
ATOM     22  F   UNL     1       1.654  -2.877   5.641  1.00  0.00    -0.132 F 
ATOM     23  F   UNL     1       3.671  -2.562   4.811  1.00  0.00    -0.132 F 
ATOM     24  F   UNL     1       3.360  -2.571   6.974  1.00  0.00    -0.132 F 
ENDBRANCH  20  21
ENDBRANCH  12  20
BRANCH  17  25
ATOM     25  C   UNL     1       1.352   3.507   0.972  1.00  0.00     0.430 C 
ATOM     26  F   UNL     1       2.021   2.457   0.439  1.00  0.00    -0.167 F 
ATOM     27  F   UNL     1       1.141   4.384  -0.041  1.00  0.00    -0.167 F 
ATOM     28  F   UNL     1       2.210   4.108   1.832  1.00  0.00    -0.167 F 
ENDBRANCH  17  25
ENDBRANCH   6   8
ENDBRANCH   5   6
ENDBRANCH   4   5
ENDBRANCH   3   4
ENDBRANCH   2   3
ENDBRANCH   1   2
BRANCH   1  29
ATOM     29  C   UNL     1       2.973   7.464   2.488  1.00  0.00     0.261 C 
BRANCH  29  30
ATOM     30  O   UNL     1       3.074   7.651   3.910  1.00  0.00    -0.460 OA
BRANCH  30  31
ATOM     31  C   UNL     1       3.186   8.941   4.301  1.00  0.00     0.338 C 
ATOM     32  O   UNL     1       3.314   9.920   3.576  1.00  0.00    -0.246 OA
BRANCH  31  33
ATOM     33  C   UNL     1       2.941   9.056   5.750  1.00  0.00     0.060 A 
ATOM     34  C   UNL     1       2.057  10.059   6.167  1.00  0.00     0.016 A 
ATOM     35  C   UNL     1       3.596   8.251   6.686  1.00  0.00     0.016 A 
ATOM     36  C   UNL     1       1.879  10.309   7.524  1.00  0.00     0.010 A 
ATOM     37  C   UNL     1       3.419   8.508   8.051  1.00  0.00     0.010 A 
ATOM     38  C   UNL     1       2.595   9.567   8.472  1.00  0.00    -0.014 A 
BRANCH  38  39
ATOM     39  C   UNL     1       2.596  10.023   9.883  1.00  0.00     0.031 A 
ATOM     40  C   UNL     1       3.758  10.840  10.381  1.00  0.00     0.074 A 
ATOM     41  C   UNL     1       1.548   9.769  10.687  1.00  0.00     0.049 A 
ATOM     42  N   UNL     1       3.951  11.374  11.559  1.00  0.00    -0.248 NA
ATOM     43  C   UNL     1       4.847  11.089   9.422  1.00  0.00     0.031 C 
ATOM     44  C   UNL     1       0.355   9.013  10.305  1.00  0.00     0.029 A 
ATOM     45  N   UNL     1       1.318  10.124  11.991  1.00  0.00    -0.354 N 
ATOM     46  C   UNL     1       5.180  12.020  11.485  1.00  0.00     0.074 A 
ATOM     47  C   UNL     1       5.704  11.782  10.158  1.00  0.00     0.031 C 
ATOM     48  C   UNL     1      -0.482   8.960  11.355  1.00  0.00     0.029 A 
ATOM     49  C   UNL     1       0.125   9.657  12.488  1.00  0.00     0.049 A 
ATOM     50  H   UNL     1       1.948  10.663  12.522  1.00  0.00     0.167 HD
ATOM     51  C   UNL     1       5.807  12.757  12.432  1.00  0.00     0.037 A 
ATOM     52  C   UNL     1      -0.410   9.772  13.719  1.00  0.00     0.037 A 
ATOM     53  C   UNL     1       5.277  12.995  13.749  1.00  0.00     0.049 A 
ATOM     54  C   UNL     1       0.329  10.556  14.772  1.00  0.00     0.074 A 
ATOM     55  C   UNL     1       5.824  13.746  14.774  1.00  0.00     0.029 A 
ATOM     56  N   UNL     1       4.081  12.479  14.225  1.00  0.00    -0.354 N 
ATOM     57  N   UNL     1       1.475  11.188  14.677  1.00  0.00    -0.248 NA
ATOM     58  C   UNL     1      -0.300  10.648  16.097  1.00  0.00     0.031 C 
ATOM     59  C   UNL     1       4.979  13.647  15.886  1.00  0.00     0.029 A 
ATOM     60  C   UNL     1       3.883  12.875  15.537  1.00  0.00     0.049 A 
ATOM     61  H   UNL     1       3.463  11.915  13.706  1.00  0.00     0.167 HD
ATOM     62  C   UNL     1       1.693  11.770  15.922  1.00  0.00     0.074 A 
ATOM     63  C   UNL     1       0.553  11.428  16.747  1.00  0.00     0.031 C 
ATOM     64  C   UNL     1       2.741  12.522  16.344  1.00  0.00     0.037 A 
BRANCH  51  65
ATOM     65  C   UNL     1       7.148  13.341  12.083  1.00  0.00     0.058 A 
ATOM     66  C   UNL     1       7.276  14.416  11.189  1.00  0.00     0.135 A 
ATOM     67  C   UNL     1       8.319  12.836  12.670  1.00  0.00     0.135 A 
ATOM     68  F   UNL     1       6.191  14.925  10.584  1.00  0.00    -0.206 F 
ATOM     69  C   UNL     1       8.520  14.953  10.870  1.00  0.00     0.059 A 
ATOM     70  C   UNL     1       9.571  13.374  12.386  1.00  0.00     0.059 A 
ATOM     71  F   UNL     1       8.254  11.806  13.529  1.00  0.00    -0.206 F 
ATOM     72  C   UNL     1       9.662  14.424  11.473  1.00  0.00     0.060 A 
BRANCH  72  73
ATOM     73  S   UNL     1      11.268  15.132  11.053  1.00  0.00     0.124 S 
ATOM     74  O   UNL     1      11.473  14.610   9.705  1.00  0.00    -0.237 OA
ATOM     75  O   UNL     1      11.012  16.566  11.145  1.00  0.00    -0.237 OA
ATOM     76  O   UNL     1      12.157  14.591  12.077  1.00  0.00    -0.744 OA
ENDBRANCH  72  73
ENDBRANCH  51  65
BRANCH  52  77
ATOM     77  C   UNL     1      -1.713   9.124  14.025  1.00  0.00     0.058 A 
ATOM     78  C   UNL     1      -2.870   9.885  14.245  1.00  0.00     0.135 A 
ATOM     79  C   UNL     1      -1.825   7.727  14.097  1.00  0.00     0.135 A 
ATOM     80  F   UNL     1      -2.812  11.224  14.197  1.00  0.00    -0.206 F 
ATOM     81  C   UNL     1      -4.091   9.285  14.538  1.00  0.00     0.059 A 
ATOM     82  C   UNL     1      -3.040   7.103  14.364  1.00  0.00     0.059 A 
ATOM     83  F   UNL     1      -0.750   6.953  13.883  1.00  0.00    -0.206 F 
ATOM     84  C   UNL     1      -4.166   7.892  14.592  1.00  0.00     0.060 A 
BRANCH  84  85
ATOM     85  S   UNL     1      -5.766   7.120  14.918  1.00  0.00     0.124 S 
ATOM     86  O   UNL     1      -5.930   7.375  16.344  1.00  0.00    -0.237 OA
ATOM     87  O   UNL     1      -6.652   7.864  14.029  1.00  0.00    -0.237 OA
ATOM     88  O   UNL     1      -5.546   5.725  14.546  1.00  0.00    -0.744 OA
ENDBRANCH  84  85
ENDBRANCH  52  77
BRANCH  64  89
ATOM     89  C   UNL     1       2.693  13.043  17.754  1.00  0.00     0.058 A 
ATOM     90  C   UNL     1       2.891  12.199  18.858  1.00  0.00     0.135 A 
ATOM     91  C   UNL     1       2.489  14.410  18.001  1.00  0.00     0.135 A 
ATOM     92  F   UNL     1       3.086  10.884  18.677  1.00  0.00    -0.206 F 
ATOM     93  C   UNL     1       2.861  12.688  20.160  1.00  0.00     0.059 A 
ATOM     94  C   UNL     1       2.481  14.925  19.294  1.00  0.00     0.059 A 
ATOM     95  F   UNL     1       2.306  15.262  16.980  1.00  0.00    -0.206 F 
ATOM     96  C   UNL     1       2.654  14.053  20.368  1.00  0.00     0.060 A 
BRANCH  96  97
ATOM     97  S   UNL     1       2.637  14.680  22.061  1.00  0.00     0.124 S 
ATOM     98  O   UNL     1       1.329  14.231  22.527  1.00  0.00    -0.237 OA
ATOM     99  O   UNL     1       3.787  14.006  22.656  1.00  0.00    -0.237 OA
ATOM    100  O   UNL     1       2.783  16.122  21.891  1.00  0.00    -0.744 OA
ENDBRANCH  96  97
ENDBRANCH  64  89
ENDBRANCH  38  39
ENDBRANCH  31  33
ENDBRANCH  30  31
ENDBRANCH  29  30
ENDBRANCH   1  29
TORSDOF 21
