REMARK SMILES Cc1ccc(C(=O)OCCOCCOC(=O)c2ccc(-c3c4nc(c(-c5c(F)cc(S(=O)(=O)[O-])cc5F)c5ccc([nH]5)c(-c5c(F)cc(S(=O)(=O)[O-])cc5F)c5nc(c(-c6c(F)cc(S(=O)(=O)[O-])cc6F)c6ccc3[nH]6)C=C5)C=C4)cc2)cc1S(=O)(=O)N(C)[C@H]1CCSC1
REMARK SMILES IDX 11 1 10 2 9 3 8 4 6 5 7 6 5 7 1 8 2 9 3 10 84 11 4 12 83 13
REMARK SMILES IDX 85 14 86 15 87 16 88 17 89 18 90 19 91 20 94 21 92 22 93 23
REMARK SMILES IDX 12 24 13 25 14 26 15 27 16 28 17 29 18 30 82 31 19 32 81 33
REMARK SMILES IDX 20 34 21 35 22 36 75 37 23 38 80 39 74 40 76 41 24 42 79 43
REMARK SMILES IDX 73 44 72 45 25 47 59 48 38 49 58 50 39 51 42 52 57 53 77 54
REMARK SMILES IDX 40 55 41 56 56 58 78 59 43 60 26 61 27 62 36 63 28 64 29 65
REMARK SMILES IDX 35 66 37 67 30 68 31 69 32 70 33 71 34 72 60 73 61 74 70 75
REMARK SMILES IDX 62 76 63 77 69 78 71 79 64 80 65 81 66 82 67 83 68 84 44 85
REMARK SMILES IDX 45 86 54 87 46 88 47 89 53 90 55 91 48 92 49 93 50 94 51 95
REMARK SMILES IDX 52 96
REMARK H PARENT 76 46 42 57
REMARK Flexibility Score: inf
ROOT
ATOM      1  O   UNL     1      -3.456   2.104  -3.822  1.00  0.00    -0.374 OA
ENDROOT
BRANCH   1   2
ATOM      2  C   UNL     1      -3.181   3.422  -4.275  1.00  0.00     0.202 C 
BRANCH   2   3
ATOM      3  C   UNL     1      -3.345   4.290  -3.074  1.00  0.00     0.261 C 
BRANCH   3   4
ATOM      4  O   UNL     1      -2.404   3.935  -2.039  1.00  0.00    -0.460 OA
BRANCH   4   5
ATOM      5  C   UNL     1      -2.479   2.783  -1.315  1.00  0.00     0.338 C 
ATOM      6  O   UNL     1      -3.412   2.054  -1.086  1.00  0.00    -0.246 OA
BRANCH   5   7
ATOM      7  C   UNL     1      -1.093   2.422  -0.986  1.00  0.00     0.061 A 
ATOM      8  C   UNL     1       2.932   0.982  -1.179  1.00  0.00     0.046 C 
ATOM      9  C   UNL     1       1.582   1.615  -1.072  1.00  0.00    -0.031 A 
ATOM     10  C   UNL     1       0.550   0.704  -0.742  1.00  0.00     0.006 A 
ATOM     11  C   UNL     1       1.232   2.958  -1.325  1.00  0.00     0.086 A 
ATOM     12  C   UNL     1      -0.782   1.095  -0.721  1.00  0.00     0.016 A 
ATOM     13  C   UNL     1      -0.089   3.360  -1.185  1.00  0.00     0.037 A 
BRANCH  11  14
ATOM     14  S   UNL     1       2.252   4.279  -1.960  1.00  0.00     0.243 S 
ATOM     15  O   UNL     1       2.394   4.062  -3.382  1.00  0.00    -0.207 OA
ATOM     16  O   UNL     1       1.734   5.527  -1.435  1.00  0.00    -0.207 OA
BRANCH  14  17
ATOM     17  N   UNL     1       3.731   4.068  -1.213  1.00  0.00    -0.197 NA
ATOM     18  C   UNL     1       4.861   3.694  -2.055  1.00  0.00     0.125 C 
BRANCH  17  19
ATOM     19  C   UNL     1       3.792   4.305   0.239  1.00  0.00     0.083 C 
ATOM     20  C   UNL     1       4.649   3.310   1.006  1.00  0.00     0.032 C 
ATOM     21  C   UNL     1       4.288   5.696   0.617  1.00  0.00     0.089 C 
ATOM     22  C   UNL     1       4.521   3.741   2.455  1.00  0.00     0.071 C 
ATOM     23  S   UNL     1       4.722   5.546   2.388  1.00  0.00    -0.160 SA
ENDBRANCH  17  19
ENDBRANCH  14  17
ENDBRANCH  11  14
ENDBRANCH   5   7
ENDBRANCH   4   5
ENDBRANCH   3   4
ENDBRANCH   2   3
ENDBRANCH   1   2
BRANCH   1  24
ATOM     24  C   UNL     1      -3.250   1.081  -4.762  1.00  0.00     0.202 C 
BRANCH  24  25
ATOM     25  C   UNL     1      -4.104   1.267  -6.017  1.00  0.00     0.261 C 
BRANCH  25  26
ATOM     26  O   UNL     1      -5.505   1.064  -5.718  1.00  0.00    -0.460 OA
BRANCH  26  27
ATOM     27  C   UNL     1      -6.284   2.186  -5.638  1.00  0.00     0.338 C 
ATOM     28  O   UNL     1      -6.703   2.786  -6.612  1.00  0.00    -0.246 OA
BRANCH  27  29
ATOM     29  C   UNL     1      -6.590   2.520  -4.215  1.00  0.00     0.060 A 
ATOM     30  C   UNL     1      -7.027   3.800  -3.822  1.00  0.00     0.016 A 
ATOM     31  C   UNL     1      -6.264   1.586  -3.243  1.00  0.00     0.016 A 
ATOM     32  C   UNL     1      -6.977   4.193  -2.467  1.00  0.00     0.010 A 
ATOM     33  C   UNL     1      -6.141   2.000  -1.936  1.00  0.00     0.010 A 
ATOM     34  C   UNL     1      -6.452   3.311  -1.530  1.00  0.00    -0.014 A 
BRANCH  34  35
ATOM     35  C   UNL     1      -6.096   3.591  -0.127  1.00  0.00     0.031 A 
ATOM     36  C   UNL     1      -6.718   2.724   0.907  1.00  0.00     0.074 A 
ATOM     37  C   UNL     1      -4.970   4.288   0.180  1.00  0.00     0.049 A 
ATOM     38  N   UNL     1      -6.503   2.825   2.169  1.00  0.00    -0.248 NA
ATOM     39  C   UNL     1      -7.678   1.661   0.601  1.00  0.00     0.031 C 
ATOM     40  C   UNL     1      -4.061   4.089   1.315  1.00  0.00     0.029 A 
ATOM     41  N   UNL     1      -4.331   5.311  -0.524  1.00  0.00    -0.354 N 
ATOM     42  C   UNL     1      -6.915   1.650   2.757  1.00  0.00     0.074 A 
ATOM     43  C   UNL     1      -7.786   1.050   1.783  1.00  0.00     0.031 C 
ATOM     44  C   UNL     1      -3.176   5.103   1.381  1.00  0.00     0.029 A 
ATOM     45  C   UNL     1      -3.559   6.070   0.367  1.00  0.00     0.049 A 
ATOM     46  H   UNL     1      -4.410   5.474  -1.491  1.00  0.00     0.167 HD
ATOM     47  C   UNL     1      -6.315   1.279   3.926  1.00  0.00     0.037 A 
ATOM     48  C   UNL     1      -3.814   7.397   0.518  1.00  0.00     0.037 A 
ATOM     49  C   UNL     1      -5.461   2.380   4.416  1.00  0.00     0.049 A 
ATOM     50  C   UNL     1      -4.352   7.575   1.908  1.00  0.00     0.074 A 
ATOM     51  C   UNL     1      -4.091   2.552   4.522  1.00  0.00     0.029 A 
ATOM     52  N   UNL     1      -6.021   3.651   4.583  1.00  0.00    -0.354 N 
ATOM     53  N   UNL     1      -4.918   6.594   2.561  1.00  0.00    -0.248 NA
ATOM     54  C   UNL     1      -4.161   8.760   2.736  1.00  0.00     0.031 C 
ATOM     55  C   UNL     1      -3.834   3.950   4.647  1.00  0.00     0.029 A 
ATOM     56  C   UNL     1      -5.045   4.629   4.637  1.00  0.00     0.049 A 
ATOM     57  H   UNL     1      -6.987   3.826   4.654  1.00  0.00     0.167 HD
ATOM     58  C   UNL     1      -5.031   6.927   3.871  1.00  0.00     0.074 A 
ATOM     59  C   UNL     1      -4.616   8.320   3.925  1.00  0.00     0.031 C 
ATOM     60  C   UNL     1      -5.406   6.032   4.828  1.00  0.00     0.037 A 
BRANCH  47  61
ATOM     61  C   UNL     1      -6.300  -0.127   4.530  1.00  0.00     0.058 A 
ATOM     62  C   UNL     1      -5.521  -0.393   5.682  1.00  0.00     0.135 A 
ATOM     63  C   UNL     1      -6.951  -1.272   4.015  1.00  0.00     0.135 A 
ATOM     64  F   UNL     1      -4.846   0.581   6.308  1.00  0.00    -0.206 F 
ATOM     65  C   UNL     1      -5.382  -1.668   6.247  1.00  0.00     0.059 A 
ATOM     66  C   UNL     1      -6.846  -2.551   4.575  1.00  0.00     0.059 A 
ATOM     67  F   UNL     1      -7.718  -1.240   2.925  1.00  0.00    -0.206 F 
ATOM     68  C   UNL     1      -6.051  -2.745   5.688  1.00  0.00     0.060 A 
BRANCH  68  69
ATOM     69  S   UNL     1      -5.882  -4.378   6.431  1.00  0.00     0.124 S 
ATOM     70  O   UNL     1      -4.459  -4.647   6.254  1.00  0.00    -0.237 OA
ATOM     71  O   UNL     1      -6.320  -4.138   7.801  1.00  0.00    -0.237 OA
ATOM     72  O   UNL     1      -6.775  -5.213   5.631  1.00  0.00    -0.744 OA
ENDBRANCH  68  69
ENDBRANCH  47  61
BRANCH  48  73
ATOM     73  C   UNL     1      -4.213   8.023  -0.787  1.00  0.00     0.058 A 
ATOM     74  C   UNL     1      -3.182   8.186  -1.745  1.00  0.00     0.135 A 
ATOM     75  C   UNL     1      -5.521   7.916  -1.289  1.00  0.00     0.135 A 
ATOM     76  F   UNL     1      -1.905   8.278  -1.338  1.00  0.00    -0.206 F 
ATOM     77  C   UNL     1      -3.412   8.086  -3.120  1.00  0.00     0.059 A 
ATOM     78  C   UNL     1      -5.770   7.796  -2.667  1.00  0.00     0.059 A 
ATOM     79  F   UNL     1      -6.552   7.749  -0.449  1.00  0.00    -0.206 F 
ATOM     80  C   UNL     1      -4.704   7.825  -3.569  1.00  0.00     0.060 A 
BRANCH  80  81
ATOM     81  S   UNL     1      -4.927   7.285  -5.292  1.00  0.00     0.124 S 
ATOM     82  O   UNL     1      -4.818   8.540  -6.023  1.00  0.00    -0.237 OA
ATOM     83  O   UNL     1      -3.819   6.349  -5.474  1.00  0.00    -0.237 OA
ATOM     84  O   UNL     1      -6.250   6.671  -5.278  1.00  0.00    -0.744 OA
ENDBRANCH  80  81
ENDBRANCH  48  73
BRANCH  60  85
ATOM     85  C   UNL     1      -6.099   6.454   6.086  1.00  0.00     0.058 A 
ATOM     86  C   UNL     1      -6.844   7.643   6.176  1.00  0.00     0.135 A 
ATOM     87  C   UNL     1      -6.199   5.571   7.184  1.00  0.00     0.135 A 
ATOM     88  F   UNL     1      -6.938   8.499   5.147  1.00  0.00    -0.206 F 
ATOM     89  C   UNL     1      -7.554   7.983   7.318  1.00  0.00     0.059 A 
ATOM     90  C   UNL     1      -6.966   5.858   8.303  1.00  0.00     0.059 A 
ATOM     91  F   UNL     1      -5.571   4.386   7.199  1.00  0.00    -0.206 F 
ATOM     92  C   UNL     1      -7.603   7.086   8.378  1.00  0.00     0.060 A 
BRANCH  92  93
ATOM     93  S   UNL     1      -8.511   7.541   9.856  1.00  0.00     0.124 S 
ATOM     94  O   UNL     1      -7.542   8.400  10.528  1.00  0.00    -0.237 OA
ATOM     95  O   UNL     1      -9.686   8.217   9.312  1.00  0.00    -0.237 OA
ATOM     96  O   UNL     1      -8.775   6.259  10.500  1.00  0.00    -0.744 OA
ENDBRANCH  92  93
ENDBRANCH  60  85
ENDBRANCH  34  35
ENDBRANCH  27  29
ENDBRANCH  26  27
ENDBRANCH  25  26
ENDBRANCH  24  25
ENDBRANCH   1  24
TORSDOF 20
