REMARK SMILES COc1ccc(C(C)(C)C)cc1CC(=O)OCCOCCOC(=O)c1ccc(-c2c3nc(c(-c4c(F)cc(S(=O)(=O)[O-])cc4F)c4ccc([nH]4)c(-c4c(F)cc(S(=O)(=O)[O-])cc4F)c4nc(c(-c5c(F)cc(S(=O)(=O)[O-])cc5F)c5ccc2[nH]5)C=C4)C=C3)cc1
REMARK SMILES IDX 20 1 19 2 18 3 17 4 16 5 14 6 15 7 13 8 12 9 3 10 4 11 5 12
REMARK SMILES IDX 11 13 6 14 2 15 1 16 7 17 8 18 9 19 10 20 21 21 22 22 23 23
REMARK SMILES IDX 24 24 25 25 26 26 90 27 27 28 89 29 28 30 29 31 30 32 83 33
REMARK SMILES IDX 31 34 88 35 82 36 84 37 32 38 87 39 81 40 80 41 33 43 67 44
REMARK SMILES IDX 46 45 66 46 47 47 50 48 65 49 85 50 48 51 49 52 64 54 86 55
REMARK SMILES IDX 51 56 34 57 35 58 44 59 36 60 37 61 43 62 45 63 38 64 39 65
REMARK SMILES IDX 40 66 41 67 42 68 68 69 69 70 78 71 70 72 71 73 77 74 79 75
REMARK SMILES IDX 72 76 73 77 74 78 75 79 76 80 52 81 53 82 62 83 54 84 55 85
REMARK SMILES IDX 61 86 63 87 56 88 57 89 58 90 59 91 60 92
REMARK H PARENT 84 42 50 53
REMARK Flexibility Score: inf
ROOT
ATOM      1  C   UNL     1       5.840   2.490   2.867  1.00  0.00     0.202 C 
ENDROOT
BRANCH   1   2
ATOM      2  O   UNL     1       6.675   2.832   1.761  1.00  0.00    -0.374 OA
BRANCH   2   3
ATOM      3  C   UNL     1       6.060   3.509   0.661  1.00  0.00     0.202 C 
BRANCH   3   4
ATOM      4  C   UNL     1       5.123   2.673  -0.221  1.00  0.00     0.261 C 
BRANCH   4   5
ATOM      5  O   UNL     1       4.078   2.067   0.554  1.00  0.00    -0.463 OA
BRANCH   5   6
ATOM      6  C   UNL     1       3.881   0.739   0.347  1.00  0.00     0.310 C 
ATOM      7  O   UNL     1       4.388   0.088  -0.562  1.00  0.00    -0.252 OA
BRANCH   6   8
ATOM      8  C   UNL     1       3.125   0.066   1.470  1.00  0.00     0.162 C 
BRANCH   8   9
ATOM      9  C   UNL     1       2.138   0.892   2.262  1.00  0.00     0.005 A 
ATOM     10  C   UNL     1       0.990   1.439   1.681  1.00  0.00     0.122 A 
ATOM     11  C   UNL     1       0.099   2.175   2.458  1.00  0.00     0.047 A 
ATOM     12  C   UNL     1       0.339   2.371   3.821  1.00  0.00     0.008 A 
ATOM     13  C   UNL     1       2.368   1.107   3.645  1.00  0.00     0.012 A 
ATOM     14  C   UNL     1       1.491   1.861   4.447  1.00  0.00    -0.042 A 
BRANCH  10  15
ATOM     15  O   UNL     1       0.742   1.404   0.337  1.00  0.00    -0.496 OA
ATOM     16  C   UNL     1       0.391   0.115  -0.157  1.00  0.00     0.278 C 
ENDBRANCH  10  15
BRANCH  14  17
ATOM     17  C   UNL     1       1.754   2.161   5.937  1.00  0.00    -0.013 C 
ATOM     18  C   UNL     1       1.752   3.692   6.161  1.00  0.00     0.016 C 
ATOM     19  C   UNL     1       0.646   1.521   6.799  1.00  0.00     0.016 C 
ATOM     20  C   UNL     1       3.095   1.619   6.485  1.00  0.00     0.016 C 
ENDBRANCH  14  17
ENDBRANCH   8   9
ENDBRANCH   6   8
ENDBRANCH   5   6
ENDBRANCH   4   5
ENDBRANCH   3   4
ENDBRANCH   2   3
ENDBRANCH   1   2
BRANCH   1  21
ATOM     21  C   UNL     1       5.331   3.640   3.739  1.00  0.00     0.261 C 
BRANCH  21  22
ATOM     22  O   UNL     1       4.548   4.597   3.017  1.00  0.00    -0.460 OA
BRANCH  22  23
ATOM     23  C   UNL     1       4.946   5.878   3.177  1.00  0.00     0.338 C 
ATOM     24  O   UNL     1       5.818   6.302   3.927  1.00  0.00    -0.246 OA
BRANCH  23  25
ATOM     25  C   UNL     1       4.277   6.721   2.183  1.00  0.00     0.060 A 
ATOM     26  C   UNL     1       5.068   7.314   1.193  1.00  0.00     0.016 A 
ATOM     27  C   UNL     1       2.907   6.980   2.264  1.00  0.00     0.016 A 
ATOM     28  C   UNL     1       4.491   8.201   0.289  1.00  0.00     0.010 A 
ATOM     29  C   UNL     1       2.333   7.877   1.361  1.00  0.00     0.010 A 
ATOM     30  C   UNL     1       3.127   8.508   0.387  1.00  0.00    -0.014 A 
BRANCH  30  31
ATOM     31  C   UNL     1       2.550   9.556  -0.482  1.00  0.00     0.031 A 
ATOM     32  C   UNL     1       2.372  10.945   0.057  1.00  0.00     0.074 A 
ATOM     33  C   UNL     1       2.203   9.261  -1.747  1.00  0.00     0.049 A 
ATOM     34  N   UNL     1       1.864  11.999  -0.525  1.00  0.00    -0.248 NA
ATOM     35  C   UNL     1       2.825  11.176   1.438  1.00  0.00     0.031 C 
ATOM     36  C   UNL     1       2.353   7.948  -2.374  1.00  0.00     0.029 A 
ATOM     37  N   UNL     1       1.639  10.040  -2.723  1.00  0.00    -0.354 N 
ATOM     38  C   UNL     1       1.941  13.022   0.413  1.00  0.00     0.074 A 
ATOM     39  C   UNL     1       2.512  12.451   1.615  1.00  0.00     0.031 C 
ATOM     40  C   UNL     1       1.870   8.007  -3.626  1.00  0.00     0.029 A 
ATOM     41  C   UNL     1       1.352   9.350  -3.876  1.00  0.00     0.049 A 
ATOM     42  H   UNL     1       1.456  11.001  -2.609  1.00  0.00     0.167 HD
ATOM     43  C   UNL     1       1.576  14.319   0.278  1.00  0.00     0.037 A 
ATOM     44  C   UNL     1       0.715   9.751  -4.993  1.00  0.00     0.037 A 
ATOM     45  C   UNL     1       0.988  14.866  -0.917  1.00  0.00     0.049 A 
ATOM     46  C   UNL     1       0.245  11.175  -5.096  1.00  0.00     0.074 A 
ATOM     47  C   UNL     1       0.605  16.171  -1.172  1.00  0.00     0.029 A 
ATOM     48  N   UNL     1       0.679  14.130  -2.054  1.00  0.00    -0.354 N 
ATOM     49  N   UNL     1       0.364  12.146  -4.220  1.00  0.00    -0.248 NA
ATOM     50  C   UNL     1      -0.446  11.562  -6.333  1.00  0.00     0.031 C 
ATOM     51  C   UNL     1       0.019  16.213  -2.443  1.00  0.00     0.029 A 
ATOM     52  C   UNL     1       0.076  14.944  -2.999  1.00  0.00     0.049 A 
ATOM     53  H   UNL     1       0.863  13.170  -2.171  1.00  0.00     0.167 HD
ATOM     54  C   UNL     1      -0.238  13.258  -4.798  1.00  0.00     0.074 A 
ATOM     55  C   UNL     1      -0.699  12.845  -6.110  1.00  0.00     0.031 C 
ATOM     56  C   UNL     1      -0.397  14.505  -4.290  1.00  0.00     0.037 A 
BRANCH  43  57
ATOM     57  C   UNL     1       1.778  15.218   1.466  1.00  0.00     0.058 A 
ATOM     58  C   UNL     1       3.060  15.617   1.878  1.00  0.00     0.135 A 
ATOM     59  C   UNL     1       0.680  15.678   2.209  1.00  0.00     0.135 A 
ATOM     60  F   UNL     1       4.147  15.194   1.212  1.00  0.00    -0.206 F 
ATOM     61  C   UNL     1       3.249  16.407   3.009  1.00  0.00     0.059 A 
ATOM     62  C   UNL     1       0.843  16.489   3.329  1.00  0.00     0.059 A 
ATOM     63  F   UNL     1      -0.568  15.327   1.861  1.00  0.00    -0.206 F 
ATOM     64  C   UNL     1       2.134  16.830   3.733  1.00  0.00     0.060 A 
BRANCH  64  65
ATOM     65  S   UNL     1       2.393  17.824   5.218  1.00  0.00     0.124 S 
ATOM     66  O   UNL     1       2.872  16.817   6.161  1.00  0.00    -0.237 OA
ATOM     67  O   UNL     1       3.386  18.798   4.775  1.00  0.00    -0.237 OA
ATOM     68  O   UNL     1       1.069  18.367   5.500  1.00  0.00    -0.744 OA
ENDBRANCH  64  65
ENDBRANCH  43  57
BRANCH  44  69
ATOM     69  C   UNL     1       0.467   8.768  -6.079  1.00  0.00     0.058 A 
ATOM     70  C   UNL     1       1.183   8.815  -7.282  1.00  0.00     0.135 A 
ATOM     71  C   UNL     1      -0.456   7.724  -5.905  1.00  0.00     0.135 A 
ATOM     72  F   UNL     1       2.067   9.800  -7.499  1.00  0.00    -0.206 F 
ATOM     73  C   UNL     1       1.003   7.854  -8.273  1.00  0.00     0.059 A 
ATOM     74  C   UNL     1      -0.638   6.740  -6.871  1.00  0.00     0.059 A 
ATOM     75  F   UNL     1      -1.160   7.632  -4.766  1.00  0.00    -0.206 F 
ATOM     76  C   UNL     1       0.097   6.814  -8.053  1.00  0.00     0.060 A 
BRANCH  76  77
ATOM     77  S   UNL     1      -0.060   5.521  -9.304  1.00  0.00     0.124 S 
ATOM     78  O   UNL     1      -0.811   6.209 -10.347  1.00  0.00    -0.237 OA
ATOM     79  O   UNL     1       1.335   5.221  -9.613  1.00  0.00    -0.237 OA
ATOM     80  O   UNL     1      -0.779   4.461  -8.602  1.00  0.00    -0.744 OA
ENDBRANCH  76  77
ENDBRANCH  44  69
BRANCH  56  81
ATOM     81  C   UNL     1      -1.115  15.511  -5.146  1.00  0.00     0.058 A 
ATOM     82  C   UNL     1      -2.507  15.463  -5.312  1.00  0.00     0.135 A 
ATOM     83  C   UNL     1      -0.417  16.568  -5.750  1.00  0.00     0.135 A 
ATOM     84  F   UNL     1      -3.220  14.467  -4.762  1.00  0.00    -0.206 F 
ATOM     85  C   UNL     1      -3.183  16.422  -6.058  1.00  0.00     0.059 A 
ATOM     86  C   UNL     1      -1.075  17.552  -6.482  1.00  0.00     0.059 A 
ATOM     87  F   UNL     1       0.915  16.664  -5.615  1.00  0.00    -0.206 F 
ATOM     88  C   UNL     1      -2.458  17.467  -6.636  1.00  0.00     0.060 A 
BRANCH  88  89
ATOM     89  S   UNL     1      -3.353  18.733  -7.561  1.00  0.00     0.124 S 
ATOM     90  O   UNL     1      -3.684  18.020  -8.790  1.00  0.00    -0.237 OA
ATOM     91  O   UNL     1      -4.477  19.029  -6.678  1.00  0.00    -0.237 OA
ATOM     92  O   UNL     1      -2.374  19.807  -7.701  1.00  0.00    -0.744 OA
ENDBRANCH  88  89
ENDBRANCH  56  81
ENDBRANCH  30  31
ENDBRANCH  23  25
ENDBRANCH  22  23
ENDBRANCH  21  22
ENDBRANCH   1  21
TORSDOF 20
