REMARK SMILES O=C(NCCC(=O)OCCOCCOC(=O)c1ccc(-c2c3nc(c(-c4c(F)cc(S(=O)(=O)[O-])cc4F)c4ccc([nH]4)c(-c4c(F)cc(S(=O)(=O)[O-])cc4F)c4nc(c(-c5c(F)cc(S(=O)(=O)[O-])cc5F)c5ccc2[nH]5)C=C4)C=C3)cc1)N[C@@H]1CCOC1
REMARK SMILES IDX 11 1 10 2 9 3 8 4 6 5 7 6 5 7 4 8 3 9 1 10 2 11 83 12 84 15
REMARK SMILES IDX 85 16 88 17 86 18 87 19 12 20 13 21 14 22 15 23 16 24 17 25
REMARK SMILES IDX 18 26 82 27 19 28 81 29 20 30 21 31 22 32 75 33 23 34 80 35
REMARK SMILES IDX 74 36 76 37 24 38 79 39 73 40 72 41 25 43 59 44 38 45 58 46
REMARK SMILES IDX 39 47 42 48 57 49 77 50 40 51 41 52 56 54 78 55 43 56 26 57
REMARK SMILES IDX 27 58 36 59 28 60 29 61 35 62 37 63 30 64 31 65 32 66 33 67
REMARK SMILES IDX 34 68 60 69 61 70 70 71 62 72 63 73 69 74 71 75 64 76 65 77
REMARK SMILES IDX 66 78 67 79 68 80 44 81 45 82 54 83 46 84 47 85 53 86 55 87
REMARK SMILES IDX 48 88 49 89 50 90 51 91 52 92
REMARK H PARENT 3 13 83 14 76 42 42 53
REMARK Flexibility Score: inf
ROOT
ATOM      1  O   UNL     1       4.675   1.225   5.877  1.00  0.00    -0.374 OA
ENDROOT
BRANCH   1   2
ATOM      2  C   UNL     1       3.424   1.867   5.627  1.00  0.00     0.202 C 
BRANCH   2   3
ATOM      3  C   UNL     1       3.403   2.933   4.527  1.00  0.00     0.261 C 
BRANCH   3   4
ATOM      4  O   UNL     1       3.625   2.374   3.216  1.00  0.00    -0.463 OA
BRANCH   4   5
ATOM      5  C   UNL     1       4.725   2.817   2.551  1.00  0.00     0.307 C 
ATOM      6  O   UNL     1       5.530   3.634   2.981  1.00  0.00    -0.252 OA
BRANCH   5   7
ATOM      7  C   UNL     1       4.845   2.219   1.169  1.00  0.00     0.144 C 
BRANCH   7   8
ATOM      8  C   UNL     1       4.679   0.707   1.107  1.00  0.00     0.129 C 
BRANCH   8   9
ATOM      9  N   UNL     1       3.292   0.288   1.164  1.00  0.00    -0.338 N 
ATOM     10  O   UNL     1       1.278  -0.374   0.509  1.00  0.00    -0.249 OA
ATOM     11  C   UNL     1       2.426  -0.090   0.194  1.00  0.00     0.315 C 
ATOM     12  N   UNL     1       2.905  -0.126  -1.076  1.00  0.00    -0.333 N 
ATOM     13  H   UNL     1       2.911   0.278   2.072  1.00  0.00     0.165 HD
ATOM     14  H   UNL     1       3.856   0.092  -1.204  1.00  0.00     0.165 HD
BRANCH  12  15
ATOM     15  C   UNL     1       2.128  -0.460  -2.267  1.00  0.00     0.112 C 
ATOM     16  C   UNL     1       1.003   0.508  -2.569  1.00  0.00     0.056 C 
ATOM     17  C   UNL     1       1.447  -1.828  -2.253  1.00  0.00     0.185 C 
ATOM     18  C   UNL     1      -0.246  -0.238  -2.155  1.00  0.00     0.162 C 
ATOM     19  O   UNL     1       0.029  -1.631  -2.335  1.00  0.00    -0.379 OA
ENDBRANCH  12  15
ENDBRANCH   8   9
ENDBRANCH   7   8
ENDBRANCH   5   7
ENDBRANCH   4   5
ENDBRANCH   3   4
ENDBRANCH   2   3
ENDBRANCH   1   2
BRANCH   1  20
ATOM     20  C   UNL     1       5.120   0.268   4.920  1.00  0.00     0.202 C 
BRANCH  20  21
ATOM     21  C   UNL     1       4.439  -1.108   4.932  1.00  0.00     0.261 C 
BRANCH  21  22
ATOM     22  O   UNL     1       3.030  -1.038   4.649  1.00  0.00    -0.460 OA
BRANCH  22  23
ATOM     23  C   UNL     1       2.236  -1.339   5.710  1.00  0.00     0.338 C 
ATOM     24  O   UNL     1       2.600  -1.702   6.816  1.00  0.00    -0.246 OA
BRANCH  23  25
ATOM     25  C   UNL     1       0.830  -0.996   5.422  1.00  0.00     0.060 A 
ATOM     26  C   UNL     1       0.177  -0.159   6.336  1.00  0.00     0.016 A 
ATOM     27  C   UNL     1       0.136  -1.548   4.344  1.00  0.00     0.016 A 
ATOM     28  C   UNL     1      -1.189   0.085   6.207  1.00  0.00     0.010 A 
ATOM     29  C   UNL     1      -1.239  -1.308   4.223  1.00  0.00     0.010 A 
ATOM     30  C   UNL     1      -1.914  -0.522   5.174  1.00  0.00    -0.014 A 
BRANCH  30  31
ATOM     31  C   UNL     1      -3.396  -0.436   5.178  1.00  0.00     0.031 A 
ATOM     32  C   UNL     1      -4.197  -1.593   5.711  1.00  0.00     0.074 A 
ATOM     33  C   UNL     1      -4.019   0.679   4.754  1.00  0.00     0.049 A 
ATOM     34  N   UNL     1      -5.495  -1.734   5.797  1.00  0.00    -0.248 NA
ATOM     35  C   UNL     1      -3.432  -2.745   6.216  1.00  0.00     0.031 C 
ATOM     36  C   UNL     1      -3.351   1.878   4.251  1.00  0.00     0.029 A 
ATOM     37  N   UNL     1      -5.356   0.979   4.674  1.00  0.00    -0.354 N 
ATOM     38  C   UNL     1      -5.704  -2.987   6.362  1.00  0.00     0.074 A 
ATOM     39  C   UNL     1      -4.400  -3.579   6.571  1.00  0.00     0.031 C 
ATOM     40  C   UNL     1      -4.282   2.781   3.901  1.00  0.00     0.029 A 
ATOM     41  C   UNL     1      -5.611   2.213   4.126  1.00  0.00     0.049 A 
ATOM     42  H   UNL     1      -6.065   0.368   4.980  1.00  0.00     0.167 HD
ATOM     43  C   UNL     1      -6.875  -3.587   6.684  1.00  0.00     0.037 A 
ATOM     44  C   UNL     1      -6.782   2.807   3.819  1.00  0.00     0.037 A 
ATOM     45  C   UNL     1      -8.171  -2.996   6.467  1.00  0.00     0.049 A 
ATOM     46  C   UNL     1      -8.073   2.095   4.126  1.00  0.00     0.074 A 
ATOM     47  C   UNL     1      -9.417  -3.518   6.769  1.00  0.00     0.029 A 
ATOM     48  N   UNL     1      -8.389  -1.756   5.885  1.00  0.00    -0.354 N 
ATOM     49  N   UNL     1      -8.257   0.920   4.681  1.00  0.00    -0.248 NA
ATOM     50  C   UNL     1      -9.318   2.791   3.771  1.00  0.00     0.031 C 
ATOM     51  C   UNL     1     -10.389  -2.614   6.327  1.00  0.00     0.029 A 
ATOM     52  C   UNL     1      -9.749  -1.505   5.798  1.00  0.00     0.049 A 
ATOM     53  H   UNL     1      -7.682  -1.143   5.579  1.00  0.00     0.167 HD
ATOM     54  C   UNL     1      -9.635   0.747   4.762  1.00  0.00     0.074 A 
ATOM     55  C   UNL     1     -10.238   1.943   4.211  1.00  0.00     0.031 C 
ATOM     56  C   UNL     1     -10.337  -0.306   5.251  1.00  0.00     0.037 A 
BRANCH  43  57
ATOM     57  C   UNL     1      -6.810  -4.965   7.285  1.00  0.00     0.058 A 
ATOM     58  C   UNL     1      -6.354  -5.178   8.596  1.00  0.00     0.135 A 
ATOM     59  C   UNL     1      -7.236  -6.083   6.551  1.00  0.00     0.135 A 
ATOM     60  F   UNL     1      -5.919  -4.146   9.337  1.00  0.00    -0.206 F 
ATOM     61  C   UNL     1      -6.297  -6.454   9.148  1.00  0.00     0.059 A 
ATOM     62  C   UNL     1      -7.213  -7.366   7.093  1.00  0.00     0.059 A 
ATOM     63  F   UNL     1      -7.682  -5.938   5.294  1.00  0.00    -0.206 F 
ATOM     64  C   UNL     1      -6.728  -7.542   8.388  1.00  0.00     0.060 A 
BRANCH  64  65
ATOM     65  S   UNL     1      -6.649  -9.191   9.119  1.00  0.00     0.124 S 
ATOM     66  O   UNL     1      -5.213  -9.451   9.099  1.00  0.00    -0.237 OA
ATOM     67  O   UNL     1      -7.236  -8.977  10.438  1.00  0.00    -0.237 OA
ATOM     68  O   UNL     1      -7.446 -10.007   8.207  1.00  0.00    -0.744 OA
ENDBRANCH  64  65
ENDBRANCH  43  57
BRANCH  44  69
ATOM     69  C   UNL     1      -6.784   4.145   3.169  1.00  0.00     0.058 A 
ATOM     70  C   UNL     1      -7.224   5.286   3.854  1.00  0.00     0.135 A 
ATOM     71  C   UNL     1      -6.335   4.307   1.849  1.00  0.00     0.135 A 
ATOM     72  F   UNL     1      -7.673   5.182   5.114  1.00  0.00    -0.206 F 
ATOM     73  C   UNL     1      -7.229   6.541   3.251  1.00  0.00     0.059 A 
ATOM     74  C   UNL     1      -6.307   5.554   1.233  1.00  0.00     0.059 A 
ATOM     75  F   UNL     1      -5.896   3.247   1.152  1.00  0.00    -0.206 F 
ATOM     76  C   UNL     1      -6.764   6.665   1.940  1.00  0.00     0.060 A 
BRANCH  76  77
ATOM     77  S   UNL     1      -6.720   8.305   1.186  1.00  0.00     0.124 S 
ATOM     78  O   UNL     1      -8.134   8.547   0.926  1.00  0.00    -0.237 OA
ATOM     79  O   UNL     1      -6.117   9.112   2.242  1.00  0.00    -0.237 OA
ATOM     80  O   UNL     1      -5.885   8.109   0.005  1.00  0.00    -0.744 OA
ENDBRANCH  76  77
ENDBRANCH  44  69
BRANCH  56  81
ATOM     81  C   UNL     1     -11.838  -0.203   5.247  1.00  0.00     0.058 A 
ATOM     82  C   UNL     1     -12.584  -0.304   4.062  1.00  0.00     0.135 A 
ATOM     83  C   UNL     1     -12.543  -0.056   6.453  1.00  0.00     0.135 A 
ATOM     84  F   UNL     1     -11.960  -0.439   2.881  1.00  0.00    -0.206 F 
ATOM     85  C   UNL     1     -13.974  -0.239   4.070  1.00  0.00     0.059 A 
ATOM     86  C   UNL     1     -13.934  -0.017   6.488  1.00  0.00     0.059 A 
ATOM     87  F   UNL     1     -11.881   0.034   7.617  1.00  0.00    -0.206 F 
ATOM     88  C   UNL     1     -14.641  -0.097   5.289  1.00  0.00     0.060 A 
BRANCH  88  89
ATOM     89  S   UNL     1     -16.446  -0.048   5.289  1.00  0.00     0.124 S 
ATOM     90  O   UNL     1     -16.703   1.290   4.766  1.00  0.00    -0.237 OA
ATOM     91  O   UNL     1     -16.790  -1.153   4.400  1.00  0.00    -0.237 OA
ATOM     92  O   UNL     1     -16.791  -0.251   6.693  1.00  0.00    -0.744 OA
ENDBRANCH  88  89
ENDBRANCH  56  81
ENDBRANCH  30  31
ENDBRANCH  23  25
ENDBRANCH  22  23
ENDBRANCH  21  22
ENDBRANCH  20  21
ENDBRANCH   1  20
TORSDOF 20
