REMARK SMILES Cc1c(CC(=O)OCCOCCOC(=O)c2ccc(-c3c4nc(c(-c5c(F)cc(S(=O)(=O)[O-])cc5F)c5ccc([nH]5)c(-c5c(F)cc(S(=O)(=O)[O-])cc5F)c5nc(c(-c6c(F)cc(S(=O)(=O)[O-])cc6F)c6ccc3[nH]6)C=C5)C=C4)cc2)cc(-c2ccc(S(C)(=O)=O)cc2)n1-c1cccc(F)c1
REMARK SMILES IDX 10 1 9 2 8 3 7 4 5 5 6 6 4 7 3 8 1 9 2 10 94 11 82 12 83 13
REMARK SMILES IDX 95 14 96 15 101 16 97 17 99 18 98 19 100 20 84 21 85 22
REMARK SMILES IDX 93 23 86 24 92 25 87 26 88 27 89 28 90 29 91 30 11 31 12 32
REMARK SMILES IDX 13 33 14 34 15 35 16 36 17 37 81 38 18 39 80 40 19 41 20 42
REMARK SMILES IDX 21 43 74 44 22 45 79 46 73 47 75 48 23 49 78 50 72 51 71 52
REMARK SMILES IDX 24 54 58 55 37 56 57 57 38 58 41 59 56 60 76 61 39 62 40 63
REMARK SMILES IDX 55 65 77 66 42 67 25 68 26 69 35 70 27 71 28 72 34 73 36 74
REMARK SMILES IDX 29 75 30 76 31 77 32 78 33 79 59 80 60 81 69 82 61 83 62 84
REMARK SMILES IDX 68 85 70 86 63 87 64 88 65 89 66 90 67 91 43 92 44 93 53 94
REMARK SMILES IDX 45 95 46 96 52 97 54 98 47 99 48 100 49 101 50 102 51 103
REMARK H PARENT 75 53 41 64
REMARK Flexibility Score: inf
ROOT
ATOM      1  O   UNL     1       3.492  -2.206  -1.703  1.00  0.00    -0.374 OA
ENDROOT
BRANCH   1   2
ATOM      2  C   UNL     1       3.767  -2.146  -3.093  1.00  0.00     0.202 C 
BRANCH   2   3
ATOM      3  C   UNL     1       2.522  -2.128  -3.993  1.00  0.00     0.261 C 
BRANCH   3   4
ATOM      4  O   UNL     1       1.571  -1.105  -3.621  1.00  0.00    -0.463 OA
BRANCH   4   5
ATOM      5  C   UNL     1       0.337  -1.543  -3.251  1.00  0.00     0.310 C 
ATOM      6  O   UNL     1      -0.050  -2.703  -3.397  1.00  0.00    -0.252 OA
BRANCH   5   7
ATOM      7  C   UNL     1      -0.599  -0.486  -2.694  1.00  0.00     0.160 C 
BRANCH   7   8
ATOM      8  C   UNL     1      -0.060   0.822  -2.161  1.00  0.00    -0.015 A 
ATOM      9  C   UNL     1       0.173   0.392   0.408  1.00  0.00     0.065 C 
ATOM     10  C   UNL     1       0.278   1.188  -0.853  1.00  0.00     0.024 A 
ATOM     11  N   UNL     1       0.636   2.542  -0.841  1.00  0.00    -0.313 N 
ATOM     12  C   UNL     1      -0.014   2.021  -2.919  1.00  0.00     0.033 A 
ATOM     13  C   UNL     1       0.311   3.072  -2.083  1.00  0.00     0.053 A 
BRANCH  11  14
ATOM     14  C   UNL     1       1.207   3.276   0.249  1.00  0.00     0.049 A 
ATOM     15  C   UNL     1       0.603   4.418   0.774  1.00  0.00     0.027 A 
ATOM     16  C   UNL     1       2.489   2.953   0.684  1.00  0.00     0.065 A 
ATOM     17  C   UNL     1       1.275   5.187   1.742  1.00  0.00     0.005 A 
ATOM     18  C   UNL     1       3.148   3.707   1.645  1.00  0.00     0.125 A 
ATOM     19  C   UNL     1       2.550   4.827   2.184  1.00  0.00     0.039 A 
ATOM     20  F   UNL     1       4.389   3.363   2.011  1.00  0.00    -0.207 F 
ENDBRANCH  11  14
BRANCH  13  21
ATOM     21  C   UNL     1       0.383   4.487  -2.424  1.00  0.00    -0.001 A 
ATOM     22  C   UNL     1       1.613   5.147  -2.458  1.00  0.00     0.011 A 
ATOM     23  C   UNL     1      -0.792   5.195  -2.697  1.00  0.00     0.011 A 
ATOM     24  C   UNL     1       1.681   6.509  -2.735  1.00  0.00     0.021 A 
ATOM     25  C   UNL     1      -0.737   6.561  -2.970  1.00  0.00     0.021 A 
ATOM     26  C   UNL     1       0.499   7.211  -2.977  1.00  0.00     0.067 A 
BRANCH  26  27
ATOM     27  S   UNL     1       0.595   8.945  -3.342  1.00  0.00     0.175 S 
ATOM     28  C   UNL     1       1.284   9.666  -1.873  1.00  0.00     0.163 C 
ATOM     29  O   UNL     1       1.522   9.098  -4.428  1.00  0.00    -0.224 OA
ATOM     30  O   UNL     1      -0.782   9.432  -3.454  1.00  0.00    -0.224 OA
ENDBRANCH  26  27
ENDBRANCH  13  21
ENDBRANCH   7   8
ENDBRANCH   5   7
ENDBRANCH   4   5
ENDBRANCH   3   4
ENDBRANCH   2   3
ENDBRANCH   1   2
BRANCH   1  31
ATOM     31  C   UNL     1       3.041  -0.979  -1.122  1.00  0.00     0.202 C 
BRANCH  31  32
ATOM     32  C   UNL     1       4.039   0.223  -1.075  1.00  0.00     0.261 C 
BRANCH  32  33
ATOM     33  O   UNL     1       3.927   1.419  -1.992  1.00  0.00    -0.460 OA
BRANCH  33  34
ATOM     34  C   UNL     1       5.095   2.193  -2.138  1.00  0.00     0.338 C 
ATOM     35  O   UNL     1       6.180   1.735  -1.792  1.00  0.00    -0.246 OA
BRANCH  34  36
ATOM     36  C   UNL     1       5.075   3.668  -2.724  1.00  0.00     0.060 A 
ATOM     37  C   UNL     1       5.337   3.946  -4.070  1.00  0.00     0.016 A 
ATOM     38  C   UNL     1       5.211   4.834  -1.922  1.00  0.00     0.016 A 
ATOM     39  C   UNL     1       5.625   5.309  -4.577  1.00  0.00     0.010 A 
ATOM     40  C   UNL     1       5.535   6.212  -2.435  1.00  0.00     0.010 A 
ATOM     41  C   UNL     1       5.740   6.527  -3.800  1.00  0.00    -0.014 A 
BRANCH  41  42
ATOM     42  C   UNL     1       6.668   7.800  -4.431  1.00  0.00     0.031 A 
ATOM     43  C   UNL     1       7.899   7.046  -4.807  1.00  0.00     0.074 A 
ATOM     44  C   UNL     1       6.775   9.204  -4.652  1.00  0.00     0.049 A 
ATOM     45  N   UNL     1       8.514   6.321  -3.912  1.00  0.00    -0.248 NA
ATOM     46  C   UNL     1       8.247   6.734  -6.192  1.00  0.00     0.031 C 
ATOM     47  C   UNL     1       5.841  10.276  -4.238  1.00  0.00     0.029 A 
ATOM     48  N   UNL     1       7.766  10.056  -5.317  1.00  0.00    -0.354 N 
ATOM     49  C   UNL     1       9.546   5.704  -4.568  1.00  0.00     0.074 A 
ATOM     50  C   UNL     1       9.176   5.796  -5.977  1.00  0.00     0.031 C 
ATOM     51  C   UNL     1       6.175  11.509  -4.743  1.00  0.00     0.029 A 
ATOM     52  C   UNL     1       7.420  11.476  -5.517  1.00  0.00     0.049 A 
ATOM     53  H   UNL     1       8.630   9.694  -5.619  1.00  0.00     0.167 HD
ATOM     54  C   UNL     1      10.779   5.900  -4.018  1.00  0.00     0.037 A 
ATOM     55  C   UNL     1       8.086  12.550  -6.162  1.00  0.00     0.037 A 
ATOM     56  C   UNL     1      11.510   6.936  -4.695  1.00  0.00     0.049 A 
ATOM     57  C   UNL     1       9.512  12.200  -6.121  1.00  0.00     0.074 A 
ATOM     58  C   UNL     1      11.728   7.200  -6.032  1.00  0.00     0.029 A 
ATOM     59  N   UNL     1      11.719   8.119  -4.012  1.00  0.00    -0.354 N 
ATOM     60  N   UNL     1      10.220  12.316  -5.041  1.00  0.00    -0.248 NA
ATOM     61  C   UNL     1      10.245  11.798  -7.317  1.00  0.00     0.031 C 
ATOM     62  C   UNL     1      11.526   8.588  -6.150  1.00  0.00     0.029 A 
ATOM     63  C   UNL     1      11.634   9.173  -4.895  1.00  0.00     0.049 A 
ATOM     64  H   UNL     1      11.899   8.196  -3.047  1.00  0.00     0.167 HD
ATOM     65  C   UNL     1      11.274  11.495  -5.287  1.00  0.00     0.074 A 
ATOM     66  C   UNL     1      11.390  11.441  -6.734  1.00  0.00     0.031 C 
ATOM     67  C   UNL     1      11.480  10.511  -4.377  1.00  0.00     0.037 A 
BRANCH  54  68
ATOM     68  C   UNL     1      10.850   5.660  -2.539  1.00  0.00     0.058 A 
ATOM     69  C   UNL     1      11.500   4.511  -2.076  1.00  0.00     0.135 A 
ATOM     70  C   UNL     1      10.227   6.487  -1.580  1.00  0.00     0.135 A 
ATOM     71  F   UNL     1      12.132   3.700  -2.941  1.00  0.00    -0.206 F 
ATOM     72  C   UNL     1      11.512   4.179  -0.725  1.00  0.00     0.059 A 
ATOM     73  C   UNL     1      10.190   6.154  -0.231  1.00  0.00     0.059 A 
ATOM     74  F   UNL     1       9.660   7.648  -1.947  1.00  0.00    -0.206 F 
ATOM     75  C   UNL     1      10.841   4.998   0.188  1.00  0.00     0.060 A 
BRANCH  75  76
ATOM     76  S   UNL     1      10.836   4.518   1.927  1.00  0.00     0.124 S 
ATOM     77  O   UNL     1      10.421   3.119   1.861  1.00  0.00    -0.237 OA
ATOM     78  O   UNL     1      12.230   4.739   2.296  1.00  0.00    -0.237 OA
ATOM     79  O   UNL     1       9.862   5.420   2.533  1.00  0.00    -0.744 OA
ENDBRANCH  75  76
ENDBRANCH  54  68
BRANCH  55  80
ATOM     80  C   UNL     1       7.989  14.039  -6.764  1.00  0.00     0.058 A 
ATOM     81  C   UNL     1       9.168  14.866  -6.949  1.00  0.00     0.135 A 
ATOM     82  C   UNL     1       6.904  14.513  -7.521  1.00  0.00     0.135 A 
ATOM     83  F   UNL     1      10.294  14.637  -6.257  1.00  0.00    -0.206 F 
ATOM     84  C   UNL     1       9.301  15.914  -7.893  1.00  0.00     0.059 A 
ATOM     85  C   UNL     1       7.007  15.593  -8.460  1.00  0.00     0.059 A 
ATOM     86  F   UNL     1       5.719  13.895  -7.436  1.00  0.00    -0.206 F 
ATOM     87  C   UNL     1       8.222  16.246  -8.688  1.00  0.00     0.060 A 
BRANCH  87  88
ATOM     88  S   UNL     1       8.479  17.387 -10.097  1.00  0.00     0.124 S 
ATOM     89  O   UNL     1       8.744  18.664  -9.442  1.00  0.00    -0.237 OA
ATOM     90  O   UNL     1       9.621  16.787 -10.784  1.00  0.00    -0.237 OA
ATOM     91  O   UNL     1       7.218  17.312 -10.829  1.00  0.00    -0.744 OA
ENDBRANCH  87  88
ENDBRANCH  55  80
BRANCH  67  92
ATOM     92  C   UNL     1      11.400  10.905  -2.910  1.00  0.00     0.058 A 
ATOM     93  C   UNL     1      10.356  11.620  -2.274  1.00  0.00     0.135 A 
ATOM     94  C   UNL     1      12.520  10.621  -2.113  1.00  0.00     0.135 A 
ATOM     95  F   UNL     1       9.181  11.854  -2.877  1.00  0.00    -0.206 F 
ATOM     96  C   UNL     1      10.476  12.112  -0.970  1.00  0.00     0.059 A 
ATOM     97  C   UNL     1      12.635  11.051  -0.791  1.00  0.00     0.059 A 
ATOM     98  F   UNL     1      13.541   9.915  -2.626  1.00  0.00    -0.206 F 
ATOM     99  C   UNL     1      11.627  11.835  -0.241  1.00  0.00     0.060 A 
BRANCH  99 100
ATOM    100  S   UNL     1      11.790  12.503   1.429  1.00  0.00     0.124 S 
ATOM    101  O   UNL     1      11.986  13.927   1.167  1.00  0.00    -0.237 OA
ATOM    102  O   UNL     1      10.514  12.148   2.042  1.00  0.00    -0.237 OA
ATOM    103  O   UNL     1      12.959  11.808   1.960  1.00  0.00    -0.744 OA
ENDBRANCH  99 100
ENDBRANCH  67  92
ENDBRANCH  41  42
ENDBRANCH  34  36
ENDBRANCH  33  34
ENDBRANCH  32  33
ENDBRANCH  31  32
ENDBRANCH   1  31
TORSDOF 21
