REMARK SMILES C[C@@H](C(=O)OCCOCCOC(=O)c1ccc(-c2c3nc(c(-c4c(F)cc(S(=O)(=O)[O-])cc4F)c4ccc([nH]4)c(-c4c(F)cc(S(=O)(=O)[O-])cc4F)c4nc(c(-c5c(F)cc(S(=O)(=O)[O-])cc5F)c5ccc2[nH]5)C=C4)C=C3)cc1)c1ccc(-c2cccc(OC(=O)Nc3ccccc3)c2)c(F)c1
REMARK SMILES IDX 7 1 6 2 5 3 3 4 4 5 2 6 1 7 80 8 81 9 102 10 82 11 100 12
REMARK SMILES IDX 83 13 101 14 84 15 85 16 99 17 86 18 88 19 87 20 89 21 90 22
REMARK SMILES IDX 91 23 92 24 93 26 94 27 98 28 95 29 97 30 96 31 8 32 9 33
REMARK SMILES IDX 10 34 11 35 12 36 13 37 14 38 15 39 79 40 16 41 78 42 17 43
REMARK SMILES IDX 18 44 19 45 72 46 20 47 77 48 71 49 73 50 21 51 76 52 70 53
REMARK SMILES IDX 69 54 22 56 56 57 35 58 55 59 36 60 39 61 54 62 74 63 37 64
REMARK SMILES IDX 38 65 53 67 75 68 40 69 23 70 24 71 33 72 25 73 26 74 32 75
REMARK SMILES IDX 34 76 27 77 28 78 29 79 30 80 31 81 57 82 58 83 67 84 59 85
REMARK SMILES IDX 60 86 66 87 68 88 61 89 62 90 63 91 64 92 65 93 41 94 42 95
REMARK SMILES IDX 51 96 43 97 44 98 50 99 52 100 45 101 46 102 47 103 48 104
REMARK SMILES IDX 49 105
REMARK H PARENT 92 25 73 55 39 66
REMARK Flexibility Score: inf
ROOT
ATOM      1  C   UNL     1       2.165  -2.352   4.068  1.00  0.00     0.202 C 
ENDROOT
BRANCH   1   2
ATOM      2  C   UNL     1       2.392  -3.104   2.753  1.00  0.00     0.261 C 
BRANCH   2   3
ATOM      3  O   UNL     1       2.069  -2.285   1.617  1.00  0.00    -0.463 OA
BRANCH   3   4
ATOM      4  C   UNL     1       1.231  -2.848   0.705  1.00  0.00     0.313 C 
ATOM      5  O   UNL     1       0.909  -4.032   0.708  1.00  0.00    -0.252 OA
BRANCH   4   6
ATOM      6  C   UNL     1       0.675  -1.832  -0.310  1.00  0.00     0.126 C 
ATOM      7  C   UNL     1       1.477  -0.524  -0.345  1.00  0.00     0.025 C 
BRANCH   6   8
ATOM      8  C   UNL     1      -0.844  -1.660  -0.170  1.00  0.00    -0.031 A 
ATOM      9  C   UNL     1      -1.478  -0.426   0.047  1.00  0.00     0.005 A 
ATOM     10  C   UNL     1      -1.666  -2.795  -0.274  1.00  0.00     0.044 A 
ATOM     11  C   UNL     1      -2.876  -0.340   0.190  1.00  0.00     0.012 A 
ATOM     12  C   UNL     1      -3.048  -2.705  -0.115  1.00  0.00     0.131 A 
ATOM     13  C   UNL     1      -3.684  -1.485   0.130  1.00  0.00     0.018 A 
ATOM     14  F   UNL     1      -3.768  -3.835  -0.203  1.00  0.00    -0.206 F 
BRANCH  13  15
ATOM     15  C   UNL     1      -5.136  -1.425   0.354  1.00  0.00    -0.012 A 
ATOM     16  C   UNL     1      -5.985  -0.701  -0.497  1.00  0.00     0.009 A 
ATOM     17  C   UNL     1      -5.708  -2.127   1.433  1.00  0.00     0.056 A 
ATOM     18  C   UNL     1      -7.368  -0.689  -0.287  1.00  0.00     0.004 A 
ATOM     19  C   UNL     1      -7.083  -2.099   1.650  1.00  0.00     0.133 A 
ATOM     20  C   UNL     1      -7.918  -1.390   0.786  1.00  0.00     0.047 A 
BRANCH  19  21
ATOM     21  O   UNL     1      -7.742  -2.754   2.721  1.00  0.00    -0.410 OA
BRANCH  21  22
ATOM     22  C   UNL     1      -7.130  -3.302   3.847  1.00  0.00     0.417 C 
ATOM     23  O   UNL     1      -5.919  -3.391   4.033  1.00  0.00    -0.224 OA
ATOM     24  N   UNL     1      -7.987  -3.661   4.856  1.00  0.00    -0.291 N 
ATOM     25  H   UNL     1      -7.544  -3.913   5.698  1.00  0.00     0.173 HD
BRANCH  24  26
ATOM     26  C   UNL     1      -9.387  -3.730   4.893  1.00  0.00     0.044 A 
ATOM     27  C   UNL     1      -9.989  -3.700   6.157  1.00  0.00     0.026 A 
ATOM     28  C   UNL     1     -10.192  -3.861   3.760  1.00  0.00     0.026 A 
ATOM     29  C   UNL     1     -11.378  -3.751   6.285  1.00  0.00     0.002 A 
ATOM     30  C   UNL     1     -11.583  -3.934   3.891  1.00  0.00     0.002 A 
ATOM     31  C   UNL     1     -12.176  -3.868   5.150  1.00  0.00     0.000 A 
ENDBRANCH  24  26
ENDBRANCH  21  22
ENDBRANCH  19  21
ENDBRANCH  13  15
ENDBRANCH   6   8
ENDBRANCH   4   6
ENDBRANCH   3   4
ENDBRANCH   2   3
ENDBRANCH   1   2
BRANCH   1  32
ATOM     32  O   UNL     1       0.860  -1.818   4.287  1.00  0.00    -0.374 OA
BRANCH  32  33
ATOM     33  C   UNL     1       0.470  -0.677   3.524  1.00  0.00     0.202 C 
BRANCH  33  34
ATOM     34  C   UNL     1       1.162   0.655   3.846  1.00  0.00     0.261 C 
BRANCH  34  35
ATOM     35  O   UNL     1       2.572   0.645   3.549  1.00  0.00    -0.460 OA
BRANCH  35  36
ATOM     36  C   UNL     1       3.377   0.821   4.628  1.00  0.00     0.338 C 
ATOM     37  O   UNL     1       3.029   1.052   5.775  1.00  0.00    -0.246 OA
BRANCH  36  38
ATOM     38  C   UNL     1       4.778   0.513   4.283  1.00  0.00     0.060 A 
ATOM     39  C   UNL     1       5.424  -0.480   5.030  1.00  0.00     0.016 A 
ATOM     40  C   UNL     1       5.478   1.247   3.324  1.00  0.00     0.016 A 
ATOM     41  C   UNL     1       6.787  -0.713   4.854  1.00  0.00     0.010 A 
ATOM     42  C   UNL     1       6.850   1.018   3.156  1.00  0.00     0.010 A 
ATOM     43  C   UNL     1       7.518   0.063   3.945  1.00  0.00    -0.014 A 
BRANCH  43  44
ATOM     44  C   UNL     1       8.999  -0.030   3.933  1.00  0.00     0.031 A 
ATOM     45  C   UNL     1       9.803   1.011   4.664  1.00  0.00     0.074 A 
ATOM     46  C   UNL     1       9.620  -1.050   3.314  1.00  0.00     0.049 A 
ATOM     47  N   UNL     1      11.101   1.137   4.765  1.00  0.00    -0.248 NA
ATOM     48  C   UNL     1       9.040   2.050   5.376  1.00  0.00     0.031 C 
ATOM     49  C   UNL     1       8.951  -2.141   2.606  1.00  0.00     0.029 A 
ATOM     50  N   UNL     1      10.957  -1.331   3.177  1.00  0.00    -0.354 N 
ATOM     51  C   UNL     1      11.312   2.267   5.548  1.00  0.00     0.074 A 
ATOM     52  C   UNL     1      10.009   2.808   5.868  1.00  0.00     0.031 C 
ATOM     53  C   UNL     1       9.882  -2.966   2.097  1.00  0.00     0.029 A 
ATOM     54  C   UNL     1      11.211  -2.448   2.418  1.00  0.00     0.049 A 
ATOM     55  H   UNL     1      11.666  -0.783   3.585  1.00  0.00     0.167 HD
ATOM     56  C   UNL     1      12.485   2.798   5.971  1.00  0.00     0.037 A 
ATOM     57  C   UNL     1      12.381  -2.979   2.011  1.00  0.00     0.037 A 
ATOM     58  C   UNL     1      13.780   2.257   5.648  1.00  0.00     0.049 A 
ATOM     59  C   UNL     1      13.674  -2.336   2.441  1.00  0.00     0.074 A 
ATOM     60  C   UNL     1      15.026   2.717   6.035  1.00  0.00     0.029 A 
ATOM     61  N   UNL     1      13.997   1.138   4.857  1.00  0.00    -0.354 N 
ATOM     62  N   UNL     1      13.859  -1.278   3.194  1.00  0.00    -0.248 NA
ATOM     63  C   UNL     1      14.918  -2.962   1.969  1.00  0.00     0.031 C 
ATOM     64  C   UNL     1      15.998   1.904   5.442  1.00  0.00     0.029 A 
ATOM     65  C   UNL     1      15.356   0.906   4.726  1.00  0.00     0.049 A 
ATOM     66  H   UNL     1      13.288   0.590   4.448  1.00  0.00     0.167 HD
ATOM     67  C   UNL     1      15.238  -1.125   3.306  1.00  0.00     0.074 A 
ATOM     68  C   UNL     1      15.839  -2.206   2.553  1.00  0.00     0.031 C 
ATOM     69  C   UNL     1      15.941  -0.177   3.975  1.00  0.00     0.037 A 
BRANCH  56  70
ATOM     70  C   UNL     1      12.420   4.044   6.810  1.00  0.00     0.058 A 
ATOM     71  C   UNL     1      11.971   4.015   8.140  1.00  0.00     0.135 A 
ATOM     72  C   UNL     1      12.835   5.278   6.286  1.00  0.00     0.135 A 
ATOM     73  F   UNL     1      11.546   2.864   8.686  1.00  0.00    -0.206 F 
ATOM     74  C   UNL     1      11.910   5.171   8.912  1.00  0.00     0.059 A 
ATOM     75  C   UNL     1      12.807   6.443   7.048  1.00  0.00     0.059 A 
ATOM     76  F   UNL     1      13.271   5.363   5.020  1.00  0.00    -0.206 F 
ATOM     77  C   UNL     1      12.328   6.381   8.356  1.00  0.00     0.060 A 
BRANCH  77  78
ATOM     78  S   UNL     1      12.239   7.874   9.368  1.00  0.00     0.124 S 
ATOM     79  O   UNL     1      10.802   8.126   9.388  1.00  0.00    -0.237 OA
ATOM     80  O   UNL     1      12.822   7.431  10.630  1.00  0.00    -0.237 OA
ATOM     81  O   UNL     1      13.035   8.841   8.618  1.00  0.00    -0.744 OA
ENDBRANCH  77  78
ENDBRANCH  56  70
BRANCH  57  82
ATOM     82  C   UNL     1      12.382  -4.179   1.133  1.00  0.00     0.058 A 
ATOM     83  C   UNL     1      12.815  -5.427   1.605  1.00  0.00     0.135 A 
ATOM     84  C   UNL     1      11.941  -4.101  -0.197  1.00  0.00     0.135 A 
ATOM     85  F   UNL     1      13.258  -5.551   2.865  1.00  0.00    -0.206 F 
ATOM     86  C   UNL     1      12.820  -6.553   0.787  1.00  0.00     0.059 A 
ATOM     87  C   UNL     1      11.913  -5.217  -1.027  1.00  0.00     0.059 A 
ATOM     88  F   UNL     1      11.507  -2.931  -0.694  1.00  0.00    -0.206 F 
ATOM     89  C   UNL     1      12.363  -6.438  -0.527  1.00  0.00     0.060 A 
BRANCH  89  90
ATOM     90  S   UNL     1      12.320  -7.916  -1.565  1.00  0.00     0.124 S 
ATOM     91  O   UNL     1      13.734  -8.106  -1.864  1.00  0.00    -0.237 OA
ATOM     92  O   UNL     1      11.718  -8.900  -0.670  1.00  0.00    -0.237 OA
ATOM     93  O   UNL     1      11.484  -7.510  -2.691  1.00  0.00    -0.744 OA
ENDBRANCH  89  90
ENDBRANCH  57  82
BRANCH  69  94
ATOM     94  C   UNL     1      17.442  -0.280   3.952  1.00  0.00     0.058 A 
ATOM     95  C   UNL     1      18.187   0.037   2.805  1.00  0.00     0.135 A 
ATOM     96  C   UNL     1      18.147  -0.647   5.110  1.00  0.00     0.135 A 
ATOM     97  F   UNL     1      17.562   0.389   1.671  1.00  0.00    -0.206 F 
ATOM     98  C   UNL     1      19.577  -0.027   2.801  1.00  0.00     0.059 A 
ATOM     99  C   UNL     1      19.538  -0.693   5.136  1.00  0.00     0.059 A 
ATOM    100  F   UNL     1      17.484  -0.950   6.238  1.00  0.00    -0.206 F 
ATOM    101  C   UNL     1      20.244  -0.392   3.972  1.00  0.00     0.060 A 
BRANCH 101 102
ATOM    102  S   UNL     1      22.049  -0.438   3.964  1.00  0.00     0.124 S 
ATOM    103  O   UNL     1      22.308  -1.661   3.211  1.00  0.00    -0.237 OA
ATOM    104  O   UNL     1      22.391   0.808   3.286  1.00  0.00    -0.237 OA
ATOM    105  O   UNL     1      22.394  -0.488   5.381  1.00  0.00    -0.744 OA
ENDBRANCH 101 102
ENDBRANCH  69  94
ENDBRANCH  43  44
ENDBRANCH  36  38
ENDBRANCH  35  36
ENDBRANCH  34  35
ENDBRANCH  33  34
ENDBRANCH  32  33
ENDBRANCH   1  32
TORSDOF 22
