REMARK SMILES Cc1ccc(C(=O)OCCOCCOC(=O)c2ccc(-c3c4nc(c(-c5c(F)cc(S(=O)(=O)[O-])cc5F)c5ccc([nH]5)c(-c5c(F)cc(S(=O)(=O)[O-])cc5F)c5nc(c(-c6c(F)cc(S(=O)(=O)[O-])cc6F)c6ccc3[nH]6)C=C5)C=C4)cc2)c(Oc2cccc(F)c2C(N)=O)c1
REMARK SMILES IDX 11 1 10 2 9 3 8 4 6 5 7 6 5 7 1 8 2 9 3 10 95 11 4 12 83 13
REMARK SMILES IDX 84 14 85 15 86 16 91 17 87 18 89 19 88 20 90 21 92 22 93 23
REMARK SMILES IDX 94 24 12 27 13 28 14 29 15 30 16 31 17 32 18 33 82 34 19 35
REMARK SMILES IDX 81 36 20 37 21 38 22 39 75 40 23 41 80 42 74 43 76 44 24 45
REMARK SMILES IDX 79 46 73 47 72 48 25 50 59 51 38 52 58 53 39 54 42 55 57 56
REMARK SMILES IDX 77 57 40 58 41 59 56 61 78 62 43 63 26 64 27 65 36 66 28 67
REMARK SMILES IDX 29 68 35 69 37 70 30 71 31 72 32 73 33 74 34 75 60 76 61 77
REMARK SMILES IDX 70 78 62 79 63 80 69 81 71 82 64 83 65 84 66 85 67 86 68 87
REMARK SMILES IDX 44 88 45 89 54 90 46 91 47 92 53 93 55 94 48 95 49 96 50 97
REMARK SMILES IDX 51 98 52 99
REMARK H PARENT 93 25 93 26 76 49 42 60
REMARK Flexibility Score: inf
ROOT
ATOM      1  O   UNL     1      -3.851  -0.391  -2.340  1.00  0.00    -0.374 OA
ENDROOT
BRANCH   1   2
ATOM      2  C   UNL     1      -3.946   1.014  -2.543  1.00  0.00     0.202 C 
BRANCH   2   3
ATOM      3  C   UNL     1      -3.943   1.585  -1.167  1.00  0.00     0.261 C 
BRANCH   3   4
ATOM      4  O   UNL     1      -2.682   1.319  -0.524  1.00  0.00    -0.460 OA
BRANCH   4   5
ATOM      5  C   UNL     1      -2.427   0.152   0.131  1.00  0.00     0.342 C 
ATOM      6  O   UNL     1      -3.192  -0.740   0.413  1.00  0.00    -0.246 OA
BRANCH   5   7
ATOM      7  C   UNL     1      -0.953   0.061   0.300  1.00  0.00     0.102 A 
ATOM      8  C   UNL     1       3.298  -0.361  -0.038  1.00  0.00     0.044 C 
ATOM      9  C   UNL     1       1.820  -0.209   0.156  1.00  0.00    -0.047 A 
ATOM     10  C   UNL     1       1.002  -1.347   0.198  1.00  0.00     0.004 A 
ATOM     11  C   UNL     1       1.248   1.066   0.275  1.00  0.00     0.051 A 
ATOM     12  C   UNL     1      -0.382  -1.215   0.278  1.00  0.00     0.020 A 
ATOM     13  C   UNL     1      -0.135   1.205   0.347  1.00  0.00     0.142 A 
BRANCH  13  14
ATOM     14  O   UNL     1      -0.785   2.403   0.509  1.00  0.00    -0.455 OA
BRANCH  14  15
ATOM     15  C   UNL     1      -0.227   3.605   0.178  1.00  0.00     0.143 A 
ATOM     16  C   UNL     1      -0.321   4.539   1.221  1.00  0.00     0.048 A 
ATOM     17  C   UNL     1       0.257   3.996  -1.079  1.00  0.00     0.117 A 
ATOM     18  C   UNL     1       0.111   5.848   1.046  1.00  0.00     0.007 A 
ATOM     19  C   UNL     1       0.699   5.315  -1.232  1.00  0.00     0.139 A 
ATOM     20  C   UNL     1       0.631   6.233  -0.183  1.00  0.00     0.040 A 
ATOM     21  F   UNL     1       1.164   5.761  -2.409  1.00  0.00    -0.206 F 
BRANCH  17  22
ATOM     22  C   UNL     1       0.316   3.128  -2.279  1.00  0.00     0.255 C 
ATOM     23  N   UNL     1      -0.716   2.263  -2.476  1.00  0.00    -0.365 N 
ATOM     24  O   UNL     1       1.244   3.181  -3.076  1.00  0.00    -0.269 OA
ATOM     25  H   UNL     1      -1.458   2.226  -1.830  1.00  0.00     0.159 HD
ATOM     26  H   UNL     1      -0.720   1.673  -3.264  1.00  0.00     0.159 HD
ENDBRANCH  17  22
ENDBRANCH  14  15
ENDBRANCH  13  14
ENDBRANCH   5   7
ENDBRANCH   4   5
ENDBRANCH   3   4
ENDBRANCH   2   3
ENDBRANCH   1   2
BRANCH   1  27
ATOM     27  C   UNL     1      -3.630  -1.161  -3.495  1.00  0.00     0.202 C 
BRANCH  27  28
ATOM     28  C   UNL     1      -4.647  -0.877  -4.602  1.00  0.00     0.261 C 
BRANCH  28  29
ATOM     29  O   UNL     1      -5.955  -1.363  -4.223  1.00  0.00    -0.460 OA
BRANCH  29  30
ATOM     30  C   UNL     1      -6.881  -0.418  -3.877  1.00  0.00     0.338 C 
ATOM     31  O   UNL     1      -7.464   0.286  -4.683  1.00  0.00    -0.246 OA
BRANCH  30  32
ATOM     32  C   UNL     1      -7.073  -0.388  -2.394  1.00  0.00     0.060 A 
ATOM     33  C   UNL     1      -7.651   0.718  -1.741  1.00  0.00     0.016 A 
ATOM     34  C   UNL     1      -6.476  -1.390  -1.640  1.00  0.00     0.016 A 
ATOM     35  C   UNL     1      -7.501   0.887  -0.350  1.00  0.00     0.010 A 
ATOM     36  C   UNL     1      -6.239  -1.168  -0.302  1.00  0.00     0.010 A 
ATOM     37  C   UNL     1      -6.726  -0.024   0.358  1.00  0.00    -0.014 A 
BRANCH  37  38
ATOM     38  C   UNL     1      -6.278   0.065   1.756  1.00  0.00     0.031 A 
ATOM     39  C   UNL     1      -6.678  -1.059   2.646  1.00  0.00     0.074 A 
ATOM     40  C   UNL     1      -5.231   0.863   2.098  1.00  0.00     0.049 A 
ATOM     41  N   UNL     1      -6.336  -1.173   3.878  1.00  0.00    -0.248 NA
ATOM     42  C   UNL     1      -7.527  -2.172   2.212  1.00  0.00     0.031 C 
ATOM     43  C   UNL     1      -4.223   0.631   3.136  1.00  0.00     0.029 A 
ATOM     44  N   UNL     1      -4.808   2.086   1.558  1.00  0.00    -0.354 N 
ATOM     45  C   UNL     1      -6.534  -2.487   4.248  1.00  0.00     0.074 A 
ATOM     46  C   UNL     1      -7.416  -3.014   3.243  1.00  0.00     0.031 C 
ATOM     47  C   UNL     1      -3.535   1.766   3.366  1.00  0.00     0.029 A 
ATOM     48  C   UNL     1      -4.165   2.808   2.574  1.00  0.00     0.049 A 
ATOM     49  H   UNL     1      -4.939   2.386   0.629  1.00  0.00     0.167 HD
ATOM     50  C   UNL     1      -5.779  -2.976   5.276  1.00  0.00     0.037 A 
ATOM     51  C   UNL     1      -4.671   3.996   3.000  1.00  0.00     0.037 A 
ATOM     52  C   UNL     1      -5.053  -1.867   5.923  1.00  0.00     0.049 A 
ATOM     53  C   UNL     1      -5.077   3.812   4.431  1.00  0.00     0.074 A 
ATOM     54  C   UNL     1      -3.721  -1.490   5.963  1.00  0.00     0.029 A 
ATOM     55  N   UNL     1      -5.779  -0.767   6.391  1.00  0.00    -0.354 N 
ATOM     56  N   UNL     1      -5.430   2.647   4.907  1.00  0.00    -0.248 NA
ATOM     57  C   UNL     1      -4.931   4.827   5.468  1.00  0.00     0.031 C 
ATOM     58  C   UNL     1      -3.669  -0.117   6.351  1.00  0.00     0.029 A 
ATOM     59  C   UNL     1      -4.964   0.336   6.565  1.00  0.00     0.049 A 
ATOM     60  H   UNL     1      -6.746  -0.778   6.573  1.00  0.00     0.167 HD
ATOM     61  C   UNL     1      -5.407   2.697   6.265  1.00  0.00     0.074 A 
ATOM     62  C   UNL     1      -5.164   4.098   6.575  1.00  0.00     0.031 C 
ATOM     63  C   UNL     1      -5.514   1.595   7.058  1.00  0.00     0.037 A 
BRANCH  50  64
ATOM     64  C   UNL     1      -5.510  -4.448   5.589  1.00  0.00     0.058 A 
ATOM     65  C   UNL     1      -4.590  -4.798   6.608  1.00  0.00     0.135 A 
ATOM     66  C   UNL     1      -6.042  -5.565   4.904  1.00  0.00     0.135 A 
ATOM     67  F   UNL     1      -3.998  -3.863   7.364  1.00  0.00    -0.206 F 
ATOM     68  C   UNL     1      -4.219  -6.117   6.899  1.00  0.00     0.059 A 
ATOM     69  C   UNL     1      -5.705  -6.894   5.192  1.00  0.00     0.059 A 
ATOM     70  F   UNL     1      -6.908  -5.447   3.896  1.00  0.00    -0.206 F 
ATOM     71  C   UNL     1      -4.784  -7.164   6.187  1.00  0.00     0.060 A 
BRANCH  71  72
ATOM     72  S   UNL     1      -4.317  -8.859   6.581  1.00  0.00     0.124 S 
ATOM     73  O   UNL     1      -2.894  -8.867   6.255  1.00  0.00    -0.237 OA
ATOM     74  O   UNL     1      -4.646  -8.946   8.000  1.00  0.00    -0.237 OA
ATOM     75  O   UNL     1      -5.161  -9.661   5.698  1.00  0.00    -0.744 OA
ENDBRANCH  71  72
ENDBRANCH  50  64
BRANCH  51  76
ATOM     76  C   UNL     1      -5.310   4.759   1.878  1.00  0.00     0.058 A 
ATOM     77  C   UNL     1      -4.423   5.315   0.926  1.00  0.00     0.135 A 
ATOM     78  C   UNL     1      -6.609   4.470   1.429  1.00  0.00     0.135 A 
ATOM     79  F   UNL     1      -3.171   5.634   1.294  1.00  0.00    -0.206 F 
ATOM     80  C   UNL     1      -4.737   5.401  -0.431  1.00  0.00     0.059 A 
ATOM     81  C   UNL     1      -6.947   4.552   0.068  1.00  0.00     0.059 A 
ATOM     82  F   UNL     1      -7.510   3.943   2.270  1.00  0.00    -0.206 F 
ATOM     83  C   UNL     1      -5.984   4.953  -0.860  1.00  0.00     0.060 A 
BRANCH  83  84
ATOM     84  S   UNL     1      -6.232   4.689  -2.641  1.00  0.00     0.124 S 
ATOM     85  O   UNL     1      -6.327   6.054  -3.140  1.00  0.00    -0.237 OA
ATOM     86  O   UNL     1      -5.020   3.961  -3.017  1.00  0.00    -0.237 OA
ATOM     87  O   UNL     1      -7.459   3.904  -2.693  1.00  0.00    -0.744 OA
ENDBRANCH  83  84
ENDBRANCH  51  76
BRANCH  63  88
ATOM     88  C   UNL     1      -6.111   1.660   8.430  1.00  0.00     0.058 A 
ATOM     89  C   UNL     1      -7.003   2.676   8.816  1.00  0.00     0.135 A 
ATOM     90  C   UNL     1      -5.961   0.586   9.335  1.00  0.00     0.135 A 
ATOM     91  F   UNL     1      -7.331   3.682   7.991  1.00  0.00    -0.206 F 
ATOM     92  C   UNL     1      -7.626   2.680  10.055  1.00  0.00     0.059 A 
ATOM     93  C   UNL     1      -6.632   0.535  10.548  1.00  0.00     0.059 A 
ATOM     94  F   UNL     1      -5.172  -0.464   9.063  1.00  0.00    -0.206 F 
ATOM     95  C   UNL     1      -7.429   1.608  10.916  1.00  0.00     0.060 A 
BRANCH  95  96
ATOM     96  S   UNL     1      -8.232   1.628  12.520  1.00  0.00     0.124 S 
ATOM     97  O   UNL     1      -7.330   2.493  13.274  1.00  0.00    -0.237 OA
ATOM     98  O   UNL     1      -9.541   2.196  12.212  1.00  0.00    -0.237 OA
ATOM     99  O   UNL     1      -8.239   0.224  12.913  1.00  0.00    -0.744 OA
ENDBRANCH  95  96
ENDBRANCH  63  88
ENDBRANCH  37  38
ENDBRANCH  30  32
ENDBRANCH  29  30
ENDBRANCH  28  29
ENDBRANCH  27  28
ENDBRANCH   1  27
TORSDOF 20
