REMARK SMILES O=C(Cc1ccc(S(=O)(=O)CC[NH+]2CCCC2)cc1)OCCOCCOC(=O)c1ccc(-c2c3nc(c(-c4c(F)cc(S(=O)(=O)[O-])cc4F)c4ccc([nH]4)c(-c4c(F)cc(S(=O)(=O)[O-])cc4F)c4nc(c(-c5c(F)cc(S(=O)(=O)[O-])cc5F)c5ccc2[nH]5)C=C4)C=C3)cc1
REMARK SMILES IDX 22 1 21 2 20 3 2 4 1 5 3 6 4 7 5 8 19 9 6 10 18 11 7 12 8 13
REMARK SMILES IDX 9 14 10 15 11 16 12 17 13 18 14 19 17 20 15 22 16 23 23 24
REMARK SMILES IDX 24 25 25 26 26 27 27 28 28 29 29 30 30 31 94 32 31 33 93 34
REMARK SMILES IDX 32 35 33 36 34 37 87 38 35 39 92 40 86 41 88 42 36 43 91 44
REMARK SMILES IDX 85 45 84 46 37 48 71 49 50 50 70 51 51 52 54 53 69 54 89 55
REMARK SMILES IDX 52 56 53 57 68 59 90 60 55 61 38 62 39 63 48 64 40 65 41 66
REMARK SMILES IDX 47 67 49 68 42 69 43 70 44 71 45 72 46 73 72 74 73 75 82 76
REMARK SMILES IDX 74 77 75 78 81 79 83 80 76 81 77 82 78 83 79 84 80 85 56 86
REMARK SMILES IDX 57 87 66 88 58 89 59 90 65 91 67 92 60 93 61 94 62 95 63 96
REMARK SMILES IDX 64 97
REMARK H PARENT 13 21 88 47 54 58
REMARK Flexibility Score: inf
ROOT
ATOM      1  C   UNL     1       4.476  -0.251   1.126  1.00  0.00     0.202 C 
ENDROOT
BRANCH   1   2
ATOM      2  C   UNL     1       3.570   0.816   0.504  1.00  0.00     0.261 C 
BRANCH   2   3
ATOM      3  O   UNL     1       2.433   0.450  -0.331  1.00  0.00    -0.463 OA
BRANCH   3   4
ATOM      4  C   UNL     1       1.928  -0.655  -0.901  1.00  0.00     0.310 C 
ATOM      5  O   UNL     1       0.749  -0.628  -1.267  1.00  0.00    -0.252 OA
BRANCH   4   6
ATOM      6  C   UNL     1       2.735  -1.917  -1.097  1.00  0.00     0.158 C 
BRANCH   6   7
ATOM      7  C   UNL     1       3.886  -1.874  -2.074  1.00  0.00    -0.037 A 
ATOM      8  C   UNL     1       4.123  -2.916  -2.979  1.00  0.00     0.005 A 
ATOM      9  C   UNL     1       4.800  -0.828  -2.071  1.00  0.00     0.005 A 
ATOM     10  C   UNL     1       5.103  -2.776  -3.977  1.00  0.00     0.020 A 
ATOM     11  C   UNL     1       5.889  -0.781  -2.922  1.00  0.00     0.020 A 
ATOM     12  C   UNL     1       5.924  -1.646  -3.986  1.00  0.00     0.067 A 
BRANCH  12  13
ATOM     13  S   UNL     1       6.871  -1.172  -5.411  1.00  0.00     0.183 S 
ATOM     14  O   UNL     1       8.210  -1.664  -5.140  1.00  0.00    -0.223 OA
ATOM     15  O   UNL     1       6.142  -1.650  -6.571  1.00  0.00    -0.223 OA
BRANCH  13  16
ATOM     16  C   UNL     1       6.962   0.633  -5.489  1.00  0.00     0.203 C 
BRANCH  16  17
ATOM     17  C   UNL     1       5.763   1.394  -6.091  1.00  0.00     0.279 C 
BRANCH  17  18
ATOM     18  N   UNL     1       4.862   2.296  -5.340  1.00  0.00    -0.334 N 
ATOM     19  C   UNL     1       5.247   3.705  -5.209  1.00  0.00     0.262 C 
ATOM     20  C   UNL     1       4.495   1.916  -3.990  1.00  0.00     0.262 C 
ATOM     21  H   UNL     1       4.081   2.183  -5.987  1.00  0.00     0.348 HD
ATOM     22  C   UNL     1       5.968   3.820  -3.876  1.00  0.00     0.067 C 
ATOM     23  C   UNL     1       5.520   2.598  -3.090  1.00  0.00     0.067 C 
ENDBRANCH  17  18
ENDBRANCH  16  17
ENDBRANCH  13  16
ENDBRANCH  12  13
ENDBRANCH   6   7
ENDBRANCH   4   6
ENDBRANCH   3   4
ENDBRANCH   2   3
ENDBRANCH   1   2
BRANCH   1  24
ATOM     24  O   UNL     1       3.869  -1.357   1.771  1.00  0.00    -0.374 OA
BRANCH  24  25
ATOM     25  C   UNL     1       2.662  -1.149   2.488  1.00  0.00     0.202 C 
BRANCH  25  26
ATOM     26  C   UNL     1       2.808  -0.471   3.846  1.00  0.00     0.261 C 
BRANCH  26  27
ATOM     27  O   UNL     1       3.235   0.894   3.733  1.00  0.00    -0.460 OA
BRANCH  27  28
ATOM     28  C   UNL     1       4.532   1.121   4.041  1.00  0.00     0.338 C 
ATOM     29  O   UNL     1       5.370   0.288   4.364  1.00  0.00    -0.246 OA
BRANCH  28  30
ATOM     30  C   UNL     1       4.864   2.533   3.790  1.00  0.00     0.060 A 
ATOM     31  C   UNL     1       6.071   2.829   3.143  1.00  0.00     0.016 A 
ATOM     32  C   UNL     1       4.044   3.555   4.275  1.00  0.00     0.016 A 
ATOM     33  C   UNL     1       6.501   4.150   3.050  1.00  0.00     0.010 A 
ATOM     34  C   UNL     1       4.477   4.877   4.182  1.00  0.00     0.010 A 
ATOM     35  C   UNL     1       5.730   5.172   3.619  1.00  0.00    -0.014 A 
BRANCH  35  36
ATOM     36  C   UNL     1       6.313   6.520   3.802  1.00  0.00     0.031 A 
ATOM     37  C   UNL     1       6.837   6.896   5.162  1.00  0.00     0.074 A 
ATOM     38  C   UNL     1       6.376   7.385   2.776  1.00  0.00     0.049 A 
ATOM     39  N   UNL     1       7.330   8.032   5.576  1.00  0.00    -0.248 NA
ATOM     40  C   UNL     1       6.786   5.848   6.195  1.00  0.00     0.031 C 
ATOM     41  C   UNL     1       5.930   7.109   1.412  1.00  0.00     0.029 A 
ATOM     42  N   UNL     1       6.832   8.676   2.730  1.00  0.00    -0.354 N 
ATOM     43  C   UNL     1       7.635   7.842   6.920  1.00  0.00     0.074 A 
ATOM     44  C   UNL     1       7.238   6.494   7.259  1.00  0.00     0.031 C 
ATOM     45  C   UNL     1       6.128   8.205   0.661  1.00  0.00     0.029 A 
ATOM     46  C   UNL     1       6.679   9.268   1.500  1.00  0.00     0.049 A 
ATOM     47  H   UNL     1       7.232   9.136   3.504  1.00  0.00     0.167 HD
ATOM     48  C   UNL     1       8.203   8.713   7.789  1.00  0.00     0.037 A 
ATOM     49  C   UNL     1       6.937  10.530   1.107  1.00  0.00     0.037 A 
ATOM     50  C   UNL     1       8.588  10.054   7.434  1.00  0.00     0.049 A 
ATOM     51  C   UNL     1       7.512  11.502   2.103  1.00  0.00     0.074 A 
ATOM     52  C   UNL     1       9.188  11.017   8.226  1.00  0.00     0.029 A 
ATOM     53  N   UNL     1       8.399  10.626   6.183  1.00  0.00    -0.354 N 
ATOM     54  N   UNL     1       7.817  11.307   3.365  1.00  0.00    -0.248 NA
ATOM     55  C   UNL     1       7.783  12.863   1.622  1.00  0.00     0.031 C 
ATOM     56  C   UNL     1       9.310  12.188   7.470  1.00  0.00     0.029 A 
ATOM     57  C   UNL     1       8.846  11.937   6.187  1.00  0.00     0.049 A 
ATOM     58  H   UNL     1       8.005  10.167   5.406  1.00  0.00     0.167 HD
ATOM     59  C   UNL     1       8.348  12.510   3.820  1.00  0.00     0.074 A 
ATOM     60  C   UNL     1       8.325  13.424   2.695  1.00  0.00     0.031 C 
ATOM     61  C   UNL     1       8.818  12.829   5.053  1.00  0.00     0.037 A 
BRANCH  48  62
ATOM     62  C   UNL     1       8.399   8.250   9.208  1.00  0.00     0.058 A 
ATOM     63  C   UNL     1       9.325   7.248   9.543  1.00  0.00     0.135 A 
ATOM     64  C   UNL     1       7.644   8.813  10.250  1.00  0.00     0.135 A 
ATOM     65  F   UNL     1      10.062   6.660   8.587  1.00  0.00    -0.206 F 
ATOM     66  C   UNL     1       9.463   6.791  10.851  1.00  0.00     0.059 A 
ATOM     67  C   UNL     1       7.789   8.395  11.569  1.00  0.00     0.059 A 
ATOM     68  F   UNL     1       6.742   9.773   9.989  1.00  0.00    -0.206 F 
ATOM     69  C   UNL     1       8.686   7.368  11.857  1.00  0.00     0.060 A 
BRANCH  69  70
ATOM     70  S   UNL     1       8.857   6.747  13.543  1.00  0.00     0.124 S 
ATOM     71  O   UNL     1       8.204   5.446  13.441  1.00  0.00    -0.237 OA
ATOM     72  O   UNL     1      10.306   6.716  13.719  1.00  0.00    -0.237 OA
ATOM     73  O   UNL     1       8.152   7.742  14.345  1.00  0.00    -0.744 OA
ENDBRANCH  69  70
ENDBRANCH  48  62
BRANCH  49  74
ATOM     74  C   UNL     1       6.664  10.934  -0.297  1.00  0.00     0.058 A 
ATOM     75  C   UNL     1       7.714  11.193  -1.189  1.00  0.00     0.135 A 
ATOM     76  C   UNL     1       5.351  11.029  -0.786  1.00  0.00     0.135 A 
ATOM     77  F   UNL     1       8.986  11.123  -0.767  1.00  0.00    -0.206 F 
ATOM     78  C   UNL     1       7.475  11.532  -2.516  1.00  0.00     0.059 A 
ATOM     79  C   UNL     1       5.087  11.341  -2.115  1.00  0.00     0.059 A 
ATOM     80  F   UNL     1       4.312  10.778   0.025  1.00  0.00    -0.206 F 
ATOM     81  C   UNL     1       6.157  11.594  -2.973  1.00  0.00     0.060 A 
BRANCH  81  82
ATOM     82  S   UNL     1       5.865  11.950  -4.719  1.00  0.00     0.124 S 
ATOM     83  O   UNL     1       6.240  13.357  -4.799  1.00  0.00    -0.237 OA
ATOM     84  O   UNL     1       6.768  11.008  -5.374  1.00  0.00    -0.237 OA
ATOM     85  O   UNL     1       4.444  11.664  -4.886  1.00  0.00    -0.744 OA
ENDBRANCH  81  82
ENDBRANCH  49  74
BRANCH  61  86
ATOM     86  C   UNL     1       9.390  14.208   5.241  1.00  0.00     0.058 A 
ATOM     87  C   UNL     1       8.579  15.352   5.272  1.00  0.00     0.135 A 
ATOM     88  C   UNL     1      10.770  14.377   5.446  1.00  0.00     0.135 A 
ATOM     89  F   UNL     1       7.255  15.248   5.076  1.00  0.00    -0.206 F 
ATOM     90  C   UNL     1       9.118  16.619   5.473  1.00  0.00     0.059 A 
ATOM     91  C   UNL     1      11.326  15.630   5.680  1.00  0.00     0.059 A 
ATOM     92  F   UNL     1      11.591  13.315   5.438  1.00  0.00    -0.206 F 
ATOM     93  C   UNL     1      10.493  16.747   5.678  1.00  0.00     0.060 A 
BRANCH  93  94
ATOM     94  S   UNL     1      11.175  18.394   5.967  1.00  0.00     0.124 S 
ATOM     95  O   UNL     1      11.088  18.985   4.635  1.00  0.00    -0.237 OA
ATOM     96  O   UNL     1      10.261  18.940   6.964  1.00  0.00    -0.237 OA
ATOM     97  O   UNL     1      12.527  18.122   6.446  1.00  0.00    -0.744 OA
ENDBRANCH  93  94
ENDBRANCH  61  86
ENDBRANCH  35  36
ENDBRANCH  28  30
ENDBRANCH  27  28
ENDBRANCH  26  27
ENDBRANCH  25  26
ENDBRANCH  24  25
ENDBRANCH   1  24
TORSDOF 22
