REMARK SMILES C=CC[C@@]1(C(=O)OCCOCCOC(=O)c2ccc(-c3c4nc(c(-c5c(F)cc(S(=O)(=O)[O-])cc5F)c5ccc([nH]5)c(-c5c(F)cc(S(=O)(=O)[O-])cc5F)c5nc(c(-c6c(F)cc(S(=O)(=O)[O-])cc6F)c6ccc3[nH]6)C=C5)C=C4)cc2)CCCN(C(=O)c2ccc3c(c2)OCO3)C1
REMARK SMILES IDX 11 1 10 2 9 3 8 4 7 5 5 6 6 7 4 8 82 9 97 10 83 11 85 12
REMARK SMILES IDX 84 13 3 14 2 15 1 16 86 17 87 18 88 19 89 20 93 21 90 22
REMARK SMILES IDX 92 23 91 24 94 25 96 26 95 27 12 28 13 29 14 30 15 31 16 32
REMARK SMILES IDX 17 33 81 34 18 35 80 36 19 37 20 38 21 39 74 40 22 41 79 42
REMARK SMILES IDX 73 43 75 44 23 45 78 46 72 47 71 48 24 50 58 51 37 52 57 53
REMARK SMILES IDX 38 54 41 55 56 56 76 57 39 58 40 59 55 61 77 62 42 63 25 64
REMARK SMILES IDX 26 65 35 66 27 67 28 68 34 69 36 70 29 71 30 72 31 73 32 74
REMARK SMILES IDX 33 75 59 76 60 77 69 78 61 79 62 80 68 81 70 82 63 83 64 84
REMARK SMILES IDX 65 85 66 86 67 87 43 88 44 89 53 90 45 91 46 92 52 93 54 94
REMARK SMILES IDX 47 95 48 96 49 97 50 98 51 99
REMARK H PARENT 75 49 41 60
REMARK Flexibility Score: inf
ROOT
ATOM      1  C   UNL     1      -2.305  -1.858   1.129  1.00  0.00     0.202 C 
ENDROOT
BRANCH   1   2
ATOM      2  O   UNL     1      -1.071  -2.292   1.688  1.00  0.00    -0.374 OA
BRANCH   2   3
ATOM      3  C   UNL     1       0.017  -1.371   1.671  1.00  0.00     0.202 C 
BRANCH   3   4
ATOM      4  C   UNL     1       0.610  -1.002   0.307  1.00  0.00     0.261 C 
BRANCH   4   5
ATOM      5  O   UNL     1      -0.294  -0.254  -0.532  1.00  0.00    -0.463 OA
BRANCH   5   6
ATOM      6  C   UNL     1      -0.707  -0.891  -1.661  1.00  0.00     0.314 C 
ATOM      7  O   UNL     1      -0.407  -2.049  -1.941  1.00  0.00    -0.252 OA
BRANCH   6   8
ATOM      8  C   UNL     1      -1.530  -0.011  -2.610  1.00  0.00     0.089 C 
ATOM      9  C   UNL     1      -1.813   1.427  -2.109  1.00  0.00     0.023 C 
ATOM     10  C   UNL     1      -2.852  -0.769  -2.916  1.00  0.00     0.138 C 
ATOM     11  C   UNL     1      -2.942   1.526  -1.090  1.00  0.00     0.023 C 
ATOM     12  N   UNL     1      -3.933  -0.567  -1.932  1.00  0.00    -0.337 N 
ATOM     13  C   UNL     1      -4.202   0.823  -1.568  1.00  0.00     0.120 C 
BRANCH   8  14
ATOM     14  C   UNL     1      -0.603   0.027  -3.872  1.00  0.00     0.047 C 
BRANCH  14  15
ATOM     15  C   UNL     1      -0.910   1.055  -4.928  1.00  0.00    -0.034 C 
ATOM     16  C   UNL     1      -0.069   2.053  -5.234  1.00  0.00     0.004 C 
ENDBRANCH  14  15
ENDBRANCH   8  14
BRANCH  12  17
ATOM     17  C   UNL     1      -4.716  -1.664  -1.534  1.00  0.00     0.254 C 
ATOM     18  O   UNL     1      -4.441  -2.831  -1.797  1.00  0.00    -0.269 OA
BRANCH  17  19
ATOM     19  C   UNL     1      -5.930  -1.427  -0.711  1.00  0.00     0.043 A 
ATOM     20  C   UNL     1      -5.981  -1.942   0.602  1.00  0.00     0.018 A 
ATOM     21  C   UNL     1      -6.984  -0.656  -1.213  1.00  0.00     0.064 A 
ATOM     22  C   UNL     1      -7.001  -1.560   1.478  1.00  0.00     0.051 A 
ATOM     23  C   UNL     1      -7.983  -0.308  -0.329  1.00  0.00     0.166 A 
ATOM     24  C   UNL     1      -7.977  -0.723   0.985  1.00  0.00     0.165 A 
ATOM     25  O   UNL     1      -9.039   0.503  -0.607  1.00  0.00    -0.454 OA
ATOM     26  O   UNL     1      -9.012  -0.205   1.696  1.00  0.00    -0.454 OA
ATOM     27  C   UNL     1      -9.612   0.658   0.709  1.00  0.00     0.468 C 
ENDBRANCH  17  19
ENDBRANCH  12  17
ENDBRANCH   6   8
ENDBRANCH   5   6
ENDBRANCH   4   5
ENDBRANCH   3   4
ENDBRANCH   2   3
ENDBRANCH   1   2
BRANCH   1  28
ATOM     28  C   UNL     1      -3.126  -0.865   1.958  1.00  0.00     0.261 C 
BRANCH  28  29
ATOM     29  O   UNL     1      -2.372   0.277   2.362  1.00  0.00    -0.460 OA
BRANCH  29  30
ATOM     30  C   UNL     1      -2.391   0.511   3.694  1.00  0.00     0.338 C 
ATOM     31  O   UNL     1      -3.067  -0.034   4.545  1.00  0.00    -0.246 OA
BRANCH  30  32
ATOM     32  C   UNL     1      -1.314   1.458   3.991  1.00  0.00     0.060 A 
ATOM     33  C   UNL     1      -0.192   0.970   4.667  1.00  0.00     0.016 A 
ATOM     34  C   UNL     1      -1.428   2.802   3.636  1.00  0.00     0.016 A 
ATOM     35  C   UNL     1       0.821   1.848   5.028  1.00  0.00     0.010 A 
ATOM     36  C   UNL     1      -0.415   3.683   4.009  1.00  0.00     0.010 A 
ATOM     37  C   UNL     1       0.696   3.211   4.730  1.00  0.00    -0.014 A 
BRANCH  37  38
ATOM     38  C   UNL     1       1.670   4.166   5.293  1.00  0.00     0.031 A 
ATOM     39  C   UNL     1       1.321   4.881   6.565  1.00  0.00     0.074 A 
ATOM     40  C   UNL     1       2.848   4.362   4.679  1.00  0.00     0.049 A 
ATOM     41  N   UNL     1       2.007   5.774   7.226  1.00  0.00    -0.248 NA
ATOM     42  C   UNL     1       0.022   4.545   7.175  1.00  0.00     0.031 C 
ATOM     43  C   UNL     1       3.283   3.686   3.456  1.00  0.00     0.029 A 
ATOM     44  N   UNL     1       3.891   5.191   4.995  1.00  0.00    -0.354 N 
ATOM     45  C   UNL     1       1.229   6.106   8.328  1.00  0.00     0.074 A 
ATOM     46  C   UNL     1       0.005   5.342   8.233  1.00  0.00     0.031 C 
ATOM     47  C   UNL     1       4.503   4.138   3.119  1.00  0.00     0.029 A 
ATOM     48  C   UNL     1       4.918   5.153   4.084  1.00  0.00     0.049 A 
ATOM     49  H   UNL     1       3.904   5.760   5.799  1.00  0.00     0.167 HD
ATOM     50  C   UNL     1       1.519   6.967   9.331  1.00  0.00     0.037 A 
ATOM     51  C   UNL     1       6.053   5.876   4.030  1.00  0.00     0.037 A 
ATOM     52  C   UNL     1       2.741   7.723   9.399  1.00  0.00     0.049 A 
ATOM     53  C   UNL     1       6.322   6.880   5.120  1.00  0.00     0.074 A 
ATOM     54  C   UNL     1       3.151   8.613  10.375  1.00  0.00     0.029 A 
ATOM     55  N   UNL     1       3.745   7.685   8.441  1.00  0.00    -0.354 N 
ATOM     56  N   UNL     1       5.594   7.164   6.174  1.00  0.00    -0.248 NA
ATOM     57  C   UNL     1       7.561   7.661   5.015  1.00  0.00     0.031 C 
ATOM     58  C   UNL     1       4.383   9.148   9.984  1.00  0.00     0.029 A 
ATOM     59  C   UNL     1       4.762   8.558   8.787  1.00  0.00     0.049 A 
ATOM     60  H   UNL     1       3.736   7.121   7.635  1.00  0.00     0.167 HD
ATOM     61  C   UNL     1       6.292   8.146   6.867  1.00  0.00     0.074 A 
ATOM     62  C   UNL     1       7.508   8.396   6.118  1.00  0.00     0.031 C 
ATOM     63  C   UNL     1       5.960   8.785   8.016  1.00  0.00     0.037 A 
BRANCH  50  64
ATOM     64  C   UNL     1       0.491   7.149  10.411  1.00  0.00     0.058 A 
ATOM     65  C   UNL     1       0.239   6.151  11.367  1.00  0.00     0.135 A 
ATOM     66  C   UNL     1      -0.242   8.343  10.503  1.00  0.00     0.135 A 
ATOM     67  F   UNL     1       0.897   4.982  11.313  1.00  0.00    -0.206 F 
ATOM     68  C   UNL     1      -0.720   6.321  12.361  1.00  0.00     0.059 A 
ATOM     69  C   UNL     1      -1.190   8.544  11.503  1.00  0.00     0.059 A 
ATOM     70  F   UNL     1      -0.047   9.326   9.611  1.00  0.00    -0.206 F 
ATOM     71  C   UNL     1      -1.431   7.521  12.419  1.00  0.00     0.060 A 
BRANCH  71  72
ATOM     72  S   UNL     1      -2.673   7.727  13.714  1.00  0.00     0.124 S 
ATOM     73  O   UNL     1      -3.744   6.861  13.230  1.00  0.00    -0.237 OA
ATOM     74  O   UNL     1      -1.967   7.259  14.902  1.00  0.00    -0.237 OA
ATOM     75  O   UNL     1      -2.962   9.157  13.683  1.00  0.00    -0.744 OA
ENDBRANCH  71  72
ENDBRANCH  50  64
BRANCH  51  76
ATOM     76  C   UNL     1       7.001   5.686   2.901  1.00  0.00     0.058 A 
ATOM     77  C   UNL     1       8.250   5.081   3.095  1.00  0.00     0.135 A 
ATOM     78  C   UNL     1       6.663   6.086   1.598  1.00  0.00     0.135 A 
ATOM     79  F   UNL     1       8.622   4.689   4.323  1.00  0.00    -0.206 F 
ATOM     80  C   UNL     1       9.136   4.884   2.039  1.00  0.00     0.059 A 
ATOM     81  C   UNL     1       7.521   5.880   0.523  1.00  0.00     0.059 A 
ATOM     82  F   UNL     1       5.473   6.658   1.356  1.00  0.00    -0.206 F 
ATOM     83  C   UNL     1       8.760   5.284   0.755  1.00  0.00     0.060 A 
BRANCH  83  84
ATOM     84  S   UNL     1       9.891   4.972  -0.618  1.00  0.00     0.124 S 
ATOM     85  O   UNL     1      10.915   5.984  -0.391  1.00  0.00    -0.237 OA
ATOM     86  O   UNL     1      10.293   3.590  -0.376  1.00  0.00    -0.237 OA
ATOM     87  O   UNL     1       9.051   5.174  -1.795  1.00  0.00    -0.744 OA
ENDBRANCH  83  84
ENDBRANCH  51  76
BRANCH  63  88
ATOM     88  C   UNL     1       6.929   9.807   8.539  1.00  0.00     0.058 A 
ATOM     89  C   UNL     1       7.044  11.074   7.948  1.00  0.00     0.135 A 
ATOM     90  C   UNL     1       7.693   9.541   9.686  1.00  0.00     0.135 A 
ATOM     91  F   UNL     1       6.339  11.371   6.845  1.00  0.00    -0.206 F 
ATOM     92  C   UNL     1       7.893  12.042   8.471  1.00  0.00     0.059 A 
ATOM     93  C   UNL     1       8.530  10.503  10.241  1.00  0.00     0.059 A 
ATOM     94  F   UNL     1       7.610   8.347  10.293  1.00  0.00    -0.206 F 
ATOM     95  C   UNL     1       8.629  11.749   9.622  1.00  0.00     0.060 A 
BRANCH  95  96
ATOM     96  S   UNL     1       9.685  13.033  10.322  1.00  0.00     0.124 S 
ATOM     97  O   UNL     1      10.802  13.039   9.383  1.00  0.00    -0.237 OA
ATOM     98  O   UNL     1       8.818  14.207  10.285  1.00  0.00    -0.237 OA
ATOM     99  O   UNL     1       9.991  12.530  11.658  1.00  0.00    -0.744 OA
ENDBRANCH  95  96
ENDBRANCH  63  88
ENDBRANCH  37  38
ENDBRANCH  30  32
ENDBRANCH  29  30
ENDBRANCH  28  29
ENDBRANCH   1  28
TORSDOF 21
