REMARK SMILES C[C@H]1c2ccc(O)cc2OC(=O)[C@@H]1CC(=O)N[C@@H](CC1=c2ccccc2=NC1)C(=O)OCCOCCOC(=O)c1ccc(-c2c3nc(c(-c4c(F)cc(S(=O)(=O)[O-])cc4F)c4ccc([nH]4)c(-c4c(F)cc(S(=O)(=O)[O-])cc4F)c4nc(c(-c5c(F)cc(S(=O)(=O)[O-])cc5F)c5ccc2[nH]5)C=C4)C=C3)cc1
REMARK SMILES IDX 33 1 32 2 31 3 29 4 30 5 18 6 17 7 15 8 16 9 14 11 13 12
REMARK SMILES IDX 1 13 2 14 3 15 4 16 9 17 11 18 5 19 8 20 10 21 12 22 6 23
REMARK SMILES IDX 7 24 19 26 20 27 21 28 28 29 22 30 26 31 27 32 23 33 25 34
REMARK SMILES IDX 24 35 34 36 35 37 36 38 37 39 38 40 39 41 40 42 41 43 105 44
REMARK SMILES IDX 42 45 104 46 43 47 44 48 45 49 98 50 46 51 103 52 97 53
REMARK SMILES IDX 99 54 47 55 102 56 96 57 95 58 48 60 82 61 61 62 81 63 62 64
REMARK SMILES IDX 65 65 80 66 100 67 63 68 64 69 79 71 101 72 66 73 49 74
REMARK SMILES IDX 50 75 59 76 51 77 52 78 58 79 60 80 53 81 54 82 55 83 56 84
REMARK SMILES IDX 57 85 83 86 84 87 93 88 85 89 86 90 92 91 94 92 87 93 88 94
REMARK SMILES IDX 89 95 90 96 91 97 67 98 68 99 77 100 69 101 70 102 76 103
REMARK SMILES IDX 78 104 71 105 72 106 73 107 74 108 75 109
REMARK H PARENT 17 10 7 25 99 59 65 70
REMARK Flexibility Score: inf
ROOT
ATOM      1  C   UNL     1      -0.601  -8.804  -2.182  1.00  0.00     0.202 C 
ENDROOT
BRANCH   1   2
ATOM      2  C   UNL     1      -0.672  -8.506  -0.681  1.00  0.00     0.261 C 
BRANCH   2   3
ATOM      3  O   UNL     1      -1.256  -7.226  -0.401  1.00  0.00    -0.462 OA
BRANCH   3   4
ATOM      4  C   UNL     1      -0.408  -6.361   0.204  1.00  0.00     0.329 C 
ATOM      5  O   UNL     1       0.709  -6.647   0.630  1.00  0.00    -0.250 OA
BRANCH   4   6
ATOM      6  C   UNL     1      -0.954  -4.944   0.328  1.00  0.00     0.196 C 
BRANCH   6   7
ATOM      7  N   UNL     1      -2.084  -4.430  -0.460  1.00  0.00    -0.342 N 
ATOM      8  C   UNL     1      -2.207  -3.196  -1.048  1.00  0.00     0.221 C 
ATOM      9  O   UNL     1      -3.333  -2.758  -1.288  1.00  0.00    -0.275 OA
ATOM     10  H   UNL     1      -2.844  -5.044  -0.580  1.00  0.00     0.164 HD
BRANCH   8  11
ATOM     11  C   UNL     1      -0.971  -2.441  -1.540  1.00  0.00     0.116 C 
BRANCH  11  12
ATOM     12  C   UNL     1      -0.333  -1.385  -0.606  1.00  0.00     0.116 C 
ATOM     13  C   UNL     1       1.179   0.695  -0.446  1.00  0.00     0.014 C 
ATOM     14  C   UNL     1       0.677  -0.457  -1.335  1.00  0.00     0.034 C 
ATOM     15  C   UNL     1       1.837  -1.297  -1.819  1.00  0.00    -0.001 A 
ATOM     16  C   UNL     1       2.562  -0.974  -2.970  1.00  0.00     0.011 A 
ATOM     17  C   UNL     1       2.166  -2.466  -1.129  1.00  0.00     0.138 A 
ATOM     18  C   UNL     1       0.468  -2.012   0.510  1.00  0.00     0.315 C 
ATOM     19  C   UNL     1       3.543  -1.848  -3.448  1.00  0.00     0.047 A 
ATOM     20  C   UNL     1       3.107  -3.366  -1.614  1.00  0.00     0.093 A 
ATOM     21  O   UNL     1       1.567  -2.756   0.107  1.00  0.00    -0.426 OA
ATOM     22  O   UNL     1       0.177  -1.885   1.693  1.00  0.00    -0.251 OA
ATOM     23  C   UNL     1       3.784  -3.050  -2.783  1.00  0.00     0.119 A 
BRANCH  23  24
ATOM     24  O   UNL     1       4.699  -3.946  -3.248  1.00  0.00    -0.508 OA
ATOM     25  H   UNL     1       5.175  -3.765  -4.035  1.00  0.00     0.293 HD
ENDBRANCH  23  24
ENDBRANCH  11  12
ENDBRANCH   8  11
ENDBRANCH   6   7
BRANCH   6  26
ATOM     26  C   UNL     1      -1.145  -4.667   1.831  1.00  0.00     0.070 C 
BRANCH  26  27
ATOM     27  C   UNL     1      -2.276  -5.343   2.618  1.00  0.00    -0.037 C 
ATOM     28  C   UNL     1      -3.490  -5.468   2.066  1.00  0.00     0.001 A 
ATOM     29  C   UNL     1      -2.461  -4.585   3.925  1.00  0.00     0.174 C 
ATOM     30  C   UNL     1      -4.323  -6.625   1.857  1.00  0.00     0.010 A 
ATOM     31  C   UNL     1      -4.198  -4.315   2.682  1.00  0.00     0.065 A 
ATOM     32  N   UNL     1      -3.643  -3.724   3.692  1.00  0.00    -0.280 NA
ATOM     33  C   UNL     1      -5.631  -6.401   1.625  1.00  0.00     0.001 A 
ATOM     34  C   UNL     1      -5.491  -3.998   2.047  1.00  0.00     0.028 A 
ATOM     35  C   UNL     1      -6.150  -5.042   1.516  1.00  0.00     0.002 A 
ENDBRANCH  26  27
ENDBRANCH   6  26
ENDBRANCH   4   6
ENDBRANCH   3   4
ENDBRANCH   2   3
ENDBRANCH   1   2
BRANCH   1  36
ATOM     36  O   UNL     1      -0.068  -7.798  -3.037  1.00  0.00    -0.374 OA
BRANCH  36  37
ATOM     37  C   UNL     1      -0.769  -6.563  -3.174  1.00  0.00     0.202 C 
BRANCH  37  38
ATOM     38  C   UNL     1      -2.247  -6.579  -3.595  1.00  0.00     0.261 C 
BRANCH  38  39
ATOM     39  O   UNL     1      -3.124  -7.205  -2.640  1.00  0.00    -0.460 OA
BRANCH  39  40
ATOM     40  C   UNL     1      -3.768  -8.311  -3.094  1.00  0.00     0.338 C 
ATOM     41  O   UNL     1      -3.669  -8.820  -4.196  1.00  0.00    -0.246 OA
BRANCH  40  42
ATOM     42  C   UNL     1      -4.513  -8.953  -1.997  1.00  0.00     0.060 A 
ATOM     43  C   UNL     1      -5.632  -8.335  -1.444  1.00  0.00     0.016 A 
ATOM     44  C   UNL     1      -4.157 -10.254  -1.617  1.00  0.00     0.016 A 
ATOM     45  C   UNL     1      -6.412  -9.040  -0.522  1.00  0.00     0.010 A 
ATOM     46  C   UNL     1      -4.932 -10.949  -0.686  1.00  0.00     0.010 A 
ATOM     47  C   UNL     1      -6.075 -10.351  -0.140  1.00  0.00    -0.014 A 
BRANCH  47  48
ATOM     48  C   UNL     1      -6.986 -11.125   0.742  1.00  0.00     0.031 A 
ATOM     49  C   UNL     1      -6.622 -11.435   2.166  1.00  0.00     0.074 A 
ATOM     50  C   UNL     1      -8.160 -11.553   0.238  1.00  0.00     0.049 A 
ATOM     51  N   UNL     1      -7.349 -12.006   3.091  1.00  0.00    -0.248 NA
ATOM     52  C   UNL     1      -5.270 -11.063   2.607  1.00  0.00     0.031 C 
ATOM     53  C   UNL     1      -8.598 -11.358  -1.146  1.00  0.00     0.029 A 
ATOM     54  N   UNL     1      -9.202 -12.226   0.824  1.00  0.00    -0.354 N 
ATOM     55  C   UNL     1      -6.557 -12.041   4.232  1.00  0.00     0.074 A 
ATOM     56  C   UNL     1      -5.271 -11.486   3.865  1.00  0.00     0.031 C 
ATOM     57  C   UNL     1      -9.833 -11.861  -1.291  1.00  0.00     0.029 A 
ATOM     58  C   UNL     1     -10.266 -12.437  -0.022  1.00  0.00     0.049 A 
ATOM     59  H   UNL     1      -9.190 -12.528   1.761  1.00  0.00     0.167 HD
ATOM     60  C   UNL     1      -6.883 -12.475   5.474  1.00  0.00     0.037 A 
ATOM     61  C   UNL     1     -11.461 -13.019   0.202  1.00  0.00     0.037 A 
ATOM     62  C   UNL     1      -8.161 -13.042   5.824  1.00  0.00     0.049 A 
ATOM     63  C   UNL     1     -11.782 -13.531   1.579  1.00  0.00     0.074 A 
ATOM     64  C   UNL     1      -8.601 -13.469   7.066  1.00  0.00     0.029 A 
ATOM     65  N   UNL     1      -9.198 -13.278   4.933  1.00  0.00    -0.354 N 
ATOM     66  N   UNL     1     -11.055 -13.470   2.669  1.00  0.00    -0.248 NA
ATOM     67  C   UNL     1     -13.085 -14.188   1.759  1.00  0.00     0.031 C 
ATOM     68  C   UNL     1      -9.881 -14.010   6.915  1.00  0.00     0.029 A 
ATOM     69  C   UNL     1     -10.262 -13.875   5.590  1.00  0.00     0.049 A 
ATOM     70  H   UNL     1      -9.181 -13.054   3.974  1.00  0.00     0.167 HD
ATOM     71  C   UNL     1     -11.816 -14.068   3.667  1.00  0.00     0.074 A 
ATOM     72  C   UNL     1     -13.069 -14.465   3.057  1.00  0.00     0.031 C 
ATOM     73  C   UNL     1     -11.503 -14.272   4.970  1.00  0.00     0.037 A 
BRANCH  60  74
ATOM     74  C   UNL     1      -5.851 -12.337   6.560  1.00  0.00     0.058 A 
ATOM     75  C   UNL     1      -5.510 -11.079   7.083  1.00  0.00     0.135 A 
ATOM     76  C   UNL     1      -5.250 -13.469   7.135  1.00  0.00     0.135 A 
ATOM     77  F   UNL     1      -6.045  -9.963   6.564  1.00  0.00    -0.206 F 
ATOM     78  C   UNL     1      -4.596 -10.947   8.123  1.00  0.00     0.059 A 
ATOM     79  C   UNL     1      -4.352 -13.362   8.194  1.00  0.00     0.059 A 
ATOM     80  F   UNL     1      -5.542 -14.695   6.675  1.00  0.00    -0.206 F 
ATOM     81  C   UNL     1      -4.024 -12.095   8.674  1.00  0.00     0.060 A 
BRANCH  81  82
ATOM     82  S   UNL     1      -2.849 -11.900  10.030  1.00  0.00     0.124 S 
ATOM     83  O   UNL     1      -1.718 -11.279   9.348  1.00  0.00    -0.237 OA
ATOM     84  O   UNL     1      -3.581 -11.041  10.955  1.00  0.00    -0.237 OA
ATOM     85  O   UNL     1      -2.627 -13.268  10.490  1.00  0.00    -0.744 OA
ENDBRANCH  81  82
ENDBRANCH  60  74
BRANCH  61  86
ATOM     86  C   UNL     1     -12.454 -13.110  -0.901  1.00  0.00     0.058 A 
ATOM     87  C   UNL     1     -13.622 -12.334  -0.883  1.00  0.00     0.135 A 
ATOM     88  C   UNL     1     -12.244 -13.949  -2.007  1.00  0.00     0.135 A 
ATOM     89  F   UNL     1     -13.871 -11.521   0.155  1.00  0.00    -0.206 F 
ATOM     90  C   UNL     1     -14.551 -12.390  -1.917  1.00  0.00     0.059 A 
ATOM     91  C   UNL     1     -13.146 -14.005  -3.065  1.00  0.00     0.059 A 
ATOM     92  F   UNL     1     -11.135 -14.701  -2.079  1.00  0.00    -0.206 F 
ATOM     93  C   UNL     1     -14.300 -13.225  -3.007  1.00  0.00     0.060 A 
BRANCH  93  94
ATOM     94  S   UNL     1     -15.488 -13.248  -4.367  1.00  0.00     0.124 S 
ATOM     95  O   UNL     1     -16.631 -13.909  -3.748  1.00  0.00    -0.237 OA
ATOM     96  O   UNL     1     -15.650 -11.825  -4.652  1.00  0.00    -0.237 OA
ATOM     97  O   UNL     1     -14.801 -14.013  -5.402  1.00  0.00    -0.744 OA
ENDBRANCH  93  94
ENDBRANCH  61  86
BRANCH  73  98
ATOM     98  C   UNL     1     -12.521 -14.964   5.835  1.00  0.00     0.058 A 
ATOM     99  C   UNL     1     -12.762 -16.341   5.718  1.00  0.00     0.135 A 
ATOM    100  C   UNL     1     -13.194 -14.264   6.850  1.00  0.00     0.135 A 
ATOM    101  F   UNL     1     -12.153 -17.055   4.758  1.00  0.00    -0.206 F 
ATOM    102  C   UNL     1     -13.637 -17.001   6.575  1.00  0.00     0.059 A 
ATOM    103  C   UNL     1     -14.053 -14.909   7.736  1.00  0.00     0.059 A 
ATOM    104  F   UNL     1     -12.995 -12.946   7.009  1.00  0.00    -0.206 F 
ATOM    105  C   UNL     1     -14.270 -16.278   7.588  1.00  0.00     0.060 A 
BRANCH 105 106
ATOM    106  S   UNL     1     -15.348 -17.165   8.733  1.00  0.00     0.124 S 
ATOM    107  O   UNL     1     -16.477 -17.503   7.874  1.00  0.00    -0.237 OA
ATOM    108  O   UNL     1     -14.507 -18.285   9.145  1.00  0.00    -0.237 OA
ATOM    109  O   UNL     1     -15.625 -16.180   9.774  1.00  0.00    -0.744 OA
ENDBRANCH 105 106
ENDBRANCH  73  98
ENDBRANCH  47  48
ENDBRANCH  40  42
ENDBRANCH  39  40
ENDBRANCH  38  39
ENDBRANCH  37  38
ENDBRANCH  36  37
ENDBRANCH   1  36
TORSDOF 23
