REMARK SMILES Cc1cc(C)n([C@@H](C(=O)OCCOCCOC(=O)c2ccc(-c3c4nc(c(-c5c(F)cc(S(=O)(=O)[O-])cc5F)c5ccc([nH]5)c(-c5c(F)cc(S(=O)(=O)[O-])cc5F)c5nc(c(-c6c(F)cc(S(=O)(=O)[O-])cc6F)c6ccc3[nH]6)C=C5)C=C4)cc2)C(C)C)n1
REMARK SMILES IDX 14 1 13 2 12 3 11 4 10 5 8 6 9 7 7 8 6 9 1 10 2 11 3 12
REMARK SMILES IDX 88 13 4 14 5 15 85 16 86 17 87 18 15 19 16 20 17 21 18 22
REMARK SMILES IDX 19 23 20 24 84 25 21 26 83 27 22 28 23 29 24 30 77 31 25 32
REMARK SMILES IDX 82 33 76 34 78 35 26 36 81 37 75 38 74 39 27 41 61 42 40 43
REMARK SMILES IDX 60 44 41 45 44 46 59 47 79 48 42 49 43 50 58 52 80 53 45 54
REMARK SMILES IDX 28 55 29 56 38 57 30 58 31 59 37 60 39 61 32 62 33 63 34 64
REMARK SMILES IDX 35 65 36 66 62 67 63 68 72 69 64 70 65 71 71 72 73 73 66 74
REMARK SMILES IDX 67 75 68 76 69 77 70 78 46 79 47 80 56 81 48 82 49 83 55 84
REMARK SMILES IDX 57 85 50 86 51 87 52 88 53 89 54 90
REMARK H PARENT 78 40 44 51
REMARK Flexibility Score: inf
ROOT
ATOM      1  C   UNL     1      -2.894  -1.260   5.945  1.00  0.00     0.202 C 
ENDROOT
BRANCH   1   2
ATOM      2  O   UNL     1      -4.117  -0.597   6.246  1.00  0.00    -0.374 OA
BRANCH   2   3
ATOM      3  C   UNL     1      -4.784   0.109   5.203  1.00  0.00     0.202 C 
BRANCH   3   4
ATOM      4  C   UNL     1      -4.062   1.296   4.554  1.00  0.00     0.261 C 
BRANCH   4   5
ATOM      5  O   UNL     1      -2.684   1.034   4.217  1.00  0.00    -0.462 OA
BRANCH   5   6
ATOM      6  C   UNL     1      -1.777   1.863   4.798  1.00  0.00     0.331 C 
ATOM      7  O   UNL     1      -2.108   2.809   5.514  1.00  0.00    -0.250 OA
BRANCH   6   8
ATOM      8  C   UNL     1      -0.307   1.560   4.521  1.00  0.00     0.219 C 
BRANCH   8   9
ATOM      9  N   UNL     1      -0.062   0.569   3.452  1.00  0.00    -0.255 N 
ATOM     10  C   UNL     1       0.788   0.281   0.000  1.00  0.00     0.069 C 
ATOM     11  C   UNL     1       0.466   0.079   1.433  1.00  0.00     0.060 A 
ATOM     12  C   UNL     1       0.688  -1.081   2.188  1.00  0.00     0.048 A 
ATOM     13  N   UNL     1      -0.027   1.066   2.186  1.00  0.00    -0.177 NA
ATOM     14  C   UNL     1       0.402  -0.739   3.495  1.00  0.00     0.037 A 
ATOM     15  C   UNL     1       0.661  -1.588   4.684  1.00  0.00     0.066 C 
ENDBRANCH   8   9
BRANCH   8  16
ATOM     16  C   UNL     1       0.575   1.379   5.797  1.00  0.00     0.019 C 
ATOM     17  C   UNL     1       2.053   1.619   5.449  1.00  0.00     0.010 C 
ATOM     18  C   UNL     1       0.213   2.280   6.983  1.00  0.00     0.010 C 
ENDBRANCH   8  16
ENDBRANCH   6   8
ENDBRANCH   5   6
ENDBRANCH   4   5
ENDBRANCH   3   4
ENDBRANCH   2   3
ENDBRANCH   1   2
BRANCH   1  19
ATOM     19  C   UNL     1      -2.889  -2.317   4.848  1.00  0.00     0.261 C 
BRANCH  19  20
ATOM     20  O   UNL     1      -3.261  -1.810   3.575  1.00  0.00    -0.460 OA
BRANCH  20  21
ATOM     21  C   UNL     1      -4.397  -2.370   3.095  1.00  0.00     0.338 C 
ATOM     22  O   UNL     1      -5.331  -2.796   3.749  1.00  0.00    -0.246 OA
BRANCH  21  23
ATOM     23  C   UNL     1      -4.219  -2.620   1.663  1.00  0.00     0.060 A 
ATOM     24  C   UNL     1      -5.178  -3.443   1.074  1.00  0.00     0.016 A 
ATOM     25  C   UNL     1      -3.020  -2.288   1.010  1.00  0.00     0.016 A 
ATOM     26  C   UNL     1      -4.855  -4.077  -0.101  1.00  0.00     0.010 A 
ATOM     27  C   UNL     1      -2.697  -2.927  -0.167  1.00  0.00     0.010 A 
ATOM     28  C   UNL     1      -3.593  -3.860  -0.676  1.00  0.00    -0.014 A 
BRANCH  28  29
ATOM     29  C   UNL     1      -3.356  -4.491  -1.956  1.00  0.00     0.031 A 
ATOM     30  C   UNL     1      -4.225  -3.913  -3.004  1.00  0.00     0.074 A 
ATOM     31  C   UNL     1      -2.458  -5.465  -2.177  1.00  0.00     0.049 A 
ATOM     32  N   UNL     1      -5.302  -4.434  -3.484  1.00  0.00    -0.248 NA
ATOM     33  C   UNL     1      -4.021  -2.502  -3.370  1.00  0.00     0.031 C 
ATOM     34  C   UNL     1      -1.386  -5.942  -1.305  1.00  0.00     0.029 A 
ATOM     35  N   UNL     1      -2.286  -6.203  -3.305  1.00  0.00    -0.354 N 
ATOM     36  C   UNL     1      -5.774  -3.515  -4.410  1.00  0.00     0.074 A 
ATOM     37  C   UNL     1      -5.094  -2.278  -4.130  1.00  0.00     0.031 C 
ATOM     38  C   UNL     1      -0.545  -6.723  -2.026  1.00  0.00     0.029 A 
ATOM     39  C   UNL     1      -1.092  -6.909  -3.361  1.00  0.00     0.049 A 
ATOM     40  H   UNL     1      -2.956  -6.234  -4.027  1.00  0.00     0.167 HD
ATOM     41  C   UNL     1      -6.459  -3.936  -5.505  1.00  0.00     0.037 A 
ATOM     42  C   UNL     1      -0.585  -7.535  -4.456  1.00  0.00     0.037 A 
ATOM     43  C   UNL     1      -6.976  -5.270  -5.310  1.00  0.00     0.049 A 
ATOM     44  C   UNL     1      -1.724  -7.790  -5.381  1.00  0.00     0.074 A 
ATOM     45  C   UNL     1      -7.816  -5.858  -4.382  1.00  0.00     0.029 A 
ATOM     46  N   UNL     1      -6.306  -6.306  -5.918  1.00  0.00    -0.354 N 
ATOM     47  N   UNL     1      -2.692  -8.627  -5.123  1.00  0.00    -0.248 NA
ATOM     48  C   UNL     1      -2.037  -6.770  -6.372  1.00  0.00     0.031 C 
ATOM     49  C   UNL     1      -7.264  -7.153  -4.149  1.00  0.00     0.029 A 
ATOM     50  C   UNL     1      -6.169  -7.314  -4.998  1.00  0.00     0.049 A 
ATOM     51  H   UNL     1      -5.982  -6.320  -6.847  1.00  0.00     0.167 HD
ATOM     52  C   UNL     1      -3.842  -7.987  -5.560  1.00  0.00     0.074 A 
ATOM     53  C   UNL     1      -3.368  -6.886  -6.397  1.00  0.00     0.031 C 
ATOM     54  C   UNL     1      -5.053  -8.234  -4.977  1.00  0.00     0.037 A 
BRANCH  41  55
ATOM     55  C   UNL     1      -6.280  -3.324  -6.875  1.00  0.00     0.058 A 
ATOM     56  C   UNL     1      -7.096  -3.771  -7.932  1.00  0.00     0.135 A 
ATOM     57  C   UNL     1      -5.164  -2.543  -7.257  1.00  0.00     0.135 A 
ATOM     58  F   UNL     1      -8.180  -4.526  -7.688  1.00  0.00    -0.206 F 
ATOM     59  C   UNL     1      -6.780  -3.534  -9.270  1.00  0.00     0.059 A 
ATOM     60  C   UNL     1      -4.863  -2.248  -8.578  1.00  0.00     0.059 A 
ATOM     61  F   UNL     1      -4.249  -2.107  -6.385  1.00  0.00    -0.206 F 
ATOM     62  C   UNL     1      -5.651  -2.782  -9.580  1.00  0.00     0.060 A 
BRANCH  62  63
ATOM     63  S   UNL     1      -5.185  -2.548 -11.301  1.00  0.00     0.124 S 
ATOM     64  O   UNL     1      -4.778  -3.897 -11.676  1.00  0.00    -0.237 OA
ATOM     65  O   UNL     1      -6.433  -2.067 -11.886  1.00  0.00    -0.237 OA
ATOM     66  O   UNL     1      -4.113  -1.560 -11.226  1.00  0.00    -0.744 OA
ENDBRANCH  62  63
ENDBRANCH  41  55
BRANCH  42  67
ATOM     67  C   UNL     1       0.831  -7.572  -4.918  1.00  0.00     0.058 A 
ATOM     68  C   UNL     1       1.220  -8.385  -6.000  1.00  0.00     0.135 A 
ATOM     69  C   UNL     1       1.762  -6.593  -4.516  1.00  0.00     0.135 A 
ATOM     70  F   UNL     1       0.393  -9.335  -6.462  1.00  0.00    -0.206 F 
ATOM     71  C   UNL     1       2.428  -8.196  -6.683  1.00  0.00     0.059 A 
ATOM     72  C   UNL     1       2.974  -6.393  -5.175  1.00  0.00     0.059 A 
ATOM     73  F   UNL     1       1.481  -5.732  -3.528  1.00  0.00    -0.206 F 
ATOM     74  C   UNL     1       3.289  -7.178  -6.277  1.00  0.00     0.060 A 
BRANCH  74  75
ATOM     75  S   UNL     1       4.754  -6.797  -7.268  1.00  0.00     0.124 S 
ATOM     76  O   UNL     1       5.607  -7.950  -7.001  1.00  0.00    -0.237 OA
ATOM     77  O   UNL     1       4.203  -6.710  -8.616  1.00  0.00    -0.237 OA
ATOM     78  O   UNL     1       5.222  -5.532  -6.707  1.00  0.00    -0.744 OA
ENDBRANCH  74  75
ENDBRANCH  42  67
BRANCH  54  79
ATOM     79  C   UNL     1      -5.188  -9.453  -4.101  1.00  0.00     0.058 A 
ATOM     80  C   UNL     1      -4.460  -9.691  -2.921  1.00  0.00     0.135 A 
ATOM     81  C   UNL     1      -6.195 -10.375  -4.426  1.00  0.00     0.135 A 
ATOM     82  F   UNL     1      -3.556  -8.806  -2.474  1.00  0.00    -0.206 F 
ATOM     83  C   UNL     1      -4.683 -10.827  -2.138  1.00  0.00     0.059 A 
ATOM     84  C   UNL     1      -6.459 -11.493  -3.643  1.00  0.00     0.059 A 
ATOM     85  F   UNL     1      -6.968 -10.174  -5.506  1.00  0.00    -0.206 F 
ATOM     86  C   UNL     1      -5.683 -11.726  -2.511  1.00  0.00     0.060 A 
BRANCH  86  87
ATOM     87  S   UNL     1      -5.994 -13.182  -1.489  1.00  0.00     0.124 S 
ATOM     88  O   UNL     1      -4.803 -13.988  -1.734  1.00  0.00    -0.237 OA
ATOM     89  O   UNL     1      -6.111 -12.611  -0.150  1.00  0.00    -0.237 OA
ATOM     90  O   UNL     1      -7.236 -13.724  -2.036  1.00  0.00    -0.744 OA
ENDBRANCH  86  87
ENDBRANCH  54  79
ENDBRANCH  28  29
ENDBRANCH  21  23
ENDBRANCH  20  21
ENDBRANCH  19  20
ENDBRANCH   1  19
TORSDOF 19
