REMARK SMILES COc1ccc(CCc2nnc(NC(=O)[C@@H]3[C@@H](C(=O)OCCOCCOC(=O)c4ccc(-c5c6nc(c(-c7c(F)cc(S(=O)(=O)[O-])cc7F)c7ccc([nH]7)c(-c7c(F)cc(S(=O)(=O)[O-])cc7F)c7nc(c(-c8c(F)cc(S(=O)(=O)[O-])cc8F)c8ccc5[nH]8)C=C7)C=C6)cc4)C3(C)C)s2)cc1
REMARK SMILES IDX 21 1 20 2 18 3 19 4 17 5 16 6 95 7 96 8 97 9 14 10 13 11
REMARK SMILES IDX 15 13 12 14 9 15 10 16 98 17 11 18 8 19 7 20 6 21 3 22 4 23
REMARK SMILES IDX 100 24 5 25 99 26 2 27 1 28 22 29 23 30 24 31 25 32 26 33
REMARK SMILES IDX 27 34 28 35 29 36 30 37 94 38 31 39 93 40 32 41 33 42 34 43
REMARK SMILES IDX 87 44 35 45 92 46 86 47 88 48 36 49 91 50 85 51 84 52 37 54
REMARK SMILES IDX 71 55 50 56 70 57 51 58 54 59 69 60 89 61 52 62 53 63 68 65
REMARK SMILES IDX 90 66 55 67 38 68 39 69 48 70 40 71 41 72 47 73 49 74 42 75
REMARK SMILES IDX 43 76 44 77 45 78 46 79 72 80 73 81 82 82 74 83 75 84 81 85
REMARK SMILES IDX 83 86 76 87 77 88 78 89 79 90 80 91 56 92 57 93 66 94 58 95
REMARK SMILES IDX 59 96 65 97 67 98 60 99 61 100 62 101 63 102 64 103
REMARK H PARENT 13 12 88 53 54 64
REMARK Flexibility Score: inf
ROOT
ATOM      1  C   UNL     1      -1.490  -3.703  -3.718  1.00  0.00     0.261 C 
ENDROOT
BRANCH   1   2
ATOM      2  O   UNL     1      -2.341  -4.853  -3.814  1.00  0.00    -0.463 OA
BRANCH   2   3
ATOM      3  C   UNL     1      -2.316  -5.467  -5.018  1.00  0.00     0.310 C 
ATOM      4  O   UNL     1      -1.759  -5.060  -6.030  1.00  0.00    -0.252 OA
BRANCH   3   5
ATOM      5  C   UNL     1      -2.942  -6.806  -5.044  1.00  0.00     0.118 C 
ATOM      6  C   UNL     1      -4.465  -6.809  -5.237  1.00  0.00     0.100 C 
ATOM      7  C   UNL     1      -3.825  -7.602  -4.122  1.00  0.00    -0.009 C 
ATOM      8  C   UNL     1      -4.110  -7.131  -2.714  1.00  0.00     0.013 C 
ATOM      9  C   UNL     1      -3.788  -9.107  -4.237  1.00  0.00     0.013 C 
BRANCH   6  10
ATOM     10  C   UNL     1      -4.805  -7.153  -6.641  1.00  0.00     0.230 C 
ATOM     11  N   UNL     1      -4.749  -6.146  -7.579  1.00  0.00    -0.300 N 
ATOM     12  H   UNL     1      -4.732  -6.403  -8.530  1.00  0.00     0.172 HD
ATOM     13  O   UNL     1      -5.009  -8.317  -6.972  1.00  0.00    -0.274 OA
BRANCH  11  14
ATOM     14  C   UNL     1      -4.715  -4.810  -7.277  1.00  0.00     0.212 A 
ATOM     15  C   UNL     1      -4.877  -2.461  -7.455  1.00  0.00     0.119 A 
ATOM     16  N   UNL     1      -4.950  -2.870  -6.206  1.00  0.00    -0.142 NA
ATOM     17  S   UNL     1      -4.507  -3.728  -8.578  1.00  0.00    -0.080 S 
ATOM     18  N   UNL     1      -4.872  -4.233  -6.112  1.00  0.00    -0.120 NA
BRANCH  15  19
ATOM     19  C   UNL     1      -5.145  -1.053  -7.872  1.00  0.00     0.074 C 
BRANCH  19  20
ATOM     20  C   UNL     1      -6.293  -0.899  -8.879  1.00  0.00     0.043 C 
BRANCH  20  21
ATOM     21  C   UNL     1      -7.684  -1.292  -8.422  1.00  0.00    -0.047 A 
ATOM     22  C   UNL     1     -10.331  -2.020  -7.779  1.00  0.00     0.118 A 
ATOM     23  C   UNL     1      -9.333  -2.984  -7.814  1.00  0.00     0.046 A 
ATOM     24  C   UNL     1     -10.009  -0.684  -8.006  1.00  0.00     0.046 A 
ATOM     25  C   UNL     1      -8.029  -2.625  -8.156  1.00  0.00     0.007 A 
ATOM     26  C   UNL     1      -8.693  -0.323  -8.324  1.00  0.00     0.007 A 
BRANCH  22  27
ATOM     27  O   UNL     1     -11.589  -2.463  -7.478  1.00  0.00    -0.497 OA
ATOM     28  C   UNL     1     -12.573  -1.977  -8.386  1.00  0.00     0.278 C 
ENDBRANCH  22  27
ENDBRANCH  20  21
ENDBRANCH  19  20
ENDBRANCH  15  19
ENDBRANCH  11  14
ENDBRANCH   6  10
ENDBRANCH   3   5
ENDBRANCH   2   3
ENDBRANCH   1   2
BRANCH   1  29
ATOM     29  C   UNL     1      -0.426  -3.901  -2.637  1.00  0.00     0.202 C 
BRANCH  29  30
ATOM     30  O   UNL     1       0.443  -5.026  -2.785  1.00  0.00    -0.374 OA
BRANCH  30  31
ATOM     31  C   UNL     1      -0.094  -6.326  -2.544  1.00  0.00     0.202 C 
BRANCH  31  32
ATOM     32  C   UNL     1      -0.399  -6.717  -1.092  1.00  0.00     0.261 C 
BRANCH  32  33
ATOM     33  O   UNL     1      -1.356  -5.851  -0.459  1.00  0.00    -0.460 OA
BRANCH  33  34
ATOM     34  C   UNL     1      -0.847  -5.108   0.556  1.00  0.00     0.338 C 
ATOM     35  O   UNL     1       0.283  -5.170   1.014  1.00  0.00    -0.246 OA
BRANCH  34  36
ATOM     36  C   UNL     1      -1.797  -4.051   0.955  1.00  0.00     0.060 A 
ATOM     37  C   UNL     1      -1.304  -2.742   1.010  1.00  0.00     0.016 A 
ATOM     38  C   UNL     1      -3.108  -4.331   1.347  1.00  0.00     0.016 A 
ATOM     39  C   UNL     1      -2.103  -1.716   1.507  1.00  0.00     0.010 A 
ATOM     40  C   UNL     1      -3.909  -3.298   1.853  1.00  0.00     0.010 A 
ATOM     41  C   UNL     1      -3.397  -1.993   1.968  1.00  0.00    -0.014 A 
BRANCH  41  42
ATOM     42  C   UNL     1      -4.149  -0.920   2.666  1.00  0.00     0.031 A 
ATOM     43  C   UNL     1      -4.145  -0.870   4.169  1.00  0.00     0.074 A 
ATOM     44  C   UNL     1      -4.761   0.047   1.962  1.00  0.00     0.049 A 
ATOM     45  N   UNL     1      -4.632   0.045   4.969  1.00  0.00    -0.248 NA
ATOM     46  C   UNL     1      -3.505  -1.998   4.863  1.00  0.00     0.031 C 
ATOM     47  C   UNL     1      -4.821   0.117   0.502  1.00  0.00     0.029 A 
ATOM     48  N   UNL     1      -5.436   1.166   2.381  1.00  0.00    -0.354 N 
ATOM     49  C   UNL     1      -4.350  -0.390   6.259  1.00  0.00     0.074 A 
ATOM     50  C   UNL     1      -3.686  -1.671   6.134  1.00  0.00     0.031 C 
ATOM     51  C   UNL     1      -5.482   1.232   0.147  1.00  0.00     0.029 A 
ATOM     52  C   UNL     1      -5.903   1.945   1.351  1.00  0.00     0.049 A 
ATOM     53  H   UNL     1      -5.572   1.388   3.331  1.00  0.00     0.167 HD
ATOM     54  C   UNL     1      -4.607   0.227   7.438  1.00  0.00     0.037 A 
ATOM     55  C   UNL     1      -6.585   3.107   1.377  1.00  0.00     0.037 A 
ATOM     56  C   UNL     1      -5.280   1.495   7.561  1.00  0.00     0.049 A 
ATOM     57  C   UNL     1      -6.901   3.752   2.699  1.00  0.00     0.074 A 
ATOM     58  C   UNL     1      -5.565   2.214   8.709  1.00  0.00     0.029 A 
ATOM     59  N   UNL     1      -5.788   2.227   6.498  1.00  0.00    -0.354 N 
ATOM     60  N   UNL     1      -6.590   3.351   3.909  1.00  0.00    -0.248 NA
ATOM     61  C   UNL     1      -7.655   5.012   2.656  1.00  0.00     0.031 C 
ATOM     62  C   UNL     1      -6.283   3.359   8.343  1.00  0.00     0.029 A 
ATOM     63  C   UNL     1      -6.409   3.376   6.963  1.00  0.00     0.049 A 
ATOM     64  H   UNL     1      -5.718   1.968   5.550  1.00  0.00     0.167 HD
ATOM     65  C   UNL     1      -7.095   4.318   4.772  1.00  0.00     0.074 A 
ATOM     66  C   UNL     1      -7.718   5.330   3.942  1.00  0.00     0.031 C 
ATOM     67  C   UNL     1      -7.045   4.365   6.128  1.00  0.00     0.037 A 
BRANCH  54  68
ATOM     68  C   UNL     1      -4.175  -0.487   8.690  1.00  0.00     0.058 A 
ATOM     69  C   UNL     1      -2.821  -0.601   9.045  1.00  0.00     0.135 A 
ATOM     70  C   UNL     1      -5.125  -1.080   9.537  1.00  0.00     0.135 A 
ATOM     71  F   UNL     1      -1.870  -0.066   8.263  1.00  0.00    -0.206 F 
ATOM     72  C   UNL     1      -2.421  -1.314  10.171  1.00  0.00     0.059 A 
ATOM     73  C   UNL     1      -4.749  -1.777  10.681  1.00  0.00     0.059 A 
ATOM     74  F   UNL     1      -6.433  -1.000   9.246  1.00  0.00    -0.206 F 
ATOM     75  C   UNL     1      -3.393  -1.909  10.977  1.00  0.00     0.060 A 
BRANCH  75  76
ATOM     76  S   UNL     1      -2.862  -2.866  12.413  1.00  0.00     0.124 S 
ATOM     77  O   UNL     1      -2.402  -4.100  11.784  1.00  0.00    -0.237 OA
ATOM     78  O   UNL     1      -1.820  -2.021  12.989  1.00  0.00    -0.237 OA
ATOM     79  O   UNL     1      -4.079  -2.984  13.210  1.00  0.00    -0.744 OA
ENDBRANCH  75  76
ENDBRANCH  54  68
BRANCH  55  80
ATOM     80  C   UNL     1      -6.983   3.749   0.097  1.00  0.00     0.058 A 
ATOM     81  C   UNL     1      -6.330   4.899  -0.368  1.00  0.00     0.135 A 
ATOM     82  C   UNL     1      -7.994   3.199  -0.706  1.00  0.00     0.135 A 
ATOM     83  F   UNL     1      -5.365   5.467   0.371  1.00  0.00    -0.206 F 
ATOM     84  C   UNL     1      -6.660   5.480  -1.588  1.00  0.00     0.059 A 
ATOM     85  C   UNL     1      -8.328   3.750  -1.939  1.00  0.00     0.059 A 
ATOM     86  F   UNL     1      -8.644   2.095  -0.306  1.00  0.00    -0.206 F 
ATOM     87  C   UNL     1      -7.654   4.892  -2.372  1.00  0.00     0.060 A 
BRANCH  87  88
ATOM     88  S   UNL     1      -8.009   5.599  -3.996  1.00  0.00     0.124 S 
ATOM     89  O   UNL     1      -8.752   6.802  -3.639  1.00  0.00    -0.237 OA
ATOM     90  O   UNL     1      -6.670   5.813  -4.538  1.00  0.00    -0.237 OA
ATOM     91  O   UNL     1      -8.781   4.552  -4.659  1.00  0.00    -0.744 OA
ENDBRANCH  87  88
ENDBRANCH  55  80
BRANCH  67  92
ATOM     92  C   UNL     1      -7.680   5.556   6.792  1.00  0.00     0.058 A 
ATOM     93  C   UNL     1      -9.075   5.708   6.851  1.00  0.00     0.135 A 
ATOM     94  C   UNL     1      -6.887   6.556   7.378  1.00  0.00     0.135 A 
ATOM     95  F   UNL     1      -9.879   4.784   6.303  1.00  0.00    -0.206 F 
ATOM     96  C   UNL     1      -9.660   6.830   7.431  1.00  0.00     0.059 A 
ATOM     97  C   UNL     1      -7.452   7.673   7.986  1.00  0.00     0.059 A 
ATOM     98  F   UNL     1      -5.549   6.454   7.362  1.00  0.00    -0.206 F 
ATOM     99  C   UNL     1      -8.840   7.812   7.989  1.00  0.00     0.060 A 
BRANCH  99 100
ATOM    100  S   UNL     1      -9.606   9.270   8.729  1.00  0.00     0.124 S 
ATOM    101  O   UNL     1      -9.944  10.055   7.547  1.00  0.00    -0.237 OA
ATOM    102  O   UNL     1     -10.736   8.699   9.456  1.00  0.00    -0.237 OA
ATOM    103  O   UNL     1      -8.544   9.820   9.567  1.00  0.00    -0.744 OA
ENDBRANCH  99 100
ENDBRANCH  67  92
ENDBRANCH  41  42
ENDBRANCH  34  36
ENDBRANCH  33  34
ENDBRANCH  32  33
ENDBRANCH  31  32
ENDBRANCH  30  31
ENDBRANCH  29  30
ENDBRANCH   1  29
TORSDOF 23
