REMARK SMILES [NH3+][C@@H](Cc1cn(-c2nc(Cl)nc(N3CCOCC3)n2)c2ccccc12)C(=O)OCCOCCOC(=O)c1ccc(-c2c3nc(c(-c4c(F)cc(S(=O)(=O)[O-])cc4F)c4ccc([nH]4)c(-c4c(F)cc(S(=O)(=O)[O-])cc4F)c4nc(c(-c5c(F)cc(S(=O)(=O)[O-])cc5F)c5ccc2[nH]5)C=C4)C=C3)cc1
REMARK SMILES IDX 30 1 29 2 28 3 26 4 27 5 2 6 1 7 3 11 4 12 5 13 25 14 6 15
REMARK SMILES IDX 20 16 24 17 21 18 23 19 22 20 7 21 8 22 19 23 9 24 12 25
REMARK SMILES IDX 10 26 11 27 13 28 14 29 18 30 15 31 17 32 16 33 31 34 32 35
REMARK SMILES IDX 33 36 34 37 35 38 36 39 37 40 38 41 102 42 39 43 101 44
REMARK SMILES IDX 40 45 41 46 42 47 95 48 43 49 100 50 94 51 96 52 44 53 99 54
REMARK SMILES IDX 93 55 92 56 45 58 79 59 58 60 78 61 59 62 62 63 77 64 97 65
REMARK SMILES IDX 60 66 61 67 76 69 98 70 63 71 46 72 47 73 56 74 48 75 49 76
REMARK SMILES IDX 55 77 57 78 50 79 51 80 52 81 53 82 54 83 80 84 81 85 90 86
REMARK SMILES IDX 82 87 83 88 89 89 91 90 84 91 85 92 86 93 87 94 88 95 64 96
REMARK SMILES IDX 65 97 74 98 66 99 67 100 73 101 75 102 68 103 69 104 70 105
REMARK SMILES IDX 71 106 72 107
REMARK H PARENT 1 8 1 9 1 10 96 57 62 68
REMARK Flexibility Score: inf
ROOT
ATOM      1  C   UNL     1      -3.503  -0.027  -1.096  1.00  0.00     0.202 C 
ENDROOT
BRANCH   1   2
ATOM      2  C   UNL     1      -2.799  -1.262  -1.661  1.00  0.00     0.261 C 
BRANCH   2   3
ATOM      3  O   UNL     1      -1.409  -1.294  -1.305  1.00  0.00    -0.459 OA
BRANCH   3   4
ATOM      4  C   UNL     1      -0.543  -0.977  -2.300  1.00  0.00     0.365 C 
ATOM      5  O   UNL     1      -0.866  -0.672  -3.444  1.00  0.00    -0.245 OA
BRANCH   4   6
ATOM      6  C   UNL     1       0.916  -0.983  -1.839  1.00  0.00     0.296 C 
BRANCH   6   7
ATOM      7  N   UNL     1       1.287   0.164  -0.967  1.00  0.00    -0.346 N 
ATOM      8  H   UNL     1       2.269   0.087  -0.705  1.00  0.00     0.345 HD
ATOM      9  H   UNL     1       0.709   0.152  -0.127  1.00  0.00     0.345 HD
ATOM     10  H   UNL     1       1.136   1.037  -1.472  1.00  0.00     0.345 HD
ENDBRANCH   6   7
BRANCH   6  11
ATOM     11  C   UNL     1       1.417  -2.341  -1.362  1.00  0.00     0.115 C 
BRANCH  11  12
ATOM     12  C   UNL     1       0.891  -3.034  -0.131  1.00  0.00    -0.015 A 
ATOM     13  C   UNL     1       1.072  -4.400   0.002  1.00  0.00     0.099 A 
ATOM     14  C   UNL     1       0.276  -2.606   1.103  1.00  0.00     0.004 A 
ATOM     15  N   UNL     1       0.491  -4.844   1.161  1.00  0.00    -0.285 N 
ATOM     16  C   UNL     1       0.041  -3.754   1.884  1.00  0.00     0.056 A 
ATOM     17  C   UNL     1      -0.097  -1.368   1.675  1.00  0.00     0.010 A 
ATOM     18  C   UNL     1      -0.478  -3.692   3.193  1.00  0.00     0.027 A 
ATOM     19  C   UNL     1      -0.544  -1.294   3.001  1.00  0.00     0.001 A 
ATOM     20  C   UNL     1      -0.736  -2.444   3.750  1.00  0.00     0.002 A 
BRANCH  15  21
ATOM     21  C   UNL     1       0.521  -6.195   1.590  1.00  0.00     0.240 A 
ATOM     22  N   UNL     1      -0.584  -6.739   2.080  1.00  0.00    -0.181 NA
ATOM     23  N   UNL     1       1.704  -6.808   1.492  1.00  0.00    -0.176 NA
ATOM     24  C   UNL     1      -0.445  -8.039   2.296  1.00  0.00     0.228 A 
ATOM     25  C   UNL     1       1.735  -8.075   1.877  1.00  0.00     0.231 A 
ATOM     26  Cl  UNL     1      -1.832  -8.860   2.860  1.00  0.00    -0.041 Cl
ATOM     27  N   UNL     1       0.666  -8.763   2.235  1.00  0.00    -0.182 NA
BRANCH  25  28
ATOM     28  N   UNL     1       2.958  -8.658   2.009  1.00  0.00    -0.336 N 
ATOM     29  C   UNL     1       3.995  -8.027   2.805  1.00  0.00     0.148 C 
ATOM     30  C   UNL     1       3.298  -9.848   1.253  1.00  0.00     0.148 C 
ATOM     31  C   UNL     1       5.274  -7.873   1.976  1.00  0.00     0.181 C 
ATOM     32  C   UNL     1       4.610  -9.586   0.489  1.00  0.00     0.181 C 
ATOM     33  O   UNL     1       5.659  -9.118   1.364  1.00  0.00    -0.378 OA
ENDBRANCH  25  28
ENDBRANCH  15  21
ENDBRANCH  11  12
ENDBRANCH   6  11
ENDBRANCH   4   6
ENDBRANCH   3   4
ENDBRANCH   2   3
ENDBRANCH   1   2
BRANCH   1  34
ATOM     34  O   UNL     1      -3.023   1.264  -1.479  1.00  0.00    -0.374 OA
BRANCH  34  35
ATOM     35  C   UNL     1      -1.864   1.738  -0.785  1.00  0.00     0.202 C 
BRANCH  35  36
ATOM     36  C   UNL     1      -2.098   2.337   0.612  1.00  0.00     0.261 C 
BRANCH  36  37
ATOM     37  O   UNL     1      -2.570   1.335   1.523  1.00  0.00    -0.460 OA
BRANCH  37  38
ATOM     38  C   UNL     1      -3.697   1.659   2.207  1.00  0.00     0.338 C 
ATOM     39  O   UNL     1      -4.066   2.773   2.536  1.00  0.00    -0.246 OA
BRANCH  38  40
ATOM     40  C   UNL     1      -4.558   0.461   2.165  1.00  0.00     0.060 A 
ATOM     41  C   UNL     1      -4.045  -0.802   2.470  1.00  0.00     0.016 A 
ATOM     42  C   UNL     1      -5.799   0.597   1.532  1.00  0.00     0.016 A 
ATOM     43  C   UNL     1      -4.721  -1.937   2.045  1.00  0.00     0.010 A 
ATOM     44  C   UNL     1      -6.487  -0.541   1.127  1.00  0.00     0.010 A 
ATOM     45  C   UNL     1      -5.928  -1.805   1.345  1.00  0.00    -0.014 A 
BRANCH  45  46
ATOM     46  C   UNL     1      -6.664  -3.030   1.020  1.00  0.00     0.031 A 
ATOM     47  C   UNL     1      -7.099  -3.817   2.219  1.00  0.00     0.074 A 
ATOM     48  C   UNL     1      -7.112  -3.347  -0.213  1.00  0.00     0.049 A 
ATOM     49  N   UNL     1      -6.898  -5.064   2.501  1.00  0.00    -0.248 NA
ATOM     50  C   UNL     1      -7.774  -3.066   3.294  1.00  0.00     0.031 C 
ATOM     51  C   UNL     1      -7.060  -2.539  -1.433  1.00  0.00     0.029 A 
ATOM     52  N   UNL     1      -7.842  -4.432  -0.600  1.00  0.00    -0.354 N 
ATOM     53  C   UNL     1      -7.558  -5.299   3.708  1.00  0.00     0.074 A 
ATOM     54  C   UNL     1      -7.970  -4.014   4.208  1.00  0.00     0.031 C 
ATOM     55  C   UNL     1      -7.934  -3.042  -2.335  1.00  0.00     0.029 A 
ATOM     56  C   UNL     1      -8.511  -4.266  -1.806  1.00  0.00     0.049 A 
ATOM     57  H   UNL     1      -7.890  -5.261  -0.070  1.00  0.00     0.167 HD
ATOM     58  C   UNL     1      -7.875  -6.547   4.154  1.00  0.00     0.037 A 
ATOM     59  C   UNL     1      -9.538  -5.024  -2.274  1.00  0.00     0.037 A 
ATOM     60  C   UNL     1      -7.116  -7.568   3.491  1.00  0.00     0.049 A 
ATOM     61  C   UNL     1      -9.511  -6.315  -1.538  1.00  0.00     0.074 A 
ATOM     62  C   UNL     1      -5.771  -7.870   3.402  1.00  0.00     0.029 A 
ATOM     63  N   UNL     1      -7.721  -8.293   2.494  1.00  0.00    -0.354 N 
ATOM     64  N   UNL     1      -8.564  -7.206  -1.647  1.00  0.00    -0.248 NA
ATOM     65  C   UNL     1     -10.336  -6.424  -0.343  1.00  0.00     0.031 C 
ATOM     66  C   UNL     1      -5.586  -8.332   2.068  1.00  0.00     0.029 A 
ATOM     67  C   UNL     1      -6.835  -8.325   1.446  1.00  0.00     0.049 A 
ATOM     68  H   UNL     1      -8.614  -8.707   2.524  1.00  0.00     0.167 HD
ATOM     69  C   UNL     1      -8.408  -7.718  -0.367  1.00  0.00     0.074 A 
ATOM     70  C   UNL     1      -9.579  -7.256   0.374  1.00  0.00     0.031 C 
ATOM     71  C   UNL     1      -7.219  -8.239   0.056  1.00  0.00     0.037 A 
BRANCH  58  72
ATOM     72  C   UNL     1      -9.086  -6.857   4.997  1.00  0.00     0.058 A 
ATOM     73  C   UNL     1      -9.197  -8.103   5.644  1.00  0.00     0.135 A 
ATOM     74  C   UNL     1     -10.263  -6.076   4.965  1.00  0.00     0.135 A 
ATOM     75  F   UNL     1      -8.142  -8.931   5.720  1.00  0.00    -0.206 F 
ATOM     76  C   UNL     1     -10.406  -8.566   6.167  1.00  0.00     0.059 A 
ATOM     77  C   UNL     1     -11.463  -6.494   5.527  1.00  0.00     0.059 A 
ATOM     78  F   UNL     1     -10.323  -4.914   4.300  1.00  0.00    -0.206 F 
ATOM     79  C   UNL     1     -11.538  -7.759   6.087  1.00  0.00     0.060 A 
BRANCH  79  80
ATOM     80  S   UNL     1     -13.125  -8.406   6.642  1.00  0.00     0.124 S 
ATOM     81  O   UNL     1     -13.373  -9.453   5.656  1.00  0.00    -0.237 OA
ATOM     82  O   UNL     1     -12.813  -8.861   7.992  1.00  0.00    -0.237 OA
ATOM     83  O   UNL     1     -14.007  -7.246   6.565  1.00  0.00    -0.744 OA
ENDBRANCH  79  80
ENDBRANCH  58  72
BRANCH  59  84
ATOM     84  C   UNL     1     -10.751  -4.556  -3.002  1.00  0.00     0.058 A 
ATOM     85  C   UNL     1     -11.622  -5.464  -3.631  1.00  0.00     0.135 A 
ATOM     86  C   UNL     1     -11.235  -3.240  -2.852  1.00  0.00     0.135 A 
ATOM     87  F   UNL     1     -11.259  -6.746  -3.791  1.00  0.00    -0.206 F 
ATOM     88  C   UNL     1     -12.910  -5.101  -4.046  1.00  0.00     0.059 A 
ATOM     89  C   UNL     1     -12.507  -2.851  -3.269  1.00  0.00     0.059 A 
ATOM     90  F   UNL     1     -10.520  -2.307  -2.206  1.00  0.00    -0.206 F 
ATOM     91  C   UNL     1     -13.351  -3.794  -3.841  1.00  0.00     0.060 A 
BRANCH  91  92
ATOM     92  S   UNL     1     -15.066  -3.360  -4.216  1.00  0.00     0.124 S 
ATOM     93  O   UNL     1     -15.098  -3.478  -5.670  1.00  0.00    -0.237 OA
ATOM     94  O   UNL     1     -15.808  -4.376  -3.477  1.00  0.00    -0.237 OA
ATOM     95  O   UNL     1     -15.194  -2.000  -3.699  1.00  0.00    -0.744 OA
ENDBRANCH  91  92
ENDBRANCH  59  84
BRANCH  71  96
ATOM     96  C   UNL     1      -6.135  -8.492  -0.960  1.00  0.00     0.058 A 
ATOM     97  C   UNL     1      -5.508  -7.481  -1.710  1.00  0.00     0.135 A 
ATOM     98  C   UNL     1      -5.585  -9.781  -1.043  1.00  0.00     0.135 A 
ATOM     99  F   UNL     1      -5.899  -6.203  -1.609  1.00  0.00    -0.206 F 
ATOM    100  C   UNL     1      -4.409  -7.745  -2.530  1.00  0.00     0.059 A 
ATOM    101  C   UNL     1      -4.470 -10.061  -1.829  1.00  0.00     0.059 A 
ATOM    102  F   UNL     1      -6.098 -10.779  -0.304  1.00  0.00    -0.206 F 
ATOM    103  C   UNL     1      -3.890  -9.038  -2.576  1.00  0.00     0.060 A 
BRANCH 103 104
ATOM    104  S   UNL     1      -2.409  -9.351  -3.560  1.00  0.00     0.124 S 
ATOM    105  O   UNL     1      -2.899  -9.175  -4.923  1.00  0.00    -0.237 OA
ATOM    106  O   UNL     1      -1.486  -8.325  -3.080  1.00  0.00    -0.237 OA
ATOM    107  O   UNL     1      -2.040 -10.719  -3.203  1.00  0.00    -0.744 OA
ENDBRANCH 103 104
ENDBRANCH  71  96
ENDBRANCH  45  46
ENDBRANCH  38  40
ENDBRANCH  37  38
ENDBRANCH  36  37
ENDBRANCH  35  36
ENDBRANCH  34  35
ENDBRANCH   1  34
TORSDOF 22
