REMARK SMILES CC[C@@H](C)N(C)S(=O)(=O)c1cc(C(=O)OCCOCCOC(=O)c2ccc(-c3c4nc(c(-c5c(F)cc(S(=O)(=O)[O-])cc5F)c5ccc([nH]5)c(-c5c(F)cc(S(=O)(=O)[O-])cc5F)c5nc(c(-c6c(F)cc(S(=O)(=O)[O-])cc6F)c6ccc3[nH]6)C=C5)C=C4)cc2)ccc1Br
REMARK SMILES IDX 17 1 16 2 15 3 13 4 14 5 12 6 10 7 11 8 92 9 91 10 93 11
REMARK SMILES IDX 90 12 7 13 8 14 9 15 5 16 6 17 3 18 4 19 2 20 1 21 18 22
REMARK SMILES IDX 19 23 20 24 21 25 22 26 23 27 24 28 25 29 89 30 26 31 88 32
REMARK SMILES IDX 27 33 28 34 29 35 82 36 30 37 87 38 81 39 83 40 31 41 86 42
REMARK SMILES IDX 80 43 79 44 32 46 66 47 45 48 65 49 46 50 49 51 64 52 84 53
REMARK SMILES IDX 47 54 48 55 63 57 85 58 50 59 33 60 34 61 43 62 35 63 36 64
REMARK SMILES IDX 42 65 44 66 37 67 38 68 39 69 40 70 41 71 67 72 68 73 77 74
REMARK SMILES IDX 69 75 70 76 76 77 78 78 71 79 72 80 73 81 74 82 75 83 51 84
REMARK SMILES IDX 52 85 61 86 53 87 54 88 60 89 62 90 55 91 56 92 57 93 58 94
REMARK SMILES IDX 59 95
REMARK H PARENT 83 45 49 56
REMARK Flexibility Score: inf
ROOT
ATOM      1  C   UNL     1      -6.520   7.525  -5.558  1.00  0.00     0.202 C 
ENDROOT
BRANCH   1   2
ATOM      2  C   UNL     1      -6.716   7.602  -4.043  1.00  0.00     0.261 C 
BRANCH   2   3
ATOM      3  O   UNL     1      -5.436   7.571  -3.385  1.00  0.00    -0.460 OA
BRANCH   3   4
ATOM      4  C   UNL     1      -5.190   6.454  -2.669  1.00  0.00     0.338 C 
ATOM      5  O   UNL     1      -5.978   5.557  -2.406  1.00  0.00    -0.246 OA
BRANCH   4   6
ATOM      6  C   UNL     1      -3.751   6.357  -2.338  1.00  0.00     0.061 A 
ATOM      7  C   UNL     1      -1.881   4.864  -1.848  1.00  0.00     0.097 A 
ATOM      8  C   UNL     1      -3.207   5.073  -2.267  1.00  0.00     0.038 A 
ATOM      9  C   UNL     1      -1.102   5.957  -1.475  1.00  0.00     0.038 A 
ATOM     10  C   UNL     1      -1.628   7.255  -1.626  1.00  0.00     0.018 A 
ATOM     11  Br  UNL     1       0.605   5.847  -0.654  1.00  0.00    -0.049 Br
ATOM     12  C   UNL     1      -2.946   7.460  -2.060  1.00  0.00     0.017 A 
BRANCH   7  13
ATOM     13  S   UNL     1      -1.427   3.153  -1.734  1.00  0.00     0.244 S 
ATOM     14  O   UNL     1      -2.088   2.479  -2.821  1.00  0.00    -0.207 OA
ATOM     15  O   UNL     1      -1.718   2.796  -0.351  1.00  0.00    -0.207 OA
BRANCH  13  16
ATOM     16  N   UNL     1       0.247   2.977  -2.030  1.00  0.00    -0.198 NA
ATOM     17  C   UNL     1       0.709   3.500  -3.344  1.00  0.00     0.124 C 
BRANCH  16  18
ATOM     18  C   UNL     1       0.861   1.618  -1.724  1.00  0.00     0.069 C 
ATOM     19  C   UNL     1       0.387   0.531  -2.694  1.00  0.00     0.026 C 
BRANCH  18  20
ATOM     20  C   UNL     1       0.648   1.202  -0.256  1.00  0.00     0.016 C 
ATOM     21  C   UNL     1       1.515   0.031   0.188  1.00  0.00     0.005 C 
ENDBRANCH  18  20
ENDBRANCH  16  18
ENDBRANCH  13  16
ENDBRANCH   7  13
ENDBRANCH   4   6
ENDBRANCH   3   4
ENDBRANCH   2   3
ENDBRANCH   1   2
BRANCH   1  22
ATOM     22  O   UNL     1      -6.055   6.249  -6.008  1.00  0.00    -0.374 OA
BRANCH  22  23
ATOM     23  C   UNL     1      -4.635   6.090  -6.061  1.00  0.00     0.202 C 
BRANCH  23  24
ATOM     24  C   UNL     1      -4.009   6.558  -7.378  1.00  0.00     0.261 C 
BRANCH  24  25
ATOM     25  O   UNL     1      -3.995   7.996  -7.442  1.00  0.00    -0.460 OA
BRANCH  25  26
ATOM     26  C   UNL     1      -4.867   8.544  -8.321  1.00  0.00     0.338 C 
ATOM     27  O   UNL     1      -5.550   7.950  -9.143  1.00  0.00    -0.246 OA
BRANCH  26  28
ATOM     28  C   UNL     1      -5.024   9.987  -8.040  1.00  0.00     0.060 A 
ATOM     29  C   UNL     1      -6.316  10.523  -8.125  1.00  0.00     0.016 A 
ATOM     30  C   UNL     1      -3.940  10.812  -7.721  1.00  0.00     0.016 A 
ATOM     31  C   UNL     1      -6.521  11.888  -7.938  1.00  0.00     0.010 A 
ATOM     32  C   UNL     1      -4.147  12.184  -7.542  1.00  0.00     0.010 A 
ATOM     33  C   UNL     1      -5.434  12.732  -7.680  1.00  0.00    -0.014 A 
BRANCH  33  34
ATOM     34  C   UNL     1      -5.632  14.201  -7.697  1.00  0.00     0.031 A 
ATOM     35  C   UNL     1      -5.372  14.955  -8.971  1.00  0.00     0.074 A 
ATOM     36  C   UNL     1      -6.069  14.850  -6.603  1.00  0.00     0.049 A 
ATOM     37  N   UNL     1      -5.484  16.235  -9.213  1.00  0.00    -0.248 NA
ATOM     38  C   UNL     1      -4.927  14.159 -10.127  1.00  0.00     0.031 C 
ATOM     39  C   UNL     1      -6.381  14.227  -5.317  1.00  0.00     0.029 A 
ATOM     40  N   UNL     1      -6.322  16.183  -6.402  1.00  0.00    -0.354 N 
ATOM     41  C   UNL     1      -5.129  16.400 -10.546  1.00  0.00     0.074 A 
ATOM     42  C   UNL     1      -4.771  15.093 -11.054  1.00  0.00     0.031 C 
ATOM     43  C   UNL     1      -6.775  15.181  -4.456  1.00  0.00     0.029 A 
ATOM     44  C   UNL     1      -6.727  16.481  -5.123  1.00  0.00     0.049 A 
ATOM     45  H   UNL     1      -6.224  16.863  -7.108  1.00  0.00     0.167 HD
ATOM     46  C   UNL     1      -5.109  17.535 -11.283  1.00  0.00     0.037 A 
ATOM     47  C   UNL     1      -7.014  17.669  -4.555  1.00  0.00     0.037 A 
ATOM     48  C   UNL     1      -5.460  18.836 -10.780  1.00  0.00     0.049 A 
ATOM     49  C   UNL     1      -6.940  18.925  -5.381  1.00  0.00     0.074 A 
ATOM     50  C   UNL     1      -5.479  20.045 -11.453  1.00  0.00     0.029 A 
ATOM     51  N   UNL     1      -5.846  19.099  -9.475  1.00  0.00    -0.354 N 
ATOM     52  N   UNL     1      -6.624  19.062  -6.646  1.00  0.00    -0.248 NA
ATOM     53  C   UNL     1      -7.264  20.189  -4.703  1.00  0.00     0.031 C 
ATOM     54  C   UNL     1      -5.851  21.044 -10.547  1.00  0.00     0.029 A 
ATOM     55  C   UNL     1      -6.092  20.452  -9.317  1.00  0.00     0.049 A 
ATOM     56  H   UNL     1      -5.934  18.422  -8.764  1.00  0.00     0.167 HD
ATOM     57  C   UNL     1      -6.732  20.421  -6.921  1.00  0.00     0.074 A 
ATOM     58  C   UNL     1      -7.147  21.065  -5.692  1.00  0.00     0.031 C 
ATOM     59  C   UNL     1      -6.511  21.075  -8.088  1.00  0.00     0.037 A 
BRANCH  46  60
ATOM     60  C   UNL     1      -4.676  17.416 -12.715  1.00  0.00     0.058 A 
ATOM     61  C   UNL     1      -5.529  16.886 -13.696  1.00  0.00     0.135 A 
ATOM     62  C   UNL     1      -3.401  17.846 -13.112  1.00  0.00     0.135 A 
ATOM     63  F   UNL     1      -6.751  16.443 -13.361  1.00  0.00    -0.206 F 
ATOM     64  C   UNL     1      -5.122  16.765 -15.020  1.00  0.00     0.059 A 
ATOM     65  C   UNL     1      -2.980  17.750 -14.434  1.00  0.00     0.059 A 
ATOM     66  F   UNL     1      -2.547  18.353 -12.209  1.00  0.00    -0.206 F 
ATOM     67  C   UNL     1      -3.843  17.195 -15.379  1.00  0.00     0.060 A 
BRANCH  67  68
ATOM     68  S   UNL     1      -3.320  17.024 -17.098  1.00  0.00     0.124 S 
ATOM     69  O   UNL     1      -2.995  15.603 -17.162  1.00  0.00    -0.237 OA
ATOM     70  O   UNL     1      -4.511  17.435 -17.834  1.00  0.00    -0.237 OA
ATOM     71  O   UNL     1      -2.182  17.934 -17.196  1.00  0.00    -0.744 OA
ENDBRANCH  67  68
ENDBRANCH  46  60
BRANCH  47  72
ATOM     72  C   UNL     1      -7.393  17.728  -3.120  1.00  0.00     0.058 A 
ATOM     73  C   UNL     1      -8.717  17.973  -2.730  1.00  0.00     0.135 A 
ATOM     74  C   UNL     1      -6.436  17.531  -2.113  1.00  0.00     0.135 A 
ATOM     75  F   UNL     1      -9.663  18.177  -3.660  1.00  0.00    -0.206 F 
ATOM     76  C   UNL     1      -9.081  18.028  -1.389  1.00  0.00     0.059 A 
ATOM     77  C   UNL     1      -6.779  17.564  -0.766  1.00  0.00     0.059 A 
ATOM     78  F   UNL     1      -5.158  17.283  -2.439  1.00  0.00    -0.206 F 
ATOM     79  C   UNL     1      -8.103  17.821  -0.413  1.00  0.00     0.060 A 
BRANCH  79  80
ATOM     80  S   UNL     1      -8.589  17.831   1.326  1.00  0.00     0.124 S 
ATOM     81  O   UNL     1      -8.676  19.261   1.597  1.00  0.00    -0.237 OA
ATOM     82  O   UNL     1      -9.857  17.108   1.299  1.00  0.00    -0.237 OA
ATOM     83  O   UNL     1      -7.491  17.127   1.981  1.00  0.00    -0.744 OA
ENDBRANCH  79  80
ENDBRANCH  47  72
BRANCH  59  84
ATOM     84  C   UNL     1      -6.737  22.559  -8.102  1.00  0.00     0.058 A 
ATOM     85  C   UNL     1      -5.799  23.448  -7.557  1.00  0.00     0.135 A 
ATOM     86  C   UNL     1      -7.876  23.100  -8.720  1.00  0.00     0.135 A 
ATOM     87  F   UNL     1      -4.697  22.979  -6.951  1.00  0.00    -0.206 F 
ATOM     88  C   UNL     1      -5.988  24.826  -7.612  1.00  0.00     0.059 A 
ATOM     89  C   UNL     1      -8.077  24.474  -8.802  1.00  0.00     0.059 A 
ATOM     90  F   UNL     1      -8.798  22.290  -9.264  1.00  0.00    -0.206 F 
ATOM     91  C   UNL     1      -7.131  25.329  -8.236  1.00  0.00     0.060 A 
BRANCH  91  92
ATOM     92  S   UNL     1      -7.351  27.119  -8.341  1.00  0.00     0.124 S 
ATOM     93  O   UNL     1      -7.844  27.432  -7.004  1.00  0.00    -0.237 OA
ATOM     94  O   UNL     1      -6.002  27.587  -8.645  1.00  0.00    -0.237 OA
ATOM     95  O   UNL     1      -8.319  27.276  -9.422  1.00  0.00    -0.744 OA
ENDBRANCH  91  92
ENDBRANCH  59  84
ENDBRANCH  33  34
ENDBRANCH  26  28
ENDBRANCH  25  26
ENDBRANCH  24  25
ENDBRANCH  23  24
ENDBRANCH  22  23
ENDBRANCH   1  22
TORSDOF 21
