REMARK SMILES Cc1ccn2c([C@H]3C[C@@H]3C(=O)OCCOCCOC(=O)c3ccc(-c4c5nc(c(-c6c(F)cc(S(=O)(=O)[O-])cc6F)c6ccc([nH]6)c(-c6c(F)cc(S(=O)(=O)[O-])cc6F)c6nc(c(-c7c(F)cc(S(=O)(=O)[O-])cc7F)c7ccc4[nH]7)C=C6)C=C5)cc3)nnc2c1
REMARK SMILES IDX 16 1 15 2 14 3 13 4 12 5 10 6 11 7 9 8 7 9 8 10 6 11 1 12
REMARK SMILES IDX 2 13 3 14 90 15 4 16 89 17 5 18 88 19 87 20 17 21 18 22
REMARK SMILES IDX 19 23 20 24 21 25 22 26 86 27 23 28 85 29 24 30 25 31 26 32
REMARK SMILES IDX 79 33 27 34 84 35 78 36 80 37 28 38 83 39 77 40 76 41 29 43
REMARK SMILES IDX 63 44 42 45 62 46 43 47 46 48 61 49 81 50 44 51 45 52 60 54
REMARK SMILES IDX 82 55 47 56 30 57 31 58 40 59 32 60 33 61 39 62 41 63 34 64
REMARK SMILES IDX 35 65 36 66 37 67 38 68 64 69 65 70 74 71 66 72 67 73 73 74
REMARK SMILES IDX 75 75 68 76 69 77 70 78 71 79 72 80 48 81 49 82 58 83 50 84
REMARK SMILES IDX 51 85 57 86 59 87 52 88 53 89 54 90 55 91 56 92
REMARK H PARENT 80 42 46 53
REMARK Flexibility Score: inf
ROOT
ATOM      1  C   UNL     1      -2.610  -0.236  -5.191  1.00  0.00     0.202 C 
ENDROOT
BRANCH   1   2
ATOM      2  O   UNL     1      -1.539  -1.155  -5.410  1.00  0.00    -0.374 OA
BRANCH   2   3
ATOM      3  C   UNL     1      -0.409  -1.097  -4.547  1.00  0.00     0.202 C 
BRANCH   3   4
ATOM      4  C   UNL     1       0.559   0.092  -4.636  1.00  0.00     0.261 C 
BRANCH   4   5
ATOM      5  O   UNL     1      -0.074   1.367  -4.768  1.00  0.00    -0.463 OA
BRANCH   5   6
ATOM      6  C   UNL     1      -0.073   1.813  -6.055  1.00  0.00     0.309 C 
ATOM      7  O   UNL     1       0.366   1.210  -7.019  1.00  0.00    -0.252 OA
BRANCH   6   8
ATOM      8  C   UNL     1      -0.770   3.096  -6.247  1.00  0.00     0.110 C 
ATOM      9  C   UNL     1      -0.762   4.224  -5.232  1.00  0.00     0.073 C 
ATOM     10  C   UNL     1      -2.041   3.486  -5.550  1.00  0.00     0.028 C 
BRANCH   9  11
ATOM     11  C   UNL     1      -0.555   5.608  -5.821  1.00  0.00     0.141 A 
ATOM     12  C   UNL     1      -0.688  10.916  -4.142  1.00  0.00     0.044 C 
ATOM     13  C   UNL     1      -0.571   9.472  -4.520  1.00  0.00    -0.046 A 
ATOM     14  C   UNL     1      -0.836   8.455  -3.499  1.00  0.00     0.022 A 
ATOM     15  C   UNL     1      -0.269   9.114  -5.786  1.00  0.00     0.053 A 
ATOM     16  C   UNL     1      -0.786   7.153  -3.836  1.00  0.00     0.095 A 
ATOM     17  C   UNL     1      -0.285   7.746  -6.155  1.00  0.00     0.161 A 
ATOM     18  N   UNL     1      -0.514   6.810  -5.159  1.00  0.00    -0.286 N 
ATOM     19  N   UNL     1      -0.236   7.154  -7.326  1.00  0.00    -0.130 NA
ATOM     20  N   UNL     1      -0.458   5.819  -7.120  1.00  0.00    -0.134 NA
ENDBRANCH   9  11
ENDBRANCH   6   8
ENDBRANCH   5   6
ENDBRANCH   4   5
ENDBRANCH   3   4
ENDBRANCH   2   3
ENDBRANCH   1   2
BRANCH   1  21
ATOM     21  C   UNL     1      -3.318  -0.229  -3.823  1.00  0.00     0.261 C 
BRANCH  21  22
ATOM     22  O   UNL     1      -2.448   0.245  -2.785  1.00  0.00    -0.460 OA
BRANCH  22  23
ATOM     23  C   UNL     1      -2.463  -0.479  -1.632  1.00  0.00     0.338 C 
ATOM     24  O   UNL     1      -3.340  -1.222  -1.234  1.00  0.00    -0.246 OA
BRANCH  23  25
ATOM     25  C   UNL     1      -1.065  -0.485  -1.156  1.00  0.00     0.060 A 
ATOM     26  C   UNL     1      -0.341   0.706  -1.077  1.00  0.00     0.016 A 
ATOM     27  C   UNL     1      -0.421  -1.733  -1.105  1.00  0.00     0.016 A 
ATOM     28  C   UNL     1       1.045   0.640  -1.036  1.00  0.00     0.010 A 
ATOM     29  C   UNL     1       0.969  -1.792  -1.112  1.00  0.00     0.010 A 
ATOM     30  C   UNL     1       1.701  -0.604  -1.110  1.00  0.00    -0.014 A 
BRANCH  30  31
ATOM     31  C   UNL     1       3.155  -0.606  -0.939  1.00  0.00     0.031 A 
ATOM     32  C   UNL     1       3.544  -0.191   0.434  1.00  0.00     0.074 A 
ATOM     33  C   UNL     1       4.090  -1.020  -1.820  1.00  0.00     0.049 A 
ATOM     34  N   UNL     1       4.182   0.876   0.783  1.00  0.00    -0.248 NA
ATOM     35  C   UNL     1       2.998  -0.964   1.561  1.00  0.00     0.031 C 
ATOM     36  C   UNL     1       3.902  -1.696  -3.103  1.00  0.00     0.029 A 
ATOM     37  N   UNL     1       5.452  -0.993  -1.689  1.00  0.00    -0.354 N 
ATOM     38  C   UNL     1       4.291   0.813   2.168  1.00  0.00     0.074 A 
ATOM     39  C   UNL     1       3.403  -0.234   2.599  1.00  0.00     0.031 C 
ATOM     40  C   UNL     1       5.088  -2.204  -3.516  1.00  0.00     0.029 A 
ATOM     41  C   UNL     1       6.136  -1.806  -2.587  1.00  0.00     0.049 A 
ATOM     42  H   UNL     1       5.910  -0.442  -1.014  1.00  0.00     0.167 HD
ATOM     43  C   UNL     1       5.260   1.492   2.839  1.00  0.00     0.037 A 
ATOM     44  C   UNL     1       7.444  -2.180  -2.527  1.00  0.00     0.037 A 
ATOM     45  C   UNL     1       5.827   2.537   2.027  1.00  0.00     0.049 A 
ATOM     46  C   UNL     1       8.154  -1.179  -1.687  1.00  0.00     0.074 A 
ATOM     47  C   UNL     1       5.313   3.651   1.392  1.00  0.00     0.029 A 
ATOM     48  N   UNL     1       7.064   2.324   1.466  1.00  0.00    -0.354 N 
ATOM     49  N   UNL     1       8.350   0.062  -2.042  1.00  0.00    -0.248 NA
ATOM     50  C   UNL     1       8.248  -1.436  -0.257  1.00  0.00     0.031 C 
ATOM     51  C   UNL     1       6.034   3.744   0.168  1.00  0.00     0.029 A 
ATOM     52  C   UNL     1       6.982   2.721   0.157  1.00  0.00     0.049 A 
ATOM     53  H   UNL     1       7.857   1.955   1.919  1.00  0.00     0.167 HD
ATOM     54  C   UNL     1       8.147   0.797  -0.884  1.00  0.00     0.074 A 
ATOM     55  C   UNL     1       8.172  -0.183   0.199  1.00  0.00     0.031 C 
ATOM     56  C   UNL     1       7.699   2.086  -0.927  1.00  0.00     0.037 A 
BRANCH  43  57
ATOM     57  C   UNL     1       5.923   0.989   4.096  1.00  0.00     0.058 A 
ATOM     58  C   UNL     1       6.809   1.836   4.793  1.00  0.00     0.135 A 
ATOM     59  C   UNL     1       5.946  -0.370   4.483  1.00  0.00     0.135 A 
ATOM     60  F   UNL     1       6.874   3.146   4.504  1.00  0.00    -0.206 F 
ATOM     61  C   UNL     1       7.709   1.353   5.742  1.00  0.00     0.059 A 
ATOM     62  C   UNL     1       6.793  -0.861   5.467  1.00  0.00     0.059 A 
ATOM     63  F   UNL     1       5.224  -1.307   3.858  1.00  0.00    -0.206 F 
ATOM     64  C   UNL     1       7.703  -0.002   6.058  1.00  0.00     0.060 A 
BRANCH  64  65
ATOM     65  S   UNL     1       8.943  -0.648   7.191  1.00  0.00     0.124 S 
ATOM     66  O   UNL     1      10.164  -0.475   6.412  1.00  0.00    -0.237 OA
ATOM     67  O   UNL     1       8.786   0.233   8.343  1.00  0.00    -0.237 OA
ATOM     68  O   UNL     1       8.518  -2.029   7.400  1.00  0.00    -0.744 OA
ENDBRANCH  64  65
ENDBRANCH  43  57
BRANCH  44  69
ATOM     69  C   UNL     1       8.047  -3.502  -2.881  1.00  0.00     0.058 A 
ATOM     70  C   UNL     1       9.442  -3.703  -2.917  1.00  0.00     0.135 A 
ATOM     71  C   UNL     1       7.264  -4.674  -2.932  1.00  0.00     0.135 A 
ATOM     72  F   UNL     1      10.278  -2.656  -2.841  1.00  0.00    -0.206 F 
ATOM     73  C   UNL     1      10.020  -4.983  -2.960  1.00  0.00     0.059 A 
ATOM     74  C   UNL     1       7.814  -5.954  -2.989  1.00  0.00     0.059 A 
ATOM     75  F   UNL     1       5.929  -4.622  -2.832  1.00  0.00    -0.206 F 
ATOM     76  C   UNL     1       9.194  -6.106  -2.978  1.00  0.00     0.060 A 
BRANCH  76  77
ATOM     77  S   UNL     1       9.917  -7.762  -2.872  1.00  0.00     0.124 S 
ATOM     78  O   UNL     1      10.631  -7.865  -4.139  1.00  0.00    -0.237 OA
ATOM     79  O   UNL     1      10.747  -7.660  -1.677  1.00  0.00    -0.237 OA
ATOM     80  O   UNL     1       8.751  -8.633  -2.742  1.00  0.00    -0.744 OA
ENDBRANCH  76  77
ENDBRANCH  44  69
BRANCH  56  81
ATOM     81  C   UNL     1       7.710   2.824  -2.240  1.00  0.00     0.058 A 
ATOM     82  C   UNL     1       6.965   2.448  -3.372  1.00  0.00     0.135 A 
ATOM     83  C   UNL     1       8.350   4.074  -2.280  1.00  0.00     0.135 A 
ATOM     84  F   UNL     1       6.239   1.320  -3.378  1.00  0.00    -0.206 F 
ATOM     85  C   UNL     1       6.882   3.267  -4.499  1.00  0.00     0.059 A 
ATOM     86  C   UNL     1       8.251   4.921  -3.379  1.00  0.00     0.059 A 
ATOM     87  F   UNL     1       9.028   4.518  -1.209  1.00  0.00    -0.206 F 
ATOM     88  C   UNL     1       7.519   4.508  -4.489  1.00  0.00     0.060 A 
BRANCH  88  89
ATOM     89  S   UNL     1       7.312   5.616  -5.899  1.00  0.00     0.124 S 
ATOM     90  O   UNL     1       8.060   4.924  -6.944  1.00  0.00    -0.237 OA
ATOM     91  O   UNL     1       5.862   5.643  -6.062  1.00  0.00    -0.237 OA
ATOM     92  O   UNL     1       7.901   6.871  -5.438  1.00  0.00    -0.744 OA
ENDBRANCH  88  89
ENDBRANCH  56  81
ENDBRANCH  30  31
ENDBRANCH  23  25
ENDBRANCH  22  23
ENDBRANCH  21  22
ENDBRANCH   1  21
TORSDOF 18
