REMARK SMILES COc1ccc([C@H]2CC(c3ccccc3)=NN2C(=O)CCCC(=O)OCCOCCOC(=O)c2ccc(-c3c4nc(c(-c5c(F)cc(S(=O)(=O)[O-])cc5F)c5ccc([nH]5)c(-c5c(F)cc(S(=O)(=O)[O-])cc5F)c5nc(c(-c6c(F)cc(S(=O)(=O)[O-])cc6F)c6ccc3[nH]6)C=C5)C=C4)cc2)cc1
REMARK SMILES IDX 26 1 25 2 23 3 24 4 22 5 21 6 20 7 18 8 19 9 17 10 7 11 8 12
REMARK SMILES IDX 9 13 16 14 6 15 3 16 4 17 101 18 5 19 100 20 2 21 1 22 10 23
REMARK SMILES IDX 11 24 15 25 12 26 14 27 13 28 27 29 28 30 29 31 30 32 31 33
REMARK SMILES IDX 32 34 33 35 34 36 35 37 99 38 36 39 98 40 37 41 38 42 39 43
REMARK SMILES IDX 92 44 40 45 97 46 91 47 93 48 41 49 96 50 90 51 89 52 42 54
REMARK SMILES IDX 76 55 55 56 75 57 56 58 59 59 74 60 94 61 57 62 58 63 73 65
REMARK SMILES IDX 95 66 60 67 43 68 44 69 53 70 45 71 46 72 52 73 54 74 47 75
REMARK SMILES IDX 48 76 49 77 50 78 51 79 77 80 78 81 87 82 79 83 80 84 86 85
REMARK SMILES IDX 88 86 81 87 82 88 83 89 84 90 85 91 61 92 62 93 71 94 63 95
REMARK SMILES IDX 64 96 70 97 72 98 65 99 66 100 67 101 68 102 69 103
REMARK H PARENT 93 53 59 64
REMARK Flexibility Score: inf
ROOT
ATOM      1  C   UNL     1      -1.378   6.304  -4.718  1.00  0.00     0.261 C 
ENDROOT
BRANCH   1   2
ATOM      2  O   UNL     1      -0.597   5.132  -4.995  1.00  0.00    -0.463 OA
BRANCH   2   3
ATOM      3  C   UNL     1      -0.027   4.574  -3.902  1.00  0.00     0.305 C 
ATOM      4  O   UNL     1      -0.093   5.058  -2.780  1.00  0.00    -0.252 OA
BRANCH   3   5
ATOM      5  C   UNL     1       0.587   3.222  -4.191  1.00  0.00     0.123 C 
BRANCH   5   6
ATOM      6  C   UNL     1       1.556   3.158  -5.360  1.00  0.00     0.022 C 
BRANCH   6   7
ATOM      7  C   UNL     1       2.536   4.321  -5.457  1.00  0.00     0.103 C 
BRANCH   7   8
ATOM      8  C   UNL     1       3.842   4.143  -4.705  1.00  0.00     0.243 C 
ATOM      9  O   UNL     1       4.707   3.380  -5.142  1.00  0.00    -0.273 OA
BRANCH   8  10
ATOM     10  N   UNL     1       4.042   4.970  -3.612  1.00  0.00    -0.225 N 
ATOM     11  C   UNL     1       3.137   5.253  -2.488  1.00  0.00     0.147 C 
ATOM     12  C   UNL     1       3.818   6.381  -1.729  1.00  0.00     0.091 C 
ATOM     13  C   UNL     1       5.036   6.563  -2.587  1.00  0.00     0.071 C 
ATOM     14  N   UNL     1       5.161   5.757  -3.593  1.00  0.00    -0.174 NA
BRANCH  11  15
ATOM     15  C   UNL     1       2.841   4.034  -1.617  1.00  0.00    -0.023 A 
ATOM     16  C   UNL     1       1.823   1.624  -0.615  1.00  0.00     0.118 A 
ATOM     17  C   UNL     1       1.157   2.814  -0.345  1.00  0.00     0.047 A 
ATOM     18  C   UNL     1       3.061   1.640  -1.249  1.00  0.00     0.047 A 
ATOM     19  C   UNL     1       1.687   4.022  -0.811  1.00  0.00     0.010 A 
ATOM     20  C   UNL     1       3.580   2.844  -1.729  1.00  0.00     0.010 A 
BRANCH  16  21
ATOM     21  O   UNL     1       1.173   0.429  -0.471  1.00  0.00    -0.497 OA
ATOM     22  C   UNL     1       1.317  -0.093   0.842  1.00  0.00     0.278 C 
ENDBRANCH  16  21
ENDBRANCH  11  15
BRANCH  13  23
ATOM     23  C   UNL     1       5.982   7.651  -2.323  1.00  0.00    -0.002 A 
ATOM     24  C   UNL     1       6.380   8.463  -3.389  1.00  0.00     0.010 A 
ATOM     25  C   UNL     1       6.476   7.864  -1.036  1.00  0.00     0.010 A 
ATOM     26  C   UNL     1       7.282   9.499  -3.164  1.00  0.00     0.001 A 
ATOM     27  C   UNL     1       7.395   8.891  -0.821  1.00  0.00     0.001 A 
ATOM     28  C   UNL     1       7.795   9.707  -1.883  1.00  0.00     0.000 A 
ENDBRANCH  13  23
ENDBRANCH   8  10
ENDBRANCH   7   8
ENDBRANCH   6   7
ENDBRANCH   5   6
ENDBRANCH   3   5
ENDBRANCH   2   3
ENDBRANCH   1   2
BRANCH   1  29
ATOM     29  C   UNL     1      -2.876   6.009  -4.541  1.00  0.00     0.202 C 
BRANCH  29  30
ATOM     30  O   UNL     1      -3.282   5.168  -3.468  1.00  0.00    -0.374 OA
BRANCH  30  31
ATOM     31  C   UNL     1      -3.015   3.767  -3.508  1.00  0.00     0.202 C 
BRANCH  31  32
ATOM     32  C   UNL     1      -3.248   2.973  -4.804  1.00  0.00     0.261 C 
BRANCH  32  33
ATOM     33  O   UNL     1      -2.403   3.393  -5.893  1.00  0.00    -0.460 OA
BRANCH  33  34
ATOM     34  C   UNL     1      -3.053   3.718  -7.035  1.00  0.00     0.338 C 
ATOM     35  O   UNL     1      -4.250   3.578  -7.258  1.00  0.00    -0.246 OA
BRANCH  34  36
ATOM     36  C   UNL     1      -2.179   4.484  -7.942  1.00  0.00     0.060 A 
ATOM     37  C   UNL     1      -2.546   5.807  -8.230  1.00  0.00     0.016 A 
ATOM     38  C   UNL     1      -1.112   3.885  -8.614  1.00  0.00     0.016 A 
ATOM     39  C   UNL     1      -1.884   6.520  -9.226  1.00  0.00     0.010 A 
ATOM     40  C   UNL     1      -0.464   4.595  -9.634  1.00  0.00     0.010 A 
ATOM     41  C   UNL     1      -0.879   5.896  -9.974  1.00  0.00    -0.014 A 
BRANCH  41  42
ATOM     42  C   UNL     1      -0.430   6.522 -11.242  1.00  0.00     0.031 A 
ATOM     43  C   UNL     1      -1.137   6.138 -12.517  1.00  0.00     0.074 A 
ATOM     44  C   UNL     1       0.556   7.435 -11.263  1.00  0.00     0.049 A 
ATOM     45  N   UNL     1      -0.886   6.500 -13.747  1.00  0.00    -0.248 NA
ATOM     46  C   UNL     1      -2.285   5.224 -12.382  1.00  0.00     0.031 C 
ATOM     47  C   UNL     1       1.272   7.933 -10.090  1.00  0.00     0.029 A 
ATOM     48  N   UNL     1       1.135   8.097 -12.317  1.00  0.00    -0.354 N 
ATOM     49  C   UNL     1      -1.831   5.851 -14.533  1.00  0.00     0.074 A 
ATOM     50  C   UNL     1      -2.659   5.067 -13.643  1.00  0.00     0.031 C 
ATOM     51  C   UNL     1       2.217   8.801 -10.493  1.00  0.00     0.029 A 
ATOM     52  C   UNL     1       2.193   8.895 -11.952  1.00  0.00     0.049 A 
ATOM     53  H   UNL     1       0.822   8.009 -13.247  1.00  0.00     0.167 HD
ATOM     54  C   UNL     1      -1.992   5.901 -15.876  1.00  0.00     0.037 A 
ATOM     55  C   UNL     1       3.062   9.591 -12.713  1.00  0.00     0.037 A 
ATOM     56  C   UNL     1      -1.166   6.681 -16.757  1.00  0.00     0.049 A 
ATOM     57  C   UNL     1       2.908   9.578 -14.213  1.00  0.00     0.074 A 
ATOM     58  C   UNL     1      -1.255   6.808 -18.132  1.00  0.00     0.029 A 
ATOM     59  N   UNL     1      -0.093   7.459 -16.350  1.00  0.00    -0.354 N 
ATOM     60  N   UNL     1       2.000   8.973 -14.942  1.00  0.00    -0.248 NA
ATOM     61  C   UNL     1       3.895  10.337 -14.995  1.00  0.00     0.031 C 
ATOM     62  C   UNL     1      -0.208   7.631 -18.561  1.00  0.00     0.029 A 
ATOM     63  C   UNL     1       0.504   8.050 -17.449  1.00  0.00     0.049 A 
ATOM     64  H   UNL     1       0.201   7.574 -15.417  1.00  0.00     0.167 HD
ATOM     65  C   UNL     1       2.293   9.297 -16.263  1.00  0.00     0.074 A 
ATOM     66  C   UNL     1       3.458  10.156 -16.234  1.00  0.00     0.031 C 
ATOM     67  C   UNL     1       1.654   8.918 -17.397  1.00  0.00     0.037 A 
BRANCH  54  68
ATOM     68  C   UNL     1      -3.081   5.061 -16.479  1.00  0.00     0.058 A 
ATOM     69  C   UNL     1      -4.434   5.421 -16.379  1.00  0.00     0.135 A 
ATOM     70  C   UNL     1      -2.762   3.900 -17.200  1.00  0.00     0.135 A 
ATOM     71  F   UNL     1      -4.794   6.511 -15.683  1.00  0.00    -0.206 F 
ATOM     72  C   UNL     1      -5.435   4.649 -16.961  1.00  0.00     0.059 A 
ATOM     73  C   UNL     1      -3.744   3.124 -17.808  1.00  0.00     0.059 A 
ATOM     74  F   UNL     1      -1.483   3.510 -17.320  1.00  0.00    -0.206 F 
ATOM     75  C   UNL     1      -5.079   3.501 -17.673  1.00  0.00     0.060 A 
BRANCH  75  76
ATOM     76  S   UNL     1      -6.387   2.515 -18.433  1.00  0.00     0.124 S 
ATOM     77  O   UNL     1      -6.966   1.853 -17.268  1.00  0.00    -0.237 OA
ATOM     78  O   UNL     1      -7.221   3.533 -19.063  1.00  0.00    -0.237 OA
ATOM     79  O   UNL     1      -5.664   1.644 -19.355  1.00  0.00    -0.744 OA
ENDBRANCH  75  76
ENDBRANCH  54  68
BRANCH  55  80
ATOM     80  C   UNL     1       4.185  10.329 -12.073  1.00  0.00     0.058 A 
ATOM     81  C   UNL     1       4.221  11.730 -12.054  1.00  0.00     0.135 A 
ATOM     82  C   UNL     1       5.249   9.640 -11.469  1.00  0.00     0.135 A 
ATOM     83  F   UNL     1       3.234  12.434 -12.629  1.00  0.00    -0.206 F 
ATOM     84  C   UNL     1       5.276  12.424 -11.468  1.00  0.00     0.059 A 
ATOM     85  C   UNL     1       6.303  10.311 -10.857  1.00  0.00     0.059 A 
ATOM     86  F   UNL     1       5.259   8.298 -11.455  1.00  0.00    -0.206 F 
ATOM     87  C   UNL     1       6.312  11.705 -10.870  1.00  0.00     0.060 A 
BRANCH  87  88
ATOM     88  S   UNL     1       7.651  12.612 -10.065  1.00  0.00     0.124 S 
ATOM     89  O   UNL     1       8.430  13.065 -11.211  1.00  0.00    -0.237 OA
ATOM     90  O   UNL     1       6.926  13.649  -9.336  1.00  0.00    -0.237 OA
ATOM     91  O   UNL     1       8.285  11.599  -9.227  1.00  0.00    -0.744 OA
ENDBRANCH  87  88
ENDBRANCH  55  80
BRANCH  67  92
ATOM     92  C   UNL     1       2.167   9.455 -18.704  1.00  0.00     0.058 A 
ATOM     93  C   UNL     1       3.320   8.935 -19.310  1.00  0.00     0.135 A 
ATOM     94  C   UNL     1       1.439  10.432 -19.402  1.00  0.00     0.135 A 
ATOM     95  F   UNL     1       4.053   8.004 -18.680  1.00  0.00    -0.206 F 
ATOM     96  C   UNL     1       3.737   9.369 -20.564  1.00  0.00     0.059 A 
ATOM     97  C   UNL     1       1.826  10.865 -20.666  1.00  0.00     0.059 A 
ATOM     98  F   UNL     1       0.322  10.953 -18.869  1.00  0.00    -0.206 F 
ATOM     99  C   UNL     1       2.980  10.330 -21.238  1.00  0.00     0.060 A 
BRANCH  99 100
ATOM    100  S   UNL     1       3.493  10.835 -22.894  1.00  0.00     0.124 S 
ATOM    101  O   UNL     1       4.624  11.707 -22.598  1.00  0.00    -0.237 OA
ATOM    102  O   UNL     1       3.822   9.561 -23.524  1.00  0.00    -0.237 OA
ATOM    103  O   UNL     1       2.308  11.502 -23.427  1.00  0.00    -0.744 OA
ENDBRANCH  99 100
ENDBRANCH  67  92
ENDBRANCH  41  42
ENDBRANCH  34  36
ENDBRANCH  33  34
ENDBRANCH  32  33
ENDBRANCH  31  32
ENDBRANCH  30  31
ENDBRANCH  29  30
ENDBRANCH   1  29
TORSDOF 24
