REMARK SMILES Cc1nc(S[C@@H](C(=O)OCCOCCOC(=O)c2ccc(-c3c4nc(c(-c5c(F)cc(S(=O)(=O)[O-])cc5F)c5ccc([nH]5)c(-c5c(F)cc(S(=O)(=O)[O-])cc5F)c5nc(c(-c6c(F)cc(S(=O)(=O)[O-])cc6F)c6ccc3[nH]6)C=C5)C=C4)cc2)c2ccccc2)nc2ccccc12
REMARK SMILES IDX 13 1 12 2 11 3 10 4 9 5 7 6 8 7 6 8 5 9 4 10 1 11 2 12 3 13
REMARK SMILES IDX 96 14 91 15 95 16 90 17 92 18 94 19 93 20 84 21 85 22 89 23
REMARK SMILES IDX 86 24 88 25 87 26 14 27 15 28 16 29 17 30 18 31 19 32 83 33
REMARK SMILES IDX 20 34 82 35 21 36 22 37 23 38 76 39 24 40 81 41 75 42 77 43
REMARK SMILES IDX 25 44 80 45 74 46 73 47 26 49 60 50 39 51 59 52 40 53 43 54
REMARK SMILES IDX 58 55 78 56 41 57 42 58 57 60 79 61 44 62 27 63 28 64 37 65
REMARK SMILES IDX 29 66 30 67 36 68 38 69 31 70 32 71 33 72 34 73 35 74 61 75
REMARK SMILES IDX 62 76 71 77 63 78 64 79 70 80 72 81 65 82 66 83 67 84 68 85
REMARK SMILES IDX 69 86 45 87 46 88 55 89 47 90 48 91 54 92 56 93 49 94 50 95
REMARK SMILES IDX 51 96 52 97 53 98
REMARK H PARENT 77 48 43 59
REMARK Flexibility Score: inf
ROOT
ATOM      1  C   UNL     1       3.204   1.798   0.698  1.00  0.00     0.202 C 
ENDROOT
BRANCH   1   2
ATOM      2  O   UNL     1       4.381   2.542   0.428  1.00  0.00    -0.374 OA
BRANCH   2   3
ATOM      3  C   UNL     1       4.826   3.477   1.403  1.00  0.00     0.202 C 
BRANCH   3   4
ATOM      4  C   UNL     1       3.886   4.598   1.880  1.00  0.00     0.261 C 
BRANCH   4   5
ATOM      5  O   UNL     1       2.530   4.218   2.213  1.00  0.00    -0.462 OA
BRANCH   5   6
ATOM      6  C   UNL     1       1.591   4.647   1.318  1.00  0.00     0.324 C 
ATOM      7  O   UNL     1       1.905   5.208   0.266  1.00  0.00    -0.251 OA
BRANCH   6   8
ATOM      8  C   UNL     1       0.122   4.527   1.757  1.00  0.00     0.194 C 
BRANCH   8   9
ATOM      9  S   UNL     1      -0.287   3.515   3.213  1.00  0.00    -0.066 SA
BRANCH   9  10
ATOM     10  C   UNL     1      -0.328   1.806   2.761  1.00  0.00     0.189 A 
ATOM     11  C   UNL     1       0.385  -0.332  -0.111  1.00  0.00     0.067 C 
ATOM     12  C   UNL     1      -0.026   0.067   1.279  1.00  0.00     0.050 A 
ATOM     13  N   UNL     1       0.029   1.399   1.541  1.00  0.00    -0.227 NA
ATOM     14  C   UNL     1      -0.359  -0.884   2.248  1.00  0.00     0.022 A 
ATOM     15  C   UNL     1      -0.712  -0.350   3.491  1.00  0.00     0.075 A 
ATOM     16  C   UNL     1      -0.341  -2.289   2.058  1.00  0.00     0.012 A 
ATOM     17  N   UNL     1      -0.711   0.968   3.739  1.00  0.00    -0.222 NA
ATOM     18  C   UNL     1      -1.064  -1.235   4.507  1.00  0.00     0.029 A 
ATOM     19  C   UNL     1      -0.684  -3.152   3.095  1.00  0.00     0.001 A 
ATOM     20  C   UNL     1      -1.054  -2.622   4.323  1.00  0.00     0.002 A 
ENDBRANCH   9  10
ENDBRANCH   8   9
BRANCH   8  21
ATOM     21  C   UNL     1      -0.841   4.600   0.562  1.00  0.00    -0.023 A 
ATOM     22  C   UNL     1      -1.415   3.496  -0.075  1.00  0.00     0.005 A 
ATOM     23  C   UNL     1      -1.020   5.853  -0.063  1.00  0.00     0.005 A 
ATOM     24  C   UNL     1      -2.068   3.608  -1.306  1.00  0.00     0.000 A 
ATOM     25  C   UNL     1      -1.685   5.974  -1.287  1.00  0.00     0.000 A 
ATOM     26  C   UNL     1      -2.192   4.846  -1.919  1.00  0.00     0.000 A 
ENDBRANCH   8  21
ENDBRANCH   6   8
ENDBRANCH   5   6
ENDBRANCH   4   5
ENDBRANCH   3   4
ENDBRANCH   2   3
ENDBRANCH   1   2
BRANCH   1  27
ATOM     27  C   UNL     1       3.138   0.924   1.954  1.00  0.00     0.261 C 
BRANCH  27  28
ATOM     28  O   UNL     1       3.913   1.364   3.050  1.00  0.00    -0.460 OA
BRANCH  28  29
ATOM     29  C   UNL     1       4.828   0.479   3.489  1.00  0.00     0.338 C 
ATOM     30  O   UNL     1       5.118  -0.613   3.041  1.00  0.00    -0.246 OA
BRANCH  29  31
ATOM     31  C   UNL     1       5.474   1.143   4.615  1.00  0.00     0.060 A 
ATOM     32  C   UNL     1       4.739   1.388   5.778  1.00  0.00     0.016 A 
ATOM     33  C   UNL     1       6.793   1.569   4.467  1.00  0.00     0.016 A 
ATOM     34  C   UNL     1       5.351   2.058   6.827  1.00  0.00     0.010 A 
ATOM     35  C   UNL     1       7.407   2.224   5.525  1.00  0.00     0.010 A 
ATOM     36  C   UNL     1       6.694   2.452   6.713  1.00  0.00    -0.014 A 
BRANCH  36  37
ATOM     37  C   UNL     1       7.401   2.990   7.890  1.00  0.00     0.031 A 
ATOM     38  C   UNL     1       7.772   4.435   7.967  1.00  0.00     0.074 A 
ATOM     39  C   UNL     1       7.727   2.121   8.865  1.00  0.00     0.049 A 
ATOM     40  N   UNL     1       8.401   5.065   8.922  1.00  0.00    -0.248 NA
ATOM     41  C   UNL     1       7.403   5.282   6.822  1.00  0.00     0.031 C 
ATOM     42  C   UNL     1       7.423   0.686   8.845  1.00  0.00     0.029 A 
ATOM     43  N   UNL     1       8.377   2.308  10.053  1.00  0.00    -0.354 N 
ATOM     44  C   UNL     1       8.496   6.385   8.504  1.00  0.00     0.074 A 
ATOM     45  C   UNL     1       7.902   6.456   7.186  1.00  0.00     0.031 C 
ATOM     46  C   UNL     1       7.859   0.130   9.984  1.00  0.00     0.029 A 
ATOM     47  C   UNL     1       8.508   1.156  10.791  1.00  0.00     0.049 A 
ATOM     48  H   UNL     1       8.717   3.182  10.351  1.00  0.00     0.167 HD
ATOM     49  C   UNL     1       9.018   7.437   9.177  1.00  0.00     0.037 A 
ATOM     50  C   UNL     1       9.092   0.953  11.985  1.00  0.00     0.037 A 
ATOM     51  C   UNL     1       9.609   7.329  10.486  1.00  0.00     0.049 A 
ATOM     52  C   UNL     1       9.704   2.130  12.688  1.00  0.00     0.074 A 
ATOM     53  C   UNL     1      10.141   8.332  11.275  1.00  0.00     0.029 A 
ATOM     54  N   UNL     1       9.754   6.143  11.195  1.00  0.00    -0.354 N 
ATOM     55  N   UNL     1       9.737   3.386  12.308  1.00  0.00    -0.248 NA
ATOM     56  C   UNL     1      10.362   1.869  13.974  1.00  0.00     0.031 C 
ATOM     57  C   UNL     1      10.651   7.747  12.438  1.00  0.00     0.029 A 
ATOM     58  C   UNL     1      10.394   6.385  12.399  1.00  0.00     0.049 A 
ATOM     59  H   UNL     1       9.447   5.260  10.887  1.00  0.00     0.167 HD
ATOM     60  C   UNL     1      10.409   4.069  13.313  1.00  0.00     0.074 A 
ATOM     61  C   UNL     1      10.748   3.089  14.326  1.00  0.00     0.031 C 
ATOM     62  C   UNL     1      10.723   5.386  13.388  1.00  0.00     0.037 A 
BRANCH  49  63
ATOM     63  C   UNL     1       8.969   8.788   8.520  1.00  0.00     0.058 A 
ATOM     64  C   UNL     1       7.758   9.482   8.366  1.00  0.00     0.135 A 
ATOM     65  C   UNL     1      10.146   9.423   8.091  1.00  0.00     0.135 A 
ATOM     66  F   UNL     1       6.601   8.916   8.744  1.00  0.00    -0.206 F 
ATOM     67  C   UNL     1       7.713  10.750   7.795  1.00  0.00     0.059 A 
ATOM     68  C   UNL     1      10.127  10.702   7.540  1.00  0.00     0.059 A 
ATOM     69  F   UNL     1      11.330   8.804   8.211  1.00  0.00    -0.206 F 
ATOM     70  C   UNL     1       8.904  11.354   7.388  1.00  0.00     0.060 A 
BRANCH  70  71
ATOM     71  S   UNL     1       8.824  13.005   6.663  1.00  0.00     0.124 S 
ATOM     72  O   UNL     1       8.159  12.733   5.392  1.00  0.00    -0.237 OA
ATOM     73  O   UNL     1       8.034  13.737   7.647  1.00  0.00    -0.237 OA
ATOM     74  O   UNL     1      10.224  13.403   6.564  1.00  0.00    -0.744 OA
ENDBRANCH  70  71
ENDBRANCH  49  63
BRANCH  50  75
ATOM     75  C   UNL     1       9.091  -0.406  12.584  1.00  0.00     0.058 A 
ATOM     76  C   UNL     1       8.298  -0.695  13.703  1.00  0.00     0.135 A 
ATOM     77  C   UNL     1       9.830  -1.457  12.016  1.00  0.00     0.135 A 
ATOM     78  F   UNL     1       7.572   0.276  14.279  1.00  0.00    -0.206 F 
ATOM     79  C   UNL     1       8.241  -1.974  14.244  1.00  0.00     0.059 A 
ATOM     80  C   UNL     1       9.770  -2.751  12.524  1.00  0.00     0.059 A 
ATOM     81  F   UNL     1      10.588  -1.237  10.931  1.00  0.00    -0.206 F 
ATOM     82  C   UNL     1       8.976  -2.998  13.643  1.00  0.00     0.060 A 
BRANCH  82  83
ATOM     83  S   UNL     1       8.846  -4.666  14.323  1.00  0.00     0.124 S 
ATOM     84  O   UNL     1       9.534  -4.517  15.600  1.00  0.00    -0.237 OA
ATOM     85  O   UNL     1       7.401  -4.853  14.394  1.00  0.00    -0.237 OA
ATOM     86  O   UNL     1       9.530  -5.489  13.330  1.00  0.00    -0.744 OA
ENDBRANCH  82  83
ENDBRANCH  50  75
BRANCH  62  87
ATOM     87  C   UNL     1      11.477   5.847  14.602  1.00  0.00     0.058 A 
ATOM     88  C   UNL     1      12.842   5.565  14.759  1.00  0.00     0.135 A 
ATOM     89  C   UNL     1      10.855   6.658  15.564  1.00  0.00     0.135 A 
ATOM     90  F   UNL     1      13.479   4.784  13.872  1.00  0.00    -0.206 F 
ATOM     91  C   UNL     1      13.567   6.073  15.830  1.00  0.00     0.059 A 
ATOM     92  C   UNL     1      11.567   7.199  16.629  1.00  0.00     0.059 A 
ATOM     93  F   UNL     1       9.552   6.960  15.454  1.00  0.00    -0.206 F 
ATOM     94  C   UNL     1      12.923   6.900  16.753  1.00  0.00     0.060 A 
BRANCH  94  95
ATOM     95  S   UNL     1      13.899   7.613  18.094  1.00  0.00     0.124 S 
ATOM     96  O   UNL     1      14.182   6.437  18.911  1.00  0.00    -0.237 OA
ATOM     97  O   UNL     1      15.040   8.177  17.379  1.00  0.00    -0.237 OA
ATOM     98  O   UNL     1      12.995   8.590  18.692  1.00  0.00    -0.744 OA
ENDBRANCH  94  95
ENDBRANCH  62  87
ENDBRANCH  36  37
ENDBRANCH  29  31
ENDBRANCH  28  29
ENDBRANCH  27  28
ENDBRANCH   1  27
TORSDOF 20
