REMARK SMILES CC(=O)Nc1cc(NC(C)=O)cc(C(=O)Nc2ccc(Br)cc2C(=O)OCCOCCOC(=O)c2ccc(-c3c4nc(c(-c5c(F)cc(S(=O)(=O)[O-])cc5F)c5ccc([nH]5)c(-c5c(F)cc(S(=O)(=O)[O-])cc5F)c5nc(c(-c6c(F)cc(S(=O)(=O)[O-])cc6F)c6ccc3[nH]6)C=C5)C=C4)cc2)c1
REMARK SMILES IDX 29 1 28 2 27 3 26 4 24 5 25 6 23 7 17 8 18 9 19 10 22 11
REMARK SMILES IDX 20 12 21 13 16 14 14 15 15 16 13 18 5 19 6 20 101 21 7 22
REMARK SMILES IDX 12 23 4 24 1 25 2 26 3 27 8 29 9 30 10 32 11 33 30 34 31 35
REMARK SMILES IDX 32 36 33 37 34 38 35 39 36 40 100 41 37 42 99 43 38 44 39 45
REMARK SMILES IDX 40 46 93 47 41 48 98 49 92 50 94 51 42 52 97 53 91 54 90 55
REMARK SMILES IDX 43 57 77 58 56 59 76 60 57 61 60 62 75 63 95 64 58 65 59 66
REMARK SMILES IDX 74 68 96 69 61 70 44 71 45 72 54 73 46 74 47 75 53 76 55 77
REMARK SMILES IDX 48 78 49 79 50 80 51 81 52 82 78 83 79 84 88 85 80 86 81 87
REMARK SMILES IDX 87 88 89 89 82 90 83 91 84 92 85 93 86 94 62 95 63 96 72 97
REMARK SMILES IDX 64 98 65 99 71 100 73 101 66 102 67 103 68 104 69 105 70 106
REMARK H PARENT 16 17 4 28 8 31 94 56 60 67
REMARK Flexibility Score: inf
ROOT
ATOM      1  O   UNL     1       5.260   3.137  -4.540  1.00  0.00    -0.374 OA
ENDROOT
BRANCH   1   2
ATOM      2  C   UNL     1       5.490   3.985  -3.422  1.00  0.00     0.202 C 
BRANCH   2   3
ATOM      3  C   UNL     1       4.570   3.858  -2.206  1.00  0.00     0.261 C 
BRANCH   3   4
ATOM      4  O   UNL     1       4.598   2.564  -1.577  1.00  0.00    -0.460 OA
BRANCH   4   5
ATOM      5  C   UNL     1       3.461   1.845  -1.736  1.00  0.00     0.340 C 
ATOM      6  O   UNL     1       2.499   2.166  -2.421  1.00  0.00    -0.246 OA
BRANCH   5   7
ATOM      7  C   UNL     1       3.550   0.502  -1.116  1.00  0.00     0.084 A 
ATOM      8  C   UNL     1       4.147   0.174   0.116  1.00  0.00     0.056 A 
ATOM      9  C   UNL     1       4.244  -1.190   0.460  1.00  0.00     0.028 A 
ATOM     10  C   UNL     1       3.666  -2.189  -0.329  1.00  0.00     0.018 A 
ATOM     11  C   UNL     1       2.965  -0.515  -1.903  1.00  0.00     0.033 A 
ATOM     12  C   UNL     1       3.010  -1.843  -1.500  1.00  0.00     0.018 A 
ATOM     13  Br  UNL     1       2.167  -3.172  -2.543  1.00  0.00    -0.051 Br
BRANCH   8  14
ATOM     14  N   UNL     1       4.622   1.046   1.122  1.00  0.00    -0.321 N 
ATOM     15  C   UNL     1       4.251   2.303   1.548  1.00  0.00     0.255 C 
ATOM     16  O   UNL     1       4.969   2.896   2.352  1.00  0.00    -0.269 OA
ATOM     17  H   UNL     1       5.382   0.675   1.626  1.00  0.00     0.170 HD
BRANCH  15  18
ATOM     18  C   UNL     1       2.987   2.945   1.125  1.00  0.00     0.044 A 
ATOM     19  C   UNL     1       0.804   2.767   0.127  1.00  0.00     0.044 A 
ATOM     20  C   UNL     1       0.862   4.143  -0.167  1.00  0.00     0.052 A 
ATOM     21  C   UNL     1       1.836   2.196   0.861  1.00  0.00     0.040 A 
ATOM     22  C   UNL     1       1.941   4.935   0.240  1.00  0.00     0.044 A 
ATOM     23  C   UNL     1       3.009   4.324   0.893  1.00  0.00     0.040 A 
BRANCH  19  24
ATOM     24  N   UNL     1      -0.206   2.029  -0.525  1.00  0.00    -0.326 N 
ATOM     25  C   UNL     1      -0.157  -0.205   0.595  1.00  0.00     0.114 C 
ATOM     26  C   UNL     1      -0.572   0.717  -0.514  1.00  0.00     0.221 C 
ATOM     27  O   UNL     1      -1.293   0.295  -1.424  1.00  0.00    -0.275 OA
ATOM     28  H   UNL     1      -0.768   2.582  -1.115  1.00  0.00     0.169 HD
ENDBRANCH  19  24
BRANCH  22  29
ATOM     29  N   UNL     1       2.065   6.314  -0.033  1.00  0.00    -0.326 N 
ATOM     30  C   UNL     1       1.205   7.105  -0.771  1.00  0.00     0.221 C 
ATOM     31  H   UNL     1       2.854   6.764   0.346  1.00  0.00     0.169 HD
ATOM     32  C   UNL     1       1.656   8.542  -0.868  1.00  0.00     0.114 C 
ATOM     33  O   UNL     1       0.171   6.744  -1.325  1.00  0.00    -0.275 OA
ENDBRANCH  22  29
ENDBRANCH  15  18
ENDBRANCH   8  14
ENDBRANCH   5   7
ENDBRANCH   4   5
ENDBRANCH   3   4
ENDBRANCH   2   3
ENDBRANCH   1   2
BRANCH   1  34
ATOM     34  C   UNL     1       5.449   1.735  -4.388  1.00  0.00     0.202 C 
BRANCH  34  35
ATOM     35  C   UNL     1       6.859   1.203  -4.102  1.00  0.00     0.261 C 
BRANCH  35  36
ATOM     36  O   UNL     1       7.465   1.729  -2.909  1.00  0.00    -0.460 OA
BRANCH  36  37
ATOM     37  C   UNL     1       8.518   2.550  -3.142  1.00  0.00     0.338 C 
ATOM     38  O   UNL     1       8.966   2.878  -4.233  1.00  0.00    -0.246 OA
BRANCH  37  39
ATOM     39  C   UNL     1       9.018   3.152  -1.895  1.00  0.00     0.060 A 
ATOM     40  C   UNL     1       9.046   4.550  -1.814  1.00  0.00     0.016 A 
ATOM     41  C   UNL     1       9.624   2.369  -0.911  1.00  0.00     0.016 A 
ATOM     42  C   UNL     1       9.744   5.174  -0.783  1.00  0.00     0.010 A 
ATOM     43  C   UNL     1      10.334   2.998   0.118  1.00  0.00     0.010 A 
ATOM     44  C   UNL     1      10.440   4.400   0.155  1.00  0.00    -0.014 A 
BRANCH  44  45
ATOM     45  C   UNL     1      11.429   5.061   1.041  1.00  0.00     0.031 A 
ATOM     46  C   UNL     1      12.881   5.058   0.637  1.00  0.00     0.074 A 
ATOM     47  C   UNL     1      11.037   5.700   2.157  1.00  0.00     0.049 A 
ATOM     48  N   UNL     1      13.916   5.563   1.256  1.00  0.00    -0.248 NA
ATOM     49  C   UNL     1      13.207   4.397  -0.638  1.00  0.00     0.031 C 
ATOM     50  C   UNL     1       9.658   5.805   2.630  1.00  0.00     0.029 A 
ATOM     51  N   UNL     1      11.769   6.381   3.096  1.00  0.00    -0.354 N 
ATOM     52  C   UNL     1      15.015   5.279   0.453  1.00  0.00     0.074 A 
ATOM     53  C   UNL     1      14.525   4.534  -0.687  1.00  0.00     0.031 C 
ATOM     54  C   UNL     1       9.644   6.505   3.778  1.00  0.00     0.029 A 
ATOM     55  C   UNL     1      11.014   6.875   4.132  1.00  0.00     0.049 A 
ATOM     56  H   UNL     1      12.744   6.504   3.034  1.00  0.00     0.167 HD
ATOM     57  C   UNL     1      16.313   5.615   0.642  1.00  0.00     0.037 A 
ATOM     58  C   UNL     1      11.389   7.536   5.244  1.00  0.00     0.037 A 
ATOM     59  C   UNL     1      16.797   6.360   1.774  1.00  0.00     0.049 A 
ATOM     60  C   UNL     1      12.845   7.859   5.457  1.00  0.00     0.074 A 
ATOM     61  C   UNL     1      18.094   6.750   2.059  1.00  0.00     0.029 A 
ATOM     62  N   UNL     1      16.002   6.829   2.809  1.00  0.00    -0.354 N 
ATOM     63  N   UNL     1      13.872   7.587   4.686  1.00  0.00    -0.248 NA
ATOM     64  C   UNL     1      13.194   8.583   6.688  1.00  0.00     0.031 C 
ATOM     65  C   UNL     1      18.088   7.427   3.284  1.00  0.00     0.029 A 
ATOM     66  C   UNL     1      16.782   7.494   3.740  1.00  0.00     0.049 A 
ATOM     67  H   UNL     1      15.027   6.707   2.873  1.00  0.00     0.167 HD
ATOM     68  C   UNL     1      14.982   8.132   5.324  1.00  0.00     0.074 A 
ATOM     69  C   UNL     1      14.500   8.755   6.540  1.00  0.00     0.031 C 
ATOM     70  C   UNL     1      16.282   8.120   4.938  1.00  0.00     0.037 A 
BRANCH  57  71
ATOM     71  C   UNL     1      17.305   5.163  -0.392  1.00  0.00     0.058 A 
ATOM     72  C   UNL     1      17.381   5.769  -1.656  1.00  0.00     0.135 A 
ATOM     73  C   UNL     1      18.213   4.130  -0.104  1.00  0.00     0.135 A 
ATOM     74  F   UNL     1      16.524   6.747  -1.988  1.00  0.00    -0.206 F 
ATOM     75  C   UNL     1      18.308   5.353  -2.607  1.00  0.00     0.059 A 
ATOM     76  C   UNL     1      19.162   3.713  -1.032  1.00  0.00     0.059 A 
ATOM     77  F   UNL     1      18.180   3.515   1.088  1.00  0.00    -0.206 F 
ATOM     78  C   UNL     1      19.193   4.322  -2.286  1.00  0.00     0.060 A 
BRANCH  78  79
ATOM     79  S   UNL     1      20.395   3.795  -3.527  1.00  0.00     0.124 S 
ATOM     80  O   UNL     1      19.550   3.036  -4.444  1.00  0.00    -0.237 OA
ATOM     81  O   UNL     1      20.899   5.066  -4.035  1.00  0.00    -0.237 OA
ATOM     82  O   UNL     1      21.353   3.006  -2.758  1.00  0.00    -0.744 OA
ENDBRANCH  78  79
ENDBRANCH  57  71
BRANCH  58  83
ATOM     83  C   UNL     1      10.370   7.936   6.250  1.00  0.00     0.058 A 
ATOM     84  C   UNL     1      10.021   9.281   6.435  1.00  0.00     0.135 A 
ATOM     85  C   UNL     1       9.729   6.977   7.050  1.00  0.00     0.135 A 
ATOM     86  F   UNL     1      10.614  10.234   5.700  1.00  0.00    -0.206 F 
ATOM     87  C   UNL     1       9.085   9.666   7.389  1.00  0.00     0.059 A 
ATOM     88  C   UNL     1       8.772   7.334   7.994  1.00  0.00     0.059 A 
ATOM     89  F   UNL     1      10.022   5.675   6.905  1.00  0.00    -0.206 F 
ATOM     90  C   UNL     1       8.465   8.684   8.164  1.00  0.00     0.060 A 
BRANCH  90  91
ATOM     91  S   UNL     1       7.215   9.186   9.367  1.00  0.00     0.124 S 
ATOM     92  O   UNL     1       8.042   9.728  10.439  1.00  0.00    -0.237 OA
ATOM     93  O   UNL     1       6.432  10.158   8.610  1.00  0.00    -0.237 OA
ATOM     94  O   UNL     1       6.523   7.937   9.671  1.00  0.00    -0.744 OA
ENDBRANCH  90  91
ENDBRANCH  58  83
BRANCH  70  95
ATOM     95  C   UNL     1      17.270   8.838   5.814  1.00  0.00     0.058 A 
ATOM     96  C   UNL     1      17.694   8.305   7.041  1.00  0.00     0.135 A 
ATOM     97  C   UNL     1      17.832  10.056   5.398  1.00  0.00     0.135 A 
ATOM     98  F   UNL     1      17.183   7.146   7.486  1.00  0.00    -0.206 F 
ATOM     99  C   UNL     1      18.623   8.966   7.838  1.00  0.00     0.059 A 
ATOM    100  C   UNL     1      18.780  10.723   6.167  1.00  0.00     0.059 A 
ATOM    101  F   UNL     1      17.469  10.603   4.227  1.00  0.00    -0.206 F 
ATOM    102  C   UNL     1      19.159  10.177   7.393  1.00  0.00     0.060 A 
BRANCH 102 103
ATOM    103  S   UNL     1      20.381  11.017   8.422  1.00  0.00     0.124 S 
ATOM    104  O   UNL     1      19.537  11.614   9.452  1.00  0.00    -0.237 OA
ATOM    105  O   UNL     1      21.234   9.916   8.861  1.00  0.00    -0.237 OA
ATOM    106  O   UNL     1      21.010  11.958   7.501  1.00  0.00    -0.744 OA
ENDBRANCH 102 103
ENDBRANCH  70  95
ENDBRANCH  44  45
ENDBRANCH  37  39
ENDBRANCH  36  37
ENDBRANCH  35  36
ENDBRANCH  34  35
ENDBRANCH   1  34
TORSDOF 21
