REMARK SMILES O=C(OCCOCCOC(=O)[C@@H]1CC2(CC[NH2+]CC2)C[N@H+]1Cc1cccc2nonc12)c1ccc(-c2c3nc(c(-c4c(F)cc(S(=O)(=O)[O-])cc4F)c4ccc([nH]4)c(-c4c(F)cc(S(=O)(=O)[O-])cc4F)c4nc(c(-c5c(F)cc(S(=O)(=O)[O-])cc5F)c5ccc2[nH]5)C=C4)C=C3)cc1
REMARK SMILES IDX 5 1 4 2 3 3 2 4 1 5 32 6 33 7 97 8 34 9 96 10 35 11 36 12
REMARK SMILES IDX 37 13 90 14 38 15 95 16 89 17 91 18 39 19 94 20 88 21 87 22
REMARK SMILES IDX 40 24 74 25 53 26 73 27 54 28 57 29 72 30 92 31 55 32 56 33
REMARK SMILES IDX 71 35 93 36 58 37 41 38 42 39 51 40 43 41 44 42 50 43 52 44
REMARK SMILES IDX 45 45 46 46 47 47 48 48 49 49 75 50 76 51 85 52 77 53 78 54
REMARK SMILES IDX 84 55 86 56 79 57 80 58 81 59 82 60 83 61 59 62 60 63 69 64
REMARK SMILES IDX 61 65 62 66 68 67 70 68 63 69 64 70 65 71 66 72 67 73 6 74
REMARK SMILES IDX 7 75 8 76 9 77 10 78 11 79 12 80 13 81 21 82 14 83 20 84
REMARK SMILES IDX 15 86 19 87 16 88 18 89 17 90 22 93 23 94 24 95 31 96 25 97
REMARK SMILES IDX 27 98 30 99 26 100 28 101 29 102
REMARK H PARENT 91 23 57 34 21 85 17 91 17 92
REMARK Flexibility Score: inf
ROOT
ATOM      1  C   UNL     1       5.161  -0.240  -0.461  1.00  0.00     0.202 C 
ENDROOT
BRANCH   1   2
ATOM      2  C   UNL     1       5.390   0.538   0.842  1.00  0.00     0.261 C 
BRANCH   2   3
ATOM      3  O   UNL     1       4.162   0.964   1.484  1.00  0.00    -0.460 OA
BRANCH   3   4
ATOM      4  C   UNL     1       3.675   2.227   1.588  1.00  0.00     0.338 C 
ATOM      5  O   UNL     1       3.170   2.632   2.630  1.00  0.00    -0.246 OA
BRANCH   4   6
ATOM      6  C   UNL     1       3.468   2.989   0.337  1.00  0.00     0.060 A 
ATOM      7  C   UNL     1       2.207   3.543   0.048  1.00  0.00     0.016 A 
ATOM      8  C   UNL     1       4.498   3.185  -0.557  1.00  0.00     0.016 A 
ATOM      9  C   UNL     1       1.970   4.211  -1.169  1.00  0.00     0.010 A 
ATOM     10  C   UNL     1       4.242   3.781  -1.781  1.00  0.00     0.010 A 
ATOM     11  C   UNL     1       2.990   4.320  -2.119  1.00  0.00    -0.014 A 
BRANCH  11  12
ATOM     12  C   UNL     1       2.863   5.132  -3.368  1.00  0.00     0.031 A 
ATOM     13  C   UNL     1       4.201   5.413  -4.028  1.00  0.00     0.074 A 
ATOM     14  C   UNL     1       1.749   5.088  -4.135  1.00  0.00     0.049 A 
ATOM     15  N   UNL     1       4.833   4.654  -4.880  1.00  0.00    -0.248 NA
ATOM     16  C   UNL     1       5.058   6.432  -3.400  1.00  0.00     0.031 C 
ATOM     17  C   UNL     1       1.434   3.958  -5.015  1.00  0.00     0.029 A 
ATOM     18  N   UNL     1       1.100   6.165  -4.727  1.00  0.00    -0.354 N 
ATOM     19  C   UNL     1       6.171   5.054  -4.862  1.00  0.00     0.074 A 
ATOM     20  C   UNL     1       6.262   6.127  -3.897  1.00  0.00     0.031 C 
ATOM     21  C   UNL     1       0.770   4.414  -6.096  1.00  0.00     0.029 A 
ATOM     22  C   UNL     1       0.618   5.866  -6.000  1.00  0.00     0.049 A 
ATOM     23  H   UNL     1       0.993   7.043  -4.295  1.00  0.00     0.167 HD
ATOM     24  C   UNL     1       7.160   4.510  -5.623  1.00  0.00     0.037 A 
ATOM     25  C   UNL     1       0.590   6.745  -7.047  1.00  0.00     0.037 A 
ATOM     26  C   UNL     1       6.732   3.595  -6.633  1.00  0.00     0.049 A 
ATOM     27  C   UNL     1       1.860   6.368  -7.775  1.00  0.00     0.074 A 
ATOM     28  C   UNL     1       6.730   2.242  -6.888  1.00  0.00     0.029 A 
ATOM     29  N   UNL     1       6.172   4.150  -7.761  1.00  0.00    -0.354 N 
ATOM     30  N   UNL     1       2.055   5.344  -8.564  1.00  0.00    -0.248 NA
ATOM     31  C   UNL     1       3.088   6.984  -7.267  1.00  0.00     0.031 C 
ATOM     32  C   UNL     1       5.740   2.052  -7.907  1.00  0.00     0.029 A 
ATOM     33  C   UNL     1       5.184   3.301  -8.180  1.00  0.00     0.049 A 
ATOM     34  H   UNL     1       6.433   4.998  -8.186  1.00  0.00     0.167 HD
ATOM     35  C   UNL     1       3.406   5.009  -8.407  1.00  0.00     0.074 A 
ATOM     36  C   UNL     1       3.992   6.093  -7.646  1.00  0.00     0.031 C 
ATOM     37  C   UNL     1       3.930   3.784  -8.718  1.00  0.00     0.037 A 
BRANCH  24  38
ATOM     38  C   UNL     1       8.554   5.016  -5.667  1.00  0.00     0.058 A 
ATOM     39  C   UNL     1       8.891   5.917  -6.689  1.00  0.00     0.135 A 
ATOM     40  C   UNL     1       9.591   4.487  -4.888  1.00  0.00     0.135 A 
ATOM     41  F   UNL     1       7.924   6.449  -7.456  1.00  0.00    -0.206 F 
ATOM     42  C   UNL     1      10.209   6.235  -6.977  1.00  0.00     0.059 A 
ATOM     43  C   UNL     1      10.926   4.802  -5.151  1.00  0.00     0.059 A 
ATOM     44  F   UNL     1       9.321   3.624  -3.895  1.00  0.00    -0.206 F 
ATOM     45  C   UNL     1      11.224   5.654  -6.218  1.00  0.00     0.060 A 
BRANCH  45  46
ATOM     46  S   UNL     1      12.931   6.003  -6.693  1.00  0.00     0.124 S 
ATOM     47  O   UNL     1      12.995   5.426  -8.031  1.00  0.00    -0.237 OA
ATOM     48  O   UNL     1      12.969   7.461  -6.628  1.00  0.00    -0.237 OA
ATOM     49  O   UNL     1      13.717   5.314  -5.674  1.00  0.00    -0.744 OA
ENDBRANCH  45  46
ENDBRANCH  24  38
BRANCH  25  50
ATOM     50  C   UNL     1       0.189   8.160  -6.742  1.00  0.00     0.058 A 
ATOM     51  C   UNL     1      -0.985   8.367  -5.989  1.00  0.00     0.135 A 
ATOM     52  C   UNL     1       0.915   9.316  -7.075  1.00  0.00     0.135 A 
ATOM     53  F   UNL     1      -1.829   7.347  -5.759  1.00  0.00    -0.206 F 
ATOM     54  C   UNL     1      -1.291   9.593  -5.410  1.00  0.00     0.059 A 
ATOM     55  C   UNL     1       0.645  10.554  -6.488  1.00  0.00     0.059 A 
ATOM     56  F   UNL     1       1.937   9.269  -7.941  1.00  0.00    -0.206 F 
ATOM     57  C   UNL     1      -0.426  10.664  -5.607  1.00  0.00     0.060 A 
BRANCH  57  58
ATOM     58  S   UNL     1      -0.664  12.146  -4.607  1.00  0.00     0.124 S 
ATOM     59  O   UNL     1      -2.002  12.573  -5.003  1.00  0.00    -0.237 OA
ATOM     60  O   UNL     1      -0.542  11.604  -3.256  1.00  0.00    -0.237 OA
ATOM     61  O   UNL     1       0.427  13.018  -5.027  1.00  0.00    -0.744 OA
ENDBRANCH  57  58
ENDBRANCH  25  50
BRANCH  37  62
ATOM     62  C   UNL     1       3.033   2.856  -9.464  1.00  0.00     0.058 A 
ATOM     63  C   UNL     1       2.663   3.152 -10.783  1.00  0.00     0.135 A 
ATOM     64  C   UNL     1       2.585   1.643  -8.914  1.00  0.00     0.135 A 
ATOM     65  F   UNL     1       3.080   4.288 -11.366  1.00  0.00    -0.206 F 
ATOM     66  C   UNL     1       1.895   2.273 -11.536  1.00  0.00     0.059 A 
ATOM     67  C   UNL     1       1.843   0.733  -9.661  1.00  0.00     0.059 A 
ATOM     68  F   UNL     1       2.880   1.311  -7.646  1.00  0.00    -0.206 F 
ATOM     69  C   UNL     1       1.502   1.058 -10.972  1.00  0.00     0.060 A 
BRANCH  69  70
ATOM     70  S   UNL     1       0.591  -0.111 -11.999  1.00  0.00     0.124 S 
ATOM     71  O   UNL     1      -0.702   0.549 -12.139  1.00  0.00    -0.237 OA
ATOM     72  O   UNL     1       1.409  -0.166 -13.208  1.00  0.00    -0.237 OA
ATOM     73  O   UNL     1       0.585  -1.335 -11.202  1.00  0.00    -0.744 OA
ENDBRANCH  69  70
ENDBRANCH  37  62
ENDBRANCH  11  12
ENDBRANCH   4   6
ENDBRANCH   3   4
ENDBRANCH   2   3
ENDBRANCH   1   2
BRANCH   1  74
ATOM     74  O   UNL     1       5.152   0.584  -1.626  1.00  0.00    -0.374 OA
BRANCH  74  75
ATOM     75  C   UNL     1       3.917   0.607  -2.355  1.00  0.00     0.202 C 
BRANCH  75  76
ATOM     76  C   UNL     1       3.740  -0.511  -3.373  1.00  0.00     0.261 C 
BRANCH  76  77
ATOM     77  O   UNL     1       3.693  -1.781  -2.724  1.00  0.00    -0.459 OA
BRANCH  77  78
ATOM     78  C   UNL     1       4.875  -2.445  -2.663  1.00  0.00     0.365 C 
ATOM     79  O   UNL     1       5.941  -2.034  -3.090  1.00  0.00    -0.245 OA
BRANCH  78  80
ATOM     80  C   UNL     1       4.743  -3.827  -2.036  1.00  0.00     0.296 C 
ATOM     81  C   UNL     1       4.970  -4.832  -3.181  1.00  0.00     0.091 C 
ATOM     82  N   UNL     1       3.414  -4.205  -1.536  1.00  0.00    -0.319 N 
ATOM     83  C   UNL     1       3.595  -5.506  -3.384  1.00  0.00     0.036 C 
ATOM     84  C   UNL     1       3.121  -5.567  -1.928  1.00  0.00     0.270 C 
ATOM     85  H   UNL     1       2.775  -3.562  -2.002  1.00  0.00     0.349 HD
ATOM     86  C   UNL     1       3.719  -6.880  -4.046  1.00  0.00     0.074 C 
ATOM     87  C   UNL     1       2.616  -4.646  -4.241  1.00  0.00     0.074 C 
ATOM     88  C   UNL     1       4.074  -6.750  -5.531  1.00  0.00     0.261 C 
ATOM     89  C   UNL     1       2.994  -4.598  -5.716  1.00  0.00     0.261 C 
ATOM     90  N   UNL     1       3.099  -5.948  -6.266  1.00  0.00    -0.346 N 
ATOM     91  H   UNL     1       2.187  -6.401  -6.208  1.00  0.00     0.346 HD
ATOM     92  H   UNL     1       3.408  -5.877  -7.235  1.00  0.00     0.346 HD
BRANCH  82  93
ATOM     93  C   UNL     1       2.821  -3.641  -0.343  1.00  0.00     0.302 C 
BRANCH  93  94
ATOM     94  C   UNL     1       1.620  -2.792  -0.699  1.00  0.00     0.038 A 
ATOM     95  C   UNL     1       0.636  -3.201  -1.639  1.00  0.00     0.012 A 
ATOM     96  C   UNL     1       1.367  -1.490  -0.219  1.00  0.00     0.144 A 
ATOM     97  C   UNL     1      -0.372  -2.360  -2.181  1.00  0.00     0.003 A 
ATOM     98  C   UNL     1       0.333  -0.619  -0.775  1.00  0.00     0.135 A 
ATOM     99  N   UNL     1       1.972  -0.822   0.769  1.00  0.00    -0.049 NA
ATOM    100  C   UNL     1      -0.529  -1.021  -1.804  1.00  0.00     0.034 A 
ATOM    101  N   UNL     1       0.386   0.557  -0.143  1.00  0.00    -0.050 NA
ATOM    102  O   UNL     1       1.364   0.418   0.822  1.00  0.00    -0.243 OA
ENDBRANCH  93  94
ENDBRANCH  82  93
ENDBRANCH  78  80
ENDBRANCH  77  78
ENDBRANCH  76  77
ENDBRANCH  75  76
ENDBRANCH  74  75
ENDBRANCH   1  74
TORSDOF 19
