REMARK SMILES C[C@]([NH2+]Cc1nc(-c2ccsc2)no1)(C(=O)OCCOCCOC(=O)c1ccc(-c2c3nc(c(-c4c(F)cc(S(=O)(=O)[O-])cc4F)c4ccc([nH]4)c(-c4c(F)cc(S(=O)(=O)[O-])cc4F)c4nc(c(-c5c(F)cc(S(=O)(=O)[O-])cc5F)c5ccc2[nH]5)C=C4)C=C3)cc1)C(F)(F)F
REMARK SMILES IDX 19 1 18 2 17 3 15 4 16 5 2 6 1 7 92 8 93 9 94 10 95 11 3 12
REMARK SMILES IDX 4 15 5 16 6 17 14 18 7 19 13 20 8 21 9 22 12 23 10 24 11 25
REMARK SMILES IDX 20 26 21 27 22 28 23 29 24 30 25 31 26 32 27 33 91 34 28 35
REMARK SMILES IDX 90 36 29 37 30 38 31 39 84 40 32 41 89 42 83 43 85 44 33 45
REMARK SMILES IDX 88 46 82 47 81 48 34 50 68 51 47 52 67 53 48 54 51 55 66 56
REMARK SMILES IDX 86 57 49 58 50 59 65 61 87 62 52 63 35 64 36 65 45 66 37 67
REMARK SMILES IDX 38 68 44 69 46 70 39 71 40 72 41 73 42 74 43 75 69 76 70 77
REMARK SMILES IDX 79 78 71 79 72 80 78 81 80 82 73 83 74 84 75 85 76 86 77 87
REMARK SMILES IDX 53 88 54 89 63 90 55 91 56 92 62 93 64 94 57 95 58 96 59 97
REMARK SMILES IDX 60 98 61 99
REMARK H PARENT 3 13 3 14 85 49 51 60
REMARK Flexibility Score: inf
ROOT
ATOM      1  C   UNL     1      -3.586  -0.156  -0.846  1.00  0.00     0.202 C 
ENDROOT
BRANCH   1   2
ATOM      2  C   UNL     1      -2.812  -1.363  -1.384  1.00  0.00     0.261 C 
BRANCH   2   3
ATOM      3  O   UNL     1      -1.399  -1.276  -1.125  1.00  0.00    -0.458 OA
BRANCH   3   4
ATOM      4  C   UNL     1      -0.616  -1.117  -2.233  1.00  0.00     0.377 C 
ATOM      5  O   UNL     1      -1.048  -1.192  -3.378  1.00  0.00    -0.244 OA
BRANCH   4   6
ATOM      6  C   UNL     1       0.874  -0.924  -1.903  1.00  0.00     0.287 C 
ATOM      7  C   UNL     1       1.545  -2.277  -2.197  1.00  0.00     0.103 C 
BRANCH   6   8
ATOM      8  C   UNL     1       1.336   0.140  -2.935  1.00  0.00     0.455 C 
ATOM      9  F   UNL     1       0.737   1.337  -2.728  1.00  0.00    -0.164 F 
ATOM     10  F   UNL     1       2.676   0.356  -2.824  1.00  0.00    -0.164 F 
ATOM     11  F   UNL     1       1.137  -0.214  -4.221  1.00  0.00    -0.164 F 
ENDBRANCH   6   8
BRANCH   6  12
ATOM     12  N   UNL     1       1.085  -0.551  -0.438  1.00  0.00    -0.317 N 
ATOM     13  H   UNL     1       0.808  -1.342   0.142  1.00  0.00     0.347 HD
ATOM     14  H   UNL     1       0.518   0.277  -0.251  1.00  0.00     0.347 HD
BRANCH  12  15
ATOM     15  C   UNL     1       2.484  -0.206  -0.125  1.00  0.00     0.363 C 
BRANCH  15  16
ATOM     16  C   UNL     1       2.788   0.029   1.320  1.00  0.00     0.282 A 
ATOM     17  N   UNL     1       3.797  -0.435   2.025  1.00  0.00    -0.186 NA
ATOM     18  O   UNL     1       2.026   0.937   1.995  1.00  0.00    -0.333 OA
ATOM     19  C   UNL     1       3.635   0.217   3.222  1.00  0.00     0.203 A 
ATOM     20  N   UNL     1       2.586   1.048   3.274  1.00  0.00    -0.057 NA
BRANCH  19  21
ATOM     21  C   UNL     1       4.585   0.001   4.316  1.00  0.00     0.033 A 
ATOM     22  C   UNL     1       5.914  -0.482   4.101  1.00  0.00     0.024 A 
ATOM     23  C   UNL     1       4.336   0.231   5.652  1.00  0.00     0.077 A 
ATOM     24  C   UNL     1       6.620  -0.604   5.278  1.00  0.00     0.065 A 
ATOM     25  S   UNL     1       5.686  -0.148   6.637  1.00  0.00    -0.152 S 
ENDBRANCH  19  21
ENDBRANCH  15  16
ENDBRANCH  12  15
ENDBRANCH   6  12
ENDBRANCH   4   6
ENDBRANCH   3   4
ENDBRANCH   2   3
ENDBRANCH   1   2
BRANCH   1  26
ATOM     26  O   UNL     1      -3.176   1.133  -1.297  1.00  0.00    -0.374 OA
BRANCH  26  27
ATOM     27  C   UNL     1      -1.970   1.678  -0.762  1.00  0.00     0.202 C 
BRANCH  27  28
ATOM     28  C   UNL     1      -1.978   2.145   0.699  1.00  0.00     0.261 C 
BRANCH  28  29
ATOM     29  O   UNL     1      -2.260   1.085   1.628  1.00  0.00    -0.460 OA
BRANCH  29  30
ATOM     30  C   UNL     1      -3.454   1.203   2.258  1.00  0.00     0.338 C 
ATOM     31  O   UNL     1      -4.248   2.130   2.155  1.00  0.00    -0.246 OA
BRANCH  30  32
ATOM     32  C   UNL     1      -3.796  -0.037   2.979  1.00  0.00     0.060 A 
ATOM     33  C   UNL     1      -5.086  -0.546   2.786  1.00  0.00     0.016 A 
ATOM     34  C   UNL     1      -2.931  -0.628   3.904  1.00  0.00     0.016 A 
ATOM     35  C   UNL     1      -5.551  -1.588   3.582  1.00  0.00     0.010 A 
ATOM     36  C   UNL     1      -3.402  -1.675   4.708  1.00  0.00     0.010 A 
ATOM     37  C   UNL     1      -4.733  -2.116   4.589  1.00  0.00    -0.014 A 
BRANCH  37  38
ATOM     38  C   UNL     1      -5.363  -2.961   5.634  1.00  0.00     0.031 A 
ATOM     39  C   UNL     1      -5.781  -2.311   6.929  1.00  0.00     0.074 A 
ATOM     40  C   UNL     1      -5.645  -4.255   5.404  1.00  0.00     0.049 A 
ATOM     41  N   UNL     1      -6.422  -2.825   7.946  1.00  0.00    -0.248 NA
ATOM     42  C   UNL     1      -5.433  -0.890   7.095  1.00  0.00     0.031 C 
ATOM     43  C   UNL     1      -5.323  -4.986   4.179  1.00  0.00     0.029 A 
ATOM     44  N   UNL     1      -6.284  -5.181   6.191  1.00  0.00    -0.354 N 
ATOM     45  C   UNL     1      -6.551  -1.794   8.872  1.00  0.00     0.074 A 
ATOM     46  C   UNL     1      -5.893  -0.636   8.311  1.00  0.00     0.031 C 
ATOM     47  C   UNL     1      -5.771  -6.248   4.295  1.00  0.00     0.029 A 
ATOM     48  C   UNL     1      -6.400  -6.418   5.604  1.00  0.00     0.049 A 
ATOM     49  H   UNL     1      -6.626  -4.977   7.091  1.00  0.00     0.167 HD
ATOM     50  C   UNL     1      -7.174  -1.806  10.074  1.00  0.00     0.037 A 
ATOM     51  C   UNL     1      -6.954  -7.554   6.071  1.00  0.00     0.037 A 
ATOM     52  C   UNL     1      -7.840  -2.956  10.627  1.00  0.00     0.049 A 
ATOM     53  C   UNL     1      -7.615  -7.552   7.425  1.00  0.00     0.074 A 
ATOM     54  C   UNL     1      -8.515  -3.067  11.830  1.00  0.00     0.029 A 
ATOM     55  N   UNL     1      -7.913  -4.197  10.011  1.00  0.00    -0.354 N 
ATOM     56  N   UNL     1      -7.752  -6.563   8.276  1.00  0.00    -0.248 NA
ATOM     57  C   UNL     1      -8.209  -8.818   7.875  1.00  0.00     0.031 C 
ATOM     58  C   UNL     1      -8.964  -4.386  11.959  1.00  0.00     0.029 A 
ATOM     59  C   UNL     1      -8.608  -5.084  10.816  1.00  0.00     0.049 A 
ATOM     60  H   UNL     1      -7.528  -4.415   9.132  1.00  0.00     0.167 HD
ATOM     61  C   UNL     1      -8.478  -7.078   9.345  1.00  0.00     0.074 A 
ATOM     62  C   UNL     1      -8.754  -8.465   9.031  1.00  0.00     0.031 C 
ATOM     63  C   UNL     1      -8.885  -6.458  10.482  1.00  0.00     0.037 A 
BRANCH  50  64
ATOM     64  C   UNL     1      -7.143  -0.539  10.883  1.00  0.00     0.058 A 
ATOM     65  C   UNL     1      -7.909   0.583  10.530  1.00  0.00     0.135 A 
ATOM     66  C   UNL     1      -6.345  -0.452  12.034  1.00  0.00     0.135 A 
ATOM     67  F   UNL     1      -8.674   0.560   9.426  1.00  0.00    -0.206 F 
ATOM     68  C   UNL     1      -7.865   1.757  11.275  1.00  0.00     0.059 A 
ATOM     69  C   UNL     1      -6.304   0.703  12.809  1.00  0.00     0.059 A 
ATOM     70  F   UNL     1      -5.590  -1.495  12.414  1.00  0.00    -0.206 F 
ATOM     71  C   UNL     1      -7.056   1.808  12.412  1.00  0.00     0.060 A 
BRANCH  71  72
ATOM     72  S   UNL     1      -7.004   3.338  13.370  1.00  0.00     0.124 S 
ATOM     73  O   UNL     1      -6.175   4.186  12.520  1.00  0.00    -0.237 OA
ATOM     74  O   UNL     1      -8.414   3.707  13.451  1.00  0.00    -0.237 OA
ATOM     75  O   UNL     1      -6.395   2.927  14.632  1.00  0.00    -0.744 OA
ENDBRANCH  71  72
ENDBRANCH  50  64
BRANCH  51  76
ATOM     76  C   UNL     1      -6.924  -8.789   5.243  1.00  0.00     0.058 A 
ATOM     77  C   UNL     1      -8.093  -9.301   4.660  1.00  0.00     0.135 A 
ATOM     78  C   UNL     1      -5.725  -9.482   5.022  1.00  0.00     0.135 A 
ATOM     79  F   UNL     1      -9.266  -8.678   4.851  1.00  0.00    -0.206 F 
ATOM     80  C   UNL     1      -8.077 -10.465   3.899  1.00  0.00     0.059 A 
ATOM     81  C   UNL     1      -5.680 -10.636   4.246  1.00  0.00     0.059 A 
ATOM     82  F   UNL     1      -4.577  -9.027   5.549  1.00  0.00    -0.206 F 
ATOM     83  C   UNL     1      -6.864 -11.125   3.696  1.00  0.00     0.060 A 
BRANCH  83  84
ATOM     84  S   UNL     1      -6.842 -12.608   2.664  1.00  0.00     0.124 S 
ATOM     85  O   UNL     1      -7.422 -13.599   3.562  1.00  0.00    -0.237 OA
ATOM     86  O   UNL     1      -7.671 -12.207   1.532  1.00  0.00    -0.237 OA
ATOM     87  O   UNL     1      -5.424 -12.781   2.361  1.00  0.00    -0.744 OA
ENDBRANCH  83  84
ENDBRANCH  51  76
BRANCH  63  88
ATOM     88  C   UNL     1      -9.713  -7.260  11.447  1.00  0.00     0.058 A 
ATOM     89  C   UNL     1      -9.151  -8.267  12.246  1.00  0.00     0.135 A 
ATOM     90  C   UNL     1     -11.084  -6.992  11.596  1.00  0.00     0.135 A 
ATOM     91  F   UNL     1      -7.846  -8.564  12.141  1.00  0.00    -0.206 F 
ATOM     92  C   UNL     1      -9.926  -9.004  13.137  1.00  0.00     0.059 A 
ATOM     93  C   UNL     1     -11.872  -7.699  12.498  1.00  0.00     0.059 A 
ATOM     94  F   UNL     1     -11.668  -6.029  10.866  1.00  0.00    -0.206 F 
ATOM     95  C   UNL     1     -11.287  -8.716  13.252  1.00  0.00     0.060 A 
BRANCH  95  96
ATOM     96  S   UNL     1     -12.284  -9.670  14.416  1.00  0.00     0.124 S 
ATOM     97  O   UNL     1     -12.476 -10.917  13.683  1.00  0.00    -0.237 OA
ATOM     98  O   UNL     1     -11.413  -9.751  15.585  1.00  0.00    -0.237 OA
ATOM     99  O   UNL     1     -13.479  -8.851  14.589  1.00  0.00    -0.744 OA
ENDBRANCH  95  96
ENDBRANCH  63  88
ENDBRANCH  37  38
ENDBRANCH  30  32
ENDBRANCH  29  30
ENDBRANCH  28  29
ENDBRANCH  27  28
ENDBRANCH  26  27
ENDBRANCH   1  26
TORSDOF 22
