REMARK SMILES CCc1cccc2c3c([nH]c12)[C@](CC)(CC(=O)OCCOCCOC(=O)c1ccc(-c2c4nc(c(-c5c(F)cc(S(=O)(=O)[O-])cc5F)c5ccc([nH]5)c(-c5c(F)cc(S(=O)(=O)[O-])cc5F)c5nc(c(-c6c(F)cc(S(=O)(=O)[O-])cc6F)c6ccc2[nH]6)C=C5)C=C4)cc1)OCC3
REMARK SMILES IDX 22 1 21 2 20 3 19 4 18 5 16 6 17 7 15 8 12 9 3 10 4 11 11 12
REMARK SMILES IDX 5 13 7 14 10 15 6 16 8 17 9 18 95 20 94 21 93 22 2 23 1 24
REMARK SMILES IDX 13 25 14 26 23 27 24 28 25 29 26 30 27 31 28 32 92 33 29 34
REMARK SMILES IDX 91 35 30 36 31 37 32 38 85 39 33 40 90 41 84 42 86 43 34 44
REMARK SMILES IDX 89 45 83 46 82 47 35 49 69 50 48 51 68 52 49 53 52 54 67 55
REMARK SMILES IDX 87 56 50 57 51 58 66 60 88 61 53 62 36 63 37 64 46 65 38 66
REMARK SMILES IDX 39 67 45 68 47 69 40 70 41 71 42 72 43 73 44 74 70 75 71 76
REMARK SMILES IDX 80 77 72 78 73 79 79 80 81 81 74 82 75 83 76 84 77 85 78 86
REMARK SMILES IDX 54 87 55 88 64 89 56 90 57 91 63 92 65 93 58 94 59 95 60 96
REMARK SMILES IDX 61 97 62 98
REMARK H PARENT 10 19 86 48 52 59
REMARK Flexibility Score: inf
ROOT
ATOM      1  C   UNL     1       0.261   2.621   6.596  1.00  0.00     0.202 C 
ENDROOT
BRANCH   1   2
ATOM      2  O   UNL     1      -0.125   2.708   7.968  1.00  0.00    -0.374 OA
BRANCH   2   3
ATOM      3  C   UNL     1       0.841   3.170   8.905  1.00  0.00     0.202 C 
BRANCH   3   4
ATOM      4  C   UNL     1       2.020   2.253   9.265  1.00  0.00     0.261 C 
BRANCH   4   5
ATOM      5  O   UNL     1       2.803   1.750   8.162  1.00  0.00    -0.463 OA
BRANCH   5   6
ATOM      6  C   UNL     1       2.489   0.492   7.774  1.00  0.00     0.309 C 
ATOM      7  O   UNL     1       1.489  -0.113   8.161  1.00  0.00    -0.252 OA
BRANCH   6   8
ATOM      8  C   UNL     1       3.537  -0.233   6.967  1.00  0.00     0.164 C 
BRANCH   8   9
ATOM      9  C   UNL     1       4.315   0.295   5.748  1.00  0.00     0.118 C 
ATOM     10  C   UNL     1       1.095   1.359   1.971  1.00  0.00    -0.024 A 
ATOM     11  C   UNL     1       0.715   2.580   1.373  1.00  0.00     0.006 A 
ATOM     12  C   UNL     1       2.075   1.438   2.984  1.00  0.00     0.049 A 
ATOM     13  C   UNL     1       1.348   3.780   1.679  1.00  0.00     0.001 A 
ATOM     14  C   UNL     1       2.768   2.621   3.260  1.00  0.00     0.003 A 
ATOM     15  N   UNL     1       2.557   0.479   3.861  1.00  0.00    -0.356 N 
ATOM     16  C   UNL     1       2.413   3.803   2.580  1.00  0.00     0.010 A 
ATOM     17  C   UNL     1       3.743   2.304   4.238  1.00  0.00    -0.014 A 
ATOM     18  C   UNL     1       3.522   1.015   4.679  1.00  0.00     0.052 A 
ATOM     19  H   UNL     1       2.250  -0.456   3.894  1.00  0.00     0.166 HD
ATOM     20  C   UNL     1       4.856   3.109   4.793  1.00  0.00     0.066 C 
ATOM     21  C   UNL     1       5.223   2.542   6.167  1.00  0.00     0.166 C 
ATOM     22  O   UNL     1       5.436   1.128   6.143  1.00  0.00    -0.368 OA
BRANCH  10  23
ATOM     23  C   UNL     1       0.489   0.072   1.465  1.00  0.00     0.034 C 
ATOM     24  C   UNL     1       0.943  -0.221   0.035  1.00  0.00     0.009 C 
ENDBRANCH  10  23
BRANCH   9  25
ATOM     25  C   UNL     1       5.012  -0.936   5.072  1.00  0.00     0.039 C 
ATOM     26  C   UNL     1       5.956  -1.717   5.987  1.00  0.00     0.007 C 
ENDBRANCH   9  25
ENDBRANCH   8   9
ENDBRANCH   6   8
ENDBRANCH   5   6
ENDBRANCH   4   5
ENDBRANCH   3   4
ENDBRANCH   2   3
ENDBRANCH   1   2
BRANCH   1  27
ATOM     27  C   UNL     1       0.824   3.889   5.946  1.00  0.00     0.261 C 
BRANCH  27  28
ATOM     28  O   UNL     1       2.128   4.184   6.463  1.00  0.00    -0.460 OA
BRANCH  28  29
ATOM     29  C   UNL     1       2.506   5.481   6.298  1.00  0.00     0.338 C 
ATOM     30  O   UNL     1       2.238   6.221   5.383  1.00  0.00    -0.246 OA
BRANCH  29  31
ATOM     31  C   UNL     1       2.934   5.898   7.646  1.00  0.00     0.060 A 
ATOM     32  C   UNL     1       4.034   5.312   8.274  1.00  0.00     0.016 A 
ATOM     33  C   UNL     1       2.006   6.661   8.364  1.00  0.00     0.016 A 
ATOM     34  C   UNL     1       4.148   5.405   9.654  1.00  0.00     0.010 A 
ATOM     35  C   UNL     1       2.115   6.742   9.744  1.00  0.00     0.010 A 
ATOM     36  C   UNL     1       3.163   6.080  10.390  1.00  0.00    -0.014 A 
BRANCH  36  37
ATOM     37  C   UNL     1       3.378   6.238  11.828  1.00  0.00     0.031 A 
ATOM     38  C   UNL     1       4.508   7.146  12.167  1.00  0.00     0.074 A 
ATOM     39  C   UNL     1       2.545   5.788  12.787  1.00  0.00     0.049 A 
ATOM     40  N   UNL     1       5.552   6.911  12.893  1.00  0.00    -0.248 NA
ATOM     41  C   UNL     1       4.511   8.468  11.517  1.00  0.00     0.031 C 
ATOM     42  C   UNL     1       1.227   5.178  12.605  1.00  0.00     0.029 A 
ATOM     43  N   UNL     1       2.652   5.900  14.145  1.00  0.00    -0.354 N 
ATOM     44  C   UNL     1       6.246   8.118  12.949  1.00  0.00     0.074 A 
ATOM     45  C   UNL     1       5.651   8.986  11.968  1.00  0.00     0.031 C 
ATOM     46  C   UNL     1       0.575   5.174  13.789  1.00  0.00     0.029 A 
ATOM     47  C   UNL     1       1.460   5.683  14.825  1.00  0.00     0.049 A 
ATOM     48  H   UNL     1       3.498   6.115  14.601  1.00  0.00     0.167 HD
ATOM     49  C   UNL     1       7.121   8.413  13.946  1.00  0.00     0.037 A 
ATOM     50  C   UNL     1       1.194   5.988  16.121  1.00  0.00     0.037 A 
ATOM     51  C   UNL     1       7.570   7.239  14.639  1.00  0.00     0.049 A 
ATOM     52  C   UNL     1       2.491   6.141  16.828  1.00  0.00     0.074 A 
ATOM     53  C   UNL     1       8.262   6.100  14.282  1.00  0.00     0.029 A 
ATOM     54  N   UNL     1       7.037   6.991  15.878  1.00  0.00    -0.354 N 
ATOM     55  N   UNL     1       3.325   5.170  17.075  1.00  0.00    -0.248 NA
ATOM     56  C   UNL     1       3.029   7.483  17.004  1.00  0.00     0.031 C 
ATOM     57  C   UNL     1       7.769   5.073  15.135  1.00  0.00     0.029 A 
ATOM     58  C   UNL     1       6.811   5.643  15.975  1.00  0.00     0.049 A 
ATOM     59  H   UNL     1       6.850   7.662  16.574  1.00  0.00     0.167 HD
ATOM     60  C   UNL     1       4.577   5.762  17.048  1.00  0.00     0.074 A 
ATOM     61  C   UNL     1       4.324   7.193  17.140  1.00  0.00     0.031 C 
ATOM     62  C   UNL     1       5.683   5.058  16.670  1.00  0.00     0.037 A 
BRANCH  49  63
ATOM     63  C   UNL     1       7.301   9.804  14.505  1.00  0.00     0.058 A 
ATOM     64  C   UNL     1       8.387  10.082  15.357  1.00  0.00     0.135 A 
ATOM     65  C   UNL     1       6.293  10.795  14.454  1.00  0.00     0.135 A 
ATOM     66  F   UNL     1       9.386   9.197  15.501  1.00  0.00    -0.206 F 
ATOM     67  C   UNL     1       8.442  11.235  16.141  1.00  0.00     0.059 A 
ATOM     68  C   UNL     1       6.358  11.978  15.179  1.00  0.00     0.059 A 
ATOM     69  F   UNL     1       5.152  10.617  13.777  1.00  0.00    -0.206 F 
ATOM     70  C   UNL     1       7.413  12.170  16.054  1.00  0.00     0.060 A 
BRANCH  70  71
ATOM     71  S   UNL     1       7.418  13.601  17.147  1.00  0.00     0.124 S 
ATOM     72  O   UNL     1       7.099  12.985  18.429  1.00  0.00    -0.237 OA
ATOM     73  O   UNL     1       8.783  14.096  16.995  1.00  0.00    -0.237 OA
ATOM     74  O   UNL     1       6.381  14.458  16.580  1.00  0.00    -0.744 OA
ENDBRANCH  70  71
ENDBRANCH  49  63
BRANCH  50  75
ATOM     75  C   UNL     1      -0.089   6.443  16.730  1.00  0.00     0.058 A 
ATOM     76  C   UNL     1      -0.234   6.526  18.128  1.00  0.00     0.135 A 
ATOM     77  C   UNL     1      -1.094   7.072  15.969  1.00  0.00     0.135 A 
ATOM     78  F   UNL     1       0.682   5.970  18.938  1.00  0.00    -0.206 F 
ATOM     79  C   UNL     1      -1.270   7.244  18.733  1.00  0.00     0.059 A 
ATOM     80  C   UNL     1      -2.149   7.776  16.549  1.00  0.00     0.059 A 
ATOM     81  F   UNL     1      -1.034   7.110  14.630  1.00  0.00    -0.206 F 
ATOM     82  C   UNL     1      -2.211   7.888  17.931  1.00  0.00     0.060 A 
BRANCH  82  83
ATOM     83  S   UNL     1      -3.433   8.979  18.697  1.00  0.00     0.124 S 
ATOM     84  O   UNL     1      -4.262   8.033  19.435  1.00  0.00    -0.237 OA
ATOM     85  O   UNL     1      -2.593   9.857  19.504  1.00  0.00    -0.237 OA
ATOM     86  O   UNL     1      -4.080   9.617  17.554  1.00  0.00    -0.744 OA
ENDBRANCH  82  83
ENDBRANCH  50  75
BRANCH  62  87
ATOM     87  C   UNL     1       5.630   3.556  16.720  1.00  0.00     0.058 A 
ATOM     88  C   UNL     1       4.803   2.763  15.907  1.00  0.00     0.135 A 
ATOM     89  C   UNL     1       6.588   2.896  17.507  1.00  0.00     0.135 A 
ATOM     90  F   UNL     1       3.928   3.321  15.058  1.00  0.00    -0.206 F 
ATOM     91  C   UNL     1       4.913   1.371  15.893  1.00  0.00     0.059 A 
ATOM     92  C   UNL     1       6.737   1.513  17.483  1.00  0.00     0.059 A 
ATOM     93  F   UNL     1       7.442   3.605  18.264  1.00  0.00    -0.206 F 
ATOM     94  C   UNL     1       5.892   0.756  16.675  1.00  0.00     0.060 A 
BRANCH  94  95
ATOM     95  S   UNL     1       6.122  -1.031  16.547  1.00  0.00     0.124 S 
ATOM     96  O   UNL     1       4.951  -1.543  17.252  1.00  0.00    -0.237 OA
ATOM     97  O   UNL     1       6.138  -1.246  15.103  1.00  0.00    -0.237 OA
ATOM     98  O   UNL     1       7.402  -1.260  17.215  1.00  0.00    -0.744 OA
ENDBRANCH  94  95
ENDBRANCH  62  87
ENDBRANCH  36  37
ENDBRANCH  29  31
ENDBRANCH  28  29
ENDBRANCH  27  28
ENDBRANCH   1  27
TORSDOF 20
