REMARK SMILES CC(C)CCOc1ccccc1-c1cc(C(=O)OCCOCCOC(=O)c2ccc(-c3c4nc(c(-c5c(F)cc(S(=O)(=O)[O-])cc5F)c5ccc([nH]5)c(-c5c(F)cc(S(=O)(=O)[O-])cc5F)c5nc(c(-c6c(F)cc(S(=O)(=O)[O-])cc6F)c6ccc3[nH]6)C=C5)C=C4)cc2)no1
REMARK SMILES IDX 20 1 19 2 18 3 16 4 17 5 15 6 13 7 14 8 94 9 93 10 12 11
REMARK SMILES IDX 7 12 8 13 9 14 11 15 10 16 6 17 5 18 4 19 2 20 1 21 3 22
REMARK SMILES IDX 21 23 22 24 23 25 24 26 25 27 26 28 27 29 28 30 92 31 29 32
REMARK SMILES IDX 91 33 30 34 31 35 32 36 85 37 33 38 90 39 84 40 86 41 34 42
REMARK SMILES IDX 89 43 83 44 82 45 35 47 69 48 48 49 68 50 49 51 52 52 67 53
REMARK SMILES IDX 87 54 50 55 51 56 66 58 88 59 53 60 36 61 37 62 46 63 38 64
REMARK SMILES IDX 39 65 45 66 47 67 40 68 41 69 42 70 43 71 44 72 70 73 71 74
REMARK SMILES IDX 80 75 72 76 73 77 79 78 81 79 74 80 75 81 76 82 77 83 78 84
REMARK SMILES IDX 54 85 55 86 64 87 56 88 57 89 63 90 65 91 58 92 59 93 60 94
REMARK SMILES IDX 61 95 62 96
REMARK H PARENT 86 46 52 57
REMARK Flexibility Score: inf
ROOT
ATOM      1  C   UNL     1      -3.276   2.222   5.942  1.00  0.00     0.202 C 
ENDROOT
BRANCH   1   2
ATOM      2  C   UNL     1      -3.790   1.609   4.632  1.00  0.00     0.261 C 
BRANCH   2   3
ATOM      3  O   UNL     1      -2.752   0.920   3.925  1.00  0.00    -0.458 OA
BRANCH   3   4
ATOM      4  C   UNL     1      -2.165   1.607   2.901  1.00  0.00     0.360 C 
ATOM      5  O   UNL     1      -2.579   2.652   2.421  1.00  0.00    -0.244 OA
BRANCH   4   6
ATOM      6  C   UNL     1      -0.906   0.966   2.530  1.00  0.00     0.192 A 
ATOM      7  C   UNL     1       1.014  -1.210   2.356  1.00  0.00     0.171 A 
ATOM      8  C   UNL     1      -0.453  -0.786   2.986  1.00  0.00     0.090 A 
ATOM      9  O   UNL     1       1.715   0.323   1.507  1.00  0.00    -0.355 OA
ATOM     10  N   UNL     1       0.318   1.743   1.687  1.00  0.00    -0.072 NA
BRANCH   7  11
ATOM     11  C   UNL     1       1.505  -2.484   1.849  1.00  0.00     0.062 A 
ATOM     12  C   UNL     1       0.578  -3.328   1.197  1.00  0.00     0.130 A 
ATOM     13  C   UNL     1       1.013  -4.461   0.522  1.00  0.00     0.047 A 
ATOM     14  C   UNL     1       2.377  -4.750   0.481  1.00  0.00     0.004 A 
ATOM     15  C   UNL     1       2.865  -2.783   1.815  1.00  0.00     0.016 A 
ATOM     16  C   UNL     1       3.297  -3.923   1.134  1.00  0.00     0.001 A 
BRANCH  12  17
ATOM     17  O   UNL     1      -0.776  -3.079   1.242  1.00  0.00    -0.493 OA
BRANCH  17  18
ATOM     18  C   UNL     1      -1.244  -2.201   0.201  1.00  0.00     0.230 C 
BRANCH  18  19
ATOM     19  C   UNL     1      -1.438  -0.748   0.701  1.00  0.00     0.044 C 
BRANCH  19  20
ATOM     20  C   UNL     1       0.068  -0.010   1.070  1.00  0.00    -0.014 C 
ATOM     21  C   UNL     1       0.334   0.858  -0.434  1.00  0.00     0.007 C 
ATOM     22  C   UNL     1       0.996   0.646   3.020  1.00  0.00     0.007 C 
ENDBRANCH  19  20
ENDBRANCH  18  19
ENDBRANCH  17  18
ENDBRANCH  12  17
ENDBRANCH   7  11
ENDBRANCH   4   6
ENDBRANCH   3   4
ENDBRANCH   2   3
ENDBRANCH   1   2
BRANCH   1  23
ATOM     23  O   UNL     1      -2.261   3.221   5.861  1.00  0.00    -0.374 OA
BRANCH  23  24
ATOM     24  C   UNL     1      -0.915   2.807   5.639  1.00  0.00     0.202 C 
BRANCH  24  25
ATOM     25  C   UNL     1      -0.126   2.162   6.785  1.00  0.00     0.261 C 
BRANCH  25  26
ATOM     26  O   UNL     1      -0.719   0.942   7.256  1.00  0.00    -0.460 OA
BRANCH  26  27
ATOM     27  C   UNL     1      -1.394   1.090   8.421  1.00  0.00     0.338 C 
ATOM     28  O   UNL     1      -1.503   2.111   9.080  1.00  0.00    -0.246 OA
BRANCH  27  29
ATOM     29  C   UNL     1      -2.169  -0.123   8.733  1.00  0.00     0.060 A 
ATOM     30  C   UNL     1      -3.523   0.057   9.041  1.00  0.00     0.016 A 
ATOM     31  C   UNL     1      -1.566  -1.376   8.861  1.00  0.00     0.016 A 
ATOM     32  C   UNL     1      -4.254  -0.990   9.586  1.00  0.00     0.010 A 
ATOM     33  C   UNL     1      -2.307  -2.430   9.404  1.00  0.00     0.010 A 
ATOM     34  C   UNL     1      -3.631  -2.220   9.833  1.00  0.00    -0.014 A 
BRANCH  34  35
ATOM     35  C   UNL     1      -4.310  -3.197  10.720  1.00  0.00     0.031 A 
ATOM     36  C   UNL     1      -3.822  -3.356  12.138  1.00  0.00     0.074 A 
ATOM     37  C   UNL     1      -5.390  -3.876  10.294  1.00  0.00     0.049 A 
ATOM     38  N   UNL     1      -4.270  -4.136  13.088  1.00  0.00    -0.248 NA
ATOM     39  C   UNL     1      -2.671  -2.529  12.536  1.00  0.00     0.031 C 
ATOM     40  C   UNL     1      -5.977  -3.774   8.959  1.00  0.00     0.029 A 
ATOM     41  N   UNL     1      -6.186  -4.784  10.945  1.00  0.00    -0.354 N 
ATOM     42  C   UNL     1      -3.449  -3.905  14.187  1.00  0.00     0.074 A 
ATOM     43  C   UNL     1      -2.449  -2.946  13.773  1.00  0.00     0.031 C 
ATOM     44  C   UNL     1      -7.043  -4.589   8.889  1.00  0.00     0.029 A 
ATOM     45  C   UNL     1      -7.191  -5.295  10.160  1.00  0.00     0.049 A 
ATOM     46  H   UNL     1      -6.050  -5.044  11.885  1.00  0.00     0.167 HD
ATOM     47  C   UNL     1      -3.529  -4.433  15.432  1.00  0.00     0.037 A 
ATOM     48  C   UNL     1      -8.113  -6.239  10.432  1.00  0.00     0.037 A 
ATOM     49  C   UNL     1      -4.533  -5.386  15.835  1.00  0.00     0.049 A 
ATOM     50  C   UNL     1      -8.152  -6.853  11.807  1.00  0.00     0.074 A 
ATOM     51  C   UNL     1      -4.716  -5.971  17.076  1.00  0.00     0.029 A 
ATOM     52  N   UNL     1      -5.518  -5.901  15.003  1.00  0.00    -0.354 N 
ATOM     53  N   UNL     1      -7.380  -6.616  12.842  1.00  0.00    -0.248 NA
ATOM     54  C   UNL     1      -9.197  -7.854  12.055  1.00  0.00     0.031 C 
ATOM     55  C   UNL     1      -5.765  -6.891  16.975  1.00  0.00     0.029 A 
ATOM     56  C   UNL     1      -6.294  -6.816  15.697  1.00  0.00     0.049 A 
ATOM     57  H   UNL     1      -5.647  -5.652  14.059  1.00  0.00     0.167 HD
ATOM     58  C   UNL     1      -7.875  -7.405  13.876  1.00  0.00     0.074 A 
ATOM     59  C   UNL     1      -9.016  -8.119  13.341  1.00  0.00     0.031 C 
ATOM     60  C   UNL     1      -7.432  -7.519  15.155  1.00  0.00     0.037 A 
BRANCH  47  61
ATOM     61  C   UNL     1      -2.482  -4.024  16.436  1.00  0.00     0.058 A 
ATOM     62  C   UNL     1      -2.401  -2.717  16.946  1.00  0.00     0.135 A 
ATOM     63  C   UNL     1      -1.554  -4.965  16.914  1.00  0.00     0.135 A 
ATOM     64  F   UNL     1      -3.250  -1.769  16.516  1.00  0.00    -0.206 F 
ATOM     65  C   UNL     1      -1.419  -2.350  17.861  1.00  0.00     0.059 A 
ATOM     66  C   UNL     1      -0.586  -4.629  17.857  1.00  0.00     0.059 A 
ATOM     67  F   UNL     1      -1.579  -6.229  16.463  1.00  0.00    -0.206 F 
ATOM     68  C   UNL     1      -0.516  -3.314  18.311  1.00  0.00     0.060 A 
BRANCH  68  69
ATOM     69  S   UNL     1       0.753  -2.821  19.497  1.00  0.00     0.124 S 
ATOM     70  O   UNL     1       1.611  -1.977  18.671  1.00  0.00    -0.237 OA
ATOM     71  O   UNL     1      -0.027  -2.127  20.516  1.00  0.00    -0.237 OA
ATOM     72  O   UNL     1       1.341  -4.090  19.915  1.00  0.00    -0.744 OA
ENDBRANCH  68  69
ENDBRANCH  47  61
BRANCH  48  73
ATOM     73  C   UNL     1      -9.077  -6.655   9.378  1.00  0.00     0.058 A 
ATOM     74  C   UNL     1     -10.446  -6.369   9.485  1.00  0.00     0.135 A 
ATOM     75  C   UNL     1      -8.642  -7.341   8.232  1.00  0.00     0.135 A 
ATOM     76  F   UNL     1     -10.914  -5.725  10.565  1.00  0.00    -0.206 F 
ATOM     77  C   UNL     1     -11.351  -6.760   8.504  1.00  0.00     0.059 A 
ATOM     78  C   UNL     1      -9.523  -7.713   7.222  1.00  0.00     0.059 A 
ATOM     79  F   UNL     1      -7.340  -7.629   8.073  1.00  0.00    -0.206 F 
ATOM     80  C   UNL     1     -10.878  -7.425   7.371  1.00  0.00     0.060 A 
BRANCH  80  81
ATOM     81  S   UNL     1     -12.053  -7.870   6.075  1.00  0.00     0.124 S 
ATOM     82  O   UNL     1     -12.825  -8.922   6.726  1.00  0.00    -0.237 OA
ATOM     83  O   UNL     1     -12.752  -6.608   5.853  1.00  0.00    -0.237 OA
ATOM     84  O   UNL     1     -11.194  -8.304   4.977  1.00  0.00    -0.744 OA
ENDBRANCH  80  81
ENDBRANCH  48  73
BRANCH  60  85
ATOM     85  C   UNL     1      -8.226  -8.398  16.088  1.00  0.00     0.058 A 
ATOM     86  C   UNL     1      -8.289  -9.793  15.940  1.00  0.00     0.135 A 
ATOM     87  C   UNL     1      -8.925  -7.827  17.166  1.00  0.00     0.135 A 
ATOM     88  F   UNL     1      -7.641 -10.396  14.930  1.00  0.00    -0.206 F 
ATOM     89  C   UNL     1      -9.057 -10.582  16.791  1.00  0.00     0.059 A 
ATOM     90  C   UNL     1      -9.665  -8.600  18.054  1.00  0.00     0.059 A 
ATOM     91  F   UNL     1      -8.888  -6.500  17.370  1.00  0.00    -0.206 F 
ATOM     92  C   UNL     1      -9.744  -9.975  17.844  1.00  0.00     0.060 A 
BRANCH  92  93
ATOM     93  S   UNL     1     -10.745 -11.007  18.936  1.00  0.00     0.124 S 
ATOM     94  O   UNL     1     -11.861 -11.361  18.064  1.00  0.00    -0.237 OA
ATOM     95  O   UNL     1      -9.827 -12.094  19.264  1.00  0.00    -0.237 OA
ATOM     96  O   UNL     1     -11.072 -10.115  20.044  1.00  0.00    -0.744 OA
ENDBRANCH  92  93
ENDBRANCH  60  85
ENDBRANCH  34  35
ENDBRANCH  27  29
ENDBRANCH  26  27
ENDBRANCH  25  26
ENDBRANCH  24  25
ENDBRANCH  23  24
ENDBRANCH   1  23
TORSDOF 22
