REMARK SMILES O=C(OCCOCCOC(=O)c1cc(NC(=S)NC(=O)c2ccccc2F)ccc1Cl)c1ccc(-c2c3nc(c(-c4c(F)cc(S(=O)(=O)[O-])cc4F)c4ccc([nH]4)c(-c4c(F)cc(S(=O)(=O)[O-])cc4F)c4nc(c(-c5c(F)cc(S(=O)(=O)[O-])cc5F)c5ccc2[nH]5)C=C4)C=C3)cc1
REMARK SMILES IDX 7 1 6 2 5 3 4 4 3 5 2 6 1 7 32 8 33 9 97 10 34 11 96 12
REMARK SMILES IDX 35 13 36 14 37 15 90 16 38 17 95 18 89 19 91 20 39 21 94 22
REMARK SMILES IDX 88 23 87 24 40 26 74 27 53 28 73 29 54 30 57 31 72 32 92 33
REMARK SMILES IDX 55 34 56 35 71 37 93 38 58 39 41 40 42 41 51 42 43 43 44 44
REMARK SMILES IDX 50 45 52 46 45 47 46 48 47 49 48 50 49 51 75 52 76 53 85 54
REMARK SMILES IDX 77 55 78 56 84 57 86 58 79 59 80 60 81 61 82 62 83 63 59 64
REMARK SMILES IDX 60 65 69 66 61 67 62 68 68 69 70 70 63 71 64 72 65 73 66 74
REMARK SMILES IDX 67 75 8 76 9 77 10 78 11 79 12 80 13 81 30 82 14 83 29 84
REMARK SMILES IDX 31 85 28 86 15 87 16 89 17 90 18 91 19 92 20 94 21 95 22 96
REMARK SMILES IDX 26 97 23 98 25 99 27 100 24 101
REMARK H PARENT 91 25 57 36 15 88 18 93
REMARK Flexibility Score: inf
ROOT
ATOM      1  C   UNL     1       1.974  -0.171  -1.870  1.00  0.00     0.202 C 
ENDROOT
BRANCH   1   2
ATOM      2  O   UNL     1       3.241   0.043  -1.264  1.00  0.00    -0.374 OA
BRANCH   2   3
ATOM      3  C   UNL     1       3.722  -0.998  -0.419  1.00  0.00     0.202 C 
BRANCH   3   4
ATOM      4  C   UNL     1       3.712  -0.685   1.075  1.00  0.00     0.261 C 
BRANCH   4   5
ATOM      5  O   UNL     1       2.385  -0.330   1.482  1.00  0.00    -0.460 OA
BRANCH   5   6
ATOM      6  C   UNL     1       1.835   0.897   1.305  1.00  0.00     0.338 C 
ATOM      7  O   UNL     1       0.614   1.028   1.365  1.00  0.00    -0.246 OA
BRANCH   6   8
ATOM      8  C   UNL     1       2.685   2.113   1.178  1.00  0.00     0.060 A 
ATOM      9  C   UNL     1       3.845   2.187   0.406  1.00  0.00     0.016 A 
ATOM     10  C   UNL     1       2.257   3.268   1.845  1.00  0.00     0.016 A 
ATOM     11  C   UNL     1       4.591   3.329   0.314  1.00  0.00     0.010 A 
ATOM     12  C   UNL     1       2.980   4.454   1.724  1.00  0.00     0.010 A 
ATOM     13  C   UNL     1       4.143   4.473   0.945  1.00  0.00    -0.014 A 
BRANCH  13  14
ATOM     14  C   UNL     1       5.035   5.622   0.839  1.00  0.00     0.031 A 
ATOM     15  C   UNL     1       5.871   5.942   2.026  1.00  0.00     0.074 A 
ATOM     16  C   UNL     1       5.220   6.179  -0.371  1.00  0.00     0.049 A 
ATOM     17  N   UNL     1       6.646   6.965   2.227  1.00  0.00    -0.248 NA
ATOM     18  C   UNL     1       5.840   4.973   3.139  1.00  0.00     0.031 C 
ATOM     19  C   UNL     1       4.585   5.723  -1.618  1.00  0.00     0.029 A 
ATOM     20  N   UNL     1       6.029   7.200  -0.770  1.00  0.00    -0.354 N 
ATOM     21  C   UNL     1       7.147   6.798   3.509  1.00  0.00     0.074 A 
ATOM     22  C   UNL     1       6.606   5.569   4.038  1.00  0.00     0.031 C 
ATOM     23  C   UNL     1       5.056   6.448  -2.643  1.00  0.00     0.029 A 
ATOM     24  C   UNL     1       5.927   7.484  -2.110  1.00  0.00     0.049 A 
ATOM     25  H   UNL     1       6.629   7.685  -0.158  1.00  0.00     0.167 HD
ATOM     26  C   UNL     1       7.973   7.635   4.169  1.00  0.00     0.037 A 
ATOM     27  C   UNL     1       6.439   8.517  -2.801  1.00  0.00     0.037 A 
ATOM     28  C   UNL     1       8.479   8.834   3.560  1.00  0.00     0.049 A 
ATOM     29  C   UNL     1       7.245   9.510  -2.012  1.00  0.00     0.074 A 
ATOM     30  C   UNL     1       9.236   9.840   4.120  1.00  0.00     0.029 A 
ATOM     31  N   UNL     1       8.271   9.173   2.224  1.00  0.00    -0.354 N 
ATOM     32  N   UNL     1       7.599   9.454  -0.746  1.00  0.00    -0.248 NA
ATOM     33  C   UNL     1       7.691  10.714  -2.714  1.00  0.00     0.031 C 
ATOM     34  C   UNL     1       9.446  10.811   3.134  1.00  0.00     0.029 A 
ATOM     35  C   UNL     1       8.871  10.383   1.943  1.00  0.00     0.049 A 
ATOM     36  H   UNL     1       7.769   8.629   1.576  1.00  0.00     0.167 HD
ATOM     37  C   UNL     1       8.317  10.613  -0.497  1.00  0.00     0.074 A 
ATOM     38  C   UNL     1       8.361  11.341  -1.754  1.00  0.00     0.031 C 
ATOM     39  C   UNL     1       8.883  11.046   0.658  1.00  0.00     0.037 A 
BRANCH  26  40
ATOM     40  C   UNL     1       8.266   7.321   5.605  1.00  0.00     0.058 A 
ATOM     41  C   UNL     1       7.674   8.086   6.622  1.00  0.00     0.135 A 
ATOM     42  C   UNL     1       9.079   6.242   5.989  1.00  0.00     0.135 A 
ATOM     43  F   UNL     1       6.860   9.107   6.314  1.00  0.00    -0.206 F 
ATOM     44  C   UNL     1       7.886   7.802   7.967  1.00  0.00     0.059 A 
ATOM     45  C   UNL     1       9.284   5.923   7.330  1.00  0.00     0.059 A 
ATOM     46  F   UNL     1       9.628   5.445   5.058  1.00  0.00    -0.206 F 
ATOM     47  C   UNL     1       8.692   6.717   8.312  1.00  0.00     0.060 A 
BRANCH  47  48
ATOM     48  S   UNL     1       8.915   6.335  10.062  1.00  0.00     0.124 S 
ATOM     49  O   UNL     1       9.733   7.456  10.511  1.00  0.00    -0.237 OA
ATOM     50  O   UNL     1       7.539   6.315  10.550  1.00  0.00    -0.237 OA
ATOM     51  O   UNL     1       9.582   5.037  10.044  1.00  0.00    -0.744 OA
ENDBRANCH  47  48
ENDBRANCH  26  40
BRANCH  27  52
ATOM     52  C   UNL     1       6.134   8.681  -4.248  1.00  0.00     0.058 A 
ATOM     53  C   UNL     1       4.817   8.879  -4.701  1.00  0.00     0.135 A 
ATOM     54  C   UNL     1       7.142   8.594  -5.218  1.00  0.00     0.135 A 
ATOM     55  F   UNL     1       3.807   8.966  -3.821  1.00  0.00    -0.206 F 
ATOM     56  C   UNL     1       4.507   8.950  -6.055  1.00  0.00     0.059 A 
ATOM     57  C   UNL     1       6.861   8.692  -6.580  1.00  0.00     0.059 A 
ATOM     58  F   UNL     1       8.418   8.415  -4.843  1.00  0.00    -0.206 F 
ATOM     59  C   UNL     1       5.538   8.854  -6.989  1.00  0.00     0.060 A 
BRANCH  59  60
ATOM     60  S   UNL     1       5.114   8.951  -8.742  1.00  0.00     0.124 S 
ATOM     61  O   UNL     1       4.356   7.719  -8.933  1.00  0.00    -0.237 OA
ATOM     62  O   UNL     1       4.339  10.187  -8.800  1.00  0.00    -0.237 OA
ATOM     63  O   UNL     1       6.414   8.998  -9.403  1.00  0.00    -0.744 OA
ENDBRANCH  59  60
ENDBRANCH  27  52
BRANCH  39  64
ATOM     64  C   UNL     1       9.617  12.349   0.598  1.00  0.00     0.058 A 
ATOM     65  C   UNL     1      11.016  12.367   0.702  1.00  0.00     0.135 A 
ATOM     66  C   UNL     1       8.934  13.572   0.553  1.00  0.00     0.135 A 
ATOM     67  F   UNL     1      11.708  11.217   0.755  1.00  0.00    -0.206 F 
ATOM     68  C   UNL     1      11.713  13.561   0.801  1.00  0.00     0.059 A 
ATOM     69  C   UNL     1       9.615  14.780   0.618  1.00  0.00     0.059 A 
ATOM     70  F   UNL     1       7.596  13.595   0.440  1.00  0.00    -0.206 F 
ATOM     71  C   UNL     1      11.002  14.762   0.765  1.00  0.00     0.060 A 
BRANCH  71  72
ATOM     72  S   UNL     1      11.926  16.302   0.913  1.00  0.00     0.124 S 
ATOM     73  O   UNL     1      12.350  16.262   2.308  1.00  0.00    -0.237 OA
ATOM     74  O   UNL     1      12.983  16.122  -0.078  1.00  0.00    -0.237 OA
ATOM     75  O   UNL     1      10.935  17.323   0.585  1.00  0.00    -0.744 OA
ENDBRANCH  71  72
ENDBRANCH  39  64
ENDBRANCH  13  14
ENDBRANCH   6   8
ENDBRANCH   5   6
ENDBRANCH   4   5
ENDBRANCH   3   4
ENDBRANCH   2   3
ENDBRANCH   1   2
BRANCH   1  76
ATOM     76  C   UNL     1       2.140  -0.831  -3.232  1.00  0.00     0.261 C 
BRANCH  76  77
ATOM     77  O   UNL     1       2.800  -2.106  -3.084  1.00  0.00    -0.460 OA
BRANCH  77  78
ATOM     78  C   UNL     1       4.140  -2.058  -3.304  1.00  0.00     0.339 C 
ATOM     79  O   UNL     1       4.787  -1.072  -3.622  1.00  0.00    -0.246 OA
BRANCH  78  80
ATOM     80  C   UNL     1       4.783  -3.480  -3.194  1.00  0.00     0.080 A 
ATOM     81  C   UNL     1       6.083  -4.663  -2.236  1.00  0.00     0.043 A 
ATOM     82  C   UNL     1       4.780  -4.285  -3.966  1.00  0.00     0.055 A 
ATOM     83  C   UNL     1       7.007  -5.729  -2.007  1.00  0.00     0.041 A 
ATOM     84  C   UNL     1       5.890  -5.944  -3.724  1.00  0.00     0.023 A 
ATOM     85  Cl  UNL     1       3.516  -3.651  -5.538  1.00  0.00    -0.083 Cl
ATOM     86  C   UNL     1       6.826  -6.608  -2.918  1.00  0.00     0.028 A 
BRANCH  83  87
ATOM     87  N   UNL     1       8.063  -5.609  -1.104  1.00  0.00    -0.332 N 
ATOM     88  H   UNL     1       8.533  -6.450  -0.902  1.00  0.00     0.169 HD
BRANCH  87  89
ATOM     89  C   UNL     1       8.550  -4.509  -0.455  1.00  0.00     0.177 C 
ATOM     90  S   UNL     1       9.798  -4.761   0.637  1.00  0.00    -0.040 S 
BRANCH  89  91
ATOM     91  N   UNL     1       8.126  -3.191  -0.647  1.00  0.00    -0.299 N 
ATOM     92  C   UNL     1       7.223  -2.316  -1.329  1.00  0.00     0.260 C 
ATOM     93  H   UNL     1       8.687  -2.625  -0.068  1.00  0.00     0.172 HD
ATOM     94  O   UNL     1       7.271  -1.110  -1.113  1.00  0.00    -0.269 OA
BRANCH  92  95
ATOM     95  C   UNL     1       6.161  -2.847  -2.235  1.00  0.00     0.075 A 
ATOM     96  C   UNL     1       6.647  -3.504  -4.068  1.00  0.00     0.017 A 
ATOM     97  C   UNL     1       4.567  -3.857  -1.460  1.00  0.00     0.135 A 
ATOM     98  C   UNL     1       5.769  -4.823  -5.294  1.00  0.00     0.001 A 
ATOM     99  C   UNL     1       3.786  -5.287  -2.608  1.00  0.00     0.040 A 
ATOM    100  F   UNL     1       4.317  -3.849  -0.139  1.00  0.00    -0.206 F 
ATOM    101  C   UNL     1       4.162  -5.814  -4.502  1.00  0.00     0.003 A 
ENDBRANCH  92  95
ENDBRANCH  89  91
ENDBRANCH  87  89
ENDBRANCH  83  87
ENDBRANCH  78  80
ENDBRANCH  77  78
ENDBRANCH  76  77
ENDBRANCH   1  76
TORSDOF 21
