REMARK SMILES Cc1cc(/C=C2/C(=O)NC(=S)N=C2OCCOCCOC(=O)c2ccc(-c3c4nc(c(-c5c(F)cc(S(=O)(=O)[O-])cc5F)c5ccc([nH]5)c(-c5c(F)cc(S(=O)(=O)[O-])cc5F)c5nc(c(-c6c(F)cc(S(=O)(=O)[O-])cc6F)c6ccc3[nH]6)C=C5)C=C4)cc2)c(C)n1-c1cccc(C(=O)[O-])c1
REMARK SMILES IDX 18 1 17 2 16 3 15 4 14 5 13 6 5 7 6 8 7 9 8 10 9 11 12 12
REMARK SMILES IDX 10 13 11 15 4 16 1 17 2 18 3 19 91 20 89 21 90 22 92 23
REMARK SMILES IDX 93 24 100 25 94 26 96 27 95 28 97 29 98 30 99 31 19 32 20 33
REMARK SMILES IDX 21 34 22 35 23 36 24 37 88 38 25 39 87 40 26 41 27 42 28 43
REMARK SMILES IDX 81 44 29 45 86 46 80 47 82 48 30 49 85 50 79 51 78 52 31 54
REMARK SMILES IDX 65 55 44 56 64 57 45 58 48 59 63 60 83 61 46 62 47 63 62 65
REMARK SMILES IDX 84 66 49 67 32 68 33 69 42 70 34 71 35 72 41 73 43 74 36 75
REMARK SMILES IDX 37 76 38 77 39 78 40 79 66 80 67 81 76 82 68 83 69 84 75 85
REMARK SMILES IDX 77 86 70 87 71 88 72 89 73 90 74 91 50 92 51 93 60 94 52 95
REMARK SMILES IDX 53 96 59 97 61 98 54 99 55 100 56 101 57 102 58 103
REMARK H PARENT 9 14 82 53 48 64
REMARK Flexibility Score: inf
ROOT
ATOM      1  C   UNL     1      -2.131   4.963   3.491  1.00  0.00     0.202 C 
ENDROOT
BRANCH   1   2
ATOM      2  O   UNL     1      -1.330   6.161   3.592  1.00  0.00    -0.374 OA
BRANCH   2   3
ATOM      3  C   UNL     1       0.022   6.228   3.131  1.00  0.00     0.202 C 
BRANCH   3   4
ATOM      4  C   UNL     1       1.218   5.639   3.974  1.00  0.00     0.260 C 
BRANCH   4   5
ATOM      5  O   UNL     1       1.149   4.220   4.297  1.00  0.00    -0.475 OA
BRANCH   5   6
ATOM      6  C   UNL     1       0.466   3.870   5.397  1.00  0.00     0.229 C 
ATOM      7  C   UNL     1      -0.180   1.479   4.473  1.00  0.00     0.029 C 
ATOM      8  C   UNL     1      -0.131   2.498   5.380  1.00  0.00     0.103 C 
ATOM      9  C   UNL     1      -0.926   2.231   6.634  1.00  0.00     0.262 C 
ATOM     10  O   UNL     1      -1.466   1.161   6.901  1.00  0.00    -0.269 OA
ATOM     11  N   UNL     1      -1.047   3.284   7.502  1.00  0.00    -0.297 N 
ATOM     12  N   UNL     1       0.342   4.748   6.330  1.00  0.00    -0.184 NA
ATOM     13  C   UNL     1      -0.455   4.507   7.396  1.00  0.00     0.203 C 
ATOM     14  H   UNL     1      -1.624   3.141   8.286  1.00  0.00     0.172 HD
ATOM     15  S   UNL     1      -0.768   5.649   8.583  1.00  0.00    -0.038 S 
BRANCH   7  16
ATOM     16  C   UNL     1       0.333   1.246   3.137  1.00  0.00    -0.003 A 
ATOM     17  C   UNL     1       1.082  -0.736   0.010  1.00  0.00     0.065 C 
ATOM     18  C   UNL     1       0.866   0.188   1.153  1.00  0.00     0.020 A 
ATOM     19  C   UNL     1       0.382  -0.016   2.446  1.00  0.00     0.031 A 
ATOM     20  N   UNL     1       1.220   1.512   1.075  1.00  0.00    -0.318 N 
ATOM     21  C   UNL     1       0.621   2.141   2.136  1.00  0.00     0.027 A 
ATOM     22  C   UNL     1       0.273   3.535   1.932  1.00  0.00     0.065 C 
BRANCH  20  23
ATOM     23  C   UNL     1       1.746   2.260  -0.013  1.00  0.00     0.046 A 
ATOM     24  C   UNL     1       2.762   3.199   0.244  1.00  0.00     0.026 A 
ATOM     25  C   UNL     1       1.007   2.331  -1.192  1.00  0.00     0.036 A 
ATOM     26  C   UNL     1       3.046   4.196  -0.690  1.00  0.00     0.003 A 
ATOM     27  C   UNL     1       1.323   3.303  -2.147  1.00  0.00    -0.001 A 
ATOM     28  C   UNL     1       2.334   4.241  -1.890  1.00  0.00     0.010 A 
BRANCH  27  29
ATOM     29  C   UNL     1       0.564   3.384  -3.415  1.00  0.00     0.072 C 
ATOM     30  O   UNL     1       0.704   4.235  -4.271  1.00  0.00    -0.545 OA
ATOM     31  O   UNL     1      -0.299   2.360  -3.532  1.00  0.00    -0.545 OA
ENDBRANCH  27  29
ENDBRANCH  20  23
ENDBRANCH   7  16
ENDBRANCH   5   6
ENDBRANCH   4   5
ENDBRANCH   3   4
ENDBRANCH   2   3
ENDBRANCH   1   2
BRANCH   1  32
ATOM     32  C   UNL     1      -3.074   4.532   2.203  1.00  0.00     0.261 C 
BRANCH  32  33
ATOM     33  O   UNL     1      -2.845   3.542   1.006  1.00  0.00    -0.460 OA
BRANCH  33  34
ATOM     34  C   UNL     1      -2.935   3.950  -0.356  1.00  0.00     0.338 C 
ATOM     35  O   UNL     1      -2.619   5.119  -0.594  1.00  0.00    -0.246 OA
BRANCH  34  36
ATOM     36  C   UNL     1      -3.420   2.955  -1.677  1.00  0.00     0.060 A 
ATOM     37  C   UNL     1      -3.424   3.485  -2.967  1.00  0.00     0.016 A 
ATOM     38  C   UNL     1      -3.925   1.629  -1.843  1.00  0.00     0.016 A 
ATOM     39  C   UNL     1      -3.953   2.754  -4.254  1.00  0.00     0.010 A 
ATOM     40  C   UNL     1      -4.360   0.836  -3.239  1.00  0.00     0.010 A 
ATOM     41  C   UNL     1      -4.424   1.347  -4.577  1.00  0.00    -0.014 A 
BRANCH  41  42
ATOM     42  C   UNL     1      -4.287   0.560  -6.292  1.00  0.00     0.031 A 
ATOM     43  C   UNL     1      -2.918   1.199  -6.450  1.00  0.00     0.074 A 
ATOM     44  C   UNL     1      -5.074  -0.051  -7.644  1.00  0.00     0.049 A 
ATOM     45  N   UNL     1      -2.881   2.499  -6.418  1.00  0.00    -0.248 NA
ATOM     46  C   UNL     1      -1.533   0.721  -6.311  1.00  0.00     0.031 C 
ATOM     47  C   UNL     1      -5.776  -1.818  -7.213  1.00  0.00     0.029 A 
ATOM     48  N   UNL     1      -5.012  -0.224  -9.660  1.00  0.00    -0.354 N 
ATOM     49  C   UNL     1      -1.838   2.857  -7.168  1.00  0.00     0.074 A 
ATOM     50  C   UNL     1      -0.879   1.834  -6.728  1.00  0.00     0.031 C 
ATOM     51  C   UNL     1      -6.022  -2.784  -8.539  1.00  0.00     0.029 A 
ATOM     52  C   UNL     1      -5.691  -1.943 -10.239  1.00  0.00     0.049 A 
ATOM     53  H   UNL     1      -4.680   0.476 -10.268  1.00  0.00     0.167 HD
ATOM     54  C   UNL     1      -2.424   3.098  -8.394  1.00  0.00     0.037 A 
ATOM     55  C   UNL     1      -5.399  -2.870 -11.409  1.00  0.00     0.037 A 
ATOM     56  C   UNL     1      -2.180   1.839  -9.173  1.00  0.00     0.049 A 
ATOM     57  C   UNL     1      -3.858  -2.828 -11.427  1.00  0.00     0.074 A 
ATOM     58  C   UNL     1      -1.126   0.921  -9.347  1.00  0.00     0.029 A 
ATOM     59  N   UNL     1      -3.250   1.026  -9.260  1.00  0.00    -0.354 N 
ATOM     60  N   UNL     1      -3.259  -1.848 -10.850  1.00  0.00    -0.248 NA
ATOM     61  C   UNL     1      -3.200  -4.056 -10.905  1.00  0.00     0.031 C 
ATOM     62  C   UNL     1      -1.629  -0.415  -9.025  1.00  0.00     0.029 A 
ATOM     63  C   UNL     1      -3.017  -0.332  -8.832  1.00  0.00     0.049 A 
ATOM     64  H   UNL     1      -4.124   1.334  -9.592  1.00  0.00     0.167 HD
ATOM     65  C   UNL     1      -3.488  -2.308  -9.503  1.00  0.00     0.074 A 
ATOM     66  C   UNL     1      -3.182  -3.721  -9.606  1.00  0.00     0.031 C 
ATOM     67  C   UNL     1      -4.384  -1.525  -8.689  1.00  0.00     0.037 A 
BRANCH  54  68
ATOM     68  C   UNL     1      -3.909   3.948  -8.026  1.00  0.00     0.058 A 
ATOM     69  C   UNL     1      -3.800   5.278  -7.591  1.00  0.00     0.135 A 
ATOM     70  C   UNL     1      -5.167   3.414  -7.553  1.00  0.00     0.135 A 
ATOM     71  F   UNL     1      -2.659   5.935  -7.835  1.00  0.00    -0.206 F 
ATOM     72  C   UNL     1      -4.800   5.971  -6.822  1.00  0.00     0.059 A 
ATOM     73  C   UNL     1      -6.158   4.042  -6.746  1.00  0.00     0.059 A 
ATOM     74  F   UNL     1      -5.472   2.152  -7.734  1.00  0.00    -0.206 F 
ATOM     75  C   UNL     1      -5.981   5.352  -6.401  1.00  0.00     0.060 A 
BRANCH  75  76
ATOM     76  S   UNL     1      -7.255   6.251  -5.464  1.00  0.00     0.124 S 
ATOM     77  O   UNL     1      -6.485   6.898  -4.405  1.00  0.00    -0.237 OA
ATOM     78  O   UNL     1      -7.786   7.149  -6.485  1.00  0.00    -0.237 OA
ATOM     79  O   UNL     1      -8.171   5.214  -4.997  1.00  0.00    -0.744 OA
ENDBRANCH  75  76
ENDBRANCH  54  68
BRANCH  55  80
ATOM     80  C   UNL     1      -5.658  -4.426 -12.148  1.00  0.00     0.058 A 
ATOM     81  C   UNL     1      -5.440  -4.628 -13.570  1.00  0.00     0.135 A 
ATOM     82  C   UNL     1      -5.514  -5.675 -11.469  1.00  0.00     0.135 A 
ATOM     83  F   UNL     1      -5.534  -3.579 -14.404  1.00  0.00    -0.206 F 
ATOM     84  C   UNL     1      -5.059  -5.883 -14.213  1.00  0.00     0.059 A 
ATOM     85  C   UNL     1      -5.090  -6.926 -12.086  1.00  0.00     0.059 A 
ATOM     86  F   UNL     1      -5.609  -5.703 -10.133  1.00  0.00    -0.206 F 
ATOM     87  C   UNL     1      -4.839  -7.028 -13.455  1.00  0.00     0.060 A 
BRANCH  87  88
ATOM     88  S   UNL     1      -4.074  -8.562 -14.198  1.00  0.00     0.124 S 
ATOM     89  O   UNL     1      -5.159  -9.128 -14.992  1.00  0.00    -0.237 OA
ATOM     90  O   UNL     1      -2.950  -8.033 -14.966  1.00  0.00    -0.237 OA
ATOM     91  O   UNL     1      -3.688  -9.351 -13.030  1.00  0.00    -0.744 OA
ENDBRANCH  87  88
ENDBRANCH  55  80
BRANCH  67  92
ATOM     92  C   UNL     1      -6.482  -0.739  -8.827  1.00  0.00     0.058 A 
ATOM     93  C   UNL     1      -7.928  -1.207  -8.755  1.00  0.00     0.135 A 
ATOM     94  C   UNL     1      -6.848   0.823  -9.379  1.00  0.00     0.135 A 
ATOM     95  F   UNL     1      -8.287  -2.413  -8.268  1.00  0.00    -0.206 F 
ATOM     96  C   UNL     1      -9.164  -0.466  -9.163  1.00  0.00     0.059 A 
ATOM     97  C   UNL     1      -8.030   1.506  -9.741  1.00  0.00     0.059 A 
ATOM     98  F   UNL     1      -5.842   1.676  -9.753  1.00  0.00    -0.206 F 
ATOM     99  C   UNL     1      -9.205   0.842  -9.660  1.00  0.00     0.060 A 
BRANCH  99 100
ATOM    100  S   UNL     1     -10.731   1.691 -10.183  1.00  0.00     0.124 S 
ATOM    101  O   UNL     1     -11.232   0.822 -11.244  1.00  0.00    -0.237 OA
ATOM    102  O   UNL     1     -11.515   1.700  -8.954  1.00  0.00    -0.237 OA
ATOM    103  O   UNL     1     -10.275   3.002 -10.645  1.00  0.00    -0.744 OA
ENDBRANCH  99 100
ENDBRANCH  67  92
ENDBRANCH  41  42
ENDBRANCH  34  36
ENDBRANCH  33  34
ENDBRANCH  32  33
ENDBRANCH   1  32
TORSDOF 19
