REMARK SMILES CC[C@H](C)[C@@H](C)NC(=O)c1ccncc1/C=C/C(=O)OCCOCCOC(=O)c1ccc(-c2c3nc(c(-c4c(F)cc(S(=O)(=O)[O-])cc4F)c4ccc([nH]4)c(-c4c(F)cc(S(=O)(=O)[O-])cc4F)c4nc(c(-c5c(F)cc(S(=O)(=O)[O-])cc5F)c5ccc2[nH]5)C=C4)C=C3)cc1
REMARK SMILES IDX 22 1 21 2 20 3 18 4 19 5 17 6 16 7 15 8 10 9 11 10 12 11
REMARK SMILES IDX 14 12 13 13 8 14 7 15 9 17 5 18 6 19 3 20 4 21 2 22 1 23
REMARK SMILES IDX 23 24 24 25 25 26 26 27 27 28 28 29 29 30 30 31 94 32 31 33
REMARK SMILES IDX 93 34 32 35 33 36 34 37 87 38 35 39 92 40 86 41 88 42 36 43
REMARK SMILES IDX 91 44 85 45 84 46 37 48 71 49 50 50 70 51 51 52 54 53 69 54
REMARK SMILES IDX 89 55 52 56 53 57 68 59 90 60 55 61 38 62 39 63 48 64 40 65
REMARK SMILES IDX 41 66 47 67 49 68 42 69 43 70 44 71 45 72 46 73 72 74 73 75
REMARK SMILES IDX 82 76 74 77 75 78 81 79 83 80 76 81 77 82 78 83 79 84 80 85
REMARK SMILES IDX 56 86 57 87 66 88 58 89 59 90 65 91 67 92 60 93 61 94 62 95
REMARK SMILES IDX 63 96 64 97
REMARK H PARENT 7 16 88 47 54 58
REMARK Flexibility Score: inf
ROOT
ATOM      1  C   UNL     1      -0.916   5.745   8.614  1.00  0.00     0.202 C 
ENDROOT
BRANCH   1   2
ATOM      2  C   UNL     1      -0.992   4.498   9.497  1.00  0.00     0.261 C 
BRANCH   2   3
ATOM      3  O   UNL     1      -1.257   3.317   8.719  1.00  0.00    -0.460 OA
BRANCH   3   4
ATOM      4  C   UNL     1      -2.460   2.745   8.941  1.00  0.00     0.330 C 
ATOM      5  O   UNL     1      -3.298   3.099   9.759  1.00  0.00    -0.247 OA
BRANCH   4   6
ATOM      6  C   UNL     1      -2.746   1.626   8.020  1.00  0.00     0.094 C 
ATOM      7  C   UNL     1      -1.968   1.133   7.040  1.00  0.00     0.018 C 
BRANCH   7   8
ATOM      8  C   UNL     1      -2.406  -0.022   6.222  1.00  0.00     0.006 A 
ATOM      9  C   UNL     1      -1.560  -1.043   5.755  1.00  0.00     0.050 A 
ATOM     10  C   UNL     1      -2.106  -2.186   5.156  1.00  0.00     0.034 A 
ATOM     11  C   UNL     1      -3.459  -2.209   4.887  1.00  0.00     0.112 A 
ATOM     12  C   UNL     1      -3.748  -0.145   5.850  1.00  0.00     0.119 A 
ATOM     13  N   UNL     1      -4.288  -1.195   5.186  1.00  0.00    -0.264 NA
BRANCH   9  14
ATOM     14  C   UNL     1      -0.087  -0.951   5.890  1.00  0.00     0.252 C 
ATOM     15  N   UNL     1       0.734  -1.134   4.800  1.00  0.00    -0.349 N 
ATOM     16  H   UNL     1       1.687  -0.969   4.984  1.00  0.00     0.164 HD
ATOM     17  O   UNL     1       0.406  -0.676   6.979  1.00  0.00    -0.269 OA
BRANCH  15  18
ATOM     18  C   UNL     1       0.453  -1.530   3.412  1.00  0.00     0.082 C 
ATOM     19  C   UNL     1       1.063  -2.921   3.197  1.00  0.00     0.031 C 
BRANCH  18  20
ATOM     20  C   UNL     1       0.989  -0.487   2.394  1.00  0.00     0.008 C 
ATOM     21  C   UNL     1       0.772  -0.939   0.940  1.00  0.00     0.010 C 
BRANCH  20  22
ATOM     22  C   UNL     1       0.397   0.928   2.595  1.00  0.00     0.002 C 
ATOM     23  C   UNL     1      -1.123   1.017   2.558  1.00  0.00     0.004 C 
ENDBRANCH  20  22
ENDBRANCH  18  20
ENDBRANCH  15  18
ENDBRANCH   9  14
ENDBRANCH   7   8
ENDBRANCH   4   6
ENDBRANCH   3   4
ENDBRANCH   2   3
ENDBRANCH   1   2
BRANCH   1  24
ATOM     24  O   UNL     1      -2.113   6.080   7.910  1.00  0.00    -0.374 OA
BRANCH  24  25
ATOM     25  C   UNL     1      -2.353   5.381   6.688  1.00  0.00     0.202 C 
BRANCH  25  26
ATOM     26  C   UNL     1      -1.572   5.880   5.465  1.00  0.00     0.261 C 
BRANCH  26  27
ATOM     27  O   UNL     1      -0.166   5.586   5.566  1.00  0.00    -0.460 OA
BRANCH  27  28
ATOM     28  C   UNL     1       0.633   6.666   5.745  1.00  0.00     0.338 C 
ATOM     29  O   UNL     1       0.292   7.842   5.741  1.00  0.00    -0.246 OA
BRANCH  28  30
ATOM     30  C   UNL     1       1.989   6.235   6.136  1.00  0.00     0.060 A 
ATOM     31  C   UNL     1       2.552   6.819   7.278  1.00  0.00     0.016 A 
ATOM     32  C   UNL     1       2.725   5.326   5.371  1.00  0.00     0.016 A 
ATOM     33  C   UNL     1       3.869   6.533   7.635  1.00  0.00     0.010 A 
ATOM     34  C   UNL     1       4.050   5.048   5.726  1.00  0.00     0.010 A 
ATOM     35  C   UNL     1       4.639   5.674   6.840  1.00  0.00    -0.014 A 
BRANCH  35  36
ATOM     36  C   UNL     1       6.094   5.538   7.099  1.00  0.00     0.031 A 
ATOM     37  C   UNL     1       7.063   6.316   6.248  1.00  0.00     0.074 A 
ATOM     38  C   UNL     1       6.546   4.747   8.090  1.00  0.00     0.049 A 
ATOM     39  N   UNL     1       8.370   6.317   6.272  1.00  0.00    -0.248 NA
ATOM     40  C   UNL     1       6.481   7.210   5.233  1.00  0.00     0.031 C 
ATOM     41  C   UNL     1       5.706   3.969   9.000  1.00  0.00     0.029 A 
ATOM     42  N   UNL     1       7.828   4.462   8.491  1.00  0.00    -0.354 N 
ATOM     43  C   UNL     1       8.768   7.194   5.269  1.00  0.00     0.074 A 
ATOM     44  C   UNL     1       7.565   7.696   4.644  1.00  0.00     0.031 C 
ATOM     45  C   UNL     1       6.496   3.284   9.846  1.00  0.00     0.029 A 
ATOM     46  C   UNL     1       7.895   3.551   9.519  1.00  0.00     0.049 A 
ATOM     47  H   UNL     1       8.624   4.871   8.081  1.00  0.00     0.167 HD
ATOM     48  C   UNL     1      10.023   7.551   4.908  1.00  0.00     0.037 A 
ATOM     49  C   UNL     1       8.965   2.982  10.111  1.00  0.00     0.037 A 
ATOM     50  C   UNL     1      11.218   7.068   5.551  1.00  0.00     0.049 A 
ATOM     51  C   UNL     1      10.351   3.364   9.655  1.00  0.00     0.074 A 
ATOM     52  C   UNL     1      12.533   7.412   5.288  1.00  0.00     0.029 A 
ATOM     53  N   UNL     1      11.246   6.137   6.577  1.00  0.00    -0.354 N 
ATOM     54  N   UNL     1      10.710   4.228   8.735  1.00  0.00    -0.248 NA
ATOM     55  C   UNL     1      11.479   2.692  10.318  1.00  0.00     0.031 C 
ATOM     56  C   UNL     1      13.359   6.652   6.121  1.00  0.00     0.029 A 
ATOM     57  C   UNL     1      12.556   5.872   6.938  1.00  0.00     0.049 A 
ATOM     58  H   UNL     1      10.452   5.725   6.989  1.00  0.00     0.167 HD
ATOM     59  C   UNL     1      12.102   4.228   8.736  1.00  0.00     0.074 A 
ATOM     60  C   UNL     1      12.521   3.285   9.751  1.00  0.00     0.031 C 
ATOM     61  C   UNL     1      12.958   4.946   7.966  1.00  0.00     0.037 A 
BRANCH  48  62
ATOM     62  C   UNL     1      10.185   8.496   3.752  1.00  0.00     0.058 A 
ATOM     63  C   UNL     1       9.910   9.867   3.872  1.00  0.00     0.135 A 
ATOM     64  C   UNL     1      10.703   8.035   2.530  1.00  0.00     0.135 A 
ATOM     65  F   UNL     1       9.397  10.356   5.011  1.00  0.00    -0.206 F 
ATOM     66  C   UNL     1      10.139  10.747   2.819  1.00  0.00     0.059 A 
ATOM     67  C   UNL     1      10.961   8.900   1.472  1.00  0.00     0.059 A 
ATOM     68  F   UNL     1      10.977   6.731   2.363  1.00  0.00    -0.206 F 
ATOM     69  C   UNL     1      10.671  10.255   1.625  1.00  0.00     0.060 A 
BRANCH  69  70
ATOM     70  S   UNL     1      11.006  11.418   0.285  1.00  0.00     0.124 S 
ATOM     71  O   UNL     1       9.656  11.728  -0.176  1.00  0.00    -0.237 OA
ATOM     72  O   UNL     1      11.704  12.497   0.975  1.00  0.00    -0.237 OA
ATOM     73  O   UNL     1      11.822  10.641  -0.644  1.00  0.00    -0.744 OA
ENDBRANCH  69  70
ENDBRANCH  48  62
BRANCH  49  74
ATOM     74  C   UNL     1       8.783   1.971  11.187  1.00  0.00     0.058 A 
ATOM     75  C   UNL     1       9.175   2.238  12.508  1.00  0.00     0.135 A 
ATOM     76  C   UNL     1       8.260   0.699  10.907  1.00  0.00     0.135 A 
ATOM     77  F   UNL     1       9.690   3.436  12.825  1.00  0.00    -0.206 F 
ATOM     78  C   UNL     1       9.089   1.271  13.504  1.00  0.00     0.059 A 
ATOM     79  C   UNL     1       8.138  -0.276  11.892  1.00  0.00     0.059 A 
ATOM     80  F   UNL     1       7.862   0.394   9.662  1.00  0.00    -0.206 F 
ATOM     81  C   UNL     1       8.574   0.013  13.184  1.00  0.00     0.060 A 
BRANCH  81  82
ATOM     82  S   UNL     1       8.466  -1.238  14.482  1.00  0.00     0.124 S 
ATOM     83  O   UNL     1       9.860  -1.644  14.613  1.00  0.00    -0.237 OA
ATOM     84  O   UNL     1       7.914  -0.477  15.599  1.00  0.00    -0.237 OA
ATOM     85  O   UNL     1       7.568  -2.237  13.909  1.00  0.00    -0.744 OA
ENDBRANCH  81  82
ENDBRANCH  49  74
BRANCH  61  86
ATOM     86  C   UNL     1      14.431   4.781   8.221  1.00  0.00     0.058 A 
ATOM     87  C   UNL     1      15.123   3.624   7.833  1.00  0.00     0.135 A 
ATOM     88  C   UNL     1      15.168   5.821   8.811  1.00  0.00     0.135 A 
ATOM     89  F   UNL     1      14.465   2.599   7.270  1.00  0.00    -0.206 F 
ATOM     90  C   UNL     1      16.493   3.494   8.043  1.00  0.00     0.059 A 
ATOM     91  C   UNL     1      16.543   5.723   9.005  1.00  0.00     0.059 A 
ATOM     92  F   UNL     1      14.556   6.955   9.188  1.00  0.00    -0.206 F 
ATOM     93  C   UNL     1      17.194   4.550   8.628  1.00  0.00     0.060 A 
BRANCH  93  94
ATOM     94  S   UNL     1      18.977   4.383   8.863  1.00  0.00     0.124 S 
ATOM     95  O   UNL     1      19.040   3.476  10.003  1.00  0.00    -0.237 OA
ATOM     96  O   UNL     1      19.411   3.826   7.585  1.00  0.00    -0.237 OA
ATOM     97  O   UNL     1      19.414   5.752   9.123  1.00  0.00    -0.744 OA
ENDBRANCH  93  94
ENDBRANCH  61  86
ENDBRANCH  35  36
ENDBRANCH  28  30
ENDBRANCH  27  28
ENDBRANCH  26  27
ENDBRANCH  25  26
ENDBRANCH  24  25
ENDBRANCH   1  24
TORSDOF 22
