REMARK SMILES C[C@]12C(=O)N(c3ccc(C(=O)OCCOCCOC(=O)c4ccc(-c5c6nc(c(-c7c(F)cc(S(=O)(=O)[O-])cc7F)c7ccc([nH]7)c(-c7c(F)cc(S(=O)(=O)[O-])cc7F)c7nc(c(-c8c(F)cc(S(=O)(=O)[O-])cc8F)c8ccc5[nH]8)C=C7)C=C6)cc4)cc3)C(=O)[C@H]1[C@H]1c3ccccc3[C@@H]2c2ccccc21
REMARK SMILES IDX 16 1 15 2 14 3 13 4 12 5 10 6 11 7 9 8 6 9 7 10 88 11 8 12
REMARK SMILES IDX 87 13 5 14 1 15 2 16 3 17 91 18 99 19 4 20 89 21 92 22 98 23
REMARK SMILES IDX 100 24 90 25 93 26 105 27 97 28 101 29 94 30 104 31 96 32
REMARK SMILES IDX 102 33 95 34 103 35 17 36 18 37 19 38 20 39 21 40 22 41
REMARK SMILES IDX 86 42 23 43 85 44 24 45 25 46 26 47 79 48 27 49 84 50 78 51
REMARK SMILES IDX 80 52 28 53 83 54 77 55 76 56 29 58 63 59 42 60 62 61 43 62
REMARK SMILES IDX 46 63 61 64 81 65 44 66 45 67 60 69 82 70 47 71 30 72 31 73
REMARK SMILES IDX 40 74 32 75 33 76 39 77 41 78 34 79 35 80 36 81 37 82 38 83
REMARK SMILES IDX 64 84 65 85 74 86 66 87 67 88 73 89 75 90 68 91 69 92 70 93
REMARK SMILES IDX 71 94 72 95 48 96 49 97 58 98 50 99 51 100 57 101 59 102
REMARK SMILES IDX 52 103 53 104 54 105 55 106 56 107
REMARK H PARENT 80 57 46 68
REMARK Flexibility Score: inf
ROOT
ATOM      1  C   UNL     1       4.491  -3.965  -8.771  1.00  0.00     0.202 C 
ENDROOT
BRANCH   1   2
ATOM      2  O   UNL     1       4.355  -4.996  -9.744  1.00  0.00    -0.374 OA
BRANCH   2   3
ATOM      3  C   UNL     1       3.247  -4.936 -10.641  1.00  0.00     0.202 C 
BRANCH   3   4
ATOM      4  C   UNL     1       1.842  -5.179 -10.076  1.00  0.00     0.261 C 
BRANCH   4   5
ATOM      5  O   UNL     1       1.457  -4.184  -9.111  1.00  0.00    -0.460 OA
BRANCH   5   6
ATOM      6  C   UNL     1       1.219  -4.674  -7.872  1.00  0.00     0.338 C 
ATOM      7  O   UNL     1       1.221  -5.845  -7.525  1.00  0.00    -0.246 OA
BRANCH   6   8
ATOM      8  C   UNL     1       1.184  -3.581  -6.881  1.00  0.00     0.060 A 
ATOM      9  C   UNL     1       1.004  -1.803  -4.703  1.00  0.00     0.052 A 
ATOM     10  C   UNL     1       1.978  -2.818  -4.740  1.00  0.00     0.028 A 
ATOM     11  C   UNL     1       0.196  -1.630  -5.838  1.00  0.00     0.028 A 
ATOM     12  C   UNL     1       2.045  -3.719  -5.795  1.00  0.00     0.018 A 
ATOM     13  C   UNL     1       0.297  -2.506  -6.938  1.00  0.00     0.018 A 
BRANCH   9  14
ATOM     14  N   UNL     1       0.725  -1.183  -3.458  1.00  0.00    -0.250 N 
ATOM     15  C   UNL     1       1.032  -0.112  -0.266  1.00  0.00     0.024 C 
ATOM     16  C   UNL     1       0.554  -1.266  -1.171  1.00  0.00     0.071 C 
ATOM     17  C   UNL     1       1.481  -1.325  -2.346  1.00  0.00     0.241 C 
ATOM     18  C   UNL     1      -0.918  -0.931  -1.702  1.00  0.00     0.107 C 
ATOM     19  C   UNL     1       0.690  -2.687  -0.507  1.00  0.00     0.066 C 
ATOM     20  O   UNL     1       2.693  -1.464  -2.247  1.00  0.00    -0.273 OA
ATOM     21  C   UNL     1      -0.385  -0.471  -3.108  1.00  0.00     0.238 C 
ATOM     22  C   UNL     1      -1.797  -2.090  -1.008  1.00  0.00     0.063 C 
ATOM     23  C   UNL     1       0.014  -3.689  -1.453  1.00  0.00    -0.036 A 
ATOM     24  C   UNL     1      -0.155  -2.629   0.748  1.00  0.00    -0.036 A 
ATOM     25  O   UNL     1      -0.911   0.430  -3.755  1.00  0.00    -0.274 OA
ATOM     26  C   UNL     1      -1.345  -3.384  -1.703  1.00  0.00    -0.036 A 
ATOM     27  C   UNL     1      -1.492  -2.257   0.485  1.00  0.00    -0.036 A 
ATOM     28  C   UNL     1       0.628  -4.736  -2.124  1.00  0.00     0.005 A 
ATOM     29  C   UNL     1       0.275  -2.954   2.027  1.00  0.00     0.005 A 
ATOM     30  C   UNL     1      -2.089  -4.104  -2.629  1.00  0.00     0.004 A 
ATOM     31  C   UNL     1      -2.413  -2.226   1.523  1.00  0.00     0.004 A 
ATOM     32  C   UNL     1      -0.116  -5.454  -3.067  1.00  0.00     0.000 A 
ATOM     33  C   UNL     1      -0.653  -2.916   3.065  1.00  0.00     0.000 A 
ATOM     34  C   UNL     1      -1.461  -5.140  -3.317  1.00  0.00     0.000 A 
ATOM     35  C   UNL     1      -1.986  -2.557   2.814  1.00  0.00     0.000 A 
ENDBRANCH   9  14
ENDBRANCH   6   8
ENDBRANCH   5   6
ENDBRANCH   4   5
ENDBRANCH   3   4
ENDBRANCH   2   3
ENDBRANCH   1   2
BRANCH   1  36
ATOM     36  C   UNL     1       4.910  -2.563  -9.237  1.00  0.00     0.261 C 
BRANCH  36  37
ATOM     37  O   UNL     1       4.023  -1.984 -10.205  1.00  0.00    -0.460 OA
BRANCH  37  38
ATOM     38  C   UNL     1       4.518  -1.923 -11.468  1.00  0.00     0.338 C 
ATOM     39  O   UNL     1       5.625  -2.276 -11.845  1.00  0.00    -0.246 OA
BRANCH  38  40
ATOM     40  C   UNL     1       3.439  -1.531 -12.394  1.00  0.00     0.060 A 
ATOM     41  C   UNL     1       2.714  -0.353 -12.206  1.00  0.00     0.016 A 
ATOM     42  C   UNL     1       3.170  -2.365 -13.487  1.00  0.00     0.016 A 
ATOM     43  C   UNL     1       1.719  -0.008 -13.126  1.00  0.00     0.010 A 
ATOM     44  C   UNL     1       2.175  -2.019 -14.401  1.00  0.00     0.010 A 
ATOM     45  C   UNL     1       1.447  -0.833 -14.233  1.00  0.00    -0.014 A 
BRANCH  45  46
ATOM     46  C   UNL     1       0.455  -0.416 -15.257  1.00  0.00     0.031 A 
ATOM     47  C   UNL     1      -0.882  -1.090 -15.363  1.00  0.00     0.074 A 
ATOM     48  C   UNL     1       0.780   0.572 -16.112  1.00  0.00     0.049 A 
ATOM     49  N   UNL     1      -1.874  -0.829 -16.176  1.00  0.00    -0.248 NA
ATOM     50  C   UNL     1      -1.136  -2.207 -14.441  1.00  0.00     0.031 C 
ATOM     51  C   UNL     1       2.059   1.284 -16.123  1.00  0.00     0.029 A 
ATOM     52  N   UNL     1       0.065   1.151 -17.128  1.00  0.00    -0.354 N 
ATOM     53  C   UNL     1      -2.880  -1.731 -15.854  1.00  0.00     0.074 A 
ATOM     54  C   UNL     1      -2.353  -2.585 -14.808  1.00  0.00     0.031 C 
ATOM     55  C   UNL     1       2.026   2.226 -17.078  1.00  0.00     0.029 A 
ATOM     56  C   UNL     1       0.740   2.163 -17.769  1.00  0.00     0.049 A 
ATOM     57  H   UNL     1      -0.845   0.870 -17.376  1.00  0.00     0.167 HD
ATOM     58  C   UNL     1      -4.132  -1.823 -16.367  1.00  0.00     0.037 A 
ATOM     59  C   UNL     1       0.368   2.951 -18.795  1.00  0.00     0.037 A 
ATOM     60  C   UNL     1      -4.639  -0.985 -17.427  1.00  0.00     0.049 A 
ATOM     61  C   UNL     1      -1.002   2.787 -19.392  1.00  0.00     0.074 A 
ATOM     62  C   UNL     1      -5.900  -0.989 -17.998  1.00  0.00     0.029 A 
ATOM     63  N   UNL     1      -3.909  -0.006 -18.087  1.00  0.00    -0.354 N 
ATOM     64  N   UNL     1      -1.963   1.966 -19.039  1.00  0.00    -0.248 NA
ATOM     65  C   UNL     1      -1.338   3.656 -20.527  1.00  0.00     0.031 C 
ATOM     66  C   UNL     1      -5.915  -0.053 -19.039  1.00  0.00     0.029 A 
ATOM     67  C   UNL     1      -4.681   0.577 -19.081  1.00  0.00     0.049 A 
ATOM     68  H   UNL     1      -2.978   0.239 -17.880  1.00  0.00     0.167 HD
ATOM     69  C   UNL     1      -3.022   2.228 -19.901  1.00  0.00     0.074 A 
ATOM     70  C   UNL     1      -2.592   3.302 -20.774  1.00  0.00     0.031 C 
ATOM     71  C   UNL     1      -4.239   1.629 -19.965  1.00  0.00     0.037 A 
BRANCH  58  72
ATOM     72  C   UNL     1      -5.043  -2.872 -15.786  1.00  0.00     0.058 A 
ATOM     73  C   UNL     1      -5.542  -2.767 -14.477  1.00  0.00     0.135 A 
ATOM     74  C   UNL     1      -5.451  -3.977 -16.551  1.00  0.00     0.135 A 
ATOM     75  F   UNL     1      -5.179  -1.737 -13.696  1.00  0.00    -0.206 F 
ATOM     76  C   UNL     1      -6.380  -3.736 -13.936  1.00  0.00     0.059 A 
ATOM     77  C   UNL     1      -6.313  -4.945 -16.040  1.00  0.00     0.059 A 
ATOM     78  F   UNL     1      -5.011  -4.128 -17.810  1.00  0.00    -0.206 F 
ATOM     79  C   UNL     1      -6.758  -4.824 -14.724  1.00  0.00     0.060 A 
BRANCH  79  80
ATOM     80  S   UNL     1      -7.827  -6.081 -13.994  1.00  0.00     0.124 S 
ATOM     81  O   UNL     1      -6.932  -6.689 -13.013  1.00  0.00    -0.237 OA
ATOM     82  O   UNL     1      -8.917  -5.281 -13.445  1.00  0.00    -0.237 OA
ATOM     83  O   UNL     1      -8.181  -6.929 -15.127  1.00  0.00    -0.744 OA
ENDBRANCH  79  80
ENDBRANCH  58  72
BRANCH  59  84
ATOM     84  C   UNL     1       1.305   3.993 -19.293  1.00  0.00     0.058 A 
ATOM     85  C   UNL     1       1.055   5.353 -19.057  1.00  0.00     0.135 A 
ATOM     86  C   UNL     1       2.490   3.651 -19.963  1.00  0.00     0.135 A 
ATOM     87  F   UNL     1      -0.070   5.729 -18.431  1.00  0.00    -0.206 F 
ATOM     88  C   UNL     1       1.948   6.338 -19.463  1.00  0.00     0.059 A 
ATOM     89  C   UNL     1       3.412   4.616 -20.355  1.00  0.00     0.059 A 
ATOM     90  F   UNL     1       2.779   2.363 -20.202  1.00  0.00    -0.206 F 
ATOM     91  C   UNL     1       3.132   5.958 -20.100  1.00  0.00     0.060 A 
BRANCH  91  92
ATOM     92  S   UNL     1       4.321   7.243 -20.541  1.00  0.00     0.124 S 
ATOM     93  O   UNL     1       3.607   7.959 -21.592  1.00  0.00    -0.237 OA
ATOM     94  O   UNL     1       4.479   7.955 -19.276  1.00  0.00    -0.237 OA
ATOM     95  O   UNL     1       5.490   6.485 -20.977  1.00  0.00    -0.744 OA
ENDBRANCH  91  92
ENDBRANCH  59  84
BRANCH  71  96
ATOM     96  C   UNL     1      -5.193   2.116 -21.025  1.00  0.00     0.058 A 
ATOM     97  C   UNL     1      -4.968   1.863 -22.388  1.00  0.00     0.135 A 
ATOM     98  C   UNL     1      -6.362   2.813 -20.676  1.00  0.00     0.135 A 
ATOM     99  F   UNL     1      -3.865   1.206 -22.780  1.00  0.00    -0.206 F 
ATOM    100  C   UNL     1      -5.848   2.312 -23.368  1.00  0.00     0.059 A 
ATOM    101  C   UNL     1      -7.273   3.243 -21.638  1.00  0.00     0.059 A 
ATOM    102  F   UNL     1      -6.636   3.074 -19.388  1.00  0.00    -0.206 F 
ATOM    103  C   UNL     1      -6.999   3.001 -22.983  1.00  0.00     0.060 A 
BRANCH 103 104
ATOM    104  S   UNL     1      -8.136   3.565 -24.267  1.00  0.00     0.124 S 
ATOM    105  O   UNL     1      -7.361   4.627 -24.901  1.00  0.00    -0.237 OA
ATOM    106  O   UNL     1      -8.327   2.357 -25.065  1.00  0.00    -0.237 OA
ATOM    107  O   UNL     1      -9.308   4.006 -23.517  1.00  0.00    -0.744 OA
ENDBRANCH 103 104
ENDBRANCH  71  96
ENDBRANCH  45  46
ENDBRANCH  38  40
ENDBRANCH  37  38
ENDBRANCH  36  37
ENDBRANCH   1  36
TORSDOF 18
