REMARK SMILES COc1ncccc1Cn1ccc(C(=O)OCCOCCOC(=O)c2ccc(-c3c4nc(c(-c5c(F)cc(S(=O)(=O)[O-])cc5F)c5ccc([nH]5)c(-c5c(F)cc(S(=O)(=O)[O-])cc5F)c5nc(c(-c6c(F)cc(S(=O)(=O)[O-])cc6F)c6ccc3[nH]6)C=C5)C=C4)cc2)n1
REMARK SMILES IDX 19 1 18 2 17 3 16 4 14 5 15 6 13 7 10 8 11 9 91 10 12 11
REMARK SMILES IDX 9 12 8 13 3 14 4 15 5 16 7 17 6 18 2 19 1 20 20 21 21 22
REMARK SMILES IDX 22 23 23 24 24 25 25 26 26 27 90 28 27 29 89 30 28 31 29 32
REMARK SMILES IDX 30 33 83 34 31 35 88 36 82 37 84 38 32 39 87 40 81 41 80 42
REMARK SMILES IDX 33 44 67 45 46 46 66 47 47 48 50 49 65 50 85 51 48 52 49 53
REMARK SMILES IDX 64 55 86 56 51 57 34 58 35 59 44 60 36 61 37 62 43 63 45 64
REMARK SMILES IDX 38 65 39 66 40 67 41 68 42 69 68 70 69 71 78 72 70 73 71 74
REMARK SMILES IDX 77 75 79 76 72 77 73 78 74 79 75 80 76 81 52 82 53 83 62 84
REMARK SMILES IDX 54 85 55 86 61 87 63 88 56 89 57 90 58 91 59 92 60 93
REMARK H PARENT 84 43 50 54
REMARK Flexibility Score: inf
ROOT
ATOM      1  O   UNL     1       3.189  -0.502   6.726  1.00  0.00    -0.374 OA
ENDROOT
BRANCH   1   2
ATOM      2  C   UNL     1       4.589  -0.252   6.569  1.00  0.00     0.202 C 
BRANCH   2   3
ATOM      3  C   UNL     1       5.309  -0.971   5.420  1.00  0.00     0.261 C 
BRANCH   3   4
ATOM      4  O   UNL     1       4.958  -0.416   4.141  1.00  0.00    -0.458 OA
BRANCH   4   5
ATOM      5  C   UNL     1       4.170  -1.194   3.339  1.00  0.00     0.358 C 
ATOM      6  O   UNL     1       3.895  -2.369   3.557  1.00  0.00    -0.244 OA
BRANCH   5   7
ATOM      7  C   UNL     1       3.465  -0.387   2.337  1.00  0.00     0.170 A 
ATOM      8  N   UNL     1       3.055   0.960   0.738  1.00  0.00    -0.267 N 
ATOM      9  C   UNL     1       1.859   0.803   1.381  1.00  0.00     0.110 A 
ATOM     10  N   UNL     1       4.073   0.342   1.385  1.00  0.00    -0.165 NA
ATOM     11  C   UNL     1       2.057  -0.200   2.294  1.00  0.00     0.057 A 
BRANCH   8  12
ATOM     12  C   UNL     1       3.317   1.532  -0.587  1.00  0.00     0.185 C 
BRANCH  12  13
ATOM     13  C   UNL     1       2.186   2.336  -1.157  1.00  0.00     0.036 A 
ATOM     14  C   UNL     1       1.082   1.755  -1.786  1.00  0.00     0.218 A 
ATOM     15  N   UNL     1       0.037   2.463  -2.266  1.00  0.00    -0.222 NA
ATOM     16  C   UNL     1       0.107   3.812  -2.161  1.00  0.00     0.115 A 
ATOM     17  C   UNL     1       2.224   3.736  -1.085  1.00  0.00     0.013 A 
ATOM     18  C   UNL     1       1.182   4.487  -1.613  1.00  0.00     0.021 A 
BRANCH  14  19
ATOM     19  O   UNL     1       1.132   0.452  -2.218  1.00  0.00    -0.481 OA
ATOM     20  C   UNL     1       0.688  -0.490  -1.251  1.00  0.00     0.280 C 
ENDBRANCH  14  19
ENDBRANCH  12  13
ENDBRANCH   8  12
ENDBRANCH   5   7
ENDBRANCH   4   5
ENDBRANCH   3   4
ENDBRANCH   2   3
ENDBRANCH   1   2
BRANCH   1  21
ATOM     21  C   UNL     1       2.282   0.090   5.806  1.00  0.00     0.202 C 
BRANCH  21  22
ATOM     22  C   UNL     1       1.986   1.577   5.923  1.00  0.00     0.261 C 
BRANCH  22  23
ATOM     23  O   UNL     1       3.140   2.365   5.676  1.00  0.00    -0.460 OA
BRANCH  23  24
ATOM     24  C   UNL     1       3.726   2.843   6.792  1.00  0.00     0.338 C 
ATOM     25  O   UNL     1       3.572   2.436   7.938  1.00  0.00    -0.246 OA
BRANCH  24  26
ATOM     26  C   UNL     1       4.459   4.059   6.446  1.00  0.00     0.060 A 
ATOM     27  C   UNL     1       4.987   4.783   7.516  1.00  0.00     0.016 A 
ATOM     28  C   UNL     1       4.357   4.601   5.154  1.00  0.00     0.016 A 
ATOM     29  C   UNL     1       5.199   6.128   7.342  1.00  0.00     0.010 A 
ATOM     30  C   UNL     1       4.562   5.948   4.985  1.00  0.00     0.010 A 
ATOM     31  C   UNL     1       4.893   6.705   6.103  1.00  0.00    -0.014 A 
BRANCH  31  32
ATOM     32  C   UNL     1       5.057   8.133   5.976  1.00  0.00     0.031 A 
ATOM     33  C   UNL     1       6.481   8.527   6.010  1.00  0.00     0.074 A 
ATOM     34  C   UNL     1       4.026   8.972   5.771  1.00  0.00     0.049 A 
ATOM     35  N   UNL     1       7.097   9.138   6.965  1.00  0.00    -0.248 NA
ATOM     36  C   UNL     1       7.370   7.976   4.973  1.00  0.00     0.031 C 
ATOM     37  C   UNL     1       2.627   8.652   5.484  1.00  0.00     0.029 A 
ATOM     38  N   UNL     1       4.049  10.327   5.691  1.00  0.00    -0.354 N 
ATOM     39  C   UNL     1       8.404   9.278   6.521  1.00  0.00     0.074 A 
ATOM     40  C   UNL     1       8.564   8.362   5.423  1.00  0.00     0.031 C 
ATOM     41  C   UNL     1       2.000   9.764   5.033  1.00  0.00     0.029 A 
ATOM     42  C   UNL     1       2.913  10.891   5.119  1.00  0.00     0.049 A 
ATOM     43  H   UNL     1       4.808  10.867   6.011  1.00  0.00     0.167 HD
ATOM     44  C   UNL     1       9.154  10.346   6.901  1.00  0.00     0.037 A 
ATOM     45  C   UNL     1       2.806  12.171   4.673  1.00  0.00     0.037 A 
ATOM     46  C   UNL     1       8.626  10.960   8.094  1.00  0.00     0.049 A 
ATOM     47  C   UNL     1       3.864  12.957   5.376  1.00  0.00     0.074 A 
ATOM     48  C   UNL     1       8.342  10.490   9.364  1.00  0.00     0.029 A 
ATOM     49  N   UNL     1       7.910  12.127   7.961  1.00  0.00    -0.354 N 
ATOM     50  N   UNL     1       3.857  13.178   6.665  1.00  0.00    -0.248 NA
ATOM     51  C   UNL     1       5.173  13.045   4.740  1.00  0.00     0.031 C 
ATOM     52  C   UNL     1       7.106  11.105   9.716  1.00  0.00     0.029 A 
ATOM     53  C   UNL     1       6.753  11.980   8.688  1.00  0.00     0.049 A 
ATOM     54  H   UNL     1       8.176  12.919   7.441  1.00  0.00     0.167 HD
ATOM     55  C   UNL     1       5.175  13.004   7.066  1.00  0.00     0.074 A 
ATOM     56  C   UNL     1       5.950  12.980   5.825  1.00  0.00     0.031 C 
ATOM     57  C   UNL     1       5.493  12.596   8.332  1.00  0.00     0.037 A 
BRANCH  44  58
ATOM     58  C   UNL     1      10.111  11.036   5.966  1.00  0.00     0.058 A 
ATOM     59  C   UNL     1      11.005  11.996   6.473  1.00  0.00     0.135 A 
ATOM     60  C   UNL     1      10.007  10.981   4.556  1.00  0.00     0.135 A 
ATOM     61  F   UNL     1      11.156  12.156   7.797  1.00  0.00    -0.206 F 
ATOM     62  C   UNL     1      11.710  12.866   5.641  1.00  0.00     0.059 A 
ATOM     63  C   UNL     1      10.744  11.793   3.708  1.00  0.00     0.059 A 
ATOM     64  F   UNL     1       9.112  10.207   3.929  1.00  0.00    -0.206 F 
ATOM     65  C   UNL     1      11.567  12.758   4.259  1.00  0.00     0.060 A 
BRANCH  65  66
ATOM     66  S   UNL     1      12.416  13.923   3.183  1.00  0.00     0.124 S 
ATOM     67  O   UNL     1      11.702  15.160   3.474  1.00  0.00    -0.237 OA
ATOM     68  O   UNL     1      13.787  13.841   3.676  1.00  0.00    -0.237 OA
ATOM     69  O   UNL     1      12.202  13.366   1.851  1.00  0.00    -0.744 OA
ENDBRANCH  65  66
ENDBRANCH  44  58
BRANCH  45  70
ATOM     70  C   UNL     1       2.154  12.632   3.412  1.00  0.00     0.058 A 
ATOM     71  C   UNL     1       2.000  14.002   3.122  1.00  0.00     0.135 A 
ATOM     72  C   UNL     1       1.913  11.749   2.338  1.00  0.00     0.135 A 
ATOM     73  F   UNL     1       2.227  14.921   4.073  1.00  0.00    -0.206 F 
ATOM     74  C   UNL     1       1.678  14.467   1.838  1.00  0.00     0.059 A 
ATOM     75  C   UNL     1       1.581  12.187   1.057  1.00  0.00     0.059 A 
ATOM     76  F   UNL     1       2.084  10.426   2.470  1.00  0.00    -0.206 F 
ATOM     77  C   UNL     1       1.491  13.549   0.805  1.00  0.00     0.060 A 
BRANCH  77  78
ATOM     78  S   UNL     1       1.256  14.132  -0.892  1.00  0.00     0.124 S 
ATOM     79  O   UNL     1      -0.080  14.714  -0.829  1.00  0.00    -0.237 OA
ATOM     80  O   UNL     1       2.357  15.076  -1.050  1.00  0.00    -0.237 OA
ATOM     81  O   UNL     1       1.367  12.912  -1.687  1.00  0.00    -0.744 OA
ENDBRANCH  77  78
ENDBRANCH  45  70
BRANCH  57  82
ATOM     82  C   UNL     1       4.411  12.577   9.385  1.00  0.00     0.058 A 
ATOM     83  C   UNL     1       3.250  11.783   9.329  1.00  0.00     0.135 A 
ATOM     84  C   UNL     1       4.650  13.267  10.584  1.00  0.00     0.135 A 
ATOM     85  F   UNL     1       2.997  11.005   8.267  1.00  0.00    -0.206 F 
ATOM     86  C   UNL     1       2.350  11.715  10.397  1.00  0.00     0.059 A 
ATOM     87  C   UNL     1       3.785  13.187  11.672  1.00  0.00     0.059 A 
ATOM     88  F   UNL     1       5.771  13.992  10.730  1.00  0.00    -0.206 F 
ATOM     89  C   UNL     1       2.628  12.421  11.567  1.00  0.00     0.060 A 
BRANCH  89  90
ATOM     90  S   UNL     1       1.500  12.286  12.972  1.00  0.00     0.124 S 
ATOM     91  O   UNL     1       0.330  13.016  12.496  1.00  0.00    -0.237 OA
ATOM     92  O   UNL     1       1.335  10.842  13.110  1.00  0.00    -0.237 OA
ATOM     93  O   UNL     1       2.233  12.927  14.061  1.00  0.00    -0.744 OA
ENDBRANCH  89  90
ENDBRANCH  57  82
ENDBRANCH  31  32
ENDBRANCH  24  26
ENDBRANCH  23  24
ENDBRANCH  22  23
ENDBRANCH  21  22
ENDBRANCH   1  21
TORSDOF 20
