REMARK SMILES O=C(C[C@@H]([NH2+]C[C@H]1CCCO1)C(=O)OCCOCCOC(=O)c1ccc(-c2c3nc(c(-c4c(F)cc(S(=O)(=O)[O-])cc4F)c4ccc([nH]4)c(-c4c(F)cc(S(=O)(=O)[O-])cc4F)c4nc(c(-c5c(F)cc(S(=O)(=O)[O-])cc5F)c5ccc2[nH]5)C=C4)C=C3)cc1)Nc1cccc(Cl)c1
REMARK SMILES IDX 17 1 16 2 15 3 14 4 12 5 13 6 4 7 3 8 2 9 1 10 89 11 90 13
REMARK SMILES IDX 91 14 96 15 92 16 94 17 93 18 95 19 5 20 6 23 7 24 8 25
REMARK SMILES IDX 11 26 9 27 10 28 18 29 19 30 20 31 21 32 22 33 23 34 24 35
REMARK SMILES IDX 88 36 25 37 87 38 26 39 27 40 28 41 81 42 29 43 86 44 80 45
REMARK SMILES IDX 82 46 30 47 85 48 79 49 78 50 31 52 65 53 44 54 64 55 45 56
REMARK SMILES IDX 48 57 63 58 83 59 46 60 47 61 62 63 84 64 49 65 32 66 33 67
REMARK SMILES IDX 42 68 34 69 35 70 41 71 43 72 36 73 37 74 38 75 39 76 40 77
REMARK SMILES IDX 66 78 67 79 76 80 68 81 69 82 75 83 77 84 70 85 71 86 72 87
REMARK SMILES IDX 73 88 74 89 50 90 51 91 60 92 52 93 53 94 59 95 61 96 54 97
REMARK SMILES IDX 55 98 56 99 57 100 58 101
REMARK H PARENT 89 12 5 21 5 22 82 51 48 62
REMARK Flexibility Score: inf
ROOT
ATOM      1  O   UNL     1       8.654   5.846   5.130  1.00  0.00    -0.374 OA
ENDROOT
BRANCH   1   2
ATOM      2  C   UNL     1       8.516   5.341   6.453  1.00  0.00     0.202 C 
BRANCH   2   3
ATOM      3  C   UNL     1       7.577   4.151   6.692  1.00  0.00     0.261 C 
BRANCH   3   4
ATOM      4  O   UNL     1       7.788   3.048   5.800  1.00  0.00    -0.459 OA
BRANCH   4   5
ATOM      5  C   UNL     1       6.930   3.024   4.740  1.00  0.00     0.365 C 
ATOM      6  O   UNL     1       6.054   3.866   4.569  1.00  0.00    -0.245 OA
BRANCH   5   7
ATOM      7  C   UNL     1       7.186   1.850   3.769  1.00  0.00     0.302 C 
BRANCH   7   8
ATOM      8  C   UNL     1       8.579   1.216   3.985  1.00  0.00     0.177 C 
BRANCH   8   9
ATOM      9  C   UNL     1       8.966   0.263   2.869  1.00  0.00     0.231 C 
ATOM     10  O   UNL     1       9.795   0.573   2.020  1.00  0.00    -0.274 OA
ATOM     11  N   UNL     1       8.235  -0.911   2.908  1.00  0.00    -0.326 N 
ATOM     12  H   UNL     1       7.598  -1.006   3.653  1.00  0.00     0.169 HD
BRANCH  11  13
ATOM     13  C   UNL     1       8.301  -1.983   2.002  1.00  0.00     0.042 A 
ATOM     14  C   UNL     1       7.170  -2.804   1.904  1.00  0.00     0.026 A 
ATOM     15  C   UNL     1       9.428  -2.270   1.233  1.00  0.00     0.046 A 
ATOM     16  C   UNL     1       7.153  -3.887   1.023  1.00  0.00     0.004 A 
ATOM     17  C   UNL     1       9.422  -3.381   0.388  1.00  0.00     0.043 A 
ATOM     18  C   UNL     1       8.287  -4.183   0.271  1.00  0.00     0.020 A 
ATOM     19  Cl  UNL     1      10.837  -3.789  -0.506  1.00  0.00    -0.084 Cl
ENDBRANCH  11  13
ENDBRANCH   8   9
ENDBRANCH   7   8
BRANCH   7  20
ATOM     20  N   UNL     1       6.147   0.776   3.849  1.00  0.00    -0.332 N 
ATOM     21  H   UNL     1       6.321   0.235   4.697  1.00  0.00     0.347 HD
ATOM     22  H   UNL     1       6.238   0.240   2.986  1.00  0.00     0.347 HD
BRANCH  20  23
ATOM     23  C   UNL     1       4.744   1.234   3.887  1.00  0.00     0.293 C 
BRANCH  23  24
ATOM     24  C   UNL     1       4.198   1.743   2.529  1.00  0.00     0.173 C 
ATOM     25  C   UNL     1       2.681   1.822   2.514  1.00  0.00     0.040 C 
ATOM     26  O   UNL     1       4.634   3.084   2.264  1.00  0.00    -0.372 OA
ATOM     27  C   UNL     1       2.423   3.162   3.153  1.00  0.00     0.031 C 
ATOM     28  C   UNL     1       3.583   3.994   2.644  1.00  0.00     0.161 C 
ENDBRANCH  23  24
ENDBRANCH  20  23
ENDBRANCH   7  20
ENDBRANCH   5   7
ENDBRANCH   4   5
ENDBRANCH   3   4
ENDBRANCH   2   3
ENDBRANCH   1   2
BRANCH   1  29
ATOM     29  C   UNL     1       9.440   5.105   4.196  1.00  0.00     0.202 C 
BRANCH  29  30
ATOM     30  C   UNL     1      10.944   4.962   4.467  1.00  0.00     0.261 C 
BRANCH  30  31
ATOM     31  O   UNL     1      11.221   4.165   5.634  1.00  0.00    -0.460 OA
BRANCH  31  32
ATOM     32  C   UNL     1      11.903   4.809   6.613  1.00  0.00     0.338 C 
ATOM     33  O   UNL     1      12.350   5.949   6.574  1.00  0.00    -0.246 OA
BRANCH  32  34
ATOM     34  C   UNL     1      11.866   4.021   7.856  1.00  0.00     0.060 A 
ATOM     35  C   UNL     1      11.284   4.611   8.986  1.00  0.00     0.016 A 
ATOM     36  C   UNL     1      12.460   2.761   7.939  1.00  0.00     0.016 A 
ATOM     37  C   UNL     1      11.322   3.955  10.214  1.00  0.00     0.010 A 
ATOM     38  C   UNL     1      12.511   2.112   9.177  1.00  0.00     0.010 A 
ATOM     39  C   UNL     1      11.967   2.717  10.324  1.00  0.00    -0.014 A 
BRANCH  39  40
ATOM     40  C   UNL     1      12.183   2.118  11.663  1.00  0.00     0.031 A 
ATOM     41  C   UNL     1      13.516   2.296  12.336  1.00  0.00     0.074 A 
ATOM     42  C   UNL     1      11.196   1.441  12.277  1.00  0.00     0.049 A 
ATOM     43  N   UNL     1      13.943   1.806  13.471  1.00  0.00    -0.248 NA
ATOM     44  C   UNL     1      14.498   3.143  11.639  1.00  0.00     0.031 C 
ATOM     45  C   UNL     1       9.848   1.245  11.744  1.00  0.00     0.029 A 
ATOM     46  N   UNL     1      11.180   0.782  13.481  1.00  0.00    -0.354 N 
ATOM     47  C   UNL     1      15.241   2.279  13.623  1.00  0.00     0.074 A 
ATOM     48  C   UNL     1      15.541   3.076  12.454  1.00  0.00     0.031 C 
ATOM     49  C   UNL     1       9.141   0.499  12.610  1.00  0.00     0.029 A 
ATOM     50  C   UNL     1       9.995   0.135  13.738  1.00  0.00     0.049 A 
ATOM     51  H   UNL     1      11.945   0.775  14.101  1.00  0.00     0.167 HD
ATOM     52  C   UNL     1      16.099   2.072  14.650  1.00  0.00     0.037 A 
ATOM     53  C   UNL     1       9.653  -0.684  14.753  1.00  0.00     0.037 A 
ATOM     54  C   UNL     1      15.793   1.276  15.810  1.00  0.00     0.049 A 
ATOM     55  C   UNL     1      10.658  -0.972  15.838  1.00  0.00     0.074 A 
ATOM     56  C   UNL     1      16.590   1.019  16.911  1.00  0.00     0.029 A 
ATOM     57  N   UNL     1      14.598   0.602  16.015  1.00  0.00    -0.354 N 
ATOM     58  N   UNL     1      11.876  -0.505  15.980  1.00  0.00    -0.248 NA
ATOM     59  C   UNL     1      10.245  -1.903  16.899  1.00  0.00     0.031 C 
ATOM     60  C   UNL     1      15.895   0.150  17.760  1.00  0.00     0.029 A 
ATOM     61  C   UNL     1      14.647  -0.095  17.210  1.00  0.00     0.049 A 
ATOM     62  H   UNL     1      13.829   0.617  15.401  1.00  0.00     0.167 HD
ATOM     63  C   UNL     1      12.367  -1.070  17.153  1.00  0.00     0.074 A 
ATOM     64  C   UNL     1      11.310  -1.901  17.690  1.00  0.00     0.031 C 
ATOM     65  C   UNL     1      13.583  -0.916  17.732  1.00  0.00     0.037 A 
BRANCH  52  66
ATOM     66  C   UNL     1      17.463   2.698  14.559  1.00  0.00     0.058 A 
ATOM     67  C   UNL     1      17.653   4.077  14.737  1.00  0.00     0.135 A 
ATOM     68  C   UNL     1      18.599   1.901  14.344  1.00  0.00     0.135 A 
ATOM     69  F   UNL     1      16.599   4.886  14.927  1.00  0.00    -0.206 F 
ATOM     70  C   UNL     1      18.922   4.647  14.690  1.00  0.00     0.059 A 
ATOM     71  C   UNL     1      19.879   2.446  14.317  1.00  0.00     0.059 A 
ATOM     72  F   UNL     1      18.471   0.577  14.164  1.00  0.00    -0.206 F 
ATOM     73  C   UNL     1      20.029   3.822  14.482  1.00  0.00     0.060 A 
BRANCH  73  74
ATOM     74  S   UNL     1      21.670   4.575  14.447  1.00  0.00     0.124 S 
ATOM     75  O   UNL     1      21.645   5.268  13.162  1.00  0.00    -0.237 OA
ATOM     76  O   UNL     1      21.646   5.430  15.629  1.00  0.00    -0.237 OA
ATOM     77  O   UNL     1      22.572   3.429  14.523  1.00  0.00    -0.744 OA
ENDBRANCH  73  74
ENDBRANCH  52  66
BRANCH  53  78
ATOM     78  C   UNL     1       8.309  -1.321  14.776  1.00  0.00     0.058 A 
ATOM     79  C   UNL     1       7.355  -0.971  15.742  1.00  0.00     0.135 A 
ATOM     80  C   UNL     1       7.958  -2.305  13.838  1.00  0.00     0.135 A 
ATOM     81  F   UNL     1       7.647  -0.044  16.668  1.00  0.00    -0.206 F 
ATOM     82  C   UNL     1       6.106  -1.583  15.790  1.00  0.00     0.059 A 
ATOM     83  C   UNL     1       6.707  -2.914  13.849  1.00  0.00     0.059 A 
ATOM     84  F   UNL     1       8.832  -2.671  12.887  1.00  0.00    -0.206 F 
ATOM     85  C   UNL     1       5.792  -2.554  14.837  1.00  0.00     0.060 A 
BRANCH  85  86
ATOM     86  S   UNL     1       4.155  -3.316  14.880  1.00  0.00     0.124 S 
ATOM     87  O   UNL     1       4.277  -4.209  16.026  1.00  0.00    -0.237 OA
ATOM     88  O   UNL     1       3.283  -2.160  15.059  1.00  0.00    -0.237 OA
ATOM     89  O   UNL     1       4.056  -3.968  13.577  1.00  0.00    -0.744 OA
ENDBRANCH  85  86
ENDBRANCH  53  78
BRANCH  65  90
ATOM     90  C   UNL     1      13.836  -1.643  19.024  1.00  0.00     0.058 A 
ATOM     91  C   UNL     1      14.056  -3.028  19.055  1.00  0.00     0.135 A 
ATOM     92  C   UNL     1      13.925  -0.936  20.235  1.00  0.00     0.135 A 
ATOM     93  F   UNL     1      13.974  -3.751  17.927  1.00  0.00    -0.206 F 
ATOM     94  C   UNL     1      14.343  -3.691  20.244  1.00  0.00     0.059 A 
ATOM     95  C   UNL     1      14.236  -1.575  21.431  1.00  0.00     0.059 A 
ATOM     96  F   UNL     1      13.732   0.392  20.258  1.00  0.00    -0.206 F 
ATOM     97  C   UNL     1      14.436  -2.955  21.427  1.00  0.00     0.060 A 
BRANCH  97  98
ATOM     98  S   UNL     1      14.856  -3.821  22.954  1.00  0.00     0.124 S 
ATOM     99  O   UNL     1      13.611  -4.521  23.248  1.00  0.00    -0.237 OA
ATOM    100  O   UNL     1      15.974  -4.663  22.539  1.00  0.00    -0.237 OA
ATOM    101  O   UNL     1      15.201  -2.740  23.874  1.00  0.00    -0.744 OA
ENDBRANCH  97  98
ENDBRANCH  65  90
ENDBRANCH  39  40
ENDBRANCH  32  34
ENDBRANCH  31  32
ENDBRANCH  30  31
ENDBRANCH  29  30
ENDBRANCH   1  29
TORSDOF 23
