REMARK SMILES O=C(OCCOCCOC(=O)c1ccc(-c2c3nc(c(-c4c(F)cc(S(=O)(=O)[O-])cc4F)c4ccc([nH]4)c(-c4c(F)cc(S(=O)(=O)[O-])cc4F)c4nc(c(-c5c(F)cc(S(=O)(=O)[O-])cc5F)c5ccc2[nH]5)C=C4)C=C3)cc1)c1ccc(-c2ccc(=O)[nH]c2)cc1
REMARK SMILES IDX 7 1 6 2 5 3 4 4 3 5 2 6 1 7 78 8 79 9 90 10 80 11 89 12
REMARK SMILES IDX 81 13 82 14 83 15 88 16 84 17 87 18 85 19 86 21 8 22 9 23
REMARK SMILES IDX 10 24 11 25 12 26 13 27 77 28 14 29 76 30 15 31 16 32 17 33
REMARK SMILES IDX 70 34 18 35 75 36 69 37 71 38 19 39 74 40 68 41 67 42 20 44
REMARK SMILES IDX 54 45 33 46 53 47 34 48 37 49 52 50 72 51 35 52 36 53 51 55
REMARK SMILES IDX 73 56 38 57 21 58 22 59 31 60 23 61 24 62 30 63 32 64 25 65
REMARK SMILES IDX 26 66 27 67 28 68 29 69 55 70 56 71 65 72 57 73 58 74 64 75
REMARK SMILES IDX 66 76 59 77 60 78 61 79 62 80 63 81 39 82 40 83 49 84 41 85
REMARK SMILES IDX 42 86 48 87 50 88 43 89 44 90 45 91 46 92 47 93
REMARK H PARENT 87 20 71 43 37 54
REMARK Flexibility Score: inf
ROOT
ATOM      1  C   UNL     1       2.723   1.831   1.190  1.00  0.00     0.202 C 
ENDROOT
BRANCH   1   2
ATOM      2  O   UNL     1       4.068   1.513   0.806  1.00  0.00    -0.374 OA
BRANCH   2   3
ATOM      3  C   UNL     1       4.285   1.349  -0.596  1.00  0.00     0.202 C 
BRANCH   3   4
ATOM      4  C   UNL     1       3.984  -0.063  -1.098  1.00  0.00     0.261 C 
BRANCH   4   5
ATOM      5  O   UNL     1       2.617  -0.415  -0.803  1.00  0.00    -0.460 OA
BRANCH   5   6
ATOM      6  C   UNL     1       2.188  -1.361   0.064  1.00  0.00     0.338 C 
ATOM      7  O   UNL     1       0.991  -1.620   0.154  1.00  0.00    -0.246 OA
BRANCH   6   8
ATOM      8  C   UNL     1       3.133  -2.129   0.916  1.00  0.00     0.060 A 
ATOM      9  C   UNL     1       4.168  -1.531   1.633  1.00  0.00     0.016 A 
ATOM     10  C   UNL     1       2.900  -3.498   1.096  1.00  0.00     0.016 A 
ATOM     11  C   UNL     1       5.008  -2.283   2.445  1.00  0.00     0.009 A 
ATOM     12  C   UNL     1       3.721  -4.256   1.944  1.00  0.00     0.009 A 
ATOM     13  C   UNL     1       4.787  -3.651   2.622  1.00  0.00    -0.017 A 
BRANCH  13  14
ATOM     14  C   UNL     1       5.706  -4.404   3.496  1.00  0.00    -0.002 A 
ATOM     15  C   UNL     1       6.449  -5.573   3.053  1.00  0.00     0.016 A 
ATOM     16  C   UNL     1       5.948  -3.928   4.733  1.00  0.00     0.094 A 
ATOM     17  C   UNL     1       7.388  -6.135   3.827  1.00  0.00     0.072 A 
ATOM     18  N   UNL     1       6.900  -4.498   5.539  1.00  0.00    -0.328 N 
ATOM     19  C   UNL     1       7.671  -5.571   5.171  1.00  0.00     0.247 A 
ATOM     20  H   UNL     1       7.037  -4.115   6.436  1.00  0.00     0.169 HD
ATOM     21  O   UNL     1       8.541  -6.046   5.891  1.00  0.00    -0.270 OA
ENDBRANCH  13  14
ENDBRANCH   6   8
ENDBRANCH   5   6
ENDBRANCH   4   5
ENDBRANCH   3   4
ENDBRANCH   2   3
ENDBRANCH   1   2
BRANCH   1  22
ATOM     22  C   UNL     1       2.753   2.925   2.262  1.00  0.00     0.261 C 
BRANCH  22  23
ATOM     23  O   UNL     1       3.236   4.129   1.653  1.00  0.00    -0.460 OA
BRANCH  23  24
ATOM     24  C   UNL     1       4.587   4.197   1.539  1.00  0.00     0.338 C 
ATOM     25  O   UNL     1       5.415   3.678   2.270  1.00  0.00    -0.246 OA
BRANCH  24  26
ATOM     26  C   UNL     1       4.893   4.819   0.231  1.00  0.00     0.060 A 
ATOM     27  C   UNL     1       6.052   4.418  -0.451  1.00  0.00     0.016 A 
ATOM     28  C   UNL     1       4.016   5.740  -0.348  1.00  0.00     0.016 A 
ATOM     29  C   UNL     1       6.357   4.968  -1.696  1.00  0.00     0.010 A 
ATOM     30  C   UNL     1       4.317   6.287  -1.588  1.00  0.00     0.010 A 
ATOM     31  C   UNL     1       5.506   5.933  -2.245  1.00  0.00    -0.014 A 
BRANCH  31  32
ATOM     32  C   UNL     1       5.929   6.784  -3.375  1.00  0.00     0.031 A 
ATOM     33  C   UNL     1       6.463   8.145  -3.039  1.00  0.00     0.074 A 
ATOM     34  C   UNL     1       5.709   6.411  -4.646  1.00  0.00     0.049 A 
ATOM     35  N   UNL     1       6.658   9.177  -3.812  1.00  0.00    -0.248 NA
ATOM     36  C   UNL     1       6.780   8.381  -1.619  1.00  0.00     0.031 C 
ATOM     37  C   UNL     1       5.197   5.109  -5.069  1.00  0.00     0.029 A 
ATOM     38  N   UNL     1       5.839   7.122  -5.810  1.00  0.00    -0.354 N 
ATOM     39  C   UNL     1       7.083  10.197  -2.969  1.00  0.00     0.074 A 
ATOM     40  C   UNL     1       7.097   9.665  -1.625  1.00  0.00     0.031 C 
ATOM     41  C   UNL     1       5.012   5.129  -6.400  1.00  0.00     0.029 A 
ATOM     42  C   UNL     1       5.351   6.458  -6.909  1.00  0.00     0.049 A 
ATOM     43  H   UNL     1       6.242   8.020  -5.854  1.00  0.00     0.167 HD
ATOM     44  C   UNL     1       7.423  11.466  -3.291  1.00  0.00     0.037 A 
ATOM     45  C   UNL     1       5.159   6.894  -8.170  1.00  0.00     0.037 A 
ATOM     46  C   UNL     1       7.390  11.972  -4.636  1.00  0.00     0.049 A 
ATOM     47  C   UNL     1       5.533   8.312  -8.515  1.00  0.00     0.074 A 
ATOM     48  C   UNL     1       7.753  13.223  -5.096  1.00  0.00     0.029 A 
ATOM     49  N   UNL     1       6.954  11.247  -5.737  1.00  0.00    -0.354 N 
ATOM     50  N   UNL     1       5.979   9.261  -7.724  1.00  0.00    -0.248 NA
ATOM     51  C   UNL     1       5.384   8.719  -9.918  1.00  0.00     0.031 C 
ATOM     52  C   UNL     1       7.491  13.270  -6.470  1.00  0.00     0.029 A 
ATOM     53  C   UNL     1       7.019  12.030  -6.875  1.00  0.00     0.049 A 
ATOM     54  H   UNL     1       6.643  10.313  -5.712  1.00  0.00     0.167 HD
ATOM     55  C   UNL     1       6.191  10.369  -8.537  1.00  0.00     0.074 A 
ATOM     56  C   UNL     1       5.822   9.972  -9.882  1.00  0.00     0.031 C 
ATOM     57  C   UNL     1       6.656  11.600  -8.205  1.00  0.00     0.037 A 
BRANCH  44  58
ATOM     58  C   UNL     1       7.806  12.382  -2.162  1.00  0.00     0.058 A 
ATOM     59  C   UNL     1       8.984  12.195  -1.420  1.00  0.00     0.135 A 
ATOM     60  C   UNL     1       6.960  13.439  -1.788  1.00  0.00     0.135 A 
ATOM     61  F   UNL     1       9.819  11.187  -1.720  1.00  0.00    -0.206 F 
ATOM     62  C   UNL     1       9.283  12.987  -0.317  1.00  0.00     0.059 A 
ATOM     63  C   UNL     1       7.256  14.265  -0.708  1.00  0.00     0.059 A 
ATOM     64  F   UNL     1       5.819  13.662  -2.459  1.00  0.00    -0.206 F 
ATOM     65  C   UNL     1       8.407  14.014   0.038  1.00  0.00     0.060 A 
BRANCH  65  66
ATOM     66  S   UNL     1       8.783  15.007   1.497  1.00  0.00     0.124 S 
ATOM     67  O   UNL     1       8.441  14.081   2.573  1.00  0.00    -0.237 OA
ATOM     68  O   UNL     1      10.206  15.283   1.330  1.00  0.00    -0.237 OA
ATOM     69  O   UNL     1       7.903  16.162   1.359  1.00  0.00    -0.744 OA
ENDBRANCH  65  66
ENDBRANCH  44  58
BRANCH  45  70
ATOM     70  C   UNL     1       4.581   5.969  -9.179  1.00  0.00     0.058 A 
ATOM     71  C   UNL     1       5.385   5.396 -10.174  1.00  0.00     0.135 A 
ATOM     72  C   UNL     1       3.234   5.575  -9.118  1.00  0.00     0.135 A 
ATOM     73  F   UNL     1       6.675   5.747 -10.279  1.00  0.00    -0.206 F 
ATOM     74  C   UNL     1       4.880   4.453 -11.065  1.00  0.00     0.059 A 
ATOM     75  C   UNL     1       2.711   4.620  -9.984  1.00  0.00     0.059 A 
ATOM     76  F   UNL     1       2.427   6.086  -8.175  1.00  0.00    -0.206 F 
ATOM     77  C   UNL     1       3.544   4.061 -10.952  1.00  0.00     0.060 A 
BRANCH  77  78
ATOM     78  S   UNL     1       2.934   2.753 -12.039  1.00  0.00     0.124 S 
ATOM     79  O   UNL     1       2.865   3.442 -13.322  1.00  0.00    -0.237 OA
ATOM     80  O   UNL     1       3.978   1.741 -11.913  1.00  0.00    -0.237 OA
ATOM     81  O   UNL     1       1.650   2.394 -11.445  1.00  0.00    -0.744 OA
ENDBRANCH  77  78
ENDBRANCH  45  70
BRANCH  57  82
ATOM     82  C   UNL     1       6.844  12.598  -9.313  1.00  0.00     0.058 A 
ATOM     83  C   UNL     1       5.760  13.267  -9.899  1.00  0.00     0.135 A 
ATOM     84  C   UNL     1       8.140  12.962  -9.716  1.00  0.00     0.135 A 
ATOM     85  F   UNL     1       4.503  12.951  -9.551  1.00  0.00    -0.206 F 
ATOM     86  C   UNL     1       5.953  14.263 -10.851  1.00  0.00     0.059 A 
ATOM     87  C   UNL     1       8.357  13.971 -10.647  1.00  0.00     0.059 A 
ATOM     88  F   UNL     1       9.210  12.358  -9.176  1.00  0.00    -0.206 F 
ATOM     89  C   UNL     1       7.256  14.614 -11.212  1.00  0.00     0.060 A 
BRANCH  89  90
ATOM     90  S   UNL     1       7.496  15.954 -12.398  1.00  0.00     0.124 S 
ATOM     91  O   UNL     1       7.107  15.312 -13.649  1.00  0.00    -0.237 OA
ATOM     92  O   UNL     1       6.583  16.978 -11.900  1.00  0.00    -0.237 OA
ATOM     93  O   UNL     1       8.915  16.272 -12.269  1.00  0.00    -0.744 OA
ENDBRANCH  89  90
ENDBRANCH  57  82
ENDBRANCH  31  32
ENDBRANCH  24  26
ENDBRANCH  23  24
ENDBRANCH  22  23
ENDBRANCH   1  22
TORSDOF 18
