REMARK SMILES O=C(OCCOCCOC(=O)[C@H]1O[C@@H](Oc2c(-c3cc(O)c(O)c(O)c3)oc3cc(O)cc(O)c3c2=O)[C@H](O)[C@@H](O)[C@@H]1O)c1ccc(-c2c3nc(c(-c4c(F)cc(S(=O)(=O)[O-])cc4F)c4ccc([nH]4)c(-c4c(F)cc(S(=O)(=O)[O-])cc4F)c4nc(c(-c5c(F)cc(S(=O)(=O)[O-])cc5F)c5ccc2[nH]5)C=C4)C=C3)cc1
REMARK SMILES IDX 7 1 6 2 5 3 4 4 3 5 2 6 1 7 44 8 45 9 109 10 46 11 108 12
REMARK SMILES IDX 47 13 48 14 49 15 102 16 50 17 107 18 101 19 103 20 51 21
REMARK SMILES IDX 106 22 100 23 99 24 52 26 86 27 65 28 85 29 66 30 69 31
REMARK SMILES IDX 84 32 104 33 67 34 68 35 83 37 105 38 70 39 53 40 54 41
REMARK SMILES IDX 63 42 55 43 56 44 62 45 64 46 57 47 58 48 59 49 60 50 61 51
REMARK SMILES IDX 87 52 88 53 97 54 89 55 90 56 96 57 98 58 91 59 92 60 93 61
REMARK SMILES IDX 94 62 95 63 71 64 72 65 81 66 73 67 74 68 80 69 82 70 75 71
REMARK SMILES IDX 76 72 77 73 78 74 79 75 8 76 9 77 10 78 11 79 12 80 13 81
REMARK SMILES IDX 42 82 14 83 40 84 38 85 43 86 15 88 16 89 17 90 36 91 27 92
REMARK SMILES IDX 35 93 37 94 28 95 33 96 29 97 32 98 30 99 18 100 19 101
REMARK SMILES IDX 26 102 20 103 24 104 22 105 21 106 25 108 23 110 34 112
REMARK SMILES IDX 31 114 41 116 39 118
REMARK H PARENT 103 25 69 36 43 87 21 107 25 109 23 111 34 113 31 115 41 117
REMARK H PARENT 39 119
REMARK Flexibility Score: inf
ROOT
ATOM      1  C   UNL     1       6.870  -2.842   4.491  1.00  0.00     0.202 C 
ENDROOT
BRANCH   1   2
ATOM      2  O   UNL     1       7.314  -1.486   4.511  1.00  0.00    -0.374 OA
BRANCH   2   3
ATOM      3  C   UNL     1       7.450  -0.842   3.254  1.00  0.00     0.202 C 
BRANCH   3   4
ATOM      4  C   UNL     1       8.850  -0.848   2.654  1.00  0.00     0.261 C 
BRANCH   4   5
ATOM      5  O   UNL     1       9.227  -2.204   2.352  1.00  0.00    -0.460 OA
BRANCH   5   6
ATOM      6  C   UNL     1      10.061  -2.986   3.077  1.00  0.00     0.338 C 
ATOM      7  O   UNL     1      10.258  -4.152   2.751  1.00  0.00    -0.246 OA
BRANCH   6   8
ATOM      8  C   UNL     1      10.801  -2.421   4.229  1.00  0.00     0.060 A 
ATOM      9  C   UNL     1      10.177  -1.635   5.190  1.00  0.00     0.016 A 
ATOM     10  C   UNL     1      12.148  -2.742   4.401  1.00  0.00     0.016 A 
ATOM     11  C   UNL     1      10.856  -1.065   6.231  1.00  0.00     0.010 A 
ATOM     12  C   UNL     1      12.823  -2.283   5.534  1.00  0.00     0.010 A 
ATOM     13  C   UNL     1      12.160  -1.458   6.455  1.00  0.00    -0.014 A 
BRANCH  13  14
ATOM     14  C   UNL     1      12.758  -0.990   7.705  1.00  0.00     0.031 A 
ATOM     15  C   UNL     1      13.839   0.025   7.626  1.00  0.00     0.074 A 
ATOM     16  C   UNL     1      12.213  -1.404   8.866  1.00  0.00     0.049 A 
ATOM     17  N   UNL     1      14.624   0.447   8.571  1.00  0.00    -0.248 NA
ATOM     18  C   UNL     1      14.072   0.650   6.311  1.00  0.00     0.031 C 
ATOM     19  C   UNL     1      11.032  -2.275   8.989  1.00  0.00     0.029 A 
ATOM     20  N   UNL     1      12.550  -1.136  10.162  1.00  0.00    -0.354 N 
ATOM     21  C   UNL     1      15.499   1.325   7.954  1.00  0.00     0.074 A 
ATOM     22  C   UNL     1      15.122   1.418   6.563  1.00  0.00     0.031 C 
ATOM     23  C   UNL     1      10.742  -2.453  10.285  1.00  0.00     0.029 A 
ATOM     24  C   UNL     1      11.783  -1.821  11.076  1.00  0.00     0.049 A 
ATOM     25  H   UNL     1      13.271  -0.515  10.417  1.00  0.00     0.167 HD
ATOM     26  C   UNL     1      16.546   1.954   8.526  1.00  0.00     0.037 A 
ATOM     27  C   UNL     1      11.969  -1.989  12.397  1.00  0.00     0.037 A 
ATOM     28  C   UNL     1      16.844   1.830   9.926  1.00  0.00     0.049 A 
ATOM     29  C   UNL     1      13.191  -1.344  12.987  1.00  0.00     0.074 A 
ATOM     30  C   UNL     1      17.884   2.387  10.641  1.00  0.00     0.029 A 
ATOM     31  N   UNL     1      16.085   1.085  10.823  1.00  0.00    -0.354 N 
ATOM     32  N   UNL     1      14.070  -0.562  12.399  1.00  0.00    -0.248 NA
ATOM     33  C   UNL     1      13.479  -1.627  14.395  1.00  0.00     0.031 C 
ATOM     34  C   UNL     1      17.783   1.936  11.961  1.00  0.00     0.029 A 
ATOM     35  C   UNL     1      16.652   1.139  12.080  1.00  0.00     0.049 A 
ATOM     36  H   UNL     1      15.263   0.593  10.595  1.00  0.00     0.167 HD
ATOM     37  C   UNL     1      15.019  -0.263  13.363  1.00  0.00     0.074 A 
ATOM     38  C   UNL     1      14.585  -0.920  14.583  1.00  0.00     0.031 C 
ATOM     39  C   UNL     1      16.155   0.468  13.258  1.00  0.00     0.037 A 
BRANCH  26  40
ATOM     40  C   UNL     1      17.472   2.718   7.632  1.00  0.00     0.058 A 
ATOM     41  C   UNL     1      17.136   3.963   7.084  1.00  0.00     0.135 A 
ATOM     42  C   UNL     1      18.734   2.183   7.325  1.00  0.00     0.135 A 
ATOM     43  F   UNL     1      15.924   4.497   7.308  1.00  0.00    -0.206 F 
ATOM     44  C   UNL     1      18.022   4.656   6.264  1.00  0.00     0.059 A 
ATOM     45  C   UNL     1      19.643   2.867   6.526  1.00  0.00     0.059 A 
ATOM     46  F   UNL     1      19.090   0.979   7.799  1.00  0.00    -0.206 F 
ATOM     47  C   UNL     1      19.276   4.103   5.998  1.00  0.00     0.060 A 
BRANCH  47  48
ATOM     48  S   UNL     1      20.431   5.034   4.970  1.00  0.00     0.124 S 
ATOM     49  O   UNL     1      19.815   4.910   3.652  1.00  0.00    -0.237 OA
ATOM     50  O   UNL     1      20.379   6.362   5.571  1.00  0.00    -0.237 OA
ATOM     51  O   UNL     1      21.693   4.320   5.141  1.00  0.00    -0.744 OA
ENDBRANCH  47  48
ENDBRANCH  26  40
BRANCH  27  52
ATOM     52  C   UNL     1      11.087  -2.889  13.190  1.00  0.00     0.058 A 
ATOM     53  C   UNL     1      10.326  -2.406  14.264  1.00  0.00     0.135 A 
ATOM     54  C   UNL     1      11.006  -4.265  12.908  1.00  0.00     0.135 A 
ATOM     55  F   UNL     1      10.364  -1.102  14.579  1.00  0.00    -0.206 F 
ATOM     56  C   UNL     1       9.549  -3.254  15.049  1.00  0.00     0.059 A 
ATOM     57  C   UNL     1      10.209  -5.127  13.655  1.00  0.00     0.059 A 
ATOM     58  F   UNL     1      11.700  -4.787  11.884  1.00  0.00    -0.206 F 
ATOM     59  C   UNL     1       9.503  -4.615  14.740  1.00  0.00     0.060 A 
BRANCH  59  60
ATOM     60  S   UNL     1       8.506  -5.710  15.773  1.00  0.00     0.124 S 
ATOM     61  O   UNL     1       9.323  -5.798  16.978  1.00  0.00    -0.237 OA
ATOM     62  O   UNL     1       7.258  -4.963  15.901  1.00  0.00    -0.237 OA
ATOM     63  O   UNL     1       8.417  -6.932  14.979  1.00  0.00    -0.744 OA
ENDBRANCH  59  60
ENDBRANCH  27  52
BRANCH  39  64
ATOM     64  C   UNL     1      16.982   0.598  14.497  1.00  0.00     0.058 A 
ATOM     65  C   UNL     1      17.785  -0.460  14.948  1.00  0.00     0.135 A 
ATOM     66  C   UNL     1      17.039   1.821  15.181  1.00  0.00     0.135 A 
ATOM     67  F   UNL     1      17.747  -1.650  14.329  1.00  0.00    -0.206 F 
ATOM     68  C   UNL     1      18.620  -0.308  16.044  1.00  0.00     0.059 A 
ATOM     69  C   UNL     1      17.890   2.003  16.262  1.00  0.00     0.059 A 
ATOM     70  F   UNL     1      16.291   2.860  14.775  1.00  0.00    -0.206 F 
ATOM     71  C   UNL     1      18.674   0.931  16.687  1.00  0.00     0.060 A 
BRANCH  71  72
ATOM     72  S   UNL     1      19.824   1.138  18.059  1.00  0.00     0.124 S 
ATOM     73  O   UNL     1      19.155   0.389  19.117  1.00  0.00    -0.237 OA
ATOM     74  O   UNL     1      21.047   0.539  17.533  1.00  0.00    -0.237 OA
ATOM     75  O   UNL     1      19.872   2.585  18.247  1.00  0.00    -0.744 OA
ENDBRANCH  71  72
ENDBRANCH  39  64
ENDBRANCH  13  14
ENDBRANCH   6   8
ENDBRANCH   5   6
ENDBRANCH   4   5
ENDBRANCH   3   4
ENDBRANCH   2   3
ENDBRANCH   1   2
BRANCH   1  76
ATOM     76  C   UNL     1       5.526  -2.918   5.208  1.00  0.00     0.261 C 
BRANCH  76  77
ATOM     77  O   UNL     1       4.575  -2.119   4.483  1.00  0.00    -0.461 OA
BRANCH  77  78
ATOM     78  C   UNL     1       4.552  -0.795   4.831  1.00  0.00     0.338 C 
ATOM     79  O   UNL     1       5.143  -0.286   5.766  1.00  0.00    -0.249 OA
BRANCH  78  80
ATOM     80  C   UNL     1       3.666  -0.031   3.861  1.00  0.00     0.263 C 
ATOM     81  O   UNL     1       2.928   0.858   4.700  1.00  0.00    -0.322 OA
ATOM     82  C   UNL     1       4.485   0.803   2.879  1.00  0.00     0.186 C 
ATOM     83  C   UNL     1       1.897   1.537   4.018  1.00  0.00     0.340 C 
ATOM     84  C   UNL     1       3.575   1.700   2.055  1.00  0.00     0.181 C 
ATOM     85  C   UNL     1       2.465   2.368   2.846  1.00  0.00     0.214 C 
BRANCH  82  86
ATOM     86  O   UNL     1       5.169   0.027   1.893  1.00  0.00    -0.387 OA
ATOM     87  H   UNL     1       4.521  -0.440   1.343  1.00  0.00     0.211 HD
ENDBRANCH  82  86
BRANCH  83  88
ATOM     88  O   UNL     1       1.115   2.389   4.884  1.00  0.00    -0.454 OA
BRANCH  88  89
ATOM     89  C   UNL     1       1.788   2.915   5.985  1.00  0.00     0.214 A 
ATOM     90  C   UNL     1       2.273   4.175   6.021  1.00  0.00     0.181 A 
ATOM     91  C   UNL     1       1.840   2.101   7.244  1.00  0.00     0.239 A 
ATOM     92  O   UNL     1       2.912   4.744   7.101  1.00  0.00    -0.452 OA
ATOM     93  C   UNL     1       2.416   2.769   8.442  1.00  0.00     0.111 A 
ATOM     94  O   UNL     1       1.377   0.965   7.263  1.00  0.00    -0.285 OA
ATOM     95  C   UNL     1       2.910   4.066   8.291  1.00  0.00     0.146 A 
ATOM     96  C   UNL     1       2.456   2.185   9.719  1.00  0.00     0.134 A 
ATOM     97  C   UNL     1       3.422   4.775   9.381  1.00  0.00     0.094 A 
ATOM     98  C   UNL     1       2.958   2.894  10.819  1.00  0.00     0.093 A 
ATOM     99  C   UNL     1       3.429   4.190  10.638  1.00  0.00     0.123 A 
BRANCH  90 100
ATOM    100  C   UNL     1       2.268   5.051   4.831  1.00  0.00     0.029 A 
ATOM    101  C   UNL     1       3.501   5.474   4.292  1.00  0.00     0.062 A 
ATOM    102  C   UNL     1       1.083   5.269   4.107  1.00  0.00     0.062 A 
ATOM    103  C   UNL     1       3.547   5.951   2.984  1.00  0.00     0.162 A 
ATOM    104  C   UNL     1       1.152   5.782   2.817  1.00  0.00     0.162 A 
ATOM    105  C   UNL     1       2.378   6.107   2.247  1.00  0.00     0.200 A 
BRANCH 103 106
ATOM    106  O   UNL     1       4.768   6.112   2.393  1.00  0.00    -0.504 OA
ATOM    107  H   UNL     1       5.551   6.005   2.897  1.00  0.00     0.293 HD
ENDBRANCH 103 106
BRANCH 104 108
ATOM    108  O   UNL     1       0.009   5.859   2.074  1.00  0.00    -0.504 OA
ATOM    109  H   UNL     1       0.039   6.202   1.202  1.00  0.00     0.293 HD
ENDBRANCH 104 108
BRANCH 105 110
ATOM    110  O   UNL     1       2.404   6.534   0.947  1.00  0.00    -0.502 OA
ATOM    111  H   UNL     1       3.220   6.758   0.544  1.00  0.00     0.293 HD
ENDBRANCH 105 110
ENDBRANCH  90 100
BRANCH  96 112
ATOM    112  O   UNL     1       1.977   0.923   9.932  1.00  0.00    -0.507 OA
ATOM    113  H   UNL     1       2.011   0.547  10.790  1.00  0.00     0.293 HD
ENDBRANCH  96 112
BRANCH  99 114
ATOM    114  O   UNL     1       3.893   4.938  11.678  1.00  0.00    -0.508 OA
ATOM    115  H   UNL     1       4.205   5.809  11.526  1.00  0.00     0.293 HD
ENDBRANCH  99 114
ENDBRANCH  88  89
ENDBRANCH  83  88
BRANCH  84 116
ATOM    116  O   UNL     1       4.417   2.686   1.402  1.00  0.00    -0.387 OA
ATOM    117  H   UNL     1       4.869   3.221   2.074  1.00  0.00     0.211 HD
ENDBRANCH  84 116
BRANCH  85 118
ATOM    118  O   UNL     1       1.441   2.790   1.935  1.00  0.00    -0.384 OA
ATOM    119  H   UNL     1       1.058   2.014   1.497  1.00  0.00     0.211 HD
ENDBRANCH  85 118
ENDBRANCH  78  80
ENDBRANCH  77  78
ENDBRANCH  76  77
ENDBRANCH   1  76
TORSDOF 28
