REMARK SMILES CC(C)[C@H](NS(=O)(=O)c1cccc(F)c1)C(=O)OCCOCCOC(=O)c1ccc(-c2c3nc(c(-c4c(F)cc(S(=O)(=O)[O-])cc4F)c4ccc([nH]4)c(-c4c(F)cc(S(=O)(=O)[O-])cc4F)c4nc(c(-c5c(F)cc(S(=O)(=O)[O-])cc5F)c5ccc2[nH]5)C=C4)C=C3)cc1
REMARK SMILES IDX 21 1 20 2 19 3 18 4 16 5 17 6 4 7 2 8 1 9 3 10 5 11 6 13
REMARK SMILES IDX 7 14 8 15 9 16 10 17 15 18 11 19 13 20 12 21 14 22 22 23
REMARK SMILES IDX 23 24 24 25 25 26 26 27 27 28 28 29 92 30 29 31 91 32 30 33
REMARK SMILES IDX 31 34 32 35 85 36 33 37 90 38 84 39 86 40 34 41 89 42 83 43
REMARK SMILES IDX 82 44 35 46 69 47 48 48 68 49 49 50 52 51 67 52 87 53 50 54
REMARK SMILES IDX 51 55 66 57 88 58 53 59 36 60 37 61 46 62 38 63 39 64 45 65
REMARK SMILES IDX 47 66 40 67 41 68 42 69 43 70 44 71 70 72 71 73 80 74 72 75
REMARK SMILES IDX 73 76 79 77 81 78 74 79 75 80 76 81 77 82 78 83 54 84 55 85
REMARK SMILES IDX 64 86 56 87 57 88 63 89 65 90 58 91 59 92 60 93 61 94 62 95
REMARK H PARENT 5 12 86 45 52 56
REMARK Flexibility Score: inf
ROOT
ATOM      1  O   UNL     1      -1.787   5.359  -0.705  1.00  0.00    -0.374 OA
ENDROOT
BRANCH   1   2
ATOM      2  C   UNL     1      -1.925   5.609   0.689  1.00  0.00     0.202 C 
BRANCH   2   3
ATOM      3  C   UNL     1      -2.457   4.477   1.573  1.00  0.00     0.261 C 
BRANCH   3   4
ATOM      4  O   UNL     1      -1.720   3.252   1.448  1.00  0.00    -0.462 OA
BRANCH   4   5
ATOM      5  C   UNL     1      -2.356   2.259   0.755  1.00  0.00     0.324 C 
ATOM      6  O   UNL     1      -3.466   2.350   0.244  1.00  0.00    -0.250 OA
BRANCH   5   7
ATOM      7  C   UNL     1      -1.531   0.970   0.734  1.00  0.00     0.182 C 
BRANCH   7   8
ATOM      8  C   UNL     1      -2.054  -0.031   1.787  1.00  0.00     0.012 C 
ATOM      9  C   UNL     1      -2.713   0.614   3.012  1.00  0.00     0.009 C 
ATOM     10  C   UNL     1      -3.050  -0.990   1.121  1.00  0.00     0.009 C 
ENDBRANCH   7   8
BRANCH   7  11
ATOM     11  N   UNL     1      -0.067   1.274   0.789  1.00  0.00    -0.197 NA
ATOM     12  H   UNL     1       0.069   1.858   1.614  1.00  0.00     0.142 HD
BRANCH  11  13
ATOM     13  S   UNL     1       1.114   0.078   0.868  1.00  0.00     0.241 S 
ATOM     14  O   UNL     1       2.307   0.623   0.261  1.00  0.00    -0.207 OA
ATOM     15  O   UNL     1       1.126  -0.403   2.230  1.00  0.00    -0.207 OA
BRANCH  13  16
ATOM     16  C   UNL     1       0.540  -1.232  -0.181  1.00  0.00     0.085 A 
ATOM     17  C   UNL     1       0.322  -2.510   0.352  1.00  0.00     0.022 A 
ATOM     18  C   UNL     1       0.304  -0.973  -1.532  1.00  0.00     0.061 A 
ATOM     19  C   UNL     1      -0.173  -3.526  -0.467  1.00  0.00     0.004 A 
ATOM     20  C   UNL     1      -0.196  -1.995  -2.330  1.00  0.00     0.124 A 
ATOM     21  C   UNL     1      -0.442  -3.264  -1.810  1.00  0.00     0.039 A 
ATOM     22  F   UNL     1      -0.460  -1.754  -3.620  1.00  0.00    -0.207 F 
ENDBRANCH  13  16
ENDBRANCH  11  13
ENDBRANCH   7  11
ENDBRANCH   5   7
ENDBRANCH   4   5
ENDBRANCH   3   4
ENDBRANCH   2   3
ENDBRANCH   1   2
BRANCH   1  23
ATOM     23  C   UNL     1      -0.751   4.485  -1.147  1.00  0.00     0.202 C 
BRANCH  23  24
ATOM     24  C   UNL     1       0.711   4.913  -0.958  1.00  0.00     0.261 C 
BRANCH  24  25
ATOM     25  O   UNL     1       1.082   5.123   0.416  1.00  0.00    -0.460 OA
BRANCH  25  26
ATOM     26  C   UNL     1       1.371   6.415   0.715  1.00  0.00     0.338 C 
ATOM     27  O   UNL     1       1.339   7.370  -0.044  1.00  0.00    -0.246 OA
BRANCH  26  28
ATOM     28  C   UNL     1       1.579   6.584   2.164  1.00  0.00     0.060 A 
ATOM     29  C   UNL     1       0.777   7.525   2.822  1.00  0.00     0.016 A 
ATOM     30  C   UNL     1       2.630   5.954   2.830  1.00  0.00     0.016 A 
ATOM     31  C   UNL     1       1.069   7.893   4.132  1.00  0.00     0.010 A 
ATOM     32  C   UNL     1       2.924   6.328   4.147  1.00  0.00     0.010 A 
ATOM     33  C   UNL     1       2.176   7.334   4.786  1.00  0.00    -0.014 A 
BRANCH  33  34
ATOM     34  C   UNL     1       2.631   7.932   6.066  1.00  0.00     0.031 A 
ATOM     35  C   UNL     1       3.802   8.881   6.055  1.00  0.00     0.074 A 
ATOM     36  C   UNL     1       1.965   7.690   7.210  1.00  0.00     0.049 A 
ATOM     37  N   UNL     1       4.351   9.527   7.050  1.00  0.00    -0.248 NA
ATOM     38  C   UNL     1       4.435   9.137   4.751  1.00  0.00     0.031 C 
ATOM     39  C   UNL     1       0.795   6.823   7.336  1.00  0.00     0.029 A 
ATOM     40  N   UNL     1       2.176   8.158   8.483  1.00  0.00    -0.354 N 
ATOM     41  C   UNL     1       5.395  10.261   6.496  1.00  0.00     0.074 A 
ATOM     42  C   UNL     1       5.422   9.958   5.083  1.00  0.00     0.031 C 
ATOM     43  C   UNL     1       0.389   6.822   8.617  1.00  0.00     0.029 A 
ATOM     44  C   UNL     1       1.287   7.664   9.407  1.00  0.00     0.049 A 
ATOM     45  H   UNL     1       2.897   8.789   8.712  1.00  0.00     0.167 HD
ATOM     46  C   UNL     1       6.243  11.121   7.109  1.00  0.00     0.037 A 
ATOM     47  C   UNL     1       1.212   7.859  10.739  1.00  0.00     0.037 A 
ATOM     48  C   UNL     1       6.201  11.431   8.515  1.00  0.00     0.049 A 
ATOM     49  C   UNL     1       2.193   8.788  11.404  1.00  0.00     0.074 A 
ATOM     50  C   UNL     1       7.011  12.299   9.227  1.00  0.00     0.029 A 
ATOM     51  N   UNL     1       5.301  10.890   9.422  1.00  0.00    -0.354 N 
ATOM     52  N   UNL     1       3.171   9.479  10.866  1.00  0.00    -0.248 NA
ATOM     53  C   UNL     1       2.056   8.974  12.855  1.00  0.00     0.031 C 
ATOM     54  C   UNL     1       6.632  12.247  10.572  1.00  0.00     0.029 A 
ATOM     55  C   UNL     1       5.548  11.393  10.689  1.00  0.00     0.049 A 
ATOM     56  H   UNL     1       4.593  10.244   9.198  1.00  0.00     0.167 HD
ATOM     57  C   UNL     1       3.744  10.204  11.906  1.00  0.00     0.074 A 
ATOM     58  C   UNL     1       2.998   9.875  13.103  1.00  0.00     0.031 C 
ATOM     59  C   UNL     1       4.791  11.066  11.871  1.00  0.00     0.037 A 
BRANCH  46  60
ATOM     60  C   UNL     1       7.301  11.788   6.274  1.00  0.00     0.058 A 
ATOM     61  C   UNL     1       8.654  11.455   6.445  1.00  0.00     0.135 A 
ATOM     62  C   UNL     1       6.989  12.815   5.369  1.00  0.00     0.135 A 
ATOM     63  F   UNL     1       9.008  10.474   7.290  1.00  0.00    -0.206 F 
ATOM     64  C   UNL     1       9.662  12.135   5.769  1.00  0.00     0.059 A 
ATOM     65  C   UNL     1       7.980  13.492   4.662  1.00  0.00     0.059 A 
ATOM     66  F   UNL     1       5.709  13.156   5.150  1.00  0.00    -0.206 F 
ATOM     67  C   UNL     1       9.315  13.157   4.884  1.00  0.00     0.060 A 
BRANCH  67  68
ATOM     68  S   UNL     1      10.638  14.028   4.017  1.00  0.00     0.124 S 
ATOM     69  O   UNL     1      11.274  14.765   5.102  1.00  0.00    -0.237 OA
ATOM     70  O   UNL     1      11.412  12.925   3.455  1.00  0.00    -0.237 OA
ATOM     71  O   UNL     1       9.922  14.842   3.038  1.00  0.00    -0.744 OA
ENDBRANCH  67  68
ENDBRANCH  46  60
BRANCH  47  72
ATOM     72  C   UNL     1       0.162   7.162  11.529  1.00  0.00     0.058 A 
ATOM     73  C   UNL     1       0.198   5.771  11.709  1.00  0.00     0.135 A 
ATOM     74  C   UNL     1      -0.906   7.867  12.104  1.00  0.00     0.135 A 
ATOM     75  F   UNL     1       1.194   5.047  11.174  1.00  0.00    -0.206 F 
ATOM     76  C   UNL     1      -0.798   5.100  12.410  1.00  0.00     0.059 A 
ATOM     77  C   UNL     1      -1.900   7.222  12.835  1.00  0.00     0.059 A 
ATOM     78  F   UNL     1      -0.976   9.201  11.972  1.00  0.00    -0.206 F 
ATOM     79  C   UNL     1      -1.846   5.835  12.967  1.00  0.00     0.060 A 
BRANCH  79  80
ATOM     80  S   UNL     1      -3.132   4.943  13.866  1.00  0.00     0.124 S 
ATOM     81  O   UNL     1      -3.806   4.235  12.781  1.00  0.00    -0.237 OA
ATOM     82  O   UNL     1      -2.350   4.113  14.776  1.00  0.00    -0.237 OA
ATOM     83  O   UNL     1      -3.905   6.008  14.497  1.00  0.00    -0.744 OA
ENDBRANCH  79  80
ENDBRANCH  47  72
BRANCH  59  84
ATOM     84  C   UNL     1       5.174  11.754  13.154  1.00  0.00     0.058 A 
ATOM     85  C   UNL     1       4.959  13.133  13.309  1.00  0.00     0.135 A 
ATOM     86  C   UNL     1       5.803  11.068  14.205  1.00  0.00     0.135 A 
ATOM     87  F   UNL     1       4.370  13.841  12.332  1.00  0.00    -0.206 F 
ATOM     88  C   UNL     1       5.359  13.809  14.456  1.00  0.00     0.059 A 
ATOM     89  C   UNL     1       6.185  11.719  15.375  1.00  0.00     0.059 A 
ATOM     90  F   UNL     1       6.026   9.748  14.111  1.00  0.00    -0.206 F 
ATOM     91  C   UNL     1       5.970  13.093  15.486  1.00  0.00     0.060 A 
BRANCH  91  92
ATOM     92  S   UNL     1       6.440  13.978  16.987  1.00  0.00     0.124 S 
ATOM     93  O   UNL     1       7.590  14.751  16.532  1.00  0.00    -0.237 OA
ATOM     94  O   UNL     1       5.235  14.747  17.284  1.00  0.00    -0.237 OA
ATOM     95  O   UNL     1       6.738  12.906  17.933  1.00  0.00    -0.744 OA
ENDBRANCH  91  92
ENDBRANCH  59  84
ENDBRANCH  33  34
ENDBRANCH  26  28
ENDBRANCH  25  26
ENDBRANCH  24  25
ENDBRANCH  23  24
ENDBRANCH   1  23
TORSDOF 21
