REMARK SMILES CN(CC(N)=O)S(=O)(=O)c1ccc(C(=O)OCCOCCOC(=O)c2ccc(-c3c4nc(c(-c5c(F)cc(S(=O)(=O)[O-])cc5F)c5ccc([nH]5)c(-c5c(F)cc(S(=O)(=O)[O-])cc5F)c5nc(c(-c6c(F)cc(S(=O)(=O)[O-])cc6F)c6ccc3[nH]6)C=C5)C=C4)cc2)cc1Br
REMARK SMILES IDX 18 1 17 2 16 3 14 4 15 5 13 6 10 7 11 8 92 9 12 10 91 11
REMARK SMILES IDX 93 12 7 13 8 14 9 15 2 16 1 17 3 18 4 19 5 20 6 21 19 24
REMARK SMILES IDX 20 25 21 26 22 27 23 28 24 29 25 30 26 31 90 32 27 33 89 34
REMARK SMILES IDX 28 35 29 36 30 37 83 38 31 39 88 40 82 41 84 42 32 43 87 44
REMARK SMILES IDX 81 45 80 46 33 48 67 49 46 50 66 51 47 52 50 53 65 54 85 55
REMARK SMILES IDX 48 56 49 57 64 59 86 60 51 61 34 62 35 63 44 64 36 65 37 66
REMARK SMILES IDX 43 67 45 68 38 69 39 70 40 71 41 72 42 73 68 74 69 75 78 76
REMARK SMILES IDX 70 77 71 78 77 79 79 80 72 81 73 82 74 83 75 84 76 85 52 86
REMARK SMILES IDX 53 87 62 88 54 89 55 90 61 91 63 92 56 93 57 94 58 95 59 96
REMARK SMILES IDX 60 97
REMARK H PARENT 5 22 5 23 84 47 50 58
REMARK Flexibility Score: inf
ROOT
ATOM      1  C   UNL     1      -1.189   0.264 -10.753  1.00  0.00     0.202 C 
ENDROOT
BRANCH   1   2
ATOM      2  C   UNL     1      -2.356   0.432  -9.776  1.00  0.00     0.261 C 
BRANCH   2   3
ATOM      3  O   UNL     1      -1.874   0.865  -8.493  1.00  0.00    -0.460 OA
BRANCH   3   4
ATOM      4  C   UNL     1      -1.984  -0.044  -7.499  1.00  0.00     0.338 C 
ATOM      5  O   UNL     1      -2.580  -1.108  -7.529  1.00  0.00    -0.246 OA
BRANCH   4   6
ATOM      6  C   UNL     1      -1.133   0.351  -6.354  1.00  0.00     0.061 A 
ATOM      7  C   UNL     1       0.393   0.957  -4.090  1.00  0.00     0.096 A 
ATOM      8  C   UNL     1       0.209  -0.379  -4.486  1.00  0.00     0.024 A 
ATOM      9  C   UNL     1      -0.100   1.995  -4.889  1.00  0.00     0.038 A 
ATOM     10  C   UNL     1      -0.566  -0.679  -5.600  1.00  0.00     0.017 A 
ATOM     11  C   UNL     1      -0.869   1.686  -6.023  1.00  0.00     0.032 A 
ATOM     12  Br  UNL     1       0.242   3.837  -4.600  1.00  0.00    -0.049 Br
BRANCH   7  13
ATOM     13  S   UNL     1       1.153   1.208  -2.503  1.00  0.00     0.244 S 
ATOM     14  O   UNL     1       0.712   2.454  -1.926  1.00  0.00    -0.207 OA
ATOM     15  O   UNL     1       2.559   0.900  -2.665  1.00  0.00    -0.207 OA
BRANCH  13  16
ATOM     16  N   UNL     1       0.459  -0.039  -1.540  1.00  0.00    -0.192 NA
ATOM     17  C   UNL     1       1.115  -0.154  -0.212  1.00  0.00     0.125 C 
BRANCH  16  18
ATOM     18  C   UNL     1      -1.028  -0.046  -1.417  1.00  0.00     0.201 C 
BRANCH  18  19
ATOM     19  C   UNL     1      -1.673   1.180  -0.804  1.00  0.00     0.232 C 
ATOM     20  N   UNL     1      -2.364   1.985  -1.664  1.00  0.00    -0.369 N 
ATOM     21  O   UNL     1      -1.608   1.438   0.395  1.00  0.00    -0.274 OA
ATOM     22  H   UNL     1      -2.405   1.762  -2.622  1.00  0.00     0.159 HD
ATOM     23  H   UNL     1      -2.823   2.788  -1.326  1.00  0.00     0.159 HD
ENDBRANCH  18  19
ENDBRANCH  16  18
ENDBRANCH  13  16
ENDBRANCH   7  13
ENDBRANCH   4   6
ENDBRANCH   3   4
ENDBRANCH   2   3
ENDBRANCH   1   2
BRANCH   1  24
ATOM     24  O   UNL     1      -0.275  -0.784 -10.418  1.00  0.00    -0.374 OA
BRANCH  24  25
ATOM     25  C   UNL     1       0.777  -0.442  -9.513  1.00  0.00     0.202 C 
BRANCH  25  26
ATOM     26  C   UNL     1       1.992   0.247 -10.146  1.00  0.00     0.261 C 
BRANCH  26  27
ATOM     27  O   UNL     1       1.676   1.589 -10.558  1.00  0.00    -0.460 OA
BRANCH  27  28
ATOM     28  C   UNL     1       1.645   1.788 -11.899  1.00  0.00     0.338 C 
ATOM     29  O   UNL     1       1.945   0.988 -12.768  1.00  0.00    -0.246 OA
BRANCH  28  30
ATOM     30  C   UNL     1       0.998   3.083 -12.189  1.00  0.00     0.060 A 
ATOM     31  C   UNL     1      -0.058   3.087 -13.110  1.00  0.00     0.016 A 
ATOM     32  C   UNL     1       1.426   4.275 -11.598  1.00  0.00     0.016 A 
ATOM     33  C   UNL     1      -0.674   4.287 -13.462  1.00  0.00     0.010 A 
ATOM     34  C   UNL     1       0.814   5.479 -11.962  1.00  0.00     0.010 A 
ATOM     35  C   UNL     1      -0.227   5.493 -12.908  1.00  0.00    -0.014 A 
BRANCH  35  36
ATOM     36  C   UNL     1      -0.798   6.780 -13.375  1.00  0.00     0.031 A 
ATOM     37  C   UNL     1      -0.055   7.591 -14.399  1.00  0.00     0.074 A 
ATOM     38  C   UNL     1      -1.974   7.216 -12.888  1.00  0.00     0.049 A 
ATOM     39  N   UNL     1      -0.350   8.764 -14.896  1.00  0.00    -0.248 NA
ATOM     40  C   UNL     1       1.184   7.003 -14.932  1.00  0.00     0.031 C 
ATOM     41  C   UNL     1      -2.801   6.502 -11.917  1.00  0.00     0.029 A 
ATOM     42  N   UNL     1      -2.668   8.373 -13.135  1.00  0.00    -0.354 N 
ATOM     43  C   UNL     1       0.665   9.058 -15.799  1.00  0.00     0.074 A 
ATOM     44  C   UNL     1       1.596   7.950 -15.763  1.00  0.00     0.031 C 
ATOM     45  C   UNL     1      -3.884   7.246 -11.636  1.00  0.00     0.029 A 
ATOM     46  C   UNL     1      -3.810   8.501 -12.382  1.00  0.00     0.049 A 
ATOM     47  H   UNL     1      -2.376   9.048 -13.790  1.00  0.00     0.167 HD
ATOM     48  C   UNL     1       0.803  10.150 -16.590  1.00  0.00     0.037 A 
ATOM     49  C   UNL     1      -4.680   9.526 -12.282  1.00  0.00     0.037 A 
ATOM     50  C   UNL     1      -0.124  11.252 -16.617  1.00  0.00     0.049 A 
ATOM     51  C   UNL     1      -4.463  10.763 -13.112  1.00  0.00     0.074 A 
ATOM     52  C   UNL     1      -0.086  12.389 -17.406  1.00  0.00     0.029 A 
ATOM     53  N   UNL     1      -1.248  11.363 -15.812  1.00  0.00    -0.354 N 
ATOM     54  N   UNL     1      -3.516  11.015 -13.984  1.00  0.00    -0.248 NA
ATOM     55  C   UNL     1      -5.430  11.857 -12.942  1.00  0.00     0.031 C 
ATOM     56  C   UNL     1      -1.160  13.209 -17.044  1.00  0.00     0.029 A 
ATOM     57  C   UNL     1      -1.893  12.563 -16.061  1.00  0.00     0.049 A 
ATOM     58  H   UNL     1      -1.543  10.688 -15.159  1.00  0.00     0.167 HD
ATOM     59  C   UNL     1      -3.780  12.289 -14.476  1.00  0.00     0.074 A 
ATOM     60  C   UNL     1      -4.986  12.749 -13.817  1.00  0.00     0.031 C 
ATOM     61  C   UNL     1      -3.088  13.012 -15.391  1.00  0.00     0.037 A 
BRANCH  48  62
ATOM     62  C   UNL     1       2.014  10.217 -17.476  1.00  0.00     0.058 A 
ATOM     63  C   UNL     1       2.131   9.422 -18.627  1.00  0.00     0.135 A 
ATOM     64  C   UNL     1       3.055  11.116 -17.191  1.00  0.00     0.135 A 
ATOM     65  F   UNL     1       1.171   8.536 -18.936  1.00  0.00    -0.206 F 
ATOM     66  C   UNL     1       3.248   9.499 -19.453  1.00  0.00     0.059 A 
ATOM     67  C   UNL     1       4.171  11.225 -18.015  1.00  0.00     0.059 A 
ATOM     68  F   UNL     1       2.994  11.897 -16.101  1.00  0.00    -0.206 F 
ATOM     69  C   UNL     1       4.264  10.403 -19.137  1.00  0.00     0.060 A 
BRANCH  69  70
ATOM     70  S   UNL     1       5.706  10.495 -20.221  1.00  0.00     0.124 S 
ATOM     71  O   UNL     1       6.406   9.261 -19.877  1.00  0.00    -0.237 OA
ATOM     72  O   UNL     1       5.099  10.530 -21.547  1.00  0.00    -0.237 OA
ATOM     73  O   UNL     1       6.366  11.728 -19.804  1.00  0.00    -0.744 OA
ENDBRANCH  69  70
ENDBRANCH  48  62
BRANCH  49  74
ATOM     74  C   UNL     1      -5.823   9.436 -11.337  1.00  0.00     0.058 A 
ATOM     75  C   UNL     1      -7.139   9.306 -11.801  1.00  0.00     0.135 A 
ATOM     76  C   UNL     1      -5.618   9.472  -9.948  1.00  0.00     0.135 A 
ATOM     77  F   UNL     1      -7.386   9.280 -13.119  1.00  0.00    -0.206 F 
ATOM     78  C   UNL     1      -8.215   9.219 -10.923  1.00  0.00     0.059 A 
ATOM     79  C   UNL     1      -6.675   9.364  -9.050  1.00  0.00     0.059 A 
ATOM     80  F   UNL     1      -4.376   9.586  -9.454  1.00  0.00    -0.206 F 
ATOM     81  C   UNL     1      -7.972   9.245  -9.548  1.00  0.00     0.060 A 
BRANCH  81  82
ATOM     82  S   UNL     1      -9.366   9.066  -8.415  1.00  0.00     0.124 S 
ATOM     83  O   UNL     1      -9.984  10.384  -8.498  1.00  0.00    -0.237 OA
ATOM     84  O   UNL     1     -10.115   7.969  -9.020  1.00  0.00    -0.237 OA
ATOM     85  O   UNL     1      -8.723   8.746  -7.143  1.00  0.00    -0.744 OA
ENDBRANCH  81  82
ENDBRANCH  49  74
BRANCH  61  86
ATOM     86  C   UNL     1      -3.620  14.374 -15.742  1.00  0.00     0.058 A 
ATOM     87  C   UNL     1      -3.495  15.460 -14.862  1.00  0.00     0.135 A 
ATOM     88  C   UNL     1      -4.219  14.608 -16.991  1.00  0.00     0.135 A 
ATOM     89  F   UNL     1      -2.938  15.288 -13.652  1.00  0.00    -0.206 F 
ATOM     90  C   UNL     1      -3.963  16.726 -15.199  1.00  0.00     0.059 A 
ATOM     91  C   UNL     1      -4.672  15.871 -17.358  1.00  0.00     0.059 A 
ATOM     92  F   UNL     1      -4.355  13.605 -17.873  1.00  0.00    -0.206 F 
ATOM     93  C   UNL     1      -4.549  16.922 -16.450  1.00  0.00     0.060 A 
BRANCH  93  94
ATOM     94  S   UNL     1      -5.123  18.577 -16.890  1.00  0.00     0.124 S 
ATOM     95  O   UNL     1      -6.350  18.680 -16.106  1.00  0.00    -0.237 OA
ATOM     96  O   UNL     1      -4.017  19.421 -16.448  1.00  0.00    -0.237 OA
ATOM     97  O   UNL     1      -5.306  18.500 -18.336  1.00  0.00    -0.744 OA
ENDBRANCH  93  94
ENDBRANCH  61  86
ENDBRANCH  35  36
ENDBRANCH  28  30
ENDBRANCH  27  28
ENDBRANCH  26  27
ENDBRANCH  25  26
ENDBRANCH  24  25
ENDBRANCH   1  24
TORSDOF 21
