REMARK SMILES Nc1nc2ccccc2nc1N1CCC(C(=O)OCCOCCOC(=O)c2ccc(-c3c4nc(c(-c5c(F)cc(S(=O)(=O)[O-])cc5F)c5ccc([nH]5)c(-c5c(F)cc(S(=O)(=O)[O-])cc5F)c5nc(c(-c6c(F)cc(S(=O)(=O)[O-])cc6F)c6ccc3[nH]6)C=C5)C=C4)cc2)CC1
REMARK SMILES IDX 22 1 21 2 20 3 19 4 18 5 16 6 17 7 15 8 12 9 13 10 94 11
REMARK SMILES IDX 14 12 93 13 11 14 2 15 3 16 4 17 10 18 5 19 9 20 6 21 8 22
REMARK SMILES IDX 7 23 1 24 23 27 24 28 25 29 26 30 27 31 28 32 92 33 29 34
REMARK SMILES IDX 91 35 30 36 31 37 32 38 85 39 33 40 90 41 84 42 86 43 34 44
REMARK SMILES IDX 89 45 83 46 82 47 35 49 69 50 48 51 68 52 49 53 52 54 67 55
REMARK SMILES IDX 87 56 50 57 51 58 66 60 88 61 53 62 36 63 37 64 46 65 38 66
REMARK SMILES IDX 39 67 45 68 47 69 40 70 41 71 42 72 43 73 44 74 70 75 71 76
REMARK SMILES IDX 80 77 72 78 73 79 79 80 81 81 74 82 75 83 76 84 77 85 78 86
REMARK SMILES IDX 54 87 55 88 64 89 56 90 57 91 63 92 65 93 58 94 59 95 60 96
REMARK SMILES IDX 61 97 62 98
REMARK H PARENT 1 25 1 26 86 48 52 59
REMARK Flexibility Score: inf
ROOT
ATOM      1  C   UNL     1       5.194   7.079  -2.217  1.00  0.00     0.202 C 
ENDROOT
BRANCH   1   2
ATOM      2  O   UNL     1       4.790   7.944  -3.276  1.00  0.00    -0.374 OA
BRANCH   2   3
ATOM      3  C   UNL     1       3.440   8.403  -3.291  1.00  0.00     0.202 C 
BRANCH   3   4
ATOM      4  C   UNL     1       2.348   7.413  -3.705  1.00  0.00     0.261 C 
BRANCH   4   5
ATOM      5  O   UNL     1       2.284   6.277  -2.830  1.00  0.00    -0.463 OA
BRANCH   5   6
ATOM      6  C   UNL     1       2.723   5.109  -3.361  1.00  0.00     0.309 C 
ATOM      7  O   UNL     1       3.108   4.956  -4.515  1.00  0.00    -0.252 OA
BRANCH   6   8
ATOM      8  C   UNL     1       2.697   3.967  -2.373  1.00  0.00     0.103 C 
ATOM      9  N   UNL     1       1.754   2.195  -0.359  1.00  0.00    -0.353 N 
ATOM     10  C   UNL     1       2.843   3.095  -0.019  1.00  0.00     0.119 C 
ATOM     11  C   UNL     1       1.471   1.889  -1.758  1.00  0.00     0.119 C 
ATOM     12  C   UNL     1       2.843   4.345  -0.894  1.00  0.00     0.037 C 
ATOM     13  C   UNL     1       1.417   3.168  -2.581  1.00  0.00     0.037 C 
BRANCH   9  14
ATOM     14  C   UNL     1       0.718   2.006   0.552  1.00  0.00     0.172 A 
ATOM     15  C   UNL     1       0.162   0.713   0.753  1.00  0.00     0.167 A 
ATOM     16  N   UNL     1      -0.865   0.484   1.589  1.00  0.00    -0.226 NA
ATOM     17  C   UNL     1      -1.349   1.553   2.240  1.00  0.00     0.091 A 
ATOM     18  N   UNL     1       0.261   3.064   1.258  1.00  0.00    -0.225 NA
ATOM     19  C   UNL     1      -2.431   1.379   3.091  1.00  0.00     0.031 A 
ATOM     20  C   UNL     1      -0.788   2.846   2.078  1.00  0.00     0.091 A 
ATOM     21  C   UNL     1      -2.992   2.453   3.781  1.00  0.00     0.002 A 
ATOM     22  C   UNL     1      -1.355   3.907   2.777  1.00  0.00     0.031 A 
ATOM     23  C   UNL     1      -2.454   3.722   3.621  1.00  0.00     0.002 A 
BRANCH  15  24
ATOM     24  N   UNL     1       0.650  -0.405   0.079  1.00  0.00    -0.381 N 
ATOM     25  H   UNL     1       0.247  -1.290   0.237  1.00  0.00     0.158 HD
ATOM     26  H   UNL     1       1.398  -0.311  -0.554  1.00  0.00     0.158 HD
ENDBRANCH  15  24
ENDBRANCH   9  14
ENDBRANCH   6   8
ENDBRANCH   5   6
ENDBRANCH   4   5
ENDBRANCH   3   4
ENDBRANCH   2   3
ENDBRANCH   1   2
BRANCH   1  27
ATOM     27  C   UNL     1       5.329   7.672  -0.807  1.00  0.00     0.261 C 
BRANCH  27  28
ATOM     28  O   UNL     1       4.078   8.123  -0.261  1.00  0.00    -0.460 OA
BRANCH  28  29
ATOM     29  C   UNL     1       3.966   9.470  -0.134  1.00  0.00     0.338 C 
ATOM     30  O   UNL     1       4.824  10.304  -0.379  1.00  0.00    -0.246 OA
BRANCH  29  31
ATOM     31  C   UNL     1       2.563   9.831   0.147  1.00  0.00     0.060 A 
ATOM     32  C   UNL     1       1.879   9.315   1.248  1.00  0.00     0.016 A 
ATOM     33  C   UNL     1       1.946  10.759  -0.703  1.00  0.00     0.016 A 
ATOM     34  C   UNL     1       0.581   9.763   1.516  1.00  0.00     0.010 A 
ATOM     35  C   UNL     1       0.651  11.201  -0.435  1.00  0.00     0.010 A 
ATOM     36  C   UNL     1      -0.033  10.726   0.691  1.00  0.00    -0.014 A 
BRANCH  36  37
ATOM     37  C   UNL     1      -1.327  11.339   1.081  1.00  0.00     0.031 A 
ATOM     38  C   UNL     1      -2.599  11.033   0.348  1.00  0.00     0.074 A 
ATOM     39  C   UNL     1      -1.335  12.218   2.102  1.00  0.00     0.049 A 
ATOM     40  N   UNL     1      -3.815  11.439   0.609  1.00  0.00    -0.248 NA
ATOM     41  C   UNL     1      -2.491  10.167  -0.834  1.00  0.00     0.031 C 
ATOM     42  C   UNL     1      -0.152  12.630   2.860  1.00  0.00     0.029 A 
ATOM     43  N   UNL     1      -2.364  12.914   2.685  1.00  0.00    -0.354 N 
ATOM     44  C   UNL     1      -4.626  10.856  -0.356  1.00  0.00     0.074 A 
ATOM     45  C   UNL     1      -3.751  10.123  -1.248  1.00  0.00     0.031 C 
ATOM     46  C   UNL     1      -0.528  13.467   3.838  1.00  0.00     0.029 A 
ATOM     47  C   UNL     1      -1.971  13.680   3.756  1.00  0.00     0.049 A 
ATOM     48  H   UNL     1      -3.294  12.868   2.367  1.00  0.00     0.167 HD
ATOM     49  C   UNL     1      -5.977  10.906  -0.468  1.00  0.00     0.037 A 
ATOM     50  C   UNL     1      -2.690  14.457   4.589  1.00  0.00     0.037 A 
ATOM     51  C   UNL     1      -6.835  11.671   0.404  1.00  0.00     0.049 A 
ATOM     52  C   UNL     1      -4.178  14.553   4.405  1.00  0.00     0.074 A 
ATOM     53  C   UNL     1      -8.215  11.775   0.379  1.00  0.00     0.029 A 
ATOM     54  N   UNL     1      -6.397  12.477   1.446  1.00  0.00    -0.354 N 
ATOM     55  N   UNL     1      -4.940  13.942   3.529  1.00  0.00    -0.248 NA
ATOM     56  C   UNL     1      -4.905  15.440   5.322  1.00  0.00     0.031 C 
ATOM     57  C   UNL     1      -8.606  12.684   1.368  1.00  0.00     0.029 A 
ATOM     58  C   UNL     1      -7.476  13.102   2.052  1.00  0.00     0.049 A 
ATOM     59  H   UNL     1      -5.456  12.588   1.716  1.00  0.00     0.167 HD
ATOM     60  C   UNL     1      -6.240  14.353   3.803  1.00  0.00     0.074 A 
ATOM     61  C   UNL     1      -6.160  15.256   4.934  1.00  0.00     0.031 C 
ATOM     62  C   UNL     1      -7.391  14.009   3.174  1.00  0.00     0.037 A 
BRANCH  49  63
ATOM     63  C   UNL     1      -6.609  10.102  -1.575  1.00  0.00     0.058 A 
ATOM     64  C   UNL     1      -6.597   8.697  -1.554  1.00  0.00     0.135 A 
ATOM     65  C   UNL     1      -7.255  10.731  -2.652  1.00  0.00     0.135 A 
ATOM     66  F   UNL     1      -5.991   8.041  -0.551  1.00  0.00    -0.206 F 
ATOM     67  C   UNL     1      -7.159   7.947  -2.581  1.00  0.00     0.059 A 
ATOM     68  C   UNL     1      -7.852  10.000  -3.676  1.00  0.00     0.059 A 
ATOM     69  F   UNL     1      -7.307  12.071  -2.721  1.00  0.00    -0.206 F 
ATOM     70  C   UNL     1      -7.780   8.608  -3.641  1.00  0.00     0.060 A 
BRANCH  70  71
ATOM     71  S   UNL     1      -8.471   7.616  -4.982  1.00  0.00     0.124 S 
ATOM     72  O   UNL     1      -7.261   7.087  -5.605  1.00  0.00    -0.237 OA
ATOM     73  O   UNL     1      -9.289   6.646  -4.261  1.00  0.00    -0.237 OA
ATOM     74  O   UNL     1      -9.211   8.588  -5.780  1.00  0.00    -0.744 OA
ENDBRANCH  70  71
ENDBRANCH  49  63
BRANCH  50  75
ATOM     75  C   UNL     1      -2.002  15.148   5.712  1.00  0.00     0.058 A 
ATOM     76  C   UNL     1      -2.177  14.708   7.032  1.00  0.00     0.135 A 
ATOM     77  C   UNL     1      -1.105  16.203   5.485  1.00  0.00     0.135 A 
ATOM     78  F   UNL     1      -3.029  13.707   7.298  1.00  0.00    -0.206 F 
ATOM     79  C   UNL     1      -1.479  15.282   8.088  1.00  0.00     0.059 A 
ATOM     80  C   UNL     1      -0.377  16.777   6.522  1.00  0.00     0.059 A 
ATOM     81  F   UNL     1      -0.894  16.650   4.237  1.00  0.00    -0.206 F 
ATOM     82  C   UNL     1      -0.569  16.307   7.821  1.00  0.00     0.060 A 
BRANCH  82  83
ATOM     83  S   UNL     1       0.397  16.977   9.192  1.00  0.00     0.124 S 
ATOM     84  O   UNL     1      -0.632  17.643   9.981  1.00  0.00    -0.237 OA
ATOM     85  O   UNL     1       0.968  15.767   9.777  1.00  0.00    -0.237 OA
ATOM     86  O   UNL     1       1.354  17.858   8.531  1.00  0.00    -0.744 OA
ENDBRANCH  82  83
ENDBRANCH  50  75
BRANCH  62  87
ATOM     87  C   UNL     1      -8.675  14.601   3.693  1.00  0.00     0.058 A 
ATOM     88  C   UNL     1      -8.993  15.955   3.501  1.00  0.00     0.135 A 
ATOM     89  C   UNL     1      -9.633  13.789   4.322  1.00  0.00     0.135 A 
ATOM     90  F   UNL     1      -8.111  16.780   2.914  1.00  0.00    -0.206 F 
ATOM     91  C   UNL     1     -10.209  16.485   3.923  1.00  0.00     0.059 A 
ATOM     92  C   UNL     1     -10.867  14.290   4.726  1.00  0.00     0.059 A 
ATOM     93  F   UNL     1      -9.386  12.485   4.526  1.00  0.00    -0.206 F 
ATOM     94  C   UNL     1     -11.144  15.642   4.527  1.00  0.00     0.060 A 
BRANCH  94  95
ATOM     95  S   UNL     1     -12.736  16.335   5.021  1.00  0.00     0.124 S 
ATOM     96  O   UNL     1     -12.350  17.207   6.125  1.00  0.00    -0.237 OA
ATOM     97  O   UNL     1     -13.170  17.010   3.801  1.00  0.00    -0.237 OA
ATOM     98  O   UNL     1     -13.520  15.161   5.394  1.00  0.00    -0.744 OA
ENDBRANCH  94  95
ENDBRANCH  62  87
ENDBRANCH  36  37
ENDBRANCH  29  31
ENDBRANCH  28  29
ENDBRANCH  27  28
ENDBRANCH   1  27
TORSDOF 19
