REMARK SMILES Cc1nc(-c2ccc(S(=O)(=O)N3CC[NH2+][C@H](C(=O)OCCOCCOC(=O)c4ccc(-c5c6nc(c(-c7c(F)cc(S(=O)(=O)[O-])cc7F)c7ccc([nH]7)c(-c7c(F)cc(S(=O)(=O)[O-])cc7F)c7nc(c(-c8c(F)cc(S(=O)(=O)[O-])cc8F)c8ccc5[nH]8)C=C7)C=C6)cc4)C3)s2)cs1
REMARK SMILES IDX 22 1 21 2 20 3 19 4 17 5 18 6 16 7 12 8 13 9 94 10 14 11
REMARK SMILES IDX 15 12 9 15 10 16 11 17 8 18 5 19 6 20 95 21 7 22 4 23 1 24
REMARK SMILES IDX 2 25 3 26 97 27 96 28 23 29 24 30 25 31 26 32 27 33 28 34
REMARK SMILES IDX 29 35 93 36 30 37 92 38 31 39 32 40 33 41 86 42 34 43 91 44
REMARK SMILES IDX 85 45 87 46 35 47 90 48 84 49 83 50 36 52 70 53 49 54 69 55
REMARK SMILES IDX 50 56 53 57 68 58 88 59 51 60 52 61 67 63 89 64 54 65 37 66
REMARK SMILES IDX 38 67 47 68 39 69 40 70 46 71 48 72 41 73 42 74 43 75 44 76
REMARK SMILES IDX 45 77 71 78 72 79 81 80 73 81 74 82 80 83 82 84 75 85 76 86
REMARK SMILES IDX 77 87 78 88 79 89 55 90 56 91 65 92 57 93 58 94 64 95 66 96
REMARK SMILES IDX 59 97 60 98 61 99 62 100 63 101
REMARK H PARENT 15 13 15 14 87 51 53 62
REMARK Flexibility Score: inf
ROOT
ATOM      1  O   UNL     1       4.462  -5.147  -6.686  1.00  0.00    -0.374 OA
ENDROOT
BRANCH   1   2
ATOM      2  C   UNL     1       5.792  -4.682  -6.471  1.00  0.00     0.202 C 
BRANCH   2   3
ATOM      3  C   UNL     1       6.131  -4.012  -5.137  1.00  0.00     0.261 C 
BRANCH   3   4
ATOM      4  O   UNL     1       5.896  -4.869  -4.003  1.00  0.00    -0.459 OA
BRANCH   4   5
ATOM      5  C   UNL     1       4.980  -4.380  -3.129  1.00  0.00     0.366 C 
ATOM      6  O   UNL     1       4.441  -3.279  -3.218  1.00  0.00    -0.245 OA
BRANCH   5   7
ATOM      7  C   UNL     1       4.623  -5.336  -2.010  1.00  0.00     0.308 C 
ATOM      8  N   UNL     1       5.148  -6.086   0.235  1.00  0.00    -0.185 NA
ATOM      9  C   UNL     1       4.380  -7.346   0.034  1.00  0.00     0.164 C 
ATOM     10  C   UNL     1       5.757  -5.576  -1.024  1.00  0.00     0.180 C 
ATOM     11  C   UNL     1       3.479  -7.334  -1.229  1.00  0.00     0.278 C 
ATOM     12  N   UNL     1       3.985  -6.622  -2.427  1.00  0.00    -0.332 N 
ATOM     13  H   UNL     1       3.209  -6.427  -3.059  1.00  0.00     0.347 HD
ATOM     14  H   UNL     1       4.674  -7.204  -2.903  1.00  0.00     0.347 HD
BRANCH   8  15
ATOM     15  S   UNL     1       4.674  -4.946   1.405  1.00  0.00     0.253 S 
ATOM     16  O   UNL     1       5.787  -4.029   1.555  1.00  0.00    -0.206 OA
ATOM     17  O   UNL     1       4.129  -5.668   2.532  1.00  0.00    -0.206 OA
BRANCH  15  18
ATOM     18  C   UNL     1       3.297  -3.934   0.839  1.00  0.00     0.135 A 
ATOM     19  C   UNL     1       1.811  -1.973   0.521  1.00  0.00     0.055 A 
ATOM     20  C   UNL     1       1.334  -3.096  -0.112  1.00  0.00     0.023 A 
ATOM     21  S   UNL     1       3.312  -2.262   1.275  1.00  0.00    -0.121 S 
ATOM     22  C   UNL     1       2.148  -4.228   0.129  1.00  0.00     0.034 A 
BRANCH  19  23
ATOM     23  C   UNL     1       1.003  -0.715   0.528  1.00  0.00     0.091 A 
ATOM     24  C   UNL     1      -2.352   0.616   0.018  1.00  0.00     0.079 C 
ATOM     25  C   UNL     1      -0.906   0.387   0.279  1.00  0.00     0.090 A 
ATOM     26  N   UNL     1      -0.325  -0.779   0.129  1.00  0.00    -0.241 NA
ATOM     27  S   UNL     1       0.123   1.652   0.816  1.00  0.00    -0.127 S 
ATOM     28  C   UNL     1       1.429   0.533   0.929  1.00  0.00     0.096 A 
ENDBRANCH  19  23
ENDBRANCH  15  18
ENDBRANCH   8  15
ENDBRANCH   5   7
ENDBRANCH   4   5
ENDBRANCH   3   4
ENDBRANCH   2   3
ENDBRANCH   1   2
BRANCH   1  29
ATOM     29  C   UNL     1       3.945  -6.159  -5.829  1.00  0.00     0.202 C 
BRANCH  29  30
ATOM     30  C   UNL     1       4.579  -7.559  -5.871  1.00  0.00     0.261 C 
BRANCH  30  31
ATOM     31  O   UNL     1       6.005  -7.569  -5.679  1.00  0.00    -0.460 OA
BRANCH  31  32
ATOM     32  C   UNL     1       6.702  -7.941  -6.785  1.00  0.00     0.338 C 
ATOM     33  O   UNL     1       6.240  -8.327  -7.847  1.00  0.00    -0.246 OA
BRANCH  32  34
ATOM     34  C   UNL     1       8.139  -7.645  -6.633  1.00  0.00     0.060 A 
ATOM     35  C   UNL     1       8.716  -6.792  -7.584  1.00  0.00     0.016 A 
ATOM     36  C   UNL     1       8.933  -8.287  -5.681  1.00  0.00     0.016 A 
ATOM     37  C   UNL     1      10.095  -6.627  -7.628  1.00  0.00     0.010 A 
ATOM     38  C   UNL     1      10.324  -8.131  -5.736  1.00  0.00     0.010 A 
ATOM     39  C   UNL     1      10.911  -7.340  -6.741  1.00  0.00    -0.014 A 
BRANCH  39  40
ATOM     40  C   UNL     1      12.367  -7.397  -7.020  1.00  0.00     0.031 A 
ATOM     41  C   UNL     1      12.911  -8.576  -7.784  1.00  0.00     0.074 A 
ATOM     42  C   UNL     1      13.173  -6.373  -6.686  1.00  0.00     0.049 A 
ATOM     43  N   UNL     1      14.128  -8.804  -8.202  1.00  0.00    -0.248 NA
ATOM     44  C   UNL     1      11.949  -9.637  -8.128  1.00  0.00     0.031 C 
ATOM     45  C   UNL     1      12.752  -5.163  -5.983  1.00  0.00     0.029 A 
ATOM     46  N   UNL     1      14.513  -6.186  -6.907  1.00  0.00    -0.354 N 
ATOM     47  C   UNL     1      14.081 -10.030  -8.857  1.00  0.00     0.074 A 
ATOM     48  C   UNL     1      12.722 -10.514  -8.752  1.00  0.00     0.031 C 
ATOM     49  C   UNL     1      13.816  -4.356  -5.830  1.00  0.00     0.029 A 
ATOM     50  C   UNL     1      14.994  -4.999  -6.409  1.00  0.00     0.049 A 
ATOM     51  H   UNL     1      15.078  -6.840  -7.379  1.00  0.00     0.167 HD
ATOM     52  C   UNL     1      15.075 -10.686  -9.501  1.00  0.00     0.037 A 
ATOM     53  C   UNL     1      16.243  -4.495  -6.415  1.00  0.00     0.037 A 
ATOM     54  C   UNL     1      16.425 -10.198  -9.607  1.00  0.00     0.049 A 
ATOM     55  C   UNL     1      17.344  -5.264  -7.097  1.00  0.00     0.074 A 
ATOM     56  C   UNL     1      17.506 -10.783 -10.244  1.00  0.00     0.029 A 
ATOM     57  N   UNL     1      16.880  -9.008  -9.058  1.00  0.00    -0.354 N 
ATOM     58  N   UNL     1      17.279  -6.413  -7.729  1.00  0.00    -0.248 NA
ATOM     59  C   UNL     1      18.686  -4.664  -7.077  1.00  0.00     0.031 C 
ATOM     60  C   UNL     1      18.624  -9.965 -10.046  1.00  0.00     0.029 A 
ATOM     61  C   UNL     1      18.230  -8.849  -9.326  1.00  0.00     0.049 A 
ATOM     62  H   UNL     1      16.326  -8.371  -8.553  1.00  0.00     0.167 HD
ATOM     63  C   UNL     1      18.564  -6.660  -8.203  1.00  0.00     0.074 A 
ATOM     64  C   UNL     1      19.381  -5.536  -7.795  1.00  0.00     0.031 C 
ATOM     65  C   UNL     1      19.026  -7.720  -8.913  1.00  0.00     0.037 A 
BRANCH  52  66
ATOM     66  C   UNL     1      14.742 -12.015 -10.120  1.00  0.00     0.058 A 
ATOM     67  C   UNL     1      13.958 -12.115 -11.281  1.00  0.00     0.135 A 
ATOM     68  C   UNL     1      15.228 -13.205  -9.555  1.00  0.00     0.135 A 
ATOM     69  F   UNL     1      13.451 -11.010 -11.851  1.00  0.00    -0.206 F 
ATOM     70  C   UNL     1      13.646 -13.348 -11.844  1.00  0.00     0.059 A 
ATOM     71  C   UNL     1      14.949 -14.448 -10.115  1.00  0.00     0.059 A 
ATOM     72  F   UNL     1      15.978 -13.168  -8.442  1.00  0.00    -0.206 F 
ATOM     73  C   UNL     1      14.144 -14.510 -11.252  1.00  0.00     0.060 A 
BRANCH  73  74
ATOM     74  S   UNL     1      13.728 -16.104 -11.991  1.00  0.00     0.124 S 
ATOM     75  O   UNL     1      12.332 -16.254 -11.591  1.00  0.00    -0.237 OA
ATOM     76  O   UNL     1      13.958 -15.861 -13.411  1.00  0.00    -0.237 OA
ATOM     77  O   UNL     1      14.665 -17.027 -11.356  1.00  0.00    -0.744 OA
ENDBRANCH  73  74
ENDBRANCH  52  66
BRANCH  53  78
ATOM     78  C   UNL     1      16.520  -3.191  -5.756  1.00  0.00     0.058 A 
ATOM     79  C   UNL     1      16.832  -2.047  -6.504  1.00  0.00     0.135 A 
ATOM     80  C   UNL     1      16.472  -3.065  -4.359  1.00  0.00     0.135 A 
ATOM     81  F   UNL     1      16.899  -2.119  -7.842  1.00  0.00    -0.206 F 
ATOM     82  C   UNL     1      17.100  -0.827  -5.892  1.00  0.00     0.059 A 
ATOM     83  C   UNL     1      16.713  -1.851  -3.724  1.00  0.00     0.059 A 
ATOM     84  F   UNL     1      16.167  -4.128  -3.598  1.00  0.00    -0.206 F 
ATOM     85  C   UNL     1      17.035  -0.739  -4.500  1.00  0.00     0.060 A 
BRANCH  85  86
ATOM     86  S   UNL     1      17.332   0.861  -3.716  1.00  0.00     0.124 S 
ATOM     87  O   UNL     1      18.780   0.984  -3.838  1.00  0.00    -0.237 OA
ATOM     88  O   UNL     1      16.542   1.763  -4.548  1.00  0.00    -0.237 OA
ATOM     89  O   UNL     1      16.826   0.668  -2.360  1.00  0.00    -0.744 OA
ENDBRANCH  85  86
ENDBRANCH  53  78
BRANCH  65  90
ATOM     90  C   UNL     1      20.473  -7.698  -9.321  1.00  0.00     0.058 A 
ATOM     91  C   UNL     1      21.504  -7.914  -8.395  1.00  0.00     0.135 A 
ATOM     92  C   UNL     1      20.829  -7.496 -10.665  1.00  0.00     0.135 A 
ATOM     93  F   UNL     1      21.218  -8.109  -7.098  1.00  0.00    -0.206 F 
ATOM     94  C   UNL     1      22.841  -7.898  -8.780  1.00  0.00     0.059 A 
ATOM     95  C   UNL     1      22.158  -7.503 -11.077  1.00  0.00     0.059 A 
ATOM     96  F   UNL     1      19.880  -7.299 -11.594  1.00  0.00    -0.206 F 
ATOM     97  C   UNL     1      23.158  -7.689 -10.123  1.00  0.00     0.060 A 
BRANCH  97  98
ATOM     98  S   UNL     1      24.895  -7.686 -10.616  1.00  0.00     0.124 S 
ATOM     99  O   UNL     1      25.329  -6.374 -10.149  1.00  0.00    -0.237 OA
ATOM    100  O   UNL     1      25.432  -8.829  -9.883  1.00  0.00    -0.237 OA
ATOM    101  O   UNL     1      24.837  -7.850 -12.065  1.00  0.00    -0.744 OA
ENDBRANCH  97  98
ENDBRANCH  65  90
ENDBRANCH  39  40
ENDBRANCH  32  34
ENDBRANCH  31  32
ENDBRANCH  30  31
ENDBRANCH  29  30
ENDBRANCH   1  29
TORSDOF 20
