REMARK SMILES O=C(OCCOCCOC(=O)[C@@H]1CCC[C@@H](C(=O)N2CCN3C(=O)NC[C@@H]3C2)C1)c1ccc(-c2c3nc(c(-c4c(F)cc(S(=O)(=O)[O-])cc4F)c4ccc([nH]4)c(-c4c(F)cc(S(=O)(=O)[O-])cc4F)c4nc(c(-c5c(F)cc(S(=O)(=O)[O-])cc5F)c5ccc2[nH]5)C=C4)C=C3)cc1
REMARK SMILES IDX 5 1 4 2 3 3 2 4 1 5 30 6 31 7 95 8 32 9 94 10 33 11 34 12
REMARK SMILES IDX 35 13 88 14 36 15 93 16 87 17 89 18 37 19 92 20 86 21 85 22
REMARK SMILES IDX 38 24 72 25 51 26 71 27 52 28 55 29 70 30 90 31 53 32 54 33
REMARK SMILES IDX 69 35 91 36 56 37 39 38 40 39 49 40 41 41 42 42 48 43 50 44
REMARK SMILES IDX 43 45 44 46 45 47 46 48 47 49 73 50 74 51 83 52 75 53 76 54
REMARK SMILES IDX 82 55 84 56 77 57 78 58 79 59 80 60 81 61 57 62 58 63 67 64
REMARK SMILES IDX 59 65 60 66 66 67 68 68 61 69 62 70 63 71 64 72 65 73 6 74
REMARK SMILES IDX 7 75 8 76 9 77 10 78 11 79 12 80 13 81 29 82 14 83 16 84
REMARK SMILES IDX 15 85 17 86 18 87 19 88 20 89 28 90 21 91 27 92 22 93 26 94
REMARK SMILES IDX 23 95 25 96 24 97
REMARK H PARENT 89 23 55 34 25 98
REMARK Flexibility Score: inf
ROOT
ATOM      1  C   UNL     1       4.469  -1.162  -0.108  1.00  0.00     0.202 C 
ENDROOT
BRANCH   1   2
ATOM      2  C   UNL     1       4.208  -0.071   0.950  1.00  0.00     0.261 C 
BRANCH   2   3
ATOM      3  O   UNL     1       2.818   0.235   1.084  1.00  0.00    -0.460 OA
BRANCH   3   4
ATOM      4  C   UNL     1       2.126   1.141   0.349  1.00  0.00     0.338 C 
ATOM      5  O   UNL     1       0.921   1.267   0.559  1.00  0.00    -0.246 OA
BRANCH   4   6
ATOM      6  C   UNL     1       2.752   1.974  -0.725  1.00  0.00     0.060 A 
ATOM      7  C   UNL     1       3.938   1.661  -1.391  1.00  0.00     0.016 A 
ATOM      8  C   UNL     1       2.054   3.114  -1.147  1.00  0.00     0.016 A 
ATOM      9  C   UNL     1       4.412   2.380  -2.454  1.00  0.00     0.010 A 
ATOM     10  C   UNL     1       2.539   3.885  -2.204  1.00  0.00     0.010 A 
ATOM     11  C   UNL     1       3.715   3.498  -2.853  1.00  0.00    -0.014 A 
BRANCH  11  12
ATOM     12  C   UNL     1       4.407   4.329  -3.825  1.00  0.00     0.031 A 
ATOM     13  C   UNL     1       5.192   5.471  -3.285  1.00  0.00     0.074 A 
ATOM     14  C   UNL     1       4.471   3.919  -5.100  1.00  0.00     0.049 A 
ATOM     15  N   UNL     1       5.772   6.441  -3.923  1.00  0.00    -0.248 NA
ATOM     16  C   UNL     1       5.351   5.521  -1.819  1.00  0.00     0.031 C 
ATOM     17  C   UNL     1       3.910   2.664  -5.614  1.00  0.00     0.029 A 
ATOM     18  N   UNL     1       5.043   4.505  -6.188  1.00  0.00    -0.354 N 
ATOM     19  C   UNL     1       6.303   7.258  -2.937  1.00  0.00     0.074 A 
ATOM     20  C   UNL     1       6.007   6.658  -1.659  1.00  0.00     0.031 C 
ATOM     21  C   UNL     1       4.133   2.598  -6.936  1.00  0.00     0.029 A 
ATOM     22  C   UNL     1       4.765   3.841  -7.357  1.00  0.00     0.049 A 
ATOM     23  H   UNL     1       5.597   5.317  -6.142  1.00  0.00     0.167 HD
ATOM     24  C   UNL     1       6.946   8.431  -3.118  1.00  0.00     0.037 A 
ATOM     25  C   UNL     1       4.931   4.258  -8.624  1.00  0.00     0.037 A 
ATOM     26  C   UNL     1       7.183   8.962  -4.431  1.00  0.00     0.049 A 
ATOM     27  C   UNL     1       5.541   5.619  -8.813  1.00  0.00     0.074 A 
ATOM     28  C   UNL     1       7.750  10.165  -4.793  1.00  0.00     0.029 A 
ATOM     29  N   UNL     1       6.845   8.299  -5.610  1.00  0.00    -0.354 N 
ATOM     30  N   UNL     1       5.947   6.468  -7.894  1.00  0.00    -0.248 NA
ATOM     31  C   UNL     1       5.705   6.092 -10.189  1.00  0.00     0.031 C 
ATOM     32  C   UNL     1       7.698  10.255  -6.188  1.00  0.00     0.029 A 
ATOM     33  C   UNL     1       7.170   9.076  -6.702  1.00  0.00     0.049 A 
ATOM     34  H   UNL     1       6.434   7.406  -5.656  1.00  0.00     0.167 HD
ATOM     35  C   UNL     1       6.445   7.566  -8.577  1.00  0.00     0.074 A 
ATOM     36  C   UNL     1       6.280   7.273  -9.991  1.00  0.00     0.031 C 
ATOM     37  C   UNL     1       6.995   8.708  -8.091  1.00  0.00     0.037 A 
BRANCH  24  38
ATOM     38  C   UNL     1       7.274   9.223  -1.886  1.00  0.00     0.058 A 
ATOM     39  C   UNL     1       8.221   8.797  -0.940  1.00  0.00     0.135 A 
ATOM     40  C   UNL     1       6.543  10.387  -1.596  1.00  0.00     0.135 A 
ATOM     41  F   UNL     1       8.919   7.668  -1.143  1.00  0.00    -0.206 F 
ATOM     42  C   UNL     1       8.394   9.465   0.269  1.00  0.00     0.059 A 
ATOM     43  C   UNL     1       6.723  11.090  -0.409  1.00  0.00     0.059 A 
ATOM     44  F   UNL     1       5.609  10.830  -2.452  1.00  0.00    -0.206 F 
ATOM     45  C   UNL     1       7.632  10.606   0.529  1.00  0.00     0.060 A 
BRANCH  45  46
ATOM     46  S   UNL     1       7.823  11.431   2.123  1.00  0.00     0.124 S 
ATOM     47  O   UNL     1       7.165  10.487   3.021  1.00  0.00    -0.237 OA
ATOM     48  O   UNL     1       9.274  11.523   2.254  1.00  0.00    -0.237 OA
ATOM     49  O   UNL     1       7.132  12.703   1.933  1.00  0.00    -0.744 OA
ENDBRANCH  45  46
ENDBRANCH  24  38
BRANCH  25  50
ATOM     50  C   UNL     1       4.439   3.415  -9.743  1.00  0.00     0.058 A 
ATOM     51  C   UNL     1       5.324   2.779 -10.622  1.00  0.00     0.135 A 
ATOM     52  C   UNL     1       3.066   3.152  -9.899  1.00  0.00     0.135 A 
ATOM     53  F   UNL     1       6.644   2.995 -10.519  1.00  0.00    -0.206 F 
ATOM     54  C   UNL     1       4.869   1.908 -11.610  1.00  0.00     0.059 A 
ATOM     55  C   UNL     1       2.589   2.267 -10.860  1.00  0.00     0.059 A 
ATOM     56  F   UNL     1       2.174   3.722  -9.072  1.00  0.00    -0.206 F 
ATOM     57  C   UNL     1       3.500   1.649 -11.713  1.00  0.00     0.060 A 
BRANCH  57  58
ATOM     58  S   UNL     1       2.932   0.457 -12.945  1.00  0.00     0.124 S 
ATOM     59  O   UNL     1       3.180   1.177 -14.189  1.00  0.00    -0.237 OA
ATOM     60  O   UNL     1       3.801  -0.687 -12.685  1.00  0.00    -0.237 OA
ATOM     61  O   UNL     1       1.527   0.258 -12.601  1.00  0.00    -0.744 OA
ENDBRANCH  57  58
ENDBRANCH  25  50
BRANCH  37  62
ATOM     62  C   UNL     1       7.519   9.690  -9.092  1.00  0.00     0.058 A 
ATOM     63  C   UNL     1       6.666  10.532  -9.817  1.00  0.00     0.135 A 
ATOM     64  C   UNL     1       8.906   9.880  -9.210  1.00  0.00     0.135 A 
ATOM     65  F   UNL     1       5.335  10.377  -9.741  1.00  0.00    -0.206 F 
ATOM     66  C   UNL     1       7.173  11.543 -10.623  1.00  0.00     0.059 A 
ATOM     67  C   UNL     1       9.432  10.903  -9.985  1.00  0.00     0.059 A 
ATOM     68  F   UNL     1       9.756   9.100  -8.523  1.00  0.00    -0.206 F 
ATOM     69  C   UNL     1       8.556  11.731 -10.685  1.00  0.00     0.060 A 
BRANCH  69  70
ATOM     70  S   UNL     1       9.194  13.116 -11.648  1.00  0.00     0.124 S 
ATOM     71  O   UNL     1       8.955  12.658 -13.013  1.00  0.00    -0.237 OA
ATOM     72  O   UNL     1       8.356  14.221 -11.193  1.00  0.00    -0.237 OA
ATOM     73  O   UNL     1      10.595  13.192 -11.247  1.00  0.00    -0.744 OA
ENDBRANCH  69  70
ENDBRANCH  37  62
ENDBRANCH  11  12
ENDBRANCH   4   6
ENDBRANCH   3   4
ENDBRANCH   2   3
ENDBRANCH   1   2
BRANCH   1  74
ATOM     74  O   UNL     1       3.777  -1.100  -1.352  1.00  0.00    -0.374 OA
BRANCH  74  75
ATOM     75  C   UNL     1       2.420  -1.548  -1.352  1.00  0.00     0.202 C 
BRANCH  75  76
ATOM     76  C   UNL     1       2.290  -2.909  -2.029  1.00  0.00     0.261 C 
BRANCH  76  77
ATOM     77  O   UNL     1       2.741  -3.913  -1.100  1.00  0.00    -0.463 OA
BRANCH  77  78
ATOM     78  C   UNL     1       4.065  -4.197  -1.155  1.00  0.00     0.309 C 
ATOM     79  O   UNL     1       4.819  -3.918  -2.078  1.00  0.00    -0.252 OA
BRANCH  78  80
ATOM     80  C   UNL     1       4.542  -4.897   0.102  1.00  0.00     0.100 C 
ATOM     81  C   UNL     1       4.332  -6.397  -0.055  1.00  0.00     0.015 C 
ATOM     82  C   UNL     1       3.926  -4.383   1.422  1.00  0.00     0.028 C 
ATOM     83  C   UNL     1       4.797  -7.152   1.185  1.00  0.00     0.002 C 
ATOM     84  C   UNL     1       4.447  -5.106   2.658  1.00  0.00     0.079 C 
ATOM     85  C   UNL     1       4.165  -6.605   2.467  1.00  0.00     0.013 C 
BRANCH  84  86
ATOM     86  C   UNL     1       5.914  -4.912   3.115  1.00  0.00     0.225 C 
ATOM     87  O   UNL     1       6.304  -5.471   4.145  1.00  0.00    -0.275 OA
BRANCH  86  88
ATOM     88  N   UNL     1       6.825  -4.293   2.281  1.00  0.00    -0.339 N 
ATOM     89  C   UNL     1       6.790  -2.851   1.997  1.00  0.00     0.141 C 
ATOM     90  C   UNL     1       8.052  -5.023   1.961  1.00  0.00     0.146 C 
ATOM     91  C   UNL     1       8.088  -2.157   1.520  1.00  0.00     0.143 C 
ATOM     92  C   UNL     1       9.302  -4.230   2.300  1.00  0.00     0.125 C 
ATOM     93  N   UNL     1       9.287  -2.949   1.629  1.00  0.00    -0.317 N 
ATOM     94  C   UNL     1      10.595  -4.861   1.784  1.00  0.00     0.144 C 
ATOM     95  C   UNL     1      10.521  -2.636   1.093  1.00  0.00     0.317 C 
ATOM     96  N   UNL     1      11.338  -3.741   1.267  1.00  0.00    -0.336 N 
ATOM     97  O   UNL     1      10.847  -1.603   0.532  1.00  0.00    -0.249 OA
ATOM     98  H   UNL     1      12.301  -3.758   1.064  1.00  0.00     0.165 HD
ENDBRANCH  86  88
ENDBRANCH  84  86
ENDBRANCH  78  80
ENDBRANCH  77  78
ENDBRANCH  76  77
ENDBRANCH  75  76
ENDBRANCH  74  75
ENDBRANCH   1  74
TORSDOF 19
