REMARK SMILES CC[N@@H+](C)Cc1cc2c(cc1Cl)C=C(C(=O)OCCOCCOC(=O)c1ccc(-c3c4nc(c(-c5c(F)cc(S(=O)(=O)[O-])cc5F)c5ccc([nH]5)c(-c5c(F)cc(S(=O)(=O)[O-])cc5F)c5nc(c(-c6c(F)cc(S(=O)(=O)[O-])cc6F)c6ccc3[nH]6)C=C5)C=C4)cc1)[C@@H](C(F)(F)F)O2
REMARK SMILES IDX 20 1 19 2 18 3 17 4 15 5 16 6 14 7 6 8 7 9 11 10 8 11 10 12
REMARK SMILES IDX 12 13 9 14 97 15 13 16 92 17 5 18 3 19 4 20 2 22 1 23 93 24
REMARK SMILES IDX 94 25 95 26 96 27 21 28 22 29 23 30 24 31 25 32 26 33 27 34
REMARK SMILES IDX 91 35 28 36 90 37 29 38 30 39 31 40 84 41 32 42 89 43 83 44
REMARK SMILES IDX 85 45 33 46 88 47 82 48 81 49 34 51 68 52 47 53 67 54 48 55
REMARK SMILES IDX 51 56 66 57 86 58 49 59 50 60 65 62 87 63 52 64 35 65 36 66
REMARK SMILES IDX 45 67 37 68 38 69 44 70 46 71 39 72 40 73 41 74 42 75 43 76
REMARK SMILES IDX 69 77 70 78 79 79 71 80 72 81 78 82 80 83 73 84 74 85 75 86
REMARK SMILES IDX 76 87 77 88 53 89 54 90 63 91 55 92 56 93 62 94 64 95 57 96
REMARK SMILES IDX 58 97 59 98 60 99 61 100
REMARK H PARENT 3 21 85 50 51 61
REMARK Flexibility Score: inf
ROOT
ATOM      1  O   UNL     1       5.787   7.607  -5.996  1.00  0.00    -0.374 OA
ENDROOT
BRANCH   1   2
ATOM      2  C   UNL     1       4.750   8.572  -5.827  1.00  0.00     0.202 C 
BRANCH   2   3
ATOM      3  C   UNL     1       3.300   8.106  -5.989  1.00  0.00     0.261 C 
BRANCH   3   4
ATOM      4  O   UNL     1       2.997   6.997  -5.133  1.00  0.00    -0.460 OA
BRANCH   4   5
ATOM      5  C   UNL     1       2.862   5.816  -5.778  1.00  0.00     0.338 C 
ATOM      6  O   UNL     1       2.833   5.634  -6.985  1.00  0.00    -0.246 OA
BRANCH   5   7
ATOM      7  C   UNL     1       2.908   4.717  -4.797  1.00  0.00     0.087 C 
ATOM      8  C   UNL     1       2.982   0.162  -2.789  1.00  0.00     0.029 A 
ATOM      9  C   UNL     1       2.711   1.448  -2.285  1.00  0.00     0.058 A 
ATOM     10  C   UNL     1       3.667   0.067  -4.012  1.00  0.00     0.050 A 
ATOM     11  C   UNL     1       2.917   2.581  -3.063  1.00  0.00     0.128 A 
ATOM     12  C   UNL     1       3.938   1.214  -4.764  1.00  0.00     0.033 A 
ATOM     13  Cl  UNL     1       4.176  -1.442  -4.684  1.00  0.00    -0.084 Cl
ATOM     14  C   UNL     1       3.499   2.461  -4.320  1.00  0.00     0.019 A 
ATOM     15  O   UNL     1       2.497   3.768  -2.534  1.00  0.00    -0.475 OA
ATOM     16  C   UNL     1       3.563   3.616  -5.191  1.00  0.00     0.027 C 
ATOM     17  C   UNL     1       2.241   4.865  -3.456  1.00  0.00     0.316 C 
BRANCH   8  18
ATOM     18  C   UNL     1       2.448  -1.048  -2.045  1.00  0.00     0.300 C 
BRANCH  18  19
ATOM     19  N   UNL     1       0.978  -1.227  -2.058  1.00  0.00    -0.334 N 
ATOM     20  C   UNL     1       0.440  -1.295  -3.420  1.00  0.00     0.333 C 
ATOM     21  H   UNL     1       0.865  -2.127  -1.591  1.00  0.00     0.348 HD
BRANCH  19  22
ATOM     22  C   UNL     1       0.192  -0.285  -1.250  1.00  0.00     0.258 C 
ATOM     23  C   UNL     1       0.589  -0.229   0.222  1.00  0.00     0.071 C 
ENDBRANCH  19  22
ENDBRANCH  18  19
ENDBRANCH   8  18
BRANCH  17  24
ATOM     24  C   UNL     1       0.727   5.089  -3.582  1.00  0.00     0.430 C 
ATOM     25  F   UNL     1       0.133   5.129  -2.366  1.00  0.00    -0.167 F 
ATOM     26  F   UNL     1       0.448   6.261  -4.196  1.00  0.00    -0.167 F 
ATOM     27  F   UNL     1       0.130   4.105  -4.292  1.00  0.00    -0.167 F 
ENDBRANCH  17  24
ENDBRANCH   5   7
ENDBRANCH   4   5
ENDBRANCH   3   4
ENDBRANCH   2   3
ENDBRANCH   1   2
BRANCH   1  28
ATOM     28  C   UNL     1       6.025   6.666  -4.949  1.00  0.00     0.202 C 
BRANCH  28  29
ATOM     29  C   UNL     1       6.631   7.159  -3.629  1.00  0.00     0.261 C 
BRANCH  29  30
ATOM     30  O   UNL     1       5.779   8.081  -2.932  1.00  0.00    -0.460 OA
BRANCH  30  31
ATOM     31  C   UNL     1       6.230   9.361  -2.914  1.00  0.00     0.338 C 
ATOM     32  O   UNL     1       7.278   9.777  -3.382  1.00  0.00    -0.246 OA
BRANCH  31  33
ATOM     33  C   UNL     1       5.163  10.252  -2.423  1.00  0.00     0.060 A 
ATOM     34  C   UNL     1       4.566  10.056  -1.178  1.00  0.00     0.016 A 
ATOM     35  C   UNL     1       4.799  11.342  -3.226  1.00  0.00     0.016 A 
ATOM     36  C   UNL     1       3.629  10.986  -0.719  1.00  0.00     0.010 A 
ATOM     37  C   UNL     1       3.864  12.268  -2.766  1.00  0.00     0.010 A 
ATOM     38  C   UNL     1       3.294  12.113  -1.496  1.00  0.00    -0.014 A 
BRANCH  38  39
ATOM     39  C   UNL     1       2.483  13.208  -0.909  1.00  0.00     0.031 A 
ATOM     40  C   UNL     1       1.068  13.460  -1.335  1.00  0.00     0.074 A 
ATOM     41  C   UNL     1       3.065  14.001   0.013  1.00  0.00     0.049 A 
ATOM     42  N   UNL     1       0.211  14.323  -0.853  1.00  0.00    -0.248 NA
ATOM     43  C   UNL     1       0.549  12.652  -2.448  1.00  0.00     0.031 C 
ATOM     44  C   UNL     1       4.455  13.882   0.458  1.00  0.00     0.029 A 
ATOM     45  N   UNL     1       2.569  15.048   0.746  1.00  0.00    -0.354 N 
ATOM     46  C   UNL     1      -0.959  14.147  -1.580  1.00  0.00     0.074 A 
ATOM     47  C   UNL     1      -0.681  13.134  -2.578  1.00  0.00     0.031 C 
ATOM     48  C   UNL     1       4.687  14.788   1.419  1.00  0.00     0.029 A 
ATOM     49  C   UNL     1       3.475  15.573   1.637  1.00  0.00     0.049 A 
ATOM     50  H   UNL     1       1.651  15.390   0.644  1.00  0.00     0.167 HD
ATOM     51  C   UNL     1      -2.156  14.759  -1.411  1.00  0.00     0.037 A 
ATOM     52  C   UNL     1       3.345  16.567   2.536  1.00  0.00     0.037 A 
ATOM     53  C   UNL     1      -2.409  15.783  -0.427  1.00  0.00     0.049 A 
ATOM     54  C   UNL     1       2.018  17.258   2.677  1.00  0.00     0.074 A 
ATOM     55  C   UNL     1      -3.598  16.439  -0.158  1.00  0.00     0.029 A 
ATOM     56  N   UNL     1      -1.460  16.311   0.438  1.00  0.00    -0.354 N 
ATOM     57  N   UNL     1       0.897  17.022   2.038  1.00  0.00    -0.248 NA
ATOM     58  C   UNL     1       1.932  18.345   3.663  1.00  0.00     0.031 C 
ATOM     59  C   UNL     1      -3.355  17.401   0.828  1.00  0.00     0.029 A 
ATOM     60  C   UNL     1      -2.030  17.302   1.221  1.00  0.00     0.049 A 
ATOM     61  H   UNL     1      -0.519  16.023   0.488  1.00  0.00     0.167 HD
ATOM     62  C   UNL     1      -0.035  17.910   2.564  1.00  0.00     0.074 A 
ATOM     63  C   UNL     1       0.652  18.685   3.577  1.00  0.00     0.031 C 
ATOM     64  C   UNL     1      -1.341  18.063   2.236  1.00  0.00     0.037 A 
BRANCH  51  65
ATOM     65  C   UNL     1      -3.297  14.333  -2.294  1.00  0.00     0.058 A 
ATOM     66  C   UNL     1      -3.899  13.072  -2.151  1.00  0.00     0.135 A 
ATOM     67  C   UNL     1      -3.850  15.216  -3.237  1.00  0.00     0.135 A 
ATOM     68  F   UNL     1      -3.409  12.185  -1.270  1.00  0.00    -0.206 F 
ATOM     69  C   UNL     1      -4.992  12.694  -2.924  1.00  0.00     0.059 A 
ATOM     70  C   UNL     1      -4.960  14.869  -4.002  1.00  0.00     0.059 A 
ATOM     71  F   UNL     1      -3.318  16.436  -3.414  1.00  0.00    -0.206 F 
ATOM     72  C   UNL     1      -5.518  13.601  -3.845  1.00  0.00     0.060 A 
BRANCH  72  73
ATOM     73  S   UNL     1      -6.940  13.091  -4.832  1.00  0.00     0.124 S 
ATOM     74  O   UNL     1      -6.351  12.060  -5.681  1.00  0.00    -0.237 OA
ATOM     75  O   UNL     1      -7.870  12.616  -3.813  1.00  0.00    -0.237 OA
ATOM     76  O   UNL     1      -7.337  14.315  -5.519  1.00  0.00    -0.744 OA
ENDBRANCH  72  73
ENDBRANCH  51  65
BRANCH  52  77
ATOM     77  C   UNL     1       4.498  16.924   3.405  1.00  0.00     0.058 A 
ATOM     78  C   UNL     1       4.487  16.622   4.774  1.00  0.00     0.135 A 
ATOM     79  C   UNL     1       5.652  17.524   2.876  1.00  0.00     0.135 A 
ATOM     80  F   UNL     1       3.405  16.051   5.326  1.00  0.00    -0.206 F 
ATOM     81  C   UNL     1       5.575  16.907   5.591  1.00  0.00     0.059 A 
ATOM     82  C   UNL     1       6.764  17.793   3.668  1.00  0.00     0.059 A 
ATOM     83  F   UNL     1       5.720  17.815   1.568  1.00  0.00    -0.206 F 
ATOM     84  C   UNL     1       6.713  17.485   5.026  1.00  0.00     0.060 A 
BRANCH  84  85
ATOM     85  S   UNL     1       8.141  17.791   6.088  1.00  0.00     0.124 S 
ATOM     86  O   UNL     1       7.644  18.856   6.951  1.00  0.00    -0.237 OA
ATOM     87  O   UNL     1       8.330  16.490   6.723  1.00  0.00    -0.237 OA
ATOM     88  O   UNL     1       9.186  18.179   5.145  1.00  0.00    -0.744 OA
ENDBRANCH  84  85
ENDBRANCH  52  77
BRANCH  64  89
ATOM     89  C   UNL     1      -2.143  19.090   2.990  1.00  0.00     0.058 A 
ATOM     90  C   UNL     1      -1.981  20.464   2.763  1.00  0.00     0.135 A 
ATOM     91  C   UNL     1      -3.163  18.686   3.868  1.00  0.00     0.135 A 
ATOM     92  F   UNL     1      -1.014  20.905   1.942  1.00  0.00    -0.206 F 
ATOM     93  C   UNL     1      -2.803  21.404   3.377  1.00  0.00     0.059 A 
ATOM     94  C   UNL     1      -4.015  19.606   4.472  1.00  0.00     0.059 A 
ATOM     95  F   UNL     1      -3.365  17.382   4.116  1.00  0.00    -0.206 F 
ATOM     96  C   UNL     1      -3.827  20.964   4.219  1.00  0.00     0.060 A 
BRANCH  96  97
ATOM     97  S   UNL     1      -4.935  22.192   4.942  1.00  0.00     0.124 S 
ATOM     98  O   UNL     1      -4.048  22.879   5.875  1.00  0.00    -0.237 OA
ATOM     99  O   UNL     1      -5.346  22.963   3.773  1.00  0.00    -0.237 OA
ATOM    100  O   UNL     1      -5.986  21.386   5.556  1.00  0.00    -0.744 OA
ENDBRANCH  96  97
ENDBRANCH  64  89
ENDBRANCH  38  39
ENDBRANCH  31  33
ENDBRANCH  30  31
ENDBRANCH  29  30
ENDBRANCH  28  29
ENDBRANCH   1  28
TORSDOF 21
