REMARK SMILES CCC(CC)(CC)NC(=O)NC[C@@H]1CC[C@H](C(=O)OCCOCCOC(=O)c2ccc(-c3c4nc(c(-c5c(F)cc(S(=O)(=O)[O-])cc5F)c5ccc([nH]5)c(-c5c(F)cc(S(=O)(=O)[O-])cc5F)c5nc(c(-c6c(F)cc(S(=O)(=O)[O-])cc6F)c6ccc3[nH]6)C=C5)C=C4)cc2)O1
REMARK SMILES IDX 21 1 20 2 19 3 17 4 18 5 16 6 13 7 14 8 94 9 15 10 12 11
REMARK SMILES IDX 11 12 8 13 9 14 10 16 3 18 2 19 1 20 4 21 5 22 6 23 7 24
REMARK SMILES IDX 22 25 23 26 24 27 25 28 26 29 27 30 28 31 29 32 93 33 30 34
REMARK SMILES IDX 92 35 31 36 32 37 33 38 86 39 34 40 91 41 85 42 87 43 35 44
REMARK SMILES IDX 90 45 84 46 83 47 36 49 70 50 49 51 69 52 50 53 53 54 68 55
REMARK SMILES IDX 88 56 51 57 52 58 67 60 89 61 54 62 37 63 38 64 47 65 39 66
REMARK SMILES IDX 40 67 46 68 48 69 41 70 42 71 43 72 44 73 45 74 71 75 72 76
REMARK SMILES IDX 81 77 73 78 74 79 80 80 82 81 75 82 76 83 77 84 78 85 79 86
REMARK SMILES IDX 55 87 56 88 65 89 57 90 58 91 64 92 66 93 59 94 60 95 61 96
REMARK SMILES IDX 62 97 63 98
REMARK H PARENT 8 15 11 17 87 48 53 59
REMARK Flexibility Score: inf
ROOT
ATOM      1  C   UNL     1       5.817  -2.717  -1.787  1.00  0.00     0.202 C 
ENDROOT
BRANCH   1   2
ATOM      2  C   UNL     1       4.926  -1.627  -1.179  1.00  0.00     0.261 C 
BRANCH   2   3
ATOM      3  O   UNL     1       3.558  -2.060  -1.048  1.00  0.00    -0.461 OA
BRANCH   3   4
ATOM      4  C   UNL     1       2.634  -1.367  -1.775  1.00  0.00     0.335 C 
ATOM      5  O   UNL     1       2.885  -0.420  -2.513  1.00  0.00    -0.249 OA
BRANCH   4   6
ATOM      6  C   UNL     1       1.212  -1.941  -1.614  1.00  0.00     0.228 C 
ATOM      7  C   UNL     1       0.494  -2.055   0.602  1.00  0.00     0.138 C 
ATOM      8  C   UNL     1       1.117  -3.402   0.250  1.00  0.00     0.037 C 
ATOM      9  O   UNL     1       0.441  -1.291  -0.609  1.00  0.00    -0.361 OA
ATOM     10  C   UNL     1       1.115  -3.411  -1.262  1.00  0.00     0.047 C 
BRANCH   7  11
ATOM     11  C   UNL     1       1.200  -1.277   1.732  1.00  0.00     0.149 C 
BRANCH  11  12
ATOM     12  N   UNL     1       2.399  -0.566   1.329  1.00  0.00    -0.336 N 
ATOM     13  N   UNL     1       2.088   1.809   1.390  1.00  0.00    -0.333 N 
ATOM     14  C   UNL     1       2.811   0.697   1.288  1.00  0.00     0.315 C 
ATOM     15  H   UNL     1       2.703   2.576   1.442  1.00  0.00     0.165 HD
ATOM     16  O   UNL     1       4.027   0.856   1.117  1.00  0.00    -0.249 OA
ATOM     17  H   UNL     1       3.091  -1.183   0.999  1.00  0.00     0.165 HD
BRANCH  13  18
ATOM     18  C   UNL     1       0.690   2.321   1.455  1.00  0.00     0.041 C 
BRANCH  18  19
ATOM     19  C   UNL     1      -0.306   1.534   0.568  1.00  0.00     0.025 C 
ATOM     20  C   UNL     1       0.057   1.512  -0.919  1.00  0.00     0.006 C 
ENDBRANCH  18  19
BRANCH  18  21
ATOM     21  C   UNL     1       0.755   3.798   0.880  1.00  0.00     0.025 C 
ATOM     22  C   UNL     1      -0.588   4.493   0.651  1.00  0.00     0.006 C 
ENDBRANCH  18  21
BRANCH  18  23
ATOM     23  C   UNL     1       0.196   2.468   2.933  1.00  0.00     0.025 C 
ATOM     24  C   UNL     1       0.662   1.461   3.973  1.00  0.00     0.006 C 
ENDBRANCH  18  23
ENDBRANCH  13  18
ENDBRANCH  11  12
ENDBRANCH   7  11
ENDBRANCH   4   6
ENDBRANCH   3   4
ENDBRANCH   2   3
ENDBRANCH   1   2
BRANCH   1  25
ATOM     25  O   UNL     1       5.569  -3.056  -3.151  1.00  0.00    -0.374 OA
BRANCH  25  26
ATOM     26  C   UNL     1       4.367  -3.756  -3.462  1.00  0.00     0.202 C 
BRANCH  26  27
ATOM     27  C   UNL     1       4.264  -5.199  -2.957  1.00  0.00     0.261 C 
BRANCH  27  28
ATOM     28  O   UNL     1       4.229  -5.278  -1.518  1.00  0.00    -0.460 OA
BRANCH  28  29
ATOM     29  C   UNL     1       5.114  -6.162  -0.994  1.00  0.00     0.338 C 
ATOM     30  O   UNL     1       5.830  -6.936  -1.607  1.00  0.00    -0.246 OA
BRANCH  29  31
ATOM     31  C   UNL     1       5.233  -5.989   0.465  1.00  0.00     0.060 A 
ATOM     32  C   UNL     1       6.485  -5.615   0.965  1.00  0.00     0.016 A 
ATOM     33  C   UNL     1       4.201  -6.353   1.334  1.00  0.00     0.016 A 
ATOM     34  C   UNL     1       6.733  -5.675   2.335  1.00  0.00     0.010 A 
ATOM     35  C   UNL     1       4.454  -6.412   2.712  1.00  0.00     0.010 A 
ATOM     36  C   UNL     1       5.736  -6.121   3.214  1.00  0.00    -0.014 A 
BRANCH  36  37
ATOM     37  C   UNL     1       6.107  -6.423   4.622  1.00  0.00     0.031 A 
ATOM     38  C   UNL     1       6.374  -7.851   5.027  1.00  0.00     0.074 A 
ATOM     39  C   UNL     1       6.287  -5.431   5.512  1.00  0.00     0.049 A 
ATOM     40  N   UNL     1       6.774  -8.325   6.179  1.00  0.00    -0.248 NA
ATOM     41  C   UNL     1       6.167  -8.879   3.994  1.00  0.00     0.031 C 
ATOM     42  C   UNL     1       6.091  -4.008   5.240  1.00  0.00     0.029 A 
ATOM     43  N   UNL     1       6.689  -5.471   6.824  1.00  0.00    -0.354 N 
ATOM     44  C   UNL     1       6.873  -9.702   6.011  1.00  0.00     0.074 A 
ATOM     45  C   UNL     1       6.453  -9.992   4.657  1.00  0.00     0.031 C 
ATOM     46  C   UNL     1       6.374  -3.308   6.353  1.00  0.00     0.029 A 
ATOM     47  C   UNL     1       6.756  -4.233   7.418  1.00  0.00     0.049 A 
ATOM     48  H   UNL     1       6.908  -6.307   7.295  1.00  0.00     0.167 HD
ATOM     49  C   UNL     1       7.291 -10.640   6.896  1.00  0.00     0.037 A 
ATOM     50  C   UNL     1       7.084  -3.885   8.679  1.00  0.00     0.037 A 
ATOM     51  C   UNL     1       7.713 -10.355   8.244  1.00  0.00     0.049 A 
ATOM     52  C   UNL     1       7.506  -4.949   9.658  1.00  0.00     0.074 A 
ATOM     53  C   UNL     1       8.161 -11.239   9.211  1.00  0.00     0.029 A 
ATOM     54  N   UNL     1       7.737  -9.093   8.816  1.00  0.00    -0.354 N 
ATOM     55  N   UNL     1       7.612  -6.244   9.476  1.00  0.00    -0.248 NA
ATOM     56  C   UNL     1       7.862  -4.502  11.013  1.00  0.00     0.031 C 
ATOM     57  C   UNL     1       8.421 -10.515  10.381  1.00  0.00     0.029 A 
ATOM     58  C   UNL     1       8.176  -9.175  10.129  1.00  0.00     0.049 A 
ATOM     59  H   UNL     1       7.481  -8.260   8.358  1.00  0.00     0.167 HD
ATOM     60  C   UNL     1       8.069  -6.762  10.684  1.00  0.00     0.074 A 
ATOM     61  C   UNL     1       8.230  -5.639  11.585  1.00  0.00     0.031 C 
ATOM     62  C   UNL     1       8.331  -8.050  11.017  1.00  0.00     0.037 A 
BRANCH  49  63
ATOM     63  C   UNL     1       7.298 -12.072   6.437  1.00  0.00     0.058 A 
ATOM     64  C   UNL     1       8.257 -12.549   5.528  1.00  0.00     0.135 A 
ATOM     65  C   UNL     1       6.354 -12.986   6.932  1.00  0.00     0.135 A 
ATOM     66  F   UNL     1       9.172 -11.713   5.011  1.00  0.00    -0.206 F 
ATOM     67  C   UNL     1       8.263 -13.874   5.106  1.00  0.00     0.059 A 
ATOM     68  C   UNL     1       6.356 -14.322   6.542  1.00  0.00     0.059 A 
ATOM     69  F   UNL     1       5.416 -12.582   7.803  1.00  0.00    -0.206 F 
ATOM     70  C   UNL     1       7.306 -14.753   5.617  1.00  0.00     0.060 A 
BRANCH  70  71
ATOM     71  S   UNL     1       7.322 -16.470   5.059  1.00  0.00     0.124 S 
ATOM     72  O   UNL     1       6.769 -16.343   3.714  1.00  0.00    -0.237 OA
ATOM     73  O   UNL     1       8.739 -16.811   5.131  1.00  0.00    -0.237 OA
ATOM     74  O   UNL     1       6.466 -17.150   6.027  1.00  0.00    -0.744 OA
ENDBRANCH  70  71
ENDBRANCH  49  63
BRANCH  50  75
ATOM     75  C   UNL     1       7.025  -2.457   9.089  1.00  0.00     0.058 A 
ATOM     76  C   UNL     1       8.192  -1.722   9.343  1.00  0.00     0.135 A 
ATOM     77  C   UNL     1       5.793  -1.801   9.232  1.00  0.00     0.135 A 
ATOM     78  F   UNL     1       9.393  -2.310   9.230  1.00  0.00    -0.206 F 
ATOM     79  C   UNL     1       8.141  -0.390   9.739  1.00  0.00     0.059 A 
ATOM     80  C   UNL     1       5.717  -0.463   9.604  1.00  0.00     0.059 A 
ATOM     81  F   UNL     1       4.648  -2.459   8.990  1.00  0.00    -0.206 F 
ATOM     82  C   UNL     1       6.897   0.232   9.865  1.00  0.00     0.060 A 
BRANCH  82  83
ATOM     83  S   UNL     1       6.837   1.975  10.334  1.00  0.00     0.124 S 
ATOM     84  O   UNL     1       7.124   1.904  11.762  1.00  0.00    -0.237 OA
ATOM     85  O   UNL     1       7.885   2.555   9.500  1.00  0.00    -0.237 OA
ATOM     86  O   UNL     1       5.477   2.369   9.981  1.00  0.00    -0.744 OA
ENDBRANCH  82  83
ENDBRANCH  50  75
BRANCH  62  87
ATOM     87  C   UNL     1       8.844  -8.314  12.406  1.00  0.00     0.058 A 
ATOM     88  C   UNL     1       8.007  -8.231  13.530  1.00  0.00     0.135 A 
ATOM     89  C   UNL     1      10.183  -8.684  12.614  1.00  0.00     0.135 A 
ATOM     90  F   UNL     1       6.719  -7.878  13.387  1.00  0.00    -0.206 F 
ATOM     91  C   UNL     1       8.486  -8.473  14.813  1.00  0.00     0.059 A 
ATOM     92  C   UNL     1      10.678  -8.955  13.886  1.00  0.00     0.059 A 
ATOM     93  F   UNL     1      11.024  -8.792  11.573  1.00  0.00    -0.206 F 
ATOM     94  C   UNL     1       9.825  -8.830  14.982  1.00  0.00     0.060 A 
BRANCH  94  95
ATOM     95  S   UNL     1      10.435  -9.153  16.651  1.00  0.00     0.124 S 
ATOM     96  O   UNL     1      10.581  -7.800  17.176  1.00  0.00    -0.237 OA
ATOM     97  O   UNL     1       9.357  -9.946  17.233  1.00  0.00    -0.237 OA
ATOM     98  O   UNL     1      11.682  -9.877  16.422  1.00  0.00    -0.744 OA
ENDBRANCH  94  95
ENDBRANCH  62  87
ENDBRANCH  36  37
ENDBRANCH  29  31
ENDBRANCH  28  29
ENDBRANCH  27  28
ENDBRANCH  26  27
ENDBRANCH  25  26
ENDBRANCH   1  25
TORSDOF 23
