REMARK SMILES COc1ccc(C[N@@H+]2CCO[C@H](CC(=O)OCCOCCOC(=O)c3ccc(-c4c5nc(c(-c6c(F)cc(S(=O)(=O)[O-])cc6F)c6ccc([nH]6)c(-c6c(F)cc(S(=O)(=O)[O-])cc6F)c6nc(c(-c7c(F)cc(S(=O)(=O)[O-])cc7F)c7ccc4[nH]7)C=C6)C=C5)cc3)C2)cc1OC
REMARK SMILES IDX 18 1 17 2 16 3 14 4 15 5 13 6 12 7 8 8 9 9 91 10 10 12 11 13
REMARK SMILES IDX 7 14 6 15 3 16 4 17 93 18 5 19 92 20 2 21 1 22 94 23 95 24
REMARK SMILES IDX 19 25 20 26 21 27 22 28 23 29 24 30 25 31 26 32 90 33 27 34
REMARK SMILES IDX 89 35 28 36 29 37 30 38 83 39 31 40 88 41 82 42 84 43 32 44
REMARK SMILES IDX 87 45 81 46 80 47 33 49 67 50 46 51 66 52 47 53 50 54 65 55
REMARK SMILES IDX 85 56 48 57 49 58 64 60 86 61 51 62 34 63 35 64 44 65 36 66
REMARK SMILES IDX 37 67 43 68 45 69 38 70 39 71 40 72 41 73 42 74 68 75 69 76
REMARK SMILES IDX 78 77 70 78 71 79 77 80 79 81 72 82 73 83 74 84 75 85 76 86
REMARK SMILES IDX 52 87 53 88 62 89 54 90 55 91 61 92 63 93 56 94 57 95 58 96
REMARK SMILES IDX 59 97 60 98
REMARK H PARENT 8 11 84 48 50 59
REMARK Flexibility Score: inf
ROOT
ATOM      1  C   UNL     1       5.635   1.524   0.569  1.00  0.00     0.202 C 
ENDROOT
BRANCH   1   2
ATOM      2  C   UNL     1       4.395   1.914  -0.268  1.00  0.00     0.261 C 
BRANCH   2   3
ATOM      3  O   UNL     1       3.812   3.216  -0.108  1.00  0.00    -0.463 OA
BRANCH   3   4
ATOM      4  C   UNL     1       2.944   3.266   0.926  1.00  0.00     0.308 C 
ATOM      5  O   UNL     1       2.939   2.433   1.818  1.00  0.00    -0.252 OA
BRANCH   4   6
ATOM      6  C   UNL     1       1.966   4.393   0.867  1.00  0.00     0.160 C 
BRANCH   6   7
ATOM      7  C   UNL     1       2.427   5.680   1.534  1.00  0.00     0.184 C 
ATOM      8  N   UNL     1       1.667   5.591   3.990  1.00  0.00    -0.327 N 
ATOM      9  C   UNL     1       0.595   6.508   3.626  1.00  0.00     0.291 C 
ATOM     10  C   UNL     1       2.779   5.622   3.044  1.00  0.00     0.295 C 
ATOM     11  H   UNL     1       2.041   6.004   4.845  1.00  0.00     0.348 HD
ATOM     12  C   UNL     1       0.269   6.543   2.120  1.00  0.00     0.222 C 
ATOM     13  O   UNL     1       1.443   6.721   1.312  1.00  0.00    -0.366 OA
BRANCH   8  14
ATOM     14  C   UNL     1       1.389   4.369   4.756  1.00  0.00     0.299 C 
BRANCH  14  15
ATOM     15  C   UNL     1       0.677   3.244   4.034  1.00  0.00     0.010 A 
ATOM     16  C   UNL     1      -0.269   1.468   2.072  1.00  0.00     0.160 A 
ATOM     17  C   UNL     1      -0.988   2.615   2.422  1.00  0.00     0.051 A 
ATOM     18  C   UNL     1       0.768   1.055   2.910  1.00  0.00     0.161 A 
ATOM     19  C   UNL     1      -0.557   3.465   3.433  1.00  0.00     0.013 A 
ATOM     20  C   UNL     1       1.241   1.961   3.890  1.00  0.00     0.060 A 
BRANCH  16  21
ATOM     21  O   UNL     1      -0.629   1.049   0.828  1.00  0.00    -0.493 OA
ATOM     22  C   UNL     1      -0.559  -0.304   0.445  1.00  0.00     0.278 C 
ENDBRANCH  16  21
BRANCH  18  23
ATOM     23  O   UNL     1       1.352  -0.182   2.906  1.00  0.00    -0.493 OA
ATOM     24  C   UNL     1       2.182  -0.466   1.785  1.00  0.00     0.278 C 
ENDBRANCH  18  23
ENDBRANCH  14  15
ENDBRANCH   8  14
ENDBRANCH   6   7
ENDBRANCH   4   6
ENDBRANCH   3   4
ENDBRANCH   2   3
ENDBRANCH   1   2
BRANCH   1  25
ATOM     25  O   UNL     1       5.728   1.756   1.962  1.00  0.00    -0.374 OA
BRANCH  25  26
ATOM     26  C   UNL     1       5.752   3.070   2.497  1.00  0.00     0.202 C 
BRANCH  26  27
ATOM     27  C   UNL     1       6.500   4.236   1.833  1.00  0.00     0.261 C 
BRANCH  27  28
ATOM     28  O   UNL     1       6.247   4.388   0.431  1.00  0.00    -0.460 OA
BRANCH  28  29
ATOM     29  C   UNL     1       7.309   4.107  -0.358  1.00  0.00     0.338 C 
ATOM     30  O   UNL     1       8.445   3.826   0.014  1.00  0.00    -0.246 OA
BRANCH  29  31
ATOM     31  C   UNL     1       6.882   3.928  -1.754  1.00  0.00     0.060 A 
ATOM     32  C   UNL     1       7.221   2.716  -2.374  1.00  0.00     0.016 A 
ATOM     33  C   UNL     1       6.245   4.944  -2.468  1.00  0.00     0.016 A 
ATOM     34  C   UNL     1       6.989   2.538  -3.728  1.00  0.00     0.010 A 
ATOM     35  C   UNL     1       6.045   4.778  -3.842  1.00  0.00     0.010 A 
ATOM     36  C   UNL     1       6.474   3.599  -4.479  1.00  0.00    -0.014 A 
BRANCH  36  37
ATOM     37  C   UNL     1       6.679   3.552  -5.943  1.00  0.00     0.031 A 
ATOM     38  C   UNL     1       7.915   4.207  -6.498  1.00  0.00     0.074 A 
ATOM     39  C   UNL     1       5.848   2.859  -6.738  1.00  0.00     0.049 A 
ATOM     40  N   UNL     1       8.355   4.245  -7.728  1.00  0.00    -0.248 NA
ATOM     41  C   UNL     1       8.772   4.912  -5.530  1.00  0.00     0.031 C 
ATOM     42  C   UNL     1       4.651   2.151  -6.293  1.00  0.00     0.029 A 
ATOM     43  N   UNL     1       5.893   2.639  -8.089  1.00  0.00    -0.354 N 
ATOM     44  C   UNL     1       9.530   4.986  -7.683  1.00  0.00     0.074 A 
ATOM     45  C   UNL     1       9.719   5.404  -6.312  1.00  0.00     0.031 C 
ATOM     46  C   UNL     1       4.060   1.587  -7.361  1.00  0.00     0.029 A 
ATOM     47  C   UNL     1       4.829   1.913  -8.562  1.00  0.00     0.049 A 
ATOM     48  H   UNL     1       6.620   2.969  -8.666  1.00  0.00     0.167 HD
ATOM     49  C   UNL     1      10.379   5.286  -8.694  1.00  0.00     0.037 A 
ATOM     50  C   UNL     1       4.505   1.572  -9.824  1.00  0.00     0.037 A 
ATOM     51  C   UNL     1      10.172   4.867 -10.055  1.00  0.00     0.049 A 
ATOM     52  C   UNL     1       5.440   1.945 -10.944  1.00  0.00     0.074 A 
ATOM     53  C   UNL     1      10.976   5.090 -11.157  1.00  0.00     0.029 A 
ATOM     54  N   UNL     1       9.069   4.151 -10.501  1.00  0.00    -0.354 N 
ATOM     55  N   UNL     1       6.567   2.616 -10.888  1.00  0.00    -0.248 NA
ATOM     56  C   UNL     1       5.071   1.501 -12.293  1.00  0.00     0.031 C 
ATOM     57  C   UNL     1      10.327   4.567 -12.281  1.00  0.00     0.029 A 
ATOM     58  C   UNL     1       9.153   3.953 -11.869  1.00  0.00     0.049 A 
ATOM     59  H   UNL     1       8.334   3.831  -9.929  1.00  0.00     0.167 HD
ATOM     60  C   UNL     1       7.055   2.656 -12.191  1.00  0.00     0.074 A 
ATOM     61  C   UNL     1       6.103   1.928 -13.008  1.00  0.00     0.031 C 
ATOM     62  C   UNL     1       8.188   3.233 -12.667  1.00  0.00     0.037 A 
BRANCH  49  63
ATOM     63  C   UNL     1      11.563   6.156  -8.366  1.00  0.00     0.058 A 
ATOM     64  C   UNL     1      12.620   5.713  -7.553  1.00  0.00     0.135 A 
ATOM     65  C   UNL     1      11.627   7.471  -8.856  1.00  0.00     0.135 A 
ATOM     66  F   UNL     1      12.604   4.472  -7.039  1.00  0.00    -0.206 F 
ATOM     67  C   UNL     1      13.670   6.555  -7.199  1.00  0.00     0.059 A 
ATOM     68  C   UNL     1      12.684   8.319  -8.543  1.00  0.00     0.059 A 
ATOM     69  F   UNL     1      10.644   7.950  -9.635  1.00  0.00    -0.206 F 
ATOM     70  C   UNL     1      13.689   7.860  -7.695  1.00  0.00     0.060 A 
BRANCH  70  71
ATOM     71  S   UNL     1      15.039   8.953  -7.202  1.00  0.00     0.124 S 
ATOM     72  O   UNL     1      14.699   9.226  -5.809  1.00  0.00    -0.237 OA
ATOM     73  O   UNL     1      16.214   8.115  -7.415  1.00  0.00    -0.237 OA
ATOM     74  O   UNL     1      14.908  10.087  -8.112  1.00  0.00    -0.744 OA
ENDBRANCH  70  71
ENDBRANCH  49  63
BRANCH  50  75
ATOM     75  C   UNL     1       3.233   0.846 -10.076  1.00  0.00     0.058 A 
ATOM     76  C   UNL     1       3.217  -0.503 -10.455  1.00  0.00     0.135 A 
ATOM     77  C   UNL     1       1.996   1.484  -9.881  1.00  0.00     0.135 A 
ATOM     78  F   UNL     1       4.371  -1.155 -10.664  1.00  0.00    -0.206 F 
ATOM     79  C   UNL     1       2.023  -1.198 -10.623  1.00  0.00     0.059 A 
ATOM     80  C   UNL     1       0.791   0.805 -10.018  1.00  0.00     0.059 A 
ATOM     81  F   UNL     1       1.957   2.773  -9.508  1.00  0.00    -0.206 F 
ATOM     82  C   UNL     1       0.815  -0.538 -10.389  1.00  0.00     0.060 A 
BRANCH  82  83
ATOM     83  S   UNL     1      -0.724  -1.476 -10.509  1.00  0.00     0.124 S 
ATOM     84  O   UNL     1      -0.829  -1.689 -11.947  1.00  0.00    -0.237 OA
ATOM     85  O   UNL     1      -0.421  -2.658  -9.708  1.00  0.00    -0.237 OA
ATOM     86  O   UNL     1      -1.714  -0.574  -9.929  1.00  0.00    -0.744 OA
ENDBRANCH  82  83
ENDBRANCH  50  75
BRANCH  62  87
ATOM     87  C   UNL     1       8.480   3.074 -14.135  1.00  0.00     0.058 A 
ATOM     88  C   UNL     1       7.723   3.727 -15.120  1.00  0.00     0.135 A 
ATOM     89  C   UNL     1       9.564   2.286 -14.559  1.00  0.00     0.135 A 
ATOM     90  F   UNL     1       6.676   4.491 -14.772  1.00  0.00    -0.206 F 
ATOM     91  C   UNL     1       8.005   3.572 -16.474  1.00  0.00     0.059 A 
ATOM     92  C   UNL     1       9.885   2.146 -15.905  1.00  0.00     0.059 A 
ATOM     93  F   UNL     1      10.333   1.653 -13.659  1.00  0.00    -0.206 F 
ATOM     94  C   UNL     1       9.087   2.778 -16.857  1.00  0.00     0.060 A 
BRANCH  94  95
ATOM     95  S   UNL     1       9.446   2.589 -18.615  1.00  0.00     0.124 S 
ATOM     96  O   UNL     1       8.360   1.714 -19.044  1.00  0.00    -0.237 OA
ATOM     97  O   UNL     1       9.378   3.966 -19.097  1.00  0.00    -0.237 OA
ATOM     98  O   UNL     1      10.777   1.991 -18.629  1.00  0.00    -0.744 OA
ENDBRANCH  94  95
ENDBRANCH  62  87
ENDBRANCH  36  37
ENDBRANCH  29  31
ENDBRANCH  28  29
ENDBRANCH  27  28
ENDBRANCH  26  27
ENDBRANCH  25  26
ENDBRANCH   1  25
TORSDOF 22
