REMARK SMILES O=CN[C@@H](CCS[C@@H]1CCO[C@]2(CCOC2)C1)C(=O)OCCOCCOC(=O)c1ccc(-c2c3nc(c(-c4c(F)cc(S(=O)(=O)[O-])cc4F)c4ccc([nH]4)c(-c4c(F)cc(S(=O)(=O)[O-])cc4F)c4nc(c(-c5c(F)cc(S(=O)(=O)[O-])cc5F)c5ccc2[nH]5)C=C4)C=C3)cc1
REMARK SMILES IDX 22 1 21 2 20 3 18 4 19 5 4 6 3 7 1 8 2 9 5 11 6 12 7 13 8 14
REMARK SMILES IDX 9 15 17 16 10 17 12 18 11 19 13 20 16 21 14 22 15 23 23 24
REMARK SMILES IDX 24 25 25 26 26 27 27 28 28 29 29 30 30 31 94 32 31 33 93 34
REMARK SMILES IDX 32 35 33 36 34 37 87 38 35 39 92 40 86 41 88 42 36 43 91 44
REMARK SMILES IDX 85 45 84 46 37 48 71 49 50 50 70 51 51 52 54 53 69 54 89 55
REMARK SMILES IDX 52 56 53 57 68 59 90 60 55 61 38 62 39 63 48 64 40 65 41 66
REMARK SMILES IDX 47 67 49 68 42 69 43 70 44 71 45 72 46 73 72 74 73 75 82 76
REMARK SMILES IDX 74 77 75 78 81 79 83 80 76 81 77 82 78 83 79 84 80 85 56 86
REMARK SMILES IDX 57 87 66 88 58 89 59 90 65 91 67 92 60 93 61 94 62 95 63 96
REMARK SMILES IDX 64 97
REMARK H PARENT 3 10 88 47 54 58
REMARK Flexibility Score: inf
ROOT
ATOM      1  C   UNL     1       5.559   0.125   4.564  1.00  0.00     0.202 C 
ENDROOT
BRANCH   1   2
ATOM      2  C   UNL     1       6.649   0.523   3.553  1.00  0.00     0.261 C 
BRANCH   2   3
ATOM      3  O   UNL     1       6.124   0.945   2.274  1.00  0.00    -0.462 OA
BRANCH   3   4
ATOM      4  C   UNL     1       6.026   0.038   1.276  1.00  0.00     0.328 C 
ATOM      5  O   UNL     1       6.326  -1.147   1.380  1.00  0.00    -0.250 OA
BRANCH   4   6
ATOM      6  C   UNL     1       5.324   0.596   0.013  1.00  0.00     0.192 C 
BRANCH   6   7
ATOM      7  N   UNL     1       3.889   0.333  -0.031  1.00  0.00    -0.345 N 
ATOM      8  O   UNL     1       2.112  -1.025  -0.315  1.00  0.00    -0.279 OA
ATOM      9  C   UNL     1       3.318  -0.895  -0.154  1.00  0.00     0.337 C 
ATOM     10  H   UNL     1       3.285   1.107   0.034  1.00  0.00     0.164 HD
ENDBRANCH   6   7
BRANCH   6  11
ATOM     11  C   UNL     1       5.689   2.028  -0.404  1.00  0.00     0.048 C 
BRANCH  11  12
ATOM     12  C   UNL     1       4.784   3.185   0.024  1.00  0.00     0.072 C 
BRANCH  12  13
ATOM     13  S   UNL     1       5.005   3.724   1.725  1.00  0.00    -0.158 SA
BRANCH  13  14
ATOM     14  C   UNL     1       3.671   2.875   2.669  1.00  0.00     0.052 C 
ATOM     15  C   UNL     1       2.274   2.790   2.067  1.00  0.00     0.043 C 
ATOM     16  C   UNL     1       3.560   3.556   4.038  1.00  0.00     0.052 C 
ATOM     17  C   UNL     1       1.624   4.153   2.002  1.00  0.00     0.162 C 
ATOM     18  C   UNL     1       2.744   4.872   4.005  1.00  0.00     0.095 C 
ATOM     19  O   UNL     1       1.509   4.705   3.304  1.00  0.00    -0.372 OA
ATOM     20  C   UNL     1       3.535   6.111   3.566  1.00  0.00     0.066 C 
ATOM     21  C   UNL     1       2.410   5.268   5.433  1.00  0.00     0.195 C 
ATOM     22  C   UNL     1       3.976   6.792   4.853  1.00  0.00     0.163 C 
ATOM     23  O   UNL     1       3.588   5.916   5.899  1.00  0.00    -0.378 OA
ENDBRANCH  13  14
ENDBRANCH  12  13
ENDBRANCH  11  12
ENDBRANCH   6  11
ENDBRANCH   4   6
ENDBRANCH   3   4
ENDBRANCH   2   3
ENDBRANCH   1   2
BRANCH   1  24
ATOM     24  O   UNL     1       4.992  -1.161   4.311  1.00  0.00    -0.374 OA
BRANCH  24  25
ATOM     25  C   UNL     1       3.898  -1.170   3.396  1.00  0.00     0.202 C 
BRANCH  25  26
ATOM     26  C   UNL     1       2.531  -1.291   4.067  1.00  0.00     0.261 C 
BRANCH  26  27
ATOM     27  O   UNL     1       2.200  -0.114   4.828  1.00  0.00    -0.460 OA
BRANCH  27  28
ATOM     28  C   UNL     1       2.393  -0.229   6.165  1.00  0.00     0.338 C 
ATOM     29  O   UNL     1       2.859  -1.194   6.754  1.00  0.00    -0.246 OA
BRANCH  28  30
ATOM     30  C   UNL     1       2.022   1.022   6.862  1.00  0.00     0.060 A 
ATOM     31  C   UNL     1       2.816   1.427   7.940  1.00  0.00     0.016 A 
ATOM     32  C   UNL     1       0.891   1.765   6.515  1.00  0.00     0.016 A 
ATOM     33  C   UNL     1       2.474   2.559   8.687  1.00  0.00     0.010 A 
ATOM     34  C   UNL     1       0.567   2.914   7.254  1.00  0.00     0.010 A 
ATOM     35  C   UNL     1       1.345   3.322   8.360  1.00  0.00    -0.014 A 
BRANCH  35  36
ATOM     36  C   UNL     1       0.965   4.516   9.181  1.00  0.00     0.031 A 
ATOM     37  C   UNL     1      -0.344   4.525   9.924  1.00  0.00     0.074 A 
ATOM     38  C   UNL     1       1.764   5.602   9.282  1.00  0.00     0.049 A 
ATOM     39  N   UNL     1      -0.803   5.420  10.762  1.00  0.00    -0.248 NA
ATOM     40  C   UNL     1      -1.241   3.374   9.729  1.00  0.00     0.031 C 
ATOM     41  C   UNL     1       3.080   5.743   8.672  1.00  0.00     0.029 A 
ATOM     42  N   UNL     1       1.570   6.820   9.898  1.00  0.00    -0.354 N 
ATOM     43  C   UNL     1      -1.997   4.905  11.246  1.00  0.00     0.074 A 
ATOM     44  C   UNL     1      -2.261   3.688  10.511  1.00  0.00     0.031 C 
ATOM     45  C   UNL     1       3.519   7.004   8.825  1.00  0.00     0.029 A 
ATOM     46  C   UNL     1       2.553   7.746   9.618  1.00  0.00     0.049 A 
ATOM     47  H   UNL     1       0.802   7.011  10.482  1.00  0.00     0.167 HD
ATOM     48  C   UNL     1      -2.763   5.361  12.264  1.00  0.00     0.037 A 
ATOM     49  C   UNL     1       2.689   9.039   9.975  1.00  0.00     0.037 A 
ATOM     50  C   UNL     1      -2.511   6.582  12.982  1.00  0.00     0.049 A 
ATOM     51  C   UNL     1       1.758   9.592  11.017  1.00  0.00     0.074 A 
ATOM     52  C   UNL     1      -3.195   7.099  14.069  1.00  0.00     0.029 A 
ATOM     53  N   UNL     1      -1.512   7.494  12.671  1.00  0.00    -0.354 N 
ATOM     54  N   UNL     1       0.716   9.023  11.572  1.00  0.00    -0.248 NA
ATOM     55  C   UNL     1       2.079  10.921  11.555  1.00  0.00     0.031 C 
ATOM     56  C   UNL     1      -2.651   8.352  14.373  1.00  0.00     0.029 A 
ATOM     57  C   UNL     1      -1.587   8.589  13.517  1.00  0.00     0.049 A 
ATOM     58  H   UNL     1      -0.848   7.379  11.953  1.00  0.00     0.167 HD
ATOM     59  C   UNL     1       0.306   9.886  12.581  1.00  0.00     0.074 A 
ATOM     60  C   UNL     1       1.202  11.024  12.544  1.00  0.00     0.031 C 
ATOM     61  C   UNL     1      -0.699   9.726  13.478  1.00  0.00     0.037 A 
BRANCH  48  62
ATOM     62  C   UNL     1      -3.928   4.505  12.671  1.00  0.00     0.058 A 
ATOM     63  C   UNL     1      -3.735   3.250  13.278  1.00  0.00     0.135 A 
ATOM     64  C   UNL     1      -5.246   4.933  12.457  1.00  0.00     0.135 A 
ATOM     65  F   UNL     1      -2.494   2.784  13.491  1.00  0.00    -0.206 F 
ATOM     66  C   UNL     1      -4.807   2.434  13.619  1.00  0.00     0.059 A 
ATOM     67  C   UNL     1      -6.335   4.145  12.819  1.00  0.00     0.059 A 
ATOM     68  F   UNL     1      -5.486   6.120  11.880  1.00  0.00    -0.206 F 
ATOM     69  C   UNL     1      -6.105   2.890  13.383  1.00  0.00     0.060 A 
BRANCH  69  70
ATOM     70  S   UNL     1      -7.485   1.814  13.820  1.00  0.00     0.124 S 
ATOM     71  O   UNL     1      -7.384   0.780  12.795  1.00  0.00    -0.237 OA
ATOM     72  O   UNL     1      -7.140   1.399  15.175  1.00  0.00    -0.237 OA
ATOM     73  O   UNL     1      -8.647   2.691  13.713  1.00  0.00    -0.744 OA
ENDBRANCH  69  70
ENDBRANCH  48  62
BRANCH  49  74
ATOM     74  C   UNL     1       3.811   9.860   9.438  1.00  0.00     0.058 A 
ATOM     75  C   UNL     1       4.931  10.169  10.224  1.00  0.00     0.135 A 
ATOM     76  C   UNL     1       3.779  10.364   8.128  1.00  0.00     0.135 A 
ATOM     77  F   UNL     1       5.008   9.718  11.485  1.00  0.00    -0.206 F 
ATOM     78  C   UNL     1       5.967  10.966   9.743  1.00  0.00     0.059 A 
ATOM     79  C   UNL     1       4.812  11.150   7.617  1.00  0.00     0.059 A 
ATOM     80  F   UNL     1       2.736  10.093   7.327  1.00  0.00    -0.206 F 
ATOM     81  C   UNL     1       5.899  11.453   8.437  1.00  0.00     0.060 A 
BRANCH  81  82
ATOM     82  S   UNL     1       7.267  12.460   7.818  1.00  0.00     0.124 S 
ATOM     83  O   UNL     1       7.119  13.679   8.605  1.00  0.00    -0.237 OA
ATOM     84  O   UNL     1       8.424  11.630   8.138  1.00  0.00    -0.237 OA
ATOM     85  O   UNL     1       6.973  12.590   6.394  1.00  0.00    -0.744 OA
ENDBRANCH  81  82
ENDBRANCH  49  74
BRANCH  61  86
ATOM     86  C   UNL     1      -0.858  10.788  14.531  1.00  0.00     0.058 A 
ATOM     87  C   UNL     1      -1.284  12.089  14.221  1.00  0.00     0.135 A 
ATOM     88  C   UNL     1      -0.587  10.493  15.878  1.00  0.00     0.135 A 
ATOM     89  F   UNL     1      -1.554  12.427  12.950  1.00  0.00    -0.206 F 
ATOM     90  C   UNL     1      -1.390  13.072  15.200  1.00  0.00     0.059 A 
ATOM     91  C   UNL     1      -0.721  11.450  16.878  1.00  0.00     0.059 A 
ATOM     92  F   UNL     1      -0.188   9.262  16.236  1.00  0.00    -0.206 F 
ATOM     93  C   UNL     1      -1.102  12.744  16.526  1.00  0.00     0.060 A 
BRANCH  93  94
ATOM     94  S   UNL     1      -1.242  14.028  17.785  1.00  0.00     0.124 S 
ATOM     95  O   UNL     1      -0.052  14.830  17.519  1.00  0.00    -0.237 OA
ATOM     96  O   UNL     1      -2.517  14.655  17.453  1.00  0.00    -0.237 OA
ATOM     97  O   UNL     1      -1.226  13.279  19.038  1.00  0.00    -0.744 OA
ENDBRANCH  93  94
ENDBRANCH  61  86
ENDBRANCH  35  36
ENDBRANCH  28  30
ENDBRANCH  27  28
ENDBRANCH  26  27
ENDBRANCH  25  26
ENDBRANCH  24  25
ENDBRANCH   1  24
TORSDOF 22
