REMARK SMILES Cc1nn(Cc2ccc(C(=O)OCCOCCOC(=O)c3ccc(-c4c5nc(c(-c6c(F)cc(S(=O)(=O)[O-])cc6F)c6ccc([nH]6)c(-c6c(F)cc(S(=O)(=O)[O-])cc6F)c6nc(c(-c7c(F)cc(S(=O)(=O)[O-])cc7F)c7ccc4[nH]7)C=C6)C=C5)cc3)o2)c(C)c1C
REMARK SMILES IDX 16 1 15 2 14 3 13 4 12 5 10 6 11 7 9 8 6 9 7 10 87 11 8 12
REMARK SMILES IDX 5 13 4 14 1 15 2 16 3 17 90 18 88 19 91 20 89 21 17 22 18 23
REMARK SMILES IDX 19 24 20 25 21 26 22 27 86 28 23 29 85 30 24 31 25 32 26 33
REMARK SMILES IDX 79 34 27 35 84 36 78 37 80 38 28 39 83 40 77 41 76 42 29 44
REMARK SMILES IDX 63 45 42 46 62 47 43 48 46 49 61 50 81 51 44 52 45 53 60 55
REMARK SMILES IDX 82 56 47 57 30 58 31 59 40 60 32 61 33 62 39 63 41 64 34 65
REMARK SMILES IDX 35 66 36 67 37 68 38 69 64 70 65 71 74 72 66 73 67 74 73 75
REMARK SMILES IDX 75 76 68 77 69 78 70 79 71 80 72 81 48 82 49 83 58 84 50 85
REMARK SMILES IDX 51 86 57 87 59 88 52 89 53 90 54 91 55 92 56 93
REMARK H PARENT 80 43 46 54
REMARK Flexibility Score: inf
ROOT
ATOM      1  C   UNL     1      -7.444   4.119   2.080  1.00  0.00     0.202 C 
ENDROOT
BRANCH   1   2
ATOM      2  O   UNL     1      -8.327   5.108   2.601  1.00  0.00    -0.374 OA
BRANCH   2   3
ATOM      3  C   UNL     1      -7.873   6.442   2.820  1.00  0.00     0.202 C 
BRANCH   3   4
ATOM      4  C   UNL     1      -6.837   6.713   3.917  1.00  0.00     0.261 C 
BRANCH   4   5
ATOM      5  O   UNL     1      -5.613   5.979   3.753  1.00  0.00    -0.457 OA
BRANCH   5   6
ATOM      6  C   UNL     1      -5.451   4.948   4.637  1.00  0.00     0.374 C 
ATOM      7  O   UNL     1      -6.203   4.707   5.572  1.00  0.00    -0.242 OA
BRANCH   6   8
ATOM      8  C   UNL     1      -4.397   4.059   4.201  1.00  0.00     0.211 A 
ATOM      9  C   UNL     1      -2.372   3.420   3.609  1.00  0.00     0.126 A 
ATOM     10  C   UNL     1      -3.138   2.275   3.690  1.00  0.00     0.048 A 
ATOM     11  O   UNL     1      -3.149   4.521   3.876  1.00  0.00    -0.452 OA
ATOM     12  C   UNL     1      -4.424   2.681   4.095  1.00  0.00     0.058 A 
BRANCH   9  13
ATOM     13  C   UNL     1      -0.910   3.643   3.437  1.00  0.00     0.219 C 
BRANCH  13  14
ATOM     14  N   UNL     1      -0.352   3.048   2.224  1.00  0.00    -0.262 N 
ATOM     15  C   UNL     1       0.580   0.109   0.457  1.00  0.00     0.069 C 
ATOM     16  C   UNL     1       0.358   1.489   0.960  1.00  0.00     0.063 A 
ATOM     17  N   UNL     1      -0.335   1.700   2.086  1.00  0.00    -0.177 NA
ATOM     18  C   UNL     1       0.837   2.700   0.396  1.00  0.00    -0.007 A 
ATOM     19  C   UNL     1       0.383   3.689   1.252  1.00  0.00     0.039 A 
ATOM     20  C   UNL     1       1.671   2.872  -0.823  1.00  0.00     0.048 C 
ATOM     21  C   UNL     1       0.611   5.156   1.227  1.00  0.00     0.066 C 
ENDBRANCH  13  14
ENDBRANCH   9  13
ENDBRANCH   6   8
ENDBRANCH   5   6
ENDBRANCH   4   5
ENDBRANCH   3   4
ENDBRANCH   2   3
ENDBRANCH   1   2
BRANCH   1  22
ATOM     22  C   UNL     1      -6.931   4.240   0.652  1.00  0.00     0.261 C 
BRANCH  22  23
ATOM     23  O   UNL     1      -6.295   5.482   0.427  1.00  0.00    -0.460 OA
BRANCH  23  24
ATOM     24  C   UNL     1      -7.073   6.390  -0.209  1.00  0.00     0.338 C 
ATOM     25  O   UNL     1      -8.268   6.323  -0.414  1.00  0.00    -0.246 OA
BRANCH  24  26
ATOM     26  C   UNL     1      -6.197   7.444  -0.734  1.00  0.00     0.060 A 
ATOM     27  C   UNL     1      -6.809   8.350  -1.602  1.00  0.00     0.016 A 
ATOM     28  C   UNL     1      -4.809   7.246  -0.703  1.00  0.00     0.016 A 
ATOM     29  C   UNL     1      -6.071   8.797  -2.669  1.00  0.00     0.010 A 
ATOM     30  C   UNL     1      -4.083   7.674  -1.779  1.00  0.00     0.010 A 
ATOM     31  C   UNL     1      -4.759   8.335  -2.800  1.00  0.00    -0.014 A 
BRANCH  31  32
ATOM     32  C   UNL     1      -4.051   8.615  -4.024  1.00  0.00     0.031 A 
ATOM     33  C   UNL     1      -3.532   9.996  -4.038  1.00  0.00     0.074 A 
ATOM     34  C   UNL     1      -3.821   7.659  -4.944  1.00  0.00     0.049 A 
ATOM     35  N   UNL     1      -3.989  11.002  -4.705  1.00  0.00    -0.248 NA
ATOM     36  C   UNL     1      -2.569  10.363  -2.983  1.00  0.00     0.031 C 
ATOM     37  C   UNL     1      -4.081   6.218  -4.861  1.00  0.00     0.029 A 
ATOM     38  N   UNL     1      -3.197   7.784  -6.144  1.00  0.00    -0.354 N 
ATOM     39  C   UNL     1      -3.183  12.070  -4.335  1.00  0.00     0.074 A 
ATOM     40  C   UNL     1      -2.551  11.690  -3.103  1.00  0.00     0.031 C 
ATOM     41  C   UNL     1      -3.410   5.583  -5.852  1.00  0.00     0.029 A 
ATOM     42  C   UNL     1      -2.789   6.575  -6.710  1.00  0.00     0.049 A 
ATOM     43  H   UNL     1      -3.045   8.654  -6.579  1.00  0.00     0.167 HD
ATOM     44  C   UNL     1      -2.854  13.043  -5.225  1.00  0.00     0.037 A 
ATOM     45  C   UNL     1      -1.918   6.463  -7.750  1.00  0.00     0.037 A 
ATOM     46  C   UNL     1      -3.742  13.023  -6.361  1.00  0.00     0.049 A 
ATOM     47  C   UNL     1      -1.910   7.790  -8.436  1.00  0.00     0.074 A 
ATOM     48  C   UNL     1      -5.104  13.193  -6.519  1.00  0.00     0.029 A 
ATOM     49  N   UNL     1      -3.307  12.376  -7.495  1.00  0.00    -0.354 N 
ATOM     50  N   UNL     1      -2.953   8.287  -9.050  1.00  0.00    -0.248 NA
ATOM     51  C   UNL     1      -0.934   8.771  -7.979  1.00  0.00     0.031 C 
ATOM     52  C   UNL     1      -5.486  12.233  -7.500  1.00  0.00     0.029 A 
ATOM     53  C   UNL     1      -4.334  11.586  -7.950  1.00  0.00     0.049 A 
ATOM     54  H   UNL     1      -2.418  12.465  -7.907  1.00  0.00     0.167 HD
ATOM     55  C   UNL     1      -2.976   9.631  -8.696  1.00  0.00     0.074 A 
ATOM     56  C   UNL     1      -1.679   9.878  -8.067  1.00  0.00     0.031 C 
ATOM     57  C   UNL     1      -4.142  10.344  -8.671  1.00  0.00     0.037 A 
BRANCH  44  58
ATOM     58  C   UNL     1      -1.514  13.739  -5.241  1.00  0.00     0.058 A 
ATOM     59  C   UNL     1      -1.331  14.848  -6.088  1.00  0.00     0.135 A 
ATOM     60  C   UNL     1      -0.334  13.219  -4.658  1.00  0.00     0.135 A 
ATOM     61  F   UNL     1      -2.378  15.418  -6.704  1.00  0.00    -0.206 F 
ATOM     62  C   UNL     1      -0.067  15.360  -6.381  1.00  0.00     0.059 A 
ATOM     63  C   UNL     1       0.926  13.751  -4.888  1.00  0.00     0.059 A 
ATOM     64  F   UNL     1      -0.319  12.109  -3.912  1.00  0.00    -0.206 F 
ATOM     65  C   UNL     1       1.056  14.796  -5.783  1.00  0.00     0.060 A 
BRANCH  65  66
ATOM     66  S   UNL     1       2.695  15.389  -6.227  1.00  0.00     0.124 S 
ATOM     67  O   UNL     1       2.795  14.954  -7.615  1.00  0.00    -0.237 OA
ATOM     68  O   UNL     1       2.561  16.826  -6.012  1.00  0.00    -0.237 OA
ATOM     69  O   UNL     1       3.570  14.698  -5.284  1.00  0.00    -0.744 OA
ENDBRANCH  65  66
ENDBRANCH  44  58
BRANCH  45  70
ATOM     70  C   UNL     1      -0.810   5.476  -7.900  1.00  0.00     0.058 A 
ATOM     71  C   UNL     1      -0.117   5.319  -9.115  1.00  0.00     0.135 A 
ATOM     72  C   UNL     1      -0.219   4.867  -6.773  1.00  0.00     0.135 A 
ATOM     73  F   UNL     1      -0.588   5.886 -10.236  1.00  0.00    -0.206 F 
ATOM     74  C   UNL     1       1.106   4.634  -9.200  1.00  0.00     0.059 A 
ATOM     75  C   UNL     1       0.991   4.177  -6.834  1.00  0.00     0.059 A 
ATOM     76  F   UNL     1      -0.755   5.005  -5.552  1.00  0.00    -0.206 F 
ATOM     77  C   UNL     1       1.662   4.083  -8.046  1.00  0.00     0.060 A 
BRANCH  77  78
ATOM     78  S   UNL     1       3.315   3.345  -8.104  1.00  0.00     0.124 S 
ATOM     79  O   UNL     1       3.083   2.141  -8.893  1.00  0.00    -0.237 OA
ATOM     80  O   UNL     1       4.099   4.392  -8.752  1.00  0.00    -0.237 OA
ATOM     81  O   UNL     1       3.633   3.115  -6.697  1.00  0.00    -0.744 OA
ENDBRANCH  77  78
ENDBRANCH  45  70
BRANCH  57  82
ATOM     82  C   UNL     1      -5.380   9.713  -9.265  1.00  0.00     0.058 A 
ATOM     83  C   UNL     1      -6.021   8.569  -8.751  1.00  0.00     0.135 A 
ATOM     84  C   UNL     1      -6.038  10.401 -10.293  1.00  0.00     0.135 A 
ATOM     85  F   UNL     1      -5.512   7.911  -7.700  1.00  0.00    -0.206 F 
ATOM     86  C   UNL     1      -7.240   8.114  -9.261  1.00  0.00     0.059 A 
ATOM     87  C   UNL     1      -7.267   9.985 -10.797  1.00  0.00     0.059 A 
ATOM     88  F   UNL     1      -5.512  11.535 -10.785  1.00  0.00    -0.206 F 
ATOM     89  C   UNL     1      -7.857   8.831 -10.286  1.00  0.00     0.060 A 
BRANCH  89  90
ATOM     90  S   UNL     1      -9.464   8.287 -10.908  1.00  0.00     0.124 S 
ATOM     91  O   UNL     1      -9.118   7.060 -11.618  1.00  0.00    -0.237 OA
ATOM     92  O   UNL     1     -10.238   8.114  -9.682  1.00  0.00    -0.237 OA
ATOM     93  O   UNL     1      -9.896   9.396 -11.755  1.00  0.00    -0.744 OA
ENDBRANCH  89  90
ENDBRANCH  57  82
ENDBRANCH  31  32
ENDBRANCH  24  26
ENDBRANCH  23  24
ENDBRANCH  22  23
ENDBRANCH   1  22
TORSDOF 19
