REMARK SMILES C[C@@]1(C(=O)OCCOCCOC(=O)c2ccc(-c3c4nc(c(-c5c(F)cc(S(=O)(=O)[O-])cc5F)c5ccc([nH]5)c(-c5c(F)cc(S(=O)(=O)[O-])cc5F)c5nc(c(-c6c(F)cc(S(=O)(=O)[O-])cc6F)c6ccc3[nH]6)C=C5)C=C4)cc2)CCCCCC[C@@H]1O
REMARK SMILES IDX 7 1 6 2 5 3 3 4 4 5 2 6 1 7 80 8 81 9 82 10 86 12 85 13
REMARK SMILES IDX 84 14 83 15 87 17 8 19 9 20 10 21 11 22 12 23 13 24 14 25
REMARK SMILES IDX 15 26 79 27 16 28 78 29 17 30 18 31 19 32 72 33 20 34 77 35
REMARK SMILES IDX 71 36 73 37 21 38 76 39 70 40 69 41 22 43 56 44 35 45 55 46
REMARK SMILES IDX 36 47 39 48 54 49 74 50 37 51 38 52 53 54 75 55 40 56 23 57
REMARK SMILES IDX 24 58 33 59 25 60 26 61 32 62 34 63 27 64 28 65 29 66 30 67
REMARK SMILES IDX 31 68 57 69 58 70 67 71 59 72 60 73 66 74 68 75 61 76 62 77
REMARK SMILES IDX 63 78 64 79 65 80 41 81 42 82 51 83 43 84 44 85 50 86 52 87
REMARK SMILES IDX 45 88 46 89 47 90 48 91 49 92
REMARK H PARENT 87 18 73 42 39 53
REMARK Flexibility Score: 80.00
ROOT
ATOM      1  C   UNL     1       2.905   4.635   2.072  1.00  0.00     0.202 C 
ENDROOT
BRANCH   1   2
ATOM      2  C   UNL     1       2.706   4.254   0.607  1.00  0.00     0.261 C 
BRANCH   2   3
ATOM      3  O   UNL     1       1.561   3.385   0.483  1.00  0.00    -0.463 OA
BRANCH   3   4
ATOM      4  C   UNL     1       1.708   2.265  -0.251  1.00  0.00     0.314 C 
ATOM      5  O   UNL     1       2.752   2.001  -0.844  1.00  0.00    -0.252 OA
BRANCH   4   6
ATOM      6  C   UNL     1       0.414   1.428  -0.404  1.00  0.00     0.091 C 
ATOM      7  C   UNL     1       0.952  -0.052  -0.587  1.00  0.00     0.026 C 
BRANCH   6   8
ATOM      8  C   UNL     1      -0.236   1.856  -1.748  1.00  0.00     0.021 C 
BRANCH   8   9
ATOM      9  C   UNL     1      -1.158   3.081  -1.843  1.00  0.00     0.001 C 
BRANCH   9  10
ATOM     10  C   UNL     1      -0.693   4.393  -1.222  1.00  0.00     0.000 CG0
ATOM     11  G   UNL     1      -1.292   4.769   0.138  1.00  0.00     0.000 G0
ENDBRANCH   9  10
ENDBRANCH   8   9
ENDBRANCH   6   8
BRANCH   6  12
ATOM     12  C   UNL     1      -0.612   1.327   0.767  1.00  0.00     0.131 C 
BRANCH  12  13
ATOM     13  C   UNL     1      -1.651   2.403   1.116  1.00  0.00     0.033 C 
BRANCH  13  14
ATOM     14  C   UNL     1      -1.171   3.825   1.333  1.00  0.00     0.003 C 
BRANCH  14  15
ATOM     15  C   UNL     1      -1.292   4.769   0.138  1.00  0.00     0.000 CG0
ATOM     16  G   UNL     1      -0.693   4.393  -1.222  1.00  0.00     0.000 G0
ENDBRANCH  14  15
ENDBRANCH  13  14
ENDBRANCH  12  13
BRANCH  12  17
ATOM     17  O   UNL     1       0.045   0.923   1.978  1.00  0.00    -0.392 OA
ATOM     18  H   UNL     1       0.597   1.651   2.304  1.00  0.00     0.210 HD
ENDBRANCH  12  17
ENDBRANCH   6  12
ENDBRANCH   4   6
ENDBRANCH   3   4
ENDBRANCH   2   3
ENDBRANCH   1   2
BRANCH   1  19
ATOM     19  O   UNL     1       3.398   3.587   2.910  1.00  0.00    -0.374 OA
BRANCH  19  20
ATOM     20  C   UNL     1       2.467   2.561   3.252  1.00  0.00     0.202 C 
BRANCH  20  21
ATOM     21  C   UNL     1       1.553   2.852   4.450  1.00  0.00     0.261 C 
BRANCH  21  22
ATOM     22  O   UNL     1       0.640   3.942   4.223  1.00  0.00    -0.460 OA
BRANCH  22  23
ATOM     23  C   UNL     1       1.035   5.133   4.731  1.00  0.00     0.338 C 
ATOM     24  O   UNL     1       2.044   5.348   5.391  1.00  0.00    -0.246 OA
BRANCH  23  25
ATOM     25  C   UNL     1       0.159   6.220   4.246  1.00  0.00     0.060 A 
ATOM     26  C   UNL     1       0.775   7.382   3.763  1.00  0.00     0.016 A 
ATOM     27  C   UNL     1      -1.233   6.149   4.333  1.00  0.00     0.016 A 
ATOM     28  C   UNL     1       0.007   8.499   3.434  1.00  0.00     0.010 A 
ATOM     29  C   UNL     1      -2.003   7.269   3.993  1.00  0.00     0.010 A 
ATOM     30  C   UNL     1      -1.385   8.468   3.590  1.00  0.00    -0.014 A 
BRANCH  30  31
ATOM     31  C   UNL     1      -2.163   9.733   3.497  1.00  0.00     0.031 A 
ATOM     32  C   UNL     1      -2.658  10.382   4.766  1.00  0.00     0.074 A 
ATOM     33  C   UNL     1      -2.388  10.329   2.311  1.00  0.00     0.049 A 
ATOM     34  N   UNL     1      -3.361  11.475   4.921  1.00  0.00    -0.248 NA
ATOM     35  C   UNL     1      -2.318   9.706   6.028  1.00  0.00     0.031 C 
ATOM     36  C   UNL     1      -1.935   9.830   1.014  1.00  0.00     0.029 A 
ATOM     37  N   UNL     1      -3.059  11.490   2.008  1.00  0.00    -0.354 N 
ATOM     38  C   UNL     1      -3.555  11.612   6.292  1.00  0.00     0.074 A 
ATOM     39  C   UNL     1      -2.930  10.470   6.921  1.00  0.00     0.031 C 
ATOM     40  C   UNL     1      -2.342  10.678   0.054  1.00  0.00     0.029 A 
ATOM     41  C   UNL     1      -3.113  11.762   0.661  1.00  0.00     0.049 A 
ATOM     42  H   UNL     1      -3.462  12.072   2.691  1.00  0.00     0.167 HD
ATOM     43  C   UNL     1      -4.182  12.605   6.968  1.00  0.00     0.037 A 
ATOM     44  C   UNL     1      -3.730  12.758  -0.008  1.00  0.00     0.037 A 
ATOM     45  C   UNL     1      -4.795  13.749   6.342  1.00  0.00     0.049 A 
ATOM     46  C   UNL     1      -4.478  13.819   0.761  1.00  0.00     0.074 A 
ATOM     47  C   UNL     1      -5.432  14.819   6.945  1.00  0.00     0.029 A 
ATOM     48  N   UNL     1      -4.855  13.969   4.974  1.00  0.00    -0.354 N 
ATOM     49  N   UNL     1      -4.629  13.948   2.058  1.00  0.00    -0.248 NA
ATOM     50  C   UNL     1      -5.136  14.873  -0.025  1.00  0.00     0.031 C 
ATOM     51  C   UNL     1      -5.930  15.655   5.942  1.00  0.00     0.029 A 
ATOM     52  C   UNL     1      -5.545  15.143   4.713  1.00  0.00     0.049 A 
ATOM     53  H   UNL     1      -4.466  13.380   4.289  1.00  0.00     0.167 HD
ATOM     54  C   UNL     1      -5.369  15.114   2.242  1.00  0.00     0.074 A 
ATOM     55  C   UNL     1      -5.627  15.656   0.925  1.00  0.00     0.031 C 
ATOM     56  C   UNL     1      -5.791  15.684   3.399  1.00  0.00     0.037 A 
BRANCH  43  57
ATOM     57  C   UNL     1      -4.261  12.490   8.467  1.00  0.00     0.058 A 
ATOM     58  C   UNL     1      -3.128  12.637   9.284  1.00  0.00     0.135 A 
ATOM     59  C   UNL     1      -5.497  12.271   9.097  1.00  0.00     0.135 A 
ATOM     60  F   UNL     1      -1.919  12.833   8.736  1.00  0.00    -0.206 F 
ATOM     61  C   UNL     1      -3.214  12.542  10.670  1.00  0.00     0.059 A 
ATOM     62  C   UNL     1      -5.611  12.204  10.483  1.00  0.00     0.059 A 
ATOM     63  F   UNL     1      -6.612  12.123   8.365  1.00  0.00    -0.206 F 
ATOM     64  C   UNL     1      -4.461  12.327  11.260  1.00  0.00     0.060 A 
BRANCH  64  65
ATOM     65  S   UNL     1      -4.555  12.212  13.059  1.00  0.00     0.124 S 
ATOM     66  O   UNL     1      -3.914  10.923  13.303  1.00  0.00    -0.237 OA
ATOM     67  O   UNL     1      -3.801  13.386  13.486  1.00  0.00    -0.237 OA
ATOM     68  O   UNL     1      -5.989  12.258  13.329  1.00  0.00    -0.744 OA
ENDBRANCH  64  65
ENDBRANCH  43  57
BRANCH  44  69
ATOM     69  C   UNL     1      -3.676  12.799  -1.495  1.00  0.00     0.058 A 
ATOM     70  C   UNL     1      -2.977  13.810  -2.172  1.00  0.00     0.135 A 
ATOM     71  C   UNL     1      -4.330  11.828  -2.270  1.00  0.00     0.135 A 
ATOM     72  F   UNL     1      -2.348  14.770  -1.478  1.00  0.00    -0.206 F 
ATOM     73  C   UNL     1      -2.940  13.866  -3.562  1.00  0.00     0.059 A 
ATOM     74  C   UNL     1      -4.283  11.846  -3.660  1.00  0.00     0.059 A 
ATOM     75  F   UNL     1      -5.008  10.835  -1.673  1.00  0.00    -0.206 F 
ATOM     76  C   UNL     1      -3.593  12.875  -4.298  1.00  0.00     0.060 A 
BRANCH  76  77
ATOM     77  S   UNL     1      -3.495  12.928  -6.101  1.00  0.00     0.124 S 
ATOM     78  O   UNL     1      -4.344  14.072  -6.408  1.00  0.00    -0.237 OA
ATOM     79  O   UNL     1      -2.065  13.115  -6.322  1.00  0.00    -0.237 OA
ATOM     80  O   UNL     1      -4.019  11.626  -6.503  1.00  0.00    -0.744 OA
ENDBRANCH  76  77
ENDBRANCH  44  69
BRANCH  56  81
ATOM     81  C   UNL     1      -6.540  16.988   3.308  1.00  0.00     0.058 A 
ATOM     82  C   UNL     1      -7.849  17.062   2.809  1.00  0.00     0.135 A 
ATOM     83  C   UNL     1      -5.956  18.175   3.786  1.00  0.00     0.135 A 
ATOM     84  F   UNL     1      -8.455  15.961   2.335  1.00  0.00    -0.206 F 
ATOM     85  C   UNL     1      -8.545  18.267   2.764  1.00  0.00     0.059 A 
ATOM     86  C   UNL     1      -6.644  19.384   3.780  1.00  0.00     0.059 A 
ATOM     87  F   UNL     1      -4.710  18.162   4.285  1.00  0.00    -0.206 F 
ATOM     88  C   UNL     1      -7.935  19.423   3.256  1.00  0.00     0.060 A 
BRANCH  88  89
ATOM     89  S   UNL     1      -8.862  20.972   3.224  1.00  0.00     0.124 S 
ATOM     90  O   UNL     1      -8.867  21.284   1.798  1.00  0.00    -0.237 OA
ATOM     91  O   UNL     1     -10.148  20.577   3.790  1.00  0.00    -0.237 OA
ATOM     92  O   UNL     1      -8.064  21.865   4.059  1.00  0.00    -0.744 OA
ENDBRANCH  88  89
ENDBRANCH  56  81
ENDBRANCH  30  31
ENDBRANCH  23  25
ENDBRANCH  22  23
ENDBRANCH  21  22
ENDBRANCH  20  21
ENDBRANCH  19  20
ENDBRANCH   1  19
TORSDOF 18
