REMARK SMILES Cc1cc([C@@H](C)NC(=O)N[C@H]2C=C[C@@H](C(=O)OCCOCCOC(=O)c3ccc(-c4c5nc(c(-c6c(F)cc(S(=O)(=O)[O-])cc6F)c6ccc([nH]6)c(-c6c(F)cc(S(=O)(=O)[O-])cc6F)c6nc(c(-c7c(F)cc(S(=O)(=O)[O-])cc7F)c7ccc4[nH]7)C=C6)C=C5)cc3)C2)c(C)s1
REMARK SMILES IDX 20 1 19 2 18 3 17 4 15 5 16 6 14 7 11 8 12 9 92 10 13 11
REMARK SMILES IDX 10 12 7 13 8 14 9 16 5 18 6 19 4 20 1 21 2 22 3 23 95 24
REMARK SMILES IDX 93 25 94 26 21 27 22 28 23 29 24 30 25 31 26 32 27 33 91 34
REMARK SMILES IDX 28 35 90 36 29 37 30 38 31 39 84 40 32 41 89 42 83 43 85 44
REMARK SMILES IDX 33 45 88 46 82 47 81 48 34 50 68 51 47 52 67 53 48 54 51 55
REMARK SMILES IDX 66 56 86 57 49 58 50 59 65 61 87 62 52 63 35 64 36 65 45 66
REMARK SMILES IDX 37 67 38 68 44 69 46 70 39 71 40 72 41 73 42 74 43 75 69 76
REMARK SMILES IDX 70 77 79 78 71 79 72 80 78 81 80 82 73 83 74 84 75 85 76 86
REMARK SMILES IDX 77 87 53 88 54 89 63 90 55 91 56 92 62 93 64 94 57 95 58 96
REMARK SMILES IDX 59 97 60 98 61 99
REMARK H PARENT 7 15 10 17 85 49 51 60
REMARK Flexibility Score: inf
ROOT
ATOM      1  O   UNL     1      -4.484  -1.502   2.106  1.00  0.00    -0.374 OA
ENDROOT
BRANCH   1   2
ATOM      2  C   UNL     1      -4.578  -2.325   3.273  1.00  0.00     0.202 C 
BRANCH   2   3
ATOM      3  C   UNL     1      -4.693  -3.834   3.022  1.00  0.00     0.261 C 
BRANCH   3   4
ATOM      4  O   UNL     1      -3.484  -4.351   2.434  1.00  0.00    -0.463 OA
BRANCH   4   5
ATOM      5  C   UNL     1      -3.601  -4.902   1.199  1.00  0.00     0.312 C 
ATOM      6  O   UNL     1      -4.663  -5.148   0.636  1.00  0.00    -0.252 OA
BRANCH   5   7
ATOM      7  C   UNL     1      -2.256  -5.179   0.537  1.00  0.00     0.124 C 
ATOM      8  C   UNL     1       0.162  -5.139   0.642  1.00  0.00     0.107 C 
ATOM      9  C   UNL     1      -0.370  -6.520   0.890  1.00  0.00    -0.006 C 
ATOM     10  C   UNL     1      -1.076  -4.295   0.945  1.00  0.00     0.048 C 
ATOM     11  C   UNL     1      -1.709  -6.546   0.818  1.00  0.00    -0.014 C 
BRANCH   8  12
ATOM     12  N   UNL     1       1.265  -4.843   1.511  1.00  0.00    -0.332 N 
ATOM     13  N   UNL     1       2.018  -2.698   0.835  1.00  0.00    -0.332 N 
ATOM     14  C   UNL     1       2.028  -3.753   1.657  1.00  0.00     0.315 C 
ATOM     15  H   UNL     1       2.401  -1.894   1.255  1.00  0.00     0.165 HD
ATOM     16  O   UNL     1       2.778  -3.702   2.634  1.00  0.00    -0.249 OA
ATOM     17  H   UNL     1       1.506  -5.582   2.115  1.00  0.00     0.165 HD
BRANCH  13  18
ATOM     18  C   UNL     1       1.579  -2.450  -0.530  1.00  0.00     0.112 C 
ATOM     19  C   UNL     1       2.713  -2.662  -1.530  1.00  0.00     0.036 C 
BRANCH  18  20
ATOM     20  C   UNL     1       0.964  -1.064  -0.619  1.00  0.00    -0.012 A 
ATOM     21  C   UNL     1      -2.176   1.006  -1.238  1.00  0.00     0.056 C 
ATOM     22  C   UNL     1      -0.815   0.446  -0.994  1.00  0.00     0.002 A 
ATOM     23  C   UNL     1      -0.395  -0.864  -1.069  1.00  0.00     0.021 A 
ATOM     24  S   UNL     1       0.449   1.470  -0.500  1.00  0.00    -0.146 S 
ATOM     25  C   UNL     1       1.550   0.163  -0.320  1.00  0.00     0.007 A 
ATOM     26  C   UNL     1       2.935   0.504   0.127  1.00  0.00     0.057 C 
ENDBRANCH  18  20
ENDBRANCH  13  18
ENDBRANCH   8  12
ENDBRANCH   5   7
ENDBRANCH   4   5
ENDBRANCH   3   4
ENDBRANCH   2   3
ENDBRANCH   1   2
BRANCH   1  27
ATOM     27  C   UNL     1      -3.214  -1.454   1.463  1.00  0.00     0.202 C 
BRANCH  27  28
ATOM     28  C   UNL     1      -2.160  -0.523   2.065  1.00  0.00     0.261 C 
BRANCH  28  29
ATOM     29  O   UNL     1      -1.805  -0.885   3.397  1.00  0.00    -0.460 OA
BRANCH  29  30
ATOM     30  C   UNL     1      -2.291  -0.056   4.344  1.00  0.00     0.338 C 
ATOM     31  O   UNL     1      -2.958   0.956   4.183  1.00  0.00    -0.246 OA
BRANCH  30  32
ATOM     32  C   UNL     1      -2.047  -0.669   5.652  1.00  0.00     0.060 A 
ATOM     33  C   UNL     1      -3.138  -0.776   6.519  1.00  0.00     0.016 A 
ATOM     34  C   UNL     1      -0.774  -1.112   6.023  1.00  0.00     0.016 A 
ATOM     35  C   UNL     1      -2.945  -1.276   7.797  1.00  0.00     0.010 A 
ATOM     36  C   UNL     1      -0.583  -1.616   7.307  1.00  0.00     0.010 A 
ATOM     37  C   UNL     1      -1.660  -1.658   8.207  1.00  0.00    -0.014 A 
BRANCH  37  38
ATOM     38  C   UNL     1      -1.432  -1.960   9.633  1.00  0.00     0.031 A 
ATOM     39  C   UNL     1      -0.822  -0.899  10.503  1.00  0.00     0.074 A 
ATOM     40  C   UNL     1      -1.824  -3.143  10.136  1.00  0.00     0.049 A 
ATOM     41  N   UNL     1      -0.567  -0.926  11.783  1.00  0.00    -0.248 NA
ATOM     42  C   UNL     1      -0.447   0.362   9.841  1.00  0.00     0.031 C 
ATOM     43  C   UNL     1      -2.445  -4.221   9.365  1.00  0.00     0.029 A 
ATOM     44  N   UNL     1      -1.765  -3.631  11.412  1.00  0.00    -0.354 N 
ATOM     45  C   UNL     1      -0.002   0.308  12.081  1.00  0.00     0.074 A 
ATOM     46  C   UNL     1       0.086   1.047  10.841  1.00  0.00     0.031 C 
ATOM     47  C   UNL     1      -2.713  -5.247  10.189  1.00  0.00     0.029 A 
ATOM     48  C   UNL     1      -2.260  -4.907  11.535  1.00  0.00     0.049 A 
ATOM     49  H   UNL     1      -1.403  -3.118  12.171  1.00  0.00     0.167 HD
ATOM     50  C   UNL     1       0.394   0.782  13.285  1.00  0.00     0.037 A 
ATOM     51  C   UNL     1      -2.324  -5.707  12.615  1.00  0.00     0.037 A 
ATOM     52  C   UNL     1       0.296   0.024  14.505  1.00  0.00     0.049 A 
ATOM     53  C   UNL     1      -1.839  -5.172  13.936  1.00  0.00     0.074 A 
ATOM     54  C   UNL     1       0.651   0.403  15.786  1.00  0.00     0.029 A 
ATOM     55  N   UNL     1      -0.187  -1.275  14.590  1.00  0.00    -0.354 N 
ATOM     56  N   UNL     1      -1.334  -3.992  14.213  1.00  0.00    -0.248 NA
ATOM     57  C   UNL     1      -1.941  -6.069  15.093  1.00  0.00     0.031 C 
ATOM     58  C   UNL     1       0.429  -0.685  16.638  1.00  0.00     0.029 A 
ATOM     59  C   UNL     1      -0.119  -1.722  15.898  1.00  0.00     0.049 A 
ATOM     60  H   UNL     1      -0.528  -1.802  13.831  1.00  0.00     0.167 HD
ATOM     61  C   UNL     1      -1.082  -3.995  15.580  1.00  0.00     0.074 A 
ATOM     62  C   UNL     1      -1.506  -5.291  16.074  1.00  0.00     0.031 C 
ATOM     63  C   UNL     1      -0.551  -3.019  16.359  1.00  0.00     0.037 A 
BRANCH  50  64
ATOM     64  C   UNL     1       0.986   2.164  13.332  1.00  0.00     0.058 A 
ATOM     65  C   UNL     1       0.206   3.314  13.122  1.00  0.00     0.135 A 
ATOM     66  C   UNL     1       2.350   2.345  13.612  1.00  0.00     0.135 A 
ATOM     67  F   UNL     1      -1.100   3.201  12.828  1.00  0.00    -0.206 F 
ATOM     68  C   UNL     1       0.761   4.589  13.164  1.00  0.00     0.059 A 
ATOM     69  C   UNL     1       2.921   3.612  13.688  1.00  0.00     0.059 A 
ATOM     70  F   UNL     1       3.144   1.282  13.814  1.00  0.00    -0.206 F 
ATOM     71  C   UNL     1       2.120   4.728  13.450  1.00  0.00     0.060 A 
BRANCH  71  72
ATOM     72  S   UNL     1       2.823   6.390  13.513  1.00  0.00     0.124 S 
ATOM     73  O   UNL     1       2.822   6.762  12.101  1.00  0.00    -0.237 OA
ATOM     74  O   UNL     1       1.867   7.101  14.355  1.00  0.00    -0.237 OA
ATOM     75  O   UNL     1       4.141   6.181  14.105  1.00  0.00    -0.744 OA
ENDBRANCH  71  72
ENDBRANCH  50  64
BRANCH  51  76
ATOM     76  C   UNL     1      -2.871  -7.083  12.488  1.00  0.00     0.058 A 
ATOM     77  C   UNL     1      -4.095  -7.439  13.073  1.00  0.00     0.135 A 
ATOM     78  C   UNL     1      -2.187  -8.069  11.757  1.00  0.00     0.135 A 
ATOM     79  F   UNL     1      -4.785  -6.535  13.784  1.00  0.00    -0.206 F 
ATOM     80  C   UNL     1      -4.614  -8.724  12.953  1.00  0.00     0.059 A 
ATOM     81  C   UNL     1      -2.699  -9.352  11.600  1.00  0.00     0.059 A 
ATOM     82  F   UNL     1      -1.020  -7.777  11.163  1.00  0.00    -0.206 F 
ATOM     83  C   UNL     1      -3.910  -9.674  12.211  1.00  0.00     0.060 A 
BRANCH  83  84
ATOM     84  S   UNL     1      -4.617 -11.324  12.021  1.00  0.00     0.124 S 
ATOM     85  O   UNL     1      -4.426 -11.882  13.355  1.00  0.00    -0.237 OA
ATOM     86  O   UNL     1      -5.995 -11.025  11.644  1.00  0.00    -0.237 OA
ATOM     87  O   UNL     1      -3.802 -11.919  10.965  1.00  0.00    -0.744 OA
ENDBRANCH  83  84
ENDBRANCH  51  76
BRANCH  63  88
ATOM     88  C   UNL     1      -0.433  -3.307  17.830  1.00  0.00     0.058 A 
ATOM     89  C   UNL     1       0.511  -4.214  18.333  1.00  0.00     0.135 A 
ATOM     90  C   UNL     1      -1.254  -2.634  18.751  1.00  0.00     0.135 A 
ATOM     91  F   UNL     1       1.316  -4.886  17.495  1.00  0.00    -0.206 F 
ATOM     92  C   UNL     1       0.615  -4.471  19.696  1.00  0.00     0.059 A 
ATOM     93  C   UNL     1      -1.145  -2.851  20.119  1.00  0.00     0.059 A 
ATOM     94  F   UNL     1      -2.164  -1.745  18.323  1.00  0.00    -0.206 F 
ATOM     95  C   UNL     1      -0.218  -3.785  20.581  1.00  0.00     0.060 A 
BRANCH  95  96
ATOM     96  S   UNL     1      -0.063  -4.117  22.348  1.00  0.00     0.124 S 
ATOM     97  O   UNL     1      -0.685  -5.432  22.455  1.00  0.00    -0.237 OA
ATOM     98  O   UNL     1       1.382  -4.080  22.547  1.00  0.00    -0.237 OA
ATOM     99  O   UNL     1      -0.803  -3.020  22.966  1.00  0.00    -0.744 OA
ENDBRANCH  95  96
ENDBRANCH  63  88
ENDBRANCH  37  38
ENDBRANCH  30  32
ENDBRANCH  29  30
ENDBRANCH  28  29
ENDBRANCH  27  28
ENDBRANCH   1  27
TORSDOF 20
