REMARK SMILES Cc1c(C(=O)OCCOCCOC(=O)c2ccc(-c3c4nc(c(-c5c(F)cc(S(=O)(=O)[O-])cc5F)c5ccc([nH]5)c(-c5c(F)cc(S(=O)(=O)[O-])cc5F)c5nc(c(-c6c(F)cc(S(=O)(=O)[O-])cc6F)c6ccc3[nH]6)C=C5)C=C4)cc2)cnc2nc(CO)nn12
REMARK SMILES IDX 10 1 9 2 8 3 7 4 6 5 4 6 5 7 3 8 1 9 2 10 89 11 81 12 83 13
REMARK SMILES IDX 88 14 82 15 84 16 85 17 86 18 87 19 11 21 12 22 13 23 14 24
REMARK SMILES IDX 15 25 16 26 80 27 17 28 79 29 18 30 19 31 20 32 73 33 21 34
REMARK SMILES IDX 78 35 72 36 74 37 22 38 77 39 71 40 70 41 23 43 57 44 36 45
REMARK SMILES IDX 56 46 37 47 40 48 55 49 75 50 38 51 39 52 54 54 76 55 41 56
REMARK SMILES IDX 24 57 25 58 34 59 26 60 27 61 33 62 35 63 28 64 29 65 30 66
REMARK SMILES IDX 31 67 32 68 58 69 59 70 68 71 60 72 61 73 67 74 69 75 62 76
REMARK SMILES IDX 63 77 64 78 65 79 66 80 42 81 43 82 52 83 44 84 45 85 51 86
REMARK SMILES IDX 53 87 46 88 47 89 48 90 49 91 50 92
REMARK H PARENT 87 20 74 42 40 53
REMARK Flexibility Score: inf
ROOT
ATOM      1  C   UNL     1       1.760  -0.775  -2.962  1.00  0.00     0.202 C 
ENDROOT
BRANCH   1   2
ATOM      2  O   UNL     1       3.104  -0.877  -3.417  1.00  0.00    -0.374 OA
BRANCH   2   3
ATOM      3  C   UNL     1       3.822  -2.108  -3.350  1.00  0.00     0.202 C 
BRANCH   3   4
ATOM      4  C   UNL     1       4.103  -2.746  -1.988  1.00  0.00     0.261 C 
BRANCH   4   5
ATOM      5  O   UNL     1       2.916  -2.978  -1.215  1.00  0.00    -0.460 OA
BRANCH   5   6
ATOM      6  C   UNL     1       2.811  -2.202  -0.109  1.00  0.00     0.341 C 
ATOM      7  O   UNL     1       3.652  -1.430   0.324  1.00  0.00    -0.246 OA
BRANCH   6   8
ATOM      8  C   UNL     1       1.475  -2.344   0.490  1.00  0.00     0.099 A 
ATOM      9  C   UNL     1       0.973   0.154   0.419  1.00  0.00     0.068 C 
ATOM     10  C   UNL     1       0.691  -1.281   0.779  1.00  0.00     0.059 A 
ATOM     11  N   UNL     1      -0.479  -1.515   1.514  1.00  0.00    -0.200 N 
ATOM     12  C   UNL     1       0.907  -3.681   0.825  1.00  0.00     0.132 A 
ATOM     13  C   UNL     1      -0.859  -2.803   1.915  1.00  0.00     0.252 A 
ATOM     14  N   UNL     1      -1.340  -0.609   2.036  1.00  0.00    -0.147 NA
ATOM     15  N   UNL     1      -0.180  -3.911   1.497  1.00  0.00    -0.219 NA
ATOM     16  N   UNL     1      -1.873  -2.710   2.746  1.00  0.00    -0.191 NA
ATOM     17  C   UNL     1      -2.135  -1.369   2.794  1.00  0.00     0.178 A 
BRANCH  17  18
ATOM     18  C   UNL     1      -3.149  -0.790   3.726  1.00  0.00     0.235 C 
BRANCH  18  19
ATOM     19  O   UNL     1      -2.561   0.005   4.766  1.00  0.00    -0.388 OA
ATOM     20  H   UNL     1      -1.977  -0.551   5.307  1.00  0.00     0.211 HD
ENDBRANCH  18  19
ENDBRANCH  17  18
ENDBRANCH   6   8
ENDBRANCH   5   6
ENDBRANCH   4   5
ENDBRANCH   3   4
ENDBRANCH   2   3
ENDBRANCH   1   2
BRANCH   1  21
ATOM     21  C   UNL     1       0.636  -1.508  -3.683  1.00  0.00     0.261 C 
BRANCH  21  22
ATOM     22  O   UNL     1       0.905  -2.894  -3.784  1.00  0.00    -0.460 OA
BRANCH  22  23
ATOM     23  C   UNL     1       1.456  -3.216  -4.979  1.00  0.00     0.338 C 
ATOM     24  O   UNL     1       1.841  -2.446  -5.837  1.00  0.00    -0.246 OA
BRANCH  23  25
ATOM     25  C   UNL     1       1.463  -4.677  -5.130  1.00  0.00     0.060 A 
ATOM     26  C   UNL     1       1.913  -5.100  -6.380  1.00  0.00     0.016 A 
ATOM     27  C   UNL     1       0.558  -5.415  -4.356  1.00  0.00     0.016 A 
ATOM     28  C   UNL     1       1.134  -6.017  -7.033  1.00  0.00     0.010 A 
ATOM     29  C   UNL     1      -0.219  -6.330  -5.012  1.00  0.00     0.010 A 
ATOM     30  C   UNL     1      -0.000  -6.502  -6.374  1.00  0.00    -0.014 A 
BRANCH  30  31
ATOM     31  C   UNL     1      -0.954  -7.245  -7.155  1.00  0.00     0.031 A 
ATOM     32  C   UNL     1      -0.500  -8.624  -7.390  1.00  0.00     0.074 A 
ATOM     33  C   UNL     1      -2.127  -6.726  -7.560  1.00  0.00     0.049 A 
ATOM     34  N   UNL     1       0.029  -9.096  -8.467  1.00  0.00    -0.248 NA
ATOM     35  C   UNL     1      -0.379  -9.501  -6.215  1.00  0.00     0.031 C 
ATOM     36  C   UNL     1      -2.779  -5.468  -7.189  1.00  0.00     0.029 A 
ATOM     37  N   UNL     1      -3.034  -7.305  -8.384  1.00  0.00    -0.354 N 
ATOM     38  C   UNL     1       0.331 -10.416  -8.168  1.00  0.00     0.074 A 
ATOM     39  C   UNL     1       0.289 -10.530  -6.734  1.00  0.00     0.031 C 
ATOM     40  C   UNL     1      -4.069  -5.494  -7.608  1.00  0.00     0.029 A 
ATOM     41  C   UNL     1      -4.284  -6.696  -8.395  1.00  0.00     0.049 A 
ATOM     42  H   UNL     1      -2.825  -8.095  -8.933  1.00  0.00     0.167 HD
ATOM     43  C   UNL     1       0.322 -11.377  -9.128  1.00  0.00     0.037 A 
ATOM     44  C   UNL     1      -5.399  -7.236  -8.954  1.00  0.00     0.037 A 
ATOM     45  C   UNL     1       0.348 -10.806 -10.451  1.00  0.00     0.049 A 
ATOM     46  C   UNL     1      -4.925  -8.238  -9.956  1.00  0.00     0.074 A 
ATOM     47  C   UNL     1       1.252 -10.028 -11.149  1.00  0.00     0.029 A 
ATOM     48  N   UNL     1      -0.851 -10.663 -11.109  1.00  0.00    -0.354 N 
ATOM     49  N   UNL     1      -4.263  -7.914 -11.037  1.00  0.00    -0.248 NA
ATOM     50  C   UNL     1      -4.734  -9.609  -9.501  1.00  0.00     0.031 C 
ATOM     51  C   UNL     1       0.457  -9.099 -11.884  1.00  0.00     0.029 A 
ATOM     52  C   UNL     1      -0.885  -9.398 -11.645  1.00  0.00     0.049 A 
ATOM     53  H   UNL     1      -1.558 -11.345 -11.182  1.00  0.00     0.167 HD
ATOM     54  C   UNL     1      -3.274  -8.882 -11.162  1.00  0.00     0.074 A 
ATOM     55  C   UNL     1      -3.648  -9.929 -10.211  1.00  0.00     0.031 C 
ATOM     56  C   UNL     1      -2.096  -8.621 -11.805  1.00  0.00     0.037 A 
BRANCH  43  57
ATOM     57  C   UNL     1      -0.079 -12.798  -8.850  1.00  0.00     0.058 A 
ATOM     58  C   UNL     1       0.199 -13.796  -9.799  1.00  0.00     0.135 A 
ATOM     59  C   UNL     1      -0.946 -13.174  -7.796  1.00  0.00     0.135 A 
ATOM     60  F   UNL     1       0.992 -13.535 -10.850  1.00  0.00    -0.206 F 
ATOM     61  C   UNL     1      -0.380 -15.063  -9.731  1.00  0.00     0.059 A 
ATOM     62  C   UNL     1      -1.480 -14.447  -7.673  1.00  0.00     0.059 A 
ATOM     63  F   UNL     1      -1.396 -12.298  -6.889  1.00  0.00    -0.206 F 
ATOM     64  C   UNL     1      -1.225 -15.374  -8.668  1.00  0.00     0.060 A 
BRANCH  64  65
ATOM     65  S   UNL     1      -2.055 -16.970  -8.633  1.00  0.00     0.124 S 
ATOM     66  O   UNL     1      -2.936 -16.864  -9.791  1.00  0.00    -0.237 OA
ATOM     67  O   UNL     1      -0.933 -17.893  -8.762  1.00  0.00    -0.237 OA
ATOM     68  O   UNL     1      -2.719 -16.976  -7.333  1.00  0.00    -0.744 OA
ENDBRANCH  64  65
ENDBRANCH  43  57
BRANCH  44  69
ATOM     69  C   UNL     1      -6.760  -7.309  -8.348  1.00  0.00     0.058 A 
ATOM     70  C   UNL     1      -7.864  -7.757  -9.098  1.00  0.00     0.135 A 
ATOM     71  C   UNL     1      -6.948  -7.239  -6.953  1.00  0.00     0.135 A 
ATOM     72  F   UNL     1      -7.769  -7.872 -10.431  1.00  0.00    -0.206 F 
ATOM     73  C   UNL     1      -9.060  -8.169  -8.496  1.00  0.00     0.059 A 
ATOM     74  C   UNL     1      -8.131  -7.639  -6.332  1.00  0.00     0.059 A 
ATOM     75  F   UNL     1      -5.949  -6.870  -6.138  1.00  0.00    -0.206 F 
ATOM     76  C   UNL     1      -9.174  -8.132  -7.107  1.00  0.00     0.060 A 
BRANCH  76  77
ATOM     77  S   UNL     1     -10.639  -8.836  -6.312  1.00  0.00     0.124 S 
ATOM     78  O   UNL     1     -11.688  -7.918  -6.741  1.00  0.00    -0.237 OA
ATOM     79  O   UNL     1     -10.688 -10.175  -6.891  1.00  0.00    -0.237 OA
ATOM     80  O   UNL     1     -10.311  -8.787  -4.889  1.00  0.00    -0.744 OA
ENDBRANCH  76  77
ENDBRANCH  44  69
BRANCH  56  81
ATOM     81  C   UNL     1      -1.989  -7.324 -12.574  1.00  0.00     0.058 A 
ATOM     82  C   UNL     1      -2.042  -6.044 -11.987  1.00  0.00     0.135 A 
ATOM     83  C   UNL     1      -1.697  -7.380 -13.943  1.00  0.00     0.135 A 
ATOM     84  F   UNL     1      -2.203  -5.902 -10.665  1.00  0.00    -0.206 F 
ATOM     85  C   UNL     1      -1.876  -4.877 -12.739  1.00  0.00     0.059 A 
ATOM     86  C   UNL     1      -1.497  -6.232 -14.707  1.00  0.00     0.059 A 
ATOM     87  F   UNL     1      -1.562  -8.569 -14.552  1.00  0.00    -0.206 F 
ATOM     88  C   UNL     1      -1.609  -4.982 -14.103  1.00  0.00     0.060 A 
BRANCH  88  89
ATOM     89  S   UNL     1      -1.374  -3.477 -15.075  1.00  0.00     0.124 S 
ATOM     90  O   UNL     1      -2.710  -2.890 -15.062  1.00  0.00    -0.237 OA
ATOM     91  O   UNL     1      -0.359  -2.760 -14.309  1.00  0.00    -0.237 OA
ATOM     92  O   UNL     1      -0.926  -3.975 -16.373  1.00  0.00    -0.744 OA
ENDBRANCH  88  89
ENDBRANCH  56  81
ENDBRANCH  30  31
ENDBRANCH  23  25
ENDBRANCH  22  23
ENDBRANCH  21  22
ENDBRANCH   1  21
TORSDOF 19
