REMARK SMILES Cc1nn(C)c(C)c1C(=O)N1CC[C@H](C(=O)OCCOCCOC(=O)c2ccc(-c3c4nc(c(-c5c(F)cc(S(=O)(=O)[O-])cc5F)c5ccc([nH]5)c(-c5c(F)cc(S(=O)(=O)[O-])cc5F)c5nc(c(-c6c(F)cc(S(=O)(=O)[O-])cc6F)c6ccc3[nH]6)C=C5)C=C4)cc2)[C@@H]1C
REMARK SMILES IDX 21 1 20 2 19 3 18 4 17 5 15 6 16 7 14 8 11 9 12 10 92 11
REMARK SMILES IDX 13 12 93 13 9 14 10 15 8 16 1 17 2 18 3 19 4 20 6 21 5 22
REMARK SMILES IDX 7 23 22 24 23 25 24 26 25 27 26 28 27 29 91 30 28 31 90 32
REMARK SMILES IDX 29 33 30 34 31 35 84 36 32 37 89 38 83 39 85 40 33 41 88 42
REMARK SMILES IDX 82 43 81 44 34 46 68 47 47 48 67 49 48 50 51 51 66 52 86 53
REMARK SMILES IDX 49 54 50 55 65 57 87 58 52 59 35 60 36 61 45 62 37 63 38 64
REMARK SMILES IDX 44 65 46 66 39 67 40 68 41 69 42 70 43 71 69 72 70 73 79 74
REMARK SMILES IDX 71 75 72 76 78 77 80 78 73 79 74 80 75 81 76 82 77 83 53 84
REMARK SMILES IDX 54 85 63 86 55 87 56 88 62 89 64 90 57 91 58 92 59 93 60 94
REMARK SMILES IDX 61 95
REMARK H PARENT 85 45 51 56
REMARK Flexibility Score: inf
ROOT
ATOM      1  C   UNL     1      -3.921   5.302   4.146  1.00  0.00     0.202 C 
ENDROOT
BRANCH   1   2
ATOM      2  O   UNL     1      -4.875   6.349   4.234  1.00  0.00    -0.374 OA
BRANCH   2   3
ATOM      3  C   UNL     1      -6.154   6.187   3.635  1.00  0.00     0.202 C 
BRANCH   3   4
ATOM      4  C   UNL     1      -6.237   5.933   2.132  1.00  0.00     0.261 C 
BRANCH   4   5
ATOM      5  O   UNL     1      -5.657   4.674   1.747  1.00  0.00    -0.463 OA
BRANCH   5   6
ATOM      6  C   UNL     1      -4.580   4.753   0.918  1.00  0.00     0.311 C 
ATOM      7  O   UNL     1      -3.998   5.786   0.618  1.00  0.00    -0.252 OA
BRANCH   6   8
ATOM      8  C   UNL     1      -4.243   3.393   0.346  1.00  0.00     0.123 C 
ATOM      9  N   UNL     1      -2.097   2.922  -0.574  1.00  0.00    -0.335 N 
ATOM     10  C   UNL     1      -2.760   3.830  -1.478  1.00  0.00     0.121 C 
ATOM     11  C   UNL     1      -2.853   2.791   0.674  1.00  0.00     0.096 C 
ATOM     12  C   UNL     1      -4.225   3.551  -1.186  1.00  0.00     0.039 C 
ATOM     13  C   UNL     1      -2.054   3.390   1.824  1.00  0.00     0.032 C 
BRANCH   9  14
ATOM     14  C   UNL     1      -0.856   2.404  -0.885  1.00  0.00     0.257 C 
ATOM     15  O   UNL     1      -0.089   3.014  -1.630  1.00  0.00    -0.269 OA
BRANCH  14  16
ATOM     16  C   UNL     1      -0.509   1.075  -0.386  1.00  0.00     0.083 A 
ATOM     17  C   UNL     1      -2.745  -0.333  -0.554  1.00  0.00     0.069 C 
ATOM     18  C   UNL     1      -1.304  -0.107  -0.274  1.00  0.00     0.072 A 
ATOM     19  N   UNL     1      -0.568  -1.169   0.076  1.00  0.00    -0.178 NA
ATOM     20  N   UNL     1       0.692  -0.711   0.087  1.00  0.00    -0.272 N 
ATOM     21  C   UNL     1       0.781   0.643  -0.087  1.00  0.00     0.048 A 
ATOM     22  C   UNL     1       1.759  -1.682   0.151  1.00  0.00     0.174 C 
ATOM     23  C   UNL     1       2.068   1.385  -0.039  1.00  0.00     0.067 C 
ENDBRANCH  14  16
ENDBRANCH   9  14
ENDBRANCH   6   8
ENDBRANCH   5   6
ENDBRANCH   4   5
ENDBRANCH   3   4
ENDBRANCH   2   3
ENDBRANCH   1   2
BRANCH   1  24
ATOM     24  C   UNL     1      -4.237   3.909   4.718  1.00  0.00     0.261 C 
BRANCH  24  25
ATOM     25  O   UNL     1      -5.550   3.722   5.210  1.00  0.00    -0.460 OA
BRANCH  25  26
ATOM     26  C   UNL     1      -5.790   4.263   6.423  1.00  0.00     0.338 C 
ATOM     27  O   UNL     1      -5.013   4.833   7.164  1.00  0.00    -0.246 OA
BRANCH  26  28
ATOM     28  C   UNL     1      -7.240   4.145   6.592  1.00  0.00     0.060 A 
ATOM     29  C   UNL     1      -8.002   5.315   6.644  1.00  0.00     0.016 A 
ATOM     30  C   UNL     1      -7.835   2.880   6.570  1.00  0.00     0.016 A 
ATOM     31  C   UNL     1      -9.387   5.218   6.691  1.00  0.00     0.010 A 
ATOM     32  C   UNL     1      -9.218   2.785   6.622  1.00  0.00     0.010 A 
ATOM     33  C   UNL     1      -9.992   3.954   6.704  1.00  0.00    -0.014 A 
BRANCH  33  34
ATOM     34  C   UNL     1     -11.440   3.830   6.947  1.00  0.00     0.031 A 
ATOM     35  C   UNL     1     -11.893   3.509   8.338  1.00  0.00     0.074 A 
ATOM     36  C   UNL     1     -12.309   3.974   5.933  1.00  0.00     0.049 A 
ATOM     37  N   UNL     1     -13.099   3.288   8.784  1.00  0.00    -0.248 NA
ATOM     38  C   UNL     1     -10.839   3.412   9.362  1.00  0.00     0.031 C 
ATOM     39  C   UNL     1     -11.950   4.313   4.556  1.00  0.00     0.029 A 
ATOM     40  N   UNL     1     -13.670   3.842   5.906  1.00  0.00    -0.354 N 
ATOM     41  C   UNL     1     -12.950   3.015  10.137  1.00  0.00     0.074 A 
ATOM     42  C   UNL     1     -11.536   3.067  10.433  1.00  0.00     0.031 C 
ATOM     43  C   UNL     1     -13.070   4.363   3.815  1.00  0.00     0.029 A 
ATOM     44  C   UNL     1     -14.213   4.021   4.658  1.00  0.00     0.049 A 
ATOM     45  H   UNL     1     -14.209   3.639   6.705  1.00  0.00     0.167 HD
ATOM     46  C   UNL     1     -13.915   2.751  11.047  1.00  0.00     0.037 A 
ATOM     47  C   UNL     1     -15.490   3.898   4.248  1.00  0.00     0.037 A 
ATOM     48  C   UNL     1     -15.314   2.694  10.718  1.00  0.00     0.049 A 
ATOM     49  C   UNL     1     -16.537   3.520   5.262  1.00  0.00     0.074 A 
ATOM     50  C   UNL     1     -16.389   2.479  11.558  1.00  0.00     0.029 A 
ATOM     51  N   UNL     1     -15.826   2.830   9.434  1.00  0.00    -0.354 N 
ATOM     52  N   UNL     1     -16.399   3.320   6.552  1.00  0.00    -0.248 NA
ATOM     53  C   UNL     1     -17.907   3.337   4.766  1.00  0.00     0.031 C 
ATOM     54  C   UNL     1     -17.546   2.420  10.773  1.00  0.00     0.029 A 
ATOM     55  C   UNL     1     -17.199   2.655   9.450  1.00  0.00     0.049 A 
ATOM     56  H   UNL     1     -15.292   3.024   8.630  1.00  0.00     0.167 HD
ATOM     57  C   UNL     1     -17.666   3.002   7.027  1.00  0.00     0.074 A 
ATOM     58  C   UNL     1     -18.559   3.050   5.885  1.00  0.00     0.031 C 
ATOM     59  C   UNL     1     -18.058   2.697   8.290  1.00  0.00     0.037 A 
BRANCH  46  60
ATOM     60  C   UNL     1     -13.475   2.457  12.455  1.00  0.00     0.058 A 
ATOM     61  C   UNL     1     -12.910   3.443  13.280  1.00  0.00     0.135 A 
ATOM     62  C   UNL     1     -13.599   1.160  12.978  1.00  0.00     0.135 A 
ATOM     63  F   UNL     1     -12.747   4.696  12.825  1.00  0.00    -0.206 F 
ATOM     64  C   UNL     1     -12.442   3.144  14.556  1.00  0.00     0.059 A 
ATOM     65  C   UNL     1     -13.167   0.845  14.263  1.00  0.00     0.059 A 
ATOM     66  F   UNL     1     -14.127   0.177  12.232  1.00  0.00    -0.206 F 
ATOM     67  C   UNL     1     -12.570   1.839  15.036  1.00  0.00     0.060 A 
BRANCH  67  68
ATOM     68  S   UNL     1     -11.930   1.458  16.680  1.00  0.00     0.124 S 
ATOM     69  O   UNL     1     -10.489   1.492  16.446  1.00  0.00    -0.237 OA
ATOM     70  O   UNL     1     -12.466   2.551  17.485  1.00  0.00    -0.237 OA
ATOM     71  O   UNL     1     -12.488   0.141  16.966  1.00  0.00    -0.744 OA
ENDBRANCH  67  68
ENDBRANCH  46  60
BRANCH  47  72
ATOM     72  C   UNL     1     -15.837   4.146   2.825  1.00  0.00     0.058 A 
ATOM     73  C   UNL     1     -16.565   5.285   2.452  1.00  0.00     0.135 A 
ATOM     74  C   UNL     1     -15.405   3.283   1.804  1.00  0.00     0.135 A 
ATOM     75  F   UNL     1     -17.008   6.134   3.392  1.00  0.00    -0.206 F 
ATOM     76  C   UNL     1     -16.848   5.565   1.120  1.00  0.00     0.059 A 
ATOM     77  C   UNL     1     -15.656   3.554   0.462  1.00  0.00     0.059 A 
ATOM     78  F   UNL     1     -14.696   2.185   2.106  1.00  0.00    -0.206 F 
ATOM     79  C   UNL     1     -16.379   4.699   0.130  1.00  0.00     0.060 A 
BRANCH  79  80
ATOM     80  S   UNL     1     -16.677   5.123  -1.600  1.00  0.00     0.124 S 
ATOM     81  O   UNL     1     -18.115   4.911  -1.712  1.00  0.00    -0.237 OA
ATOM     82  O   UNL     1     -16.229   6.511  -1.653  1.00  0.00    -0.237 OA
ATOM     83  O   UNL     1     -15.840   4.174  -2.328  1.00  0.00    -0.744 OA
ENDBRANCH  79  80
ENDBRANCH  47  72
BRANCH  59  84
ATOM     84  C   UNL     1     -19.514   2.390   8.505  1.00  0.00     0.058 A 
ATOM     85  C   UNL     1     -20.074   1.175   8.082  1.00  0.00     0.135 A 
ATOM     86  C   UNL     1     -20.334   3.282   9.214  1.00  0.00     0.135 A 
ATOM     87  F   UNL     1     -19.334   0.294   7.390  1.00  0.00    -0.206 F 
ATOM     88  C   UNL     1     -21.400   0.857   8.350  1.00  0.00     0.059 A 
ATOM     89  C   UNL     1     -21.655   2.972   9.519  1.00  0.00     0.059 A 
ATOM     90  F   UNL     1     -19.843   4.454   9.648  1.00  0.00    -0.206 F 
ATOM     91  C   UNL     1     -22.180   1.758   9.078  1.00  0.00     0.060 A 
BRANCH  91  92
ATOM     92  S   UNL     1     -23.880   1.301   9.475  1.00  0.00     0.124 S 
ATOM     93  O   UNL     1     -24.526   1.410   8.171  1.00  0.00    -0.237 OA
ATOM     94  O   UNL     1     -23.724  -0.055   9.993  1.00  0.00    -0.237 OA
ATOM     95  O   UNL     1     -24.281   2.300  10.460  1.00  0.00    -0.744 OA
ENDBRANCH  91  92
ENDBRANCH  59  84
ENDBRANCH  33  34
ENDBRANCH  26  28
ENDBRANCH  25  26
ENDBRANCH  24  25
ENDBRANCH   1  24
TORSDOF 19
