REMARK SMILES CCC[NH+]1CCN(c2cc(C(=O)OCCOCCOC(=O)c3ccc(-c4c5nc(c(-c6c(F)cc(S(=O)(=O)[O-])cc6F)c6ccc([nH]6)c(-c6c(F)cc(S(=O)(=O)[O-])cc6F)c6nc(c(-c7c(F)cc(S(=O)(=O)[O-])cc7F)c7ccc4[nH]7)C=C6)C=C5)cc3)c3cc(NC(=O)c4ccc(F)cc4)ccc3n2)CC1
REMARK SMILES IDX 16 1 15 2 14 3 13 4 11 5 12 6 10 7 8 8 9 9 104 10 103 11
REMARK SMILES IDX 88 12 102 13 89 14 101 15 90 16 7 17 4 18 5 19 106 20 6 22
REMARK SMILES IDX 105 23 3 24 2 25 1 26 91 27 92 28 93 30 94 31 95 32 100 33
REMARK SMILES IDX 96 34 99 35 97 36 98 37 17 38 18 39 19 40 20 41 21 42 22 43
REMARK SMILES IDX 23 44 87 45 24 46 86 47 25 48 26 49 27 50 80 51 28 52 85 53
REMARK SMILES IDX 79 54 81 55 29 56 84 57 78 58 77 59 30 61 64 62 43 63 63 64
REMARK SMILES IDX 44 65 47 66 62 67 82 68 45 69 46 70 61 72 83 73 48 74 31 75
REMARK SMILES IDX 32 76 41 77 33 78 34 79 40 80 42 81 35 82 36 83 37 84 38 85
REMARK SMILES IDX 39 86 65 87 66 88 75 89 67 90 68 91 74 92 76 93 69 94 70 95
REMARK SMILES IDX 71 96 72 97 73 98 49 99 50 100 59 101 51 102 52 103 58 104
REMARK SMILES IDX 60 105 53 106 54 107 55 108 56 109 57 110
REMARK H PARENT 4 21 91 29 81 60 47 71
REMARK Flexibility Score: inf
ROOT
ATOM      1  O   UNL     1       0.440 -10.071  -6.124  1.00  0.00    -0.374 OA
ENDROOT
BRANCH   1   2
ATOM      2  C   UNL     1       1.517 -10.986  -5.907  1.00  0.00     0.202 C 
BRANCH   2   3
ATOM      3  C   UNL     1       2.693 -10.440  -5.099  1.00  0.00     0.261 C 
BRANCH   3   4
ATOM      4  O   UNL     1       2.307 -10.229  -3.728  1.00  0.00    -0.460 OA
BRANCH   4   5
ATOM      5  C   UNL     1       3.095  -9.339  -3.091  1.00  0.00     0.339 C 
ATOM      6  O   UNL     1       4.181  -8.921  -3.474  1.00  0.00    -0.246 OA
BRANCH   5   7
ATOM      7  C   UNL     1       2.380  -8.716  -1.966  1.00  0.00     0.073 A 
ATOM      8  C   UNL     1       1.738  -6.634  -1.002  1.00  0.00     0.130 A 
ATOM      9  C   UNL     1       2.144  -7.353  -2.105  1.00  0.00     0.063 A 
ATOM     10  N   UNL     1       1.597  -7.213   0.206  1.00  0.00    -0.231 NA
ATOM     11  C   UNL     1       1.771  -8.539   0.331  1.00  0.00     0.074 A 
ATOM     12  C   UNL     1       2.122  -9.365  -0.748  1.00  0.00     0.017 A 
ATOM     13  C   UNL     1       1.609  -9.117   1.581  1.00  0.00     0.031 A 
ATOM     14  C   UNL     1       2.216 -10.759  -0.550  1.00  0.00     0.037 A 
ATOM     15  C   UNL     1       1.772 -10.491   1.784  1.00  0.00     0.028 A 
ATOM     16  C   UNL     1       2.085 -11.326   0.715  1.00  0.00     0.042 A 
BRANCH   8  17
ATOM     17  N   UNL     1       1.501  -5.292  -1.111  1.00  0.00    -0.345 N 
ATOM     18  N   UNL     1       0.335  -2.694  -0.471  1.00  0.00    -0.332 N 
ATOM     19  C   UNL     1      -0.445  -3.779  -1.113  1.00  0.00     0.284 C 
ATOM     20  C   UNL     1       1.373  -3.321   0.386  1.00  0.00     0.284 C 
ATOM     21  H   UNL     1      -0.279  -2.119   0.106  1.00  0.00     0.348 HD
ATOM     22  C   UNL     1       0.393  -4.801  -1.917  1.00  0.00     0.179 C 
ATOM     23  C   UNL     1       2.280  -4.358  -0.312  1.00  0.00     0.179 C 
BRANCH  18  24
ATOM     24  C   UNL     1       0.912  -1.776  -1.462  1.00  0.00     0.262 C 
BRANCH  24  25
ATOM     25  C   UNL     1       0.415  -0.348  -1.217  1.00  0.00     0.058 C 
ATOM     26  C   UNL     1       0.902   0.245   0.096  1.00  0.00     0.010 C 
ENDBRANCH  24  25
ENDBRANCH  18  24
ENDBRANCH   8  17
BRANCH  16  27
ATOM     27  N   UNL     1       2.211 -12.698   0.986  1.00  0.00    -0.322 N 
ATOM     28  C   UNL     1       2.648 -13.754   0.221  1.00  0.00     0.255 C 
ATOM     29  H   UNL     1       1.933 -12.952   1.895  1.00  0.00     0.170 HD
ATOM     30  O   UNL     1       2.412 -14.903   0.586  1.00  0.00    -0.269 OA
BRANCH  28  31
ATOM     31  C   UNL     1       3.412 -13.549  -1.023  1.00  0.00     0.040 A 
ATOM     32  C   UNL     1       2.919 -14.127  -2.194  1.00  0.00     0.017 A 
ATOM     33  C   UNL     1       4.588 -12.788  -1.054  1.00  0.00     0.017 A 
ATOM     34  C   UNL     1       3.582 -13.936  -3.405  1.00  0.00     0.040 A 
ATOM     35  C   UNL     1       5.237 -12.578  -2.272  1.00  0.00     0.040 A 
ATOM     36  C   UNL     1       4.733 -13.158  -3.433  1.00  0.00     0.123 A 
ATOM     37  F   UNL     1       5.350 -12.947  -4.602  1.00  0.00    -0.207 F 
ENDBRANCH  28  31
ENDBRANCH  16  27
ENDBRANCH   5   7
ENDBRANCH   4   5
ENDBRANCH   3   4
ENDBRANCH   2   3
ENDBRANCH   1   2
BRANCH   1  38
ATOM     38  C   UNL     1      -0.228  -9.549  -4.981  1.00  0.00     0.202 C 
BRANCH  38  39
ATOM     39  C   UNL     1      -1.202 -10.474  -4.236  1.00  0.00     0.261 C 
BRANCH  39  40
ATOM     40  O   UNL     1      -0.683 -11.762  -3.865  1.00  0.00    -0.460 OA
BRANCH  40  41
ATOM     41  C   UNL     1      -1.051 -12.770  -4.695  1.00  0.00     0.338 C 
ATOM     42  O   UNL     1      -1.667 -12.662  -5.750  1.00  0.00    -0.246 OA
BRANCH  41  43
ATOM     43  C   UNL     1      -0.537 -14.066  -4.214  1.00  0.00     0.060 A 
ATOM     44  C   UNL     1       0.177 -14.874  -5.107  1.00  0.00     0.016 A 
ATOM     45  C   UNL     1      -0.863 -14.540  -2.940  1.00  0.00     0.016 A 
ATOM     46  C   UNL     1       0.545 -16.172  -4.738  1.00  0.00     0.010 A 
ATOM     47  C   UNL     1      -0.501 -15.844  -2.577  1.00  0.00     0.010 A 
ATOM     48  C   UNL     1       0.183 -16.678  -3.482  1.00  0.00    -0.014 A 
BRANCH  48  49
ATOM     49  C   UNL     1       0.394 -18.116  -3.164  1.00  0.00     0.031 A 
ATOM     50  C   UNL     1      -0.762 -19.069  -3.303  1.00  0.00     0.074 A 
ATOM     51  C   UNL     1       1.592 -18.578  -2.758  1.00  0.00     0.049 A 
ATOM     52  N   UNL     1      -0.805 -20.356  -3.078  1.00  0.00    -0.248 NA
ATOM     53  C   UNL     1      -2.037 -18.494  -3.763  1.00  0.00     0.031 C 
ATOM     54  C   UNL     1       2.799 -17.773  -2.610  1.00  0.00     0.029 A 
ATOM     55  N   UNL     1       1.989 -19.837  -2.377  1.00  0.00    -0.354 N 
ATOM     56  C   UNL     1      -2.103 -20.749  -3.379  1.00  0.00     0.074 A 
ATOM     57  C   UNL     1      -2.829 -19.556  -3.760  1.00  0.00     0.031 C 
ATOM     58  C   UNL     1       3.791 -18.539  -2.128  1.00  0.00     0.029 A 
ATOM     59  C   UNL     1       3.293 -19.897  -1.940  1.00  0.00     0.049 A 
ATOM     60  H   UNL     1       1.397 -20.622  -2.414  1.00  0.00     0.167 HD
ATOM     61  C   UNL     1      -2.638 -21.993  -3.357  1.00  0.00     0.037 A 
ATOM     62  C   UNL     1       4.006 -20.926  -1.442  1.00  0.00     0.037 A 
ATOM     63  C   UNL     1      -1.919 -23.176  -2.962  1.00  0.00     0.049 A 
ATOM     64  C   UNL     1       3.371 -22.289  -1.364  1.00  0.00     0.074 A 
ATOM     65  C   UNL     1      -2.370 -24.484  -2.925  1.00  0.00     0.029 A 
ATOM     66  N   UNL     1      -0.604 -23.196  -2.520  1.00  0.00    -0.354 N 
ATOM     67  N   UNL     1       2.160 -22.655  -1.709  1.00  0.00    -0.248 NA
ATOM     68  C   UNL     1       4.206 -23.384  -0.850  1.00  0.00     0.031 C 
ATOM     69  C   UNL     1      -1.343 -25.288  -2.417  1.00  0.00     0.029 A 
ATOM     70  C   UNL     1      -0.234 -24.489  -2.187  1.00  0.00     0.049 A 
ATOM     71  H   UNL     1      -0.019 -22.406  -2.454  1.00  0.00     0.167 HD
ATOM     72  C   UNL     1       2.100 -24.027  -1.491  1.00  0.00     0.074 A 
ATOM     73  C   UNL     1       3.398 -24.426  -0.988  1.00  0.00     0.031 C 
ATOM     74  C   UNL     1       1.065 -24.878  -1.698  1.00  0.00     0.037 A 
BRANCH  61  75
ATOM     75  C   UNL     1      -4.078 -22.132  -3.762  1.00  0.00     0.058 A 
ATOM     76  C   UNL     1      -4.484 -21.981  -5.098  1.00  0.00     0.135 A 
ATOM     77  C   UNL     1      -5.062 -22.438  -2.809  1.00  0.00     0.135 A 
ATOM     78  F   UNL     1      -3.585 -21.671  -6.047  1.00  0.00    -0.206 F 
ATOM     79  C   UNL     1      -5.818 -22.101  -5.471  1.00  0.00     0.059 A 
ATOM     80  C   UNL     1      -6.400 -22.588  -3.163  1.00  0.00     0.059 A 
ATOM     81  F   UNL     1      -4.729 -22.590  -1.518  1.00  0.00    -0.206 F 
ATOM     82  C   UNL     1      -6.770 -22.402  -4.495  1.00  0.00     0.060 A 
BRANCH  82  83
ATOM     83  S   UNL     1      -8.498 -22.549  -4.993  1.00  0.00     0.124 S 
ATOM     84  O   UNL     1      -8.852 -21.153  -5.230  1.00  0.00    -0.237 OA
ATOM     85  O   UNL     1      -8.411 -23.391  -6.181  1.00  0.00    -0.237 OA
ATOM     86  O   UNL     1      -9.135 -23.169  -3.835  1.00  0.00    -0.744 OA
ENDBRANCH  82  83
ENDBRANCH  61  75
BRANCH  62  87
ATOM     87  C   UNL     1       5.411 -20.716  -0.999  1.00  0.00     0.058 A 
ATOM     88  C   UNL     1       6.487 -21.245  -1.727  1.00  0.00     0.135 A 
ATOM     89  C   UNL     1       5.706 -19.988   0.164  1.00  0.00     0.135 A 
ATOM     90  F   UNL     1       6.257 -21.956  -2.842  1.00  0.00    -0.206 F 
ATOM     91  C   UNL     1       7.803 -21.079  -1.308  1.00  0.00     0.059 A 
ATOM     92  C   UNL     1       7.016 -19.788   0.590  1.00  0.00     0.059 A 
ATOM     93  F   UNL     1       4.713 -19.454   0.893  1.00  0.00    -0.206 F 
ATOM     94  C   UNL     1       8.058 -20.348  -0.147  1.00  0.00     0.060 A 
BRANCH  94  95
ATOM     95  S   UNL     1       9.773 -20.110   0.368  1.00  0.00     0.124 S 
ATOM     96  O   UNL     1      10.117 -21.436   0.868  1.00  0.00    -0.237 OA
ATOM     97  O   UNL     1      10.416 -19.712  -0.880  1.00  0.00    -0.237 OA
ATOM     98  O   UNL     1       9.678 -19.059   1.377  1.00  0.00    -0.744 OA
ENDBRANCH  94  95
ENDBRANCH  62  87
BRANCH  74  99
ATOM     99  C   UNL     1       1.301 -26.339  -1.424  1.00  0.00     0.058 A 
ATOM    100  C   UNL     1       1.411 -26.840  -0.119  1.00  0.00     0.135 A 
ATOM    101  C   UNL     1       1.365 -27.256  -2.486  1.00  0.00     0.135 A 
ATOM    102  F   UNL     1       1.363 -26.006   0.932  1.00  0.00    -0.206 F 
ATOM    103  C   UNL     1       1.598 -28.198   0.125  1.00  0.00     0.059 A 
ATOM    104  C   UNL     1       1.524 -28.620  -2.265  1.00  0.00     0.059 A 
ATOM    105  F   UNL     1       1.256 -26.831  -3.755  1.00  0.00    -0.206 F 
ATOM    106  C   UNL     1       1.651 -29.081  -0.956  1.00  0.00     0.060 A 
BRANCH 106 107
ATOM    107  S   UNL     1       1.857 -30.844  -0.626  1.00  0.00     0.124 S 
ATOM    108  O   UNL     1       3.269 -30.912  -0.263  1.00  0.00    -0.237 OA
ATOM    109  O   UNL     1       0.911 -31.072   0.462  1.00  0.00    -0.237 OA
ATOM    110  O   UNL     1       1.504 -31.470  -1.897  1.00  0.00    -0.744 OA
ENDBRANCH 106 107
ENDBRANCH  74  99
ENDBRANCH  48  49
ENDBRANCH  41  43
ENDBRANCH  40  41
ENDBRANCH  39  40
ENDBRANCH  38  39
ENDBRANCH   1  38
TORSDOF 22
