REMARK SMILES C[C@]([NH3+])(C(=O)N1[C@@H](C(=O)OCCOCCOC(=O)c2ccc(-c3c4nc(c(-c5c(F)cc(S(=O)(=O)[O-])cc5F)c5ccc([nH]5)c(-c5c(F)cc(S(=O)(=O)[O-])cc5F)c5nc(c(-c6c(F)cc(S(=O)(=O)[O-])cc6F)c6ccc3[nH]6)C=C5)C=C4)cc2)C[C@H]2CCCC[C@@H]21)C(F)(F)F
REMARK SMILES IDX 13 1 12 2 11 3 10 4 8 5 9 6 7 7 6 8 91 9 85 10 86 11 90 12
REMARK SMILES IDX 87 13 89 14 88 15 4 16 5 17 2 18 1 19 92 20 93 21 94 22
REMARK SMILES IDX 95 23 3 24 14 28 15 29 16 30 17 31 18 32 19 33 20 34 84 35
REMARK SMILES IDX 21 36 83 37 22 38 23 39 24 40 77 41 25 42 82 43 76 44 78 45
REMARK SMILES IDX 26 46 81 47 75 48 74 49 27 51 61 52 40 53 60 54 41 55 44 56
REMARK SMILES IDX 59 57 79 58 42 59 43 60 58 62 80 63 45 64 28 65 29 66 38 67
REMARK SMILES IDX 30 68 31 69 37 70 39 71 32 72 33 73 34 74 35 75 36 76 62 77
REMARK SMILES IDX 63 78 72 79 64 80 65 81 71 82 73 83 66 84 67 85 68 86 69 87
REMARK SMILES IDX 70 88 46 89 47 90 56 91 48 92 49 93 55 94 57 95 50 96 51 97
REMARK SMILES IDX 52 98 53 99 54 100
REMARK H PARENT 3 25 3 26 3 27 78 50 44 61
REMARK Flexibility Score: inf
ROOT
ATOM      1  O   UNL     1      -1.591   3.792  -0.865  1.00  0.00    -0.374 OA
ENDROOT
BRANCH   1   2
ATOM      2  C   UNL     1      -2.378   4.276   0.225  1.00  0.00     0.202 C 
BRANCH   2   3
ATOM      3  C   UNL     1      -3.333   3.281   0.887  1.00  0.00     0.261 C 
BRANCH   3   4
ATOM      4  O   UNL     1      -2.597   2.259   1.584  1.00  0.00    -0.462 OA
BRANCH   4   5
ATOM      5  C   UNL     1      -2.798   0.987   1.133  1.00  0.00     0.328 C 
ATOM      6  O   UNL     1      -3.626   0.670   0.291  1.00  0.00    -0.250 OA
BRANCH   5   7
ATOM      7  C   UNL     1      -1.820   0.016   1.840  1.00  0.00     0.196 C 
ATOM      8  N   UNL     1      -1.762  -1.299   1.163  1.00  0.00    -0.320 N 
ATOM      9  C   UNL     1      -2.915  -2.038   1.628  1.00  0.00     0.089 C 
ATOM     10  C   UNL     1      -2.412  -0.296   3.228  1.00  0.00     0.043 C 
ATOM     11  C   UNL     1      -2.836  -1.763   3.130  1.00  0.00     0.014 C 
ATOM     12  C   UNL     1      -2.998  -3.538   1.394  1.00  0.00     0.025 C 
ATOM     13  C   UNL     1      -4.132  -2.168   3.805  1.00  0.00     0.006 C 
ATOM     14  C   UNL     1      -4.271  -4.062   2.076  1.00  0.00     0.002 C 
ATOM     15  C   UNL     1      -4.378  -3.663   3.557  1.00  0.00     0.000 C 
BRANCH   8  16
ATOM     16  C   UNL     1      -1.238  -1.507  -0.107  1.00  0.00     0.294 C 
ATOM     17  O   UNL     1      -1.984  -1.750  -1.054  1.00  0.00    -0.267 OA
BRANCH  16  18
ATOM     18  C   UNL     1       0.309  -1.597  -0.233  1.00  0.00     0.267 C 
ATOM     19  C   UNL     1       0.853  -2.592   0.802  1.00  0.00     0.100 C 
BRANCH  18  20
ATOM     20  C   UNL     1       0.616  -2.144  -1.657  1.00  0.00     0.453 C 
ATOM     21  F   UNL     1       0.226  -1.284  -2.628  1.00  0.00    -0.164 F 
ATOM     22  F   UNL     1       1.957  -2.315  -1.821  1.00  0.00    -0.164 F 
ATOM     23  F   UNL     1       0.053  -3.349  -1.895  1.00  0.00    -0.164 F 
ENDBRANCH  18  20
BRANCH  18  24
ATOM     24  N   UNL     1       0.963  -0.276   0.020  1.00  0.00    -0.337 N 
ATOM     25  H   UNL     1       0.620   0.408  -0.655  1.00  0.00     0.345 HD
ATOM     26  H   UNL     1       1.974  -0.372  -0.078  1.00  0.00     0.345 HD
ATOM     27  H   UNL     1       0.742   0.038   0.965  1.00  0.00     0.345 HD
ENDBRANCH  18  24
ENDBRANCH  16  18
ENDBRANCH   8  16
ENDBRANCH   5   7
ENDBRANCH   4   5
ENDBRANCH   3   4
ENDBRANCH   2   3
ENDBRANCH   1   2
BRANCH   1  28
ATOM     28  C   UNL     1      -0.554   2.859  -0.590  1.00  0.00     0.202 C 
BRANCH  28  29
ATOM     29  C   UNL     1       0.747   3.384   0.033  1.00  0.00     0.261 C 
BRANCH  29  30
ATOM     30  O   UNL     1       0.537   4.158   1.218  1.00  0.00    -0.460 OA
BRANCH  30  31
ATOM     31  C   UNL     1       0.696   5.489   1.026  1.00  0.00     0.338 C 
ATOM     32  O   UNL     1       1.056   6.048  -0.002  1.00  0.00    -0.246 OA
BRANCH  31  33
ATOM     33  C   UNL     1       0.200   6.235   2.191  1.00  0.00     0.060 A 
ATOM     34  C   UNL     1      -0.746   7.237   1.946  1.00  0.00     0.016 A 
ATOM     35  C   UNL     1       0.699   6.019   3.478  1.00  0.00     0.016 A 
ATOM     36  C   UNL     1      -1.155   8.069   2.980  1.00  0.00     0.010 A 
ATOM     37  C   UNL     1       0.290   6.862   4.516  1.00  0.00     0.010 A 
ATOM     38  C   UNL     1      -0.608   7.913   4.260  1.00  0.00    -0.014 A 
BRANCH  38  39
ATOM     39  C   UNL     1      -0.889   8.951   5.278  1.00  0.00     0.031 A 
ATOM     40  C   UNL     1       0.124  10.040   5.508  1.00  0.00     0.074 A 
ATOM     41  C   UNL     1      -2.071   8.963   5.918  1.00  0.00     0.049 A 
ATOM     42  N   UNL     1       0.053  11.081   6.296  1.00  0.00    -0.248 NA
ATOM     43  C   UNL     1       1.381   9.946   4.747  1.00  0.00     0.031 C 
ATOM     44  C   UNL     1      -3.133   7.971   5.747  1.00  0.00     0.029 A 
ATOM     45  N   UNL     1      -2.581   9.848   6.833  1.00  0.00    -0.354 N 
ATOM     46  C   UNL     1       1.247  11.771   6.119  1.00  0.00     0.074 A 
ATOM     47  C   UNL     1       2.042  11.010   5.180  1.00  0.00     0.031 C 
ATOM     48  C   UNL     1      -4.172   8.305   6.531  1.00  0.00     0.029 A 
ATOM     49  C   UNL     1      -3.842   9.521   7.271  1.00  0.00     0.049 A 
ATOM     50  H   UNL     1      -2.091  10.642   7.146  1.00  0.00     0.167 HD
ATOM     51  C   UNL     1       1.635  12.942   6.676  1.00  0.00     0.037 A 
ATOM     52  C   UNL     1      -4.633  10.133   8.173  1.00  0.00     0.037 A 
ATOM     53  C   UNL     1       0.835  13.692   7.610  1.00  0.00     0.049 A 
ATOM     54  C   UNL     1      -4.154  11.407   8.818  1.00  0.00     0.074 A 
ATOM     55  C   UNL     1       1.133  14.893   8.230  1.00  0.00     0.029 A 
ATOM     56  N   UNL     1      -0.420  13.311   8.060  1.00  0.00    -0.354 N 
ATOM     57  N   UNL     1      -3.031  12.059   8.623  1.00  0.00    -0.248 NA
ATOM     58  C   UNL     1      -5.052  12.034   9.796  1.00  0.00     0.031 C 
ATOM     59  C   UNL     1       0.074  15.216   9.086  1.00  0.00     0.029 A 
ATOM     60  C   UNL     1      -0.903  14.241   8.965  1.00  0.00     0.049 A 
ATOM     61  H   UNL     1      -0.898  12.498   7.777  1.00  0.00     0.167 HD
ATOM     62  C   UNL     1      -3.098  13.182   9.441  1.00  0.00     0.074 A 
ATOM     63  C   UNL     1      -4.380  13.132  10.112  1.00  0.00     0.031 C 
ATOM     64  C   UNL     1      -2.182  14.166   9.624  1.00  0.00     0.037 A 
BRANCH  51  65
ATOM     65  C   UNL     1       2.987  13.482   6.301  1.00  0.00     0.058 A 
ATOM     66  C   UNL     1       3.230  14.045   5.038  1.00  0.00     0.135 A 
ATOM     67  C   UNL     1       4.039  13.484   7.231  1.00  0.00     0.135 A 
ATOM     68  F   UNL     1       2.266  14.050   4.103  1.00  0.00    -0.206 F 
ATOM     69  C   UNL     1       4.471  14.580   4.706  1.00  0.00     0.059 A 
ATOM     70  C   UNL     1       5.281  14.034   6.929  1.00  0.00     0.059 A 
ATOM     71  F   UNL     1       3.862  12.951   8.451  1.00  0.00    -0.206 F 
ATOM     72  C   UNL     1       5.489  14.573   5.660  1.00  0.00     0.060 A 
BRANCH  72  73
ATOM     73  S   UNL     1       7.085  15.297   5.224  1.00  0.00     0.124 S 
ATOM     74  O   UNL     1       7.617  14.296   4.304  1.00  0.00    -0.237 OA
ATOM     75  O   UNL     1       6.697  16.568   4.622  1.00  0.00    -0.237 OA
ATOM     76  O   UNL     1       7.775  15.398   6.506  1.00  0.00    -0.744 OA
ENDBRANCH  72  73
ENDBRANCH  51  65
BRANCH  52  77
ATOM     77  C   UNL     1      -5.952   9.547   8.531  1.00  0.00     0.058 A 
ATOM     78  C   UNL     1      -7.152  10.185   8.184  1.00  0.00     0.135 A 
ATOM     79  C   UNL     1      -6.035   8.344   9.249  1.00  0.00     0.135 A 
ATOM     80  F   UNL     1      -7.125  11.341   7.503  1.00  0.00    -0.206 F 
ATOM     81  C   UNL     1      -8.388   9.665   8.558  1.00  0.00     0.059 A 
ATOM     82  C   UNL     1      -7.259   7.791   9.611  1.00  0.00     0.059 A 
ATOM     83  F   UNL     1      -4.917   7.686   9.592  1.00  0.00    -0.206 F 
ATOM     84  C   UNL     1      -8.430   8.468   9.275  1.00  0.00     0.060 A 
BRANCH  84  85
ATOM     85  S   UNL     1     -10.037   7.784   9.735  1.00  0.00     0.124 S 
ATOM     86  O   UNL     1     -10.419   8.654  10.841  1.00  0.00    -0.237 OA
ATOM     87  O   UNL     1     -10.803   7.941   8.502  1.00  0.00    -0.237 OA
ATOM     88  O   UNL     1      -9.721   6.405  10.094  1.00  0.00    -0.744 OA
ENDBRANCH  84  85
ENDBRANCH  52  77
BRANCH  64  89
ATOM     89  C   UNL     1      -2.550  15.271  10.575  1.00  0.00     0.058 A 
ATOM     90  C   UNL     1      -2.596  15.062  11.963  1.00  0.00     0.135 A 
ATOM     91  C   UNL     1      -2.846  16.557  10.095  1.00  0.00     0.135 A 
ATOM     92  F   UNL     1      -2.325  13.850  12.472  1.00  0.00    -0.206 F 
ATOM     93  C   UNL     1      -2.965  16.078  12.838  1.00  0.00     0.059 A 
ATOM     94  C   UNL     1      -3.189  17.595  10.954  1.00  0.00     0.059 A 
ATOM     95  F   UNL     1      -2.803  16.814   8.778  1.00  0.00    -0.206 F 
ATOM     96  C   UNL     1      -3.266  17.340  12.323  1.00  0.00     0.060 A 
BRANCH  96  97
ATOM     97  S   UNL     1      -3.747  18.650  13.467  1.00  0.00     0.124 S 
ATOM     98  O   UNL     1      -5.121  18.274  13.781  1.00  0.00    -0.237 OA
ATOM     99  O   UNL     1      -2.783  18.491  14.552  1.00  0.00    -0.237 OA
ATOM    100  O   UNL     1      -3.593  19.866  12.674  1.00  0.00    -0.744 OA
ENDBRANCH  96  97
ENDBRANCH  64  89
ENDBRANCH  38  39
ENDBRANCH  31  33
ENDBRANCH  30  31
ENDBRANCH  29  30
ENDBRANCH  28  29
ENDBRANCH   1  28
TORSDOF 21
