REMARK SMILES COc1cc2c(cc1OC)[C@H](C(=O)OCCOCCOC(=O)c1ccc(-c3c4nc(c(-c5c(F)cc(S(=O)(=O)[O-])cc5F)c5ccc([nH]5)c(-c5c(F)cc(S(=O)(=O)[O-])cc5F)c5nc(c(-c6c(F)cc(S(=O)(=O)[O-])cc6F)c6ccc3[nH]6)C=C5)C=C4)cc1)[C@H](c1cccs1)N(C)C2=O
REMARK SMILES IDX 18 1 17 2 16 3 15 4 14 5 12 6 13 7 11 8 3 9 4 10 8 11 5 12
REMARK SMILES IDX 7 13 6 14 97 15 95 16 98 17 89 18 96 19 2 20 1 21 9 22 10 23
REMARK SMILES IDX 90 24 91 25 94 26 92 27 93 28 19 29 20 30 21 31 22 32 23 33
REMARK SMILES IDX 24 34 88 35 25 36 87 37 26 38 27 39 28 40 81 41 29 42 86 43
REMARK SMILES IDX 80 44 82 45 30 46 85 47 79 48 78 49 31 51 65 52 44 53 64 54
REMARK SMILES IDX 45 55 48 56 63 57 83 58 46 59 47 60 62 62 84 63 49 64 32 65
REMARK SMILES IDX 33 66 42 67 34 68 35 69 41 70 43 71 36 72 37 73 38 74 39 75
REMARK SMILES IDX 40 76 66 77 67 78 76 79 68 80 69 81 75 82 77 83 70 84 71 85
REMARK SMILES IDX 72 86 73 87 74 88 50 89 51 90 60 91 52 92 53 93 59 94 61 95
REMARK SMILES IDX 54 96 55 97 56 98 57 99 58 100
REMARK H PARENT 82 50 48 61
REMARK Flexibility Score: inf
ROOT
ATOM      1  C   UNL     1       2.379   6.513  -7.397  1.00  0.00     0.202 C 
ENDROOT
BRANCH   1   2
ATOM      2  O   UNL     1       1.390   5.954  -8.259  1.00  0.00    -0.374 OA
BRANCH   2   3
ATOM      3  C   UNL     1       0.016   6.130  -7.924  1.00  0.00     0.202 C 
BRANCH   3   4
ATOM      4  C   UNL     1      -0.546   5.348  -6.733  1.00  0.00     0.261 C 
BRANCH   4   5
ATOM      5  O   UNL     1       0.320   5.372  -5.591  1.00  0.00    -0.463 OA
BRANCH   5   6
ATOM      6  C   UNL     1       0.950   4.189  -5.336  1.00  0.00     0.316 C 
ATOM      7  O   UNL     1       0.764   3.160  -5.972  1.00  0.00    -0.251 OA
BRANCH   6   8
ATOM      8  C   UNL     1       1.860   4.307  -4.121  1.00  0.00     0.158 C 
ATOM      9  C   UNL     1       0.888   1.141  -1.370  1.00  0.00     0.161 A 
ATOM     10  C   UNL     1       2.183   1.691  -1.390  1.00  0.00     0.064 A 
ATOM     11  C   UNL     1      -0.131   1.743  -2.117  1.00  0.00     0.161 A 
ATOM     12  C   UNL     1       2.481   2.782  -2.214  1.00  0.00     0.048 A 
ATOM     13  C   UNL     1       0.180   2.837  -2.924  1.00  0.00     0.056 A 
ATOM     14  C   UNL     1       1.496   3.296  -3.059  1.00  0.00    -0.015 A 
ATOM     15  C   UNL     1       3.849   3.381  -2.204  1.00  0.00     0.254 C 
ATOM     16  N   UNL     1       4.193   4.181  -3.296  1.00  0.00    -0.333 N 
ATOM     17  O   UNL     1       4.601   3.168  -1.258  1.00  0.00    -0.269 OA
ATOM     18  C   UNL     1       3.357   4.189  -4.509  1.00  0.00     0.144 C 
ATOM     19  C   UNL     1       5.516   4.779  -3.343  1.00  0.00     0.147 C 
BRANCH   9  20
ATOM     20  O   UNL     1       0.631  -0.033  -0.716  1.00  0.00    -0.493 OA
ATOM     21  C   UNL     1       1.145  -0.100   0.607  1.00  0.00     0.278 C 
ENDBRANCH   9  20
BRANCH  11  22
ATOM     22  O   UNL     1      -1.455   1.419  -2.208  1.00  0.00    -0.493 OA
ATOM     23  C   UNL     1      -1.919   0.234  -1.589  1.00  0.00     0.278 C 
ENDBRANCH  11  22
BRANCH  18  24
ATOM     24  C   UNL     1       3.728   3.032  -5.447  1.00  0.00     0.028 A 
ATOM     25  C   UNL     1       3.560   2.989  -6.825  1.00  0.00     0.017 A 
ATOM     26  S   UNL     1       4.439   1.560  -4.903  1.00  0.00    -0.147 S 
ATOM     27  C   UNL     1       3.943   1.746  -7.404  1.00  0.00     0.012 A 
ATOM     28  C   UNL     1       4.455   0.884  -6.467  1.00  0.00     0.065 A 
ENDBRANCH  18  24
ENDBRANCH   6   8
ENDBRANCH   5   6
ENDBRANCH   4   5
ENDBRANCH   3   4
ENDBRANCH   2   3
ENDBRANCH   1   2
BRANCH   1  29
ATOM     29  C   UNL     1       2.512   8.033  -7.281  1.00  0.00     0.261 C 
BRANCH  29  30
ATOM     30  O   UNL     1       1.352   8.645  -6.703  1.00  0.00    -0.460 OA
BRANCH  30  31
ATOM     31  C   UNL     1       0.652   9.422  -7.562  1.00  0.00     0.338 C 
ATOM     32  O   UNL     1       0.930   9.665  -8.730  1.00  0.00    -0.246 OA
BRANCH  31  33
ATOM     33  C   UNL     1      -0.637   9.797  -6.964  1.00  0.00     0.060 A 
ATOM     34  C   UNL     1      -1.796   9.508  -7.696  1.00  0.00     0.016 A 
ATOM     35  C   UNL     1      -0.705  10.494  -5.756  1.00  0.00     0.016 A 
ATOM     36  C   UNL     1      -3.029   9.970  -7.252  1.00  0.00     0.010 A 
ATOM     37  C   UNL     1      -1.942  10.970  -5.319  1.00  0.00     0.010 A 
ATOM     38  C   UNL     1      -3.098  10.746  -6.088  1.00  0.00    -0.014 A 
BRANCH  38  39
ATOM     39  C   UNL     1      -4.352  11.468  -5.782  1.00  0.00     0.031 A 
ATOM     40  C   UNL     1      -4.468  12.910  -6.190  1.00  0.00     0.074 A 
ATOM     41  C   UNL     1      -5.374  10.834  -5.182  1.00  0.00     0.049 A 
ATOM     42  N   UNL     1      -5.455  13.746  -6.004  1.00  0.00    -0.248 NA
ATOM     43  C   UNL     1      -3.316  13.489  -6.903  1.00  0.00     0.031 C 
ATOM     44  C   UNL     1      -5.374   9.430  -4.775  1.00  0.00     0.029 A 
ATOM     45  N   UNL     1      -6.607  11.296  -4.803  1.00  0.00    -0.354 N 
ATOM     46  C   UNL     1      -5.040  14.950  -6.562  1.00  0.00     0.074 A 
ATOM     47  C   UNL     1      -3.704  14.743  -7.076  1.00  0.00     0.031 C 
ATOM     48  C   UNL     1      -6.548   9.148  -4.183  1.00  0.00     0.029 A 
ATOM     49  C   UNL     1      -7.367  10.358  -4.147  1.00  0.00     0.049 A 
ATOM     50  H   UNL     1      -6.919  12.213  -4.983  1.00  0.00     0.167 HD
ATOM     51  C   UNL     1      -5.718  16.118  -6.644  1.00  0.00     0.037 A 
ATOM     52  C   UNL     1      -8.576  10.475  -3.564  1.00  0.00     0.037 A 
ATOM     53  C   UNL     1      -7.052  16.305  -6.137  1.00  0.00     0.049 A 
ATOM     54  C   UNL     1      -9.295  11.796  -3.634  1.00  0.00     0.074 A 
ATOM     55  C   UNL     1      -7.843  17.438  -6.194  1.00  0.00     0.029 A 
ATOM     56  N   UNL     1      -7.788  15.335  -5.472  1.00  0.00    -0.354 N 
ATOM     57  N   UNL     1      -8.906  12.918  -4.194  1.00  0.00    -0.248 NA
ATOM     58  C   UNL     1     -10.618  11.868  -3.000  1.00  0.00     0.031 C 
ATOM     59  C   UNL     1      -9.041  17.167  -5.524  1.00  0.00     0.029 A 
ATOM     60  C   UNL     1      -9.015  15.850  -5.093  1.00  0.00     0.049 A 
ATOM     61  H   UNL     1      -7.482  14.415  -5.297  1.00  0.00     0.167 HD
ATOM     62  C   UNL     1      -9.946  13.821  -4.001  1.00  0.00     0.074 A 
ATOM     63  C   UNL     1     -10.985  13.111  -3.283  1.00  0.00     0.031 C 
ATOM     64  C   UNL     1     -10.037  15.120  -4.384  1.00  0.00     0.037 A 
BRANCH  51  65
ATOM     65  C   UNL     1      -5.023  17.289  -7.278  1.00  0.00     0.058 A 
ATOM     66  C   UNL     1      -4.805  17.360  -8.663  1.00  0.00     0.135 A 
ATOM     67  C   UNL     1      -4.603  18.375  -6.492  1.00  0.00     0.135 A 
ATOM     68  F   UNL     1      -5.167  16.340  -9.458  1.00  0.00    -0.206 F 
ATOM     69  C   UNL     1      -4.181  18.460  -9.245  1.00  0.00     0.059 A 
ATOM     70  C   UNL     1      -4.000  19.495  -7.056  1.00  0.00     0.059 A 
ATOM     71  F   UNL     1      -4.780  18.354  -5.162  1.00  0.00    -0.206 F 
ATOM     72  C   UNL     1      -3.784  19.523  -8.432  1.00  0.00     0.060 A 
BRANCH  72  73
ATOM     73  S   UNL     1      -2.993  20.951  -9.204  1.00  0.00     0.124 S 
ATOM     74  O   UNL     1      -1.676  20.413  -9.530  1.00  0.00    -0.237 OA
ATOM     75  O   UNL     1      -3.868  21.216 -10.341  1.00  0.00    -0.237 OA
ATOM     76  O   UNL     1      -3.015  21.962  -8.152  1.00  0.00    -0.744 OA
ENDBRANCH  72  73
ENDBRANCH  51  65
BRANCH  52  77
ATOM     77  C   UNL     1      -9.170   9.315  -2.850  1.00  0.00     0.058 A 
ATOM     78  C   UNL     1     -10.296   8.647  -3.353  1.00  0.00     0.135 A 
ATOM     79  C   UNL     1      -8.618   8.849  -1.646  1.00  0.00     0.135 A 
ATOM     80  F   UNL     1     -10.864   9.059  -4.496  1.00  0.00    -0.206 F 
ATOM     81  C   UNL     1     -10.865   7.570  -2.680  1.00  0.00     0.059 A 
ATOM     82  C   UNL     1      -9.153   7.758  -0.968  1.00  0.00     0.059 A 
ATOM     83  F   UNL     1      -7.532   9.445  -1.129  1.00  0.00    -0.206 F 
ATOM     84  C   UNL     1     -10.284   7.132  -1.488  1.00  0.00     0.060 A 
BRANCH  84  85
ATOM     85  S   UNL     1     -11.004   5.707  -0.644  1.00  0.00     0.124 S 
ATOM     86  O   UNL     1     -12.210   6.287  -0.067  1.00  0.00    -0.237 OA
ATOM     87  O   UNL     1     -11.208   4.769  -1.744  1.00  0.00    -0.237 OA
ATOM     88  O   UNL     1      -9.966   5.325   0.310  1.00  0.00    -0.744 OA
ENDBRANCH  84  85
ENDBRANCH  52  77
BRANCH  64  89
ATOM     89  C   UNL     1     -11.312  15.847  -4.063  1.00  0.00     0.058 A 
ATOM     90  C   UNL     1     -11.619  16.257  -2.757  1.00  0.00     0.135 A 
ATOM     91  C   UNL     1     -12.210  16.188  -5.088  1.00  0.00     0.135 A 
ATOM     92  F   UNL     1     -10.795  15.952  -1.742  1.00  0.00    -0.206 F 
ATOM     93  C   UNL     1     -12.785  16.960  -2.473  1.00  0.00     0.059 A 
ATOM     94  C   UNL     1     -13.369  16.913  -4.830  1.00  0.00     0.059 A 
ATOM     95  F   UNL     1     -11.957  15.830  -6.356  1.00  0.00    -0.206 F 
ATOM     96  C   UNL     1     -13.653  17.284  -3.517  1.00  0.00     0.060 A 
BRANCH  96  97
ATOM     97  S   UNL     1     -15.148  18.225  -3.140  1.00  0.00     0.124 S 
ATOM     98  O   UNL     1     -15.987  17.205  -2.521  1.00  0.00    -0.237 OA
ATOM     99  O   UNL     1     -14.647  19.264  -2.246  1.00  0.00    -0.237 OA
ATOM    100  O   UNL     1     -15.592  18.694  -4.449  1.00  0.00    -0.744 OA
ENDBRANCH  96  97
ENDBRANCH  64  89
ENDBRANCH  38  39
ENDBRANCH  31  33
ENDBRANCH  30  31
ENDBRANCH  29  30
ENDBRANCH   1  29
TORSDOF 20
