REMARK SMILES CS(=O)(=O)c1ccc(N2N=C(C(=O)OCCOCCOC(=O)c3ccc(-c4c5nc(c(-c6c(F)cc(S(=O)(=O)[O-])cc6F)c6ccc([nH]6)c(-c6c(F)cc(S(=O)(=O)[O-])cc6F)c6nc(c(-c7c(F)cc(S(=O)(=O)[O-])cc7F)c7ccc4[nH]7)C=C6)C=C5)cc3)C[C@H]2c2cccs2)cc1
REMARK SMILES IDX 18 1 17 2 16 3 15 4 14 5 12 6 13 7 11 8 9 9 10 10 90 11
REMARK SMILES IDX 89 12 8 13 5 14 6 15 97 16 7 17 96 18 2 19 1 20 3 21 4 22
REMARK SMILES IDX 91 23 92 24 95 25 93 26 94 27 19 28 20 29 21 30 22 31 23 32
REMARK SMILES IDX 24 33 88 34 25 35 87 36 26 37 27 38 28 39 81 40 29 41 86 42
REMARK SMILES IDX 80 43 82 44 30 45 85 46 79 47 78 48 31 50 65 51 44 52 64 53
REMARK SMILES IDX 45 54 48 55 63 56 83 57 46 58 47 59 62 61 84 62 49 63 32 64
REMARK SMILES IDX 33 65 42 66 34 67 35 68 41 69 43 70 36 71 37 72 38 73 39 74
REMARK SMILES IDX 40 75 66 76 67 77 76 78 68 79 69 80 75 81 77 82 70 83 71 84
REMARK SMILES IDX 72 85 73 86 74 87 50 88 51 89 60 90 52 91 53 92 59 93 61 94
REMARK SMILES IDX 54 95 55 96 56 97 57 98 58 99
REMARK H PARENT 82 49 48 60
REMARK Flexibility Score: inf
ROOT
ATOM      1  C   UNL     1      -0.695  -9.425  -5.087  1.00  0.00     0.202 C 
ENDROOT
BRANCH   1   2
ATOM      2  O   UNL     1      -1.266  -9.415  -6.400  1.00  0.00    -0.374 OA
BRANCH   2   3
ATOM      3  C   UNL     1      -0.375  -9.728  -7.477  1.00  0.00     0.202 C 
BRANCH   3   4
ATOM      4  C   UNL     1       0.382  -8.506  -7.997  1.00  0.00     0.261 C 
BRANCH   4   5
ATOM      5  O   UNL     1       1.295  -8.076  -6.977  1.00  0.00    -0.459 OA
BRANCH   5   6
ATOM      6  C   UNL     1       1.339  -6.747  -6.777  1.00  0.00     0.354 C 
ATOM      7  O   UNL     1       0.931  -5.861  -7.502  1.00  0.00    -0.245 OA
BRANCH   6   8
ATOM      8  C   UNL     1       1.856  -6.498  -5.387  1.00  0.00     0.148 C 
ATOM      9  N   UNL     1       2.039  -5.695  -3.438  1.00  0.00    -0.256 N 
ATOM     10  N   UNL     1       1.271  -5.680  -4.566  1.00  0.00    -0.169 NA
ATOM     11  C   UNL     1       3.365  -6.290  -3.687  1.00  0.00     0.154 C 
ATOM     12  C   UNL     1       3.026  -7.253  -4.837  1.00  0.00     0.099 C 
BRANCH   9  13
ATOM     13  C   UNL     1       1.773  -4.740  -2.470  1.00  0.00     0.060 A 
ATOM     14  C   UNL     1       1.043  -2.790  -0.585  1.00  0.00     0.067 A 
ATOM     15  C   UNL     1       0.672  -4.123  -0.389  1.00  0.00     0.022 A 
ATOM     16  C   UNL     1       1.783  -2.423  -1.707  1.00  0.00     0.022 A 
ATOM     17  C   UNL     1       1.041  -5.089  -1.328  1.00  0.00     0.029 A 
ATOM     18  C   UNL     1       2.132  -3.397  -2.646  1.00  0.00     0.029 A 
BRANCH  14  19
ATOM     19  S   UNL     1       0.494  -1.601   0.613  1.00  0.00     0.175 S 
ATOM     20  C   UNL     1       0.961   0.000   0.018  1.00  0.00     0.163 C 
ATOM     21  O   UNL     1       1.253  -1.851   1.824  1.00  0.00    -0.224 OA
ATOM     22  O   UNL     1      -0.956  -1.649   0.617  1.00  0.00    -0.224 OA
ENDBRANCH  14  19
ENDBRANCH   9  13
BRANCH  11  23
ATOM     23  C   UNL     1       4.495  -5.322  -4.017  1.00  0.00     0.030 A 
ATOM     24  C   UNL     1       5.360  -4.714  -3.121  1.00  0.00     0.017 A 
ATOM     25  S   UNL     1       4.826  -4.796  -5.623  1.00  0.00    -0.147 S 
ATOM     26  C   UNL     1       6.301  -3.853  -3.757  1.00  0.00     0.012 A 
ATOM     27  C   UNL     1       6.137  -3.830  -5.122  1.00  0.00     0.065 A 
ENDBRANCH  11  23
ENDBRANCH   6   8
ENDBRANCH   5   6
ENDBRANCH   4   5
ENDBRANCH   3   4
ENDBRANCH   2   3
ENDBRANCH   1   2
BRANCH   1  28
ATOM     28  C   UNL     1      -0.672 -10.809  -4.431  1.00  0.00     0.261 C 
BRANCH  28  29
ATOM     29  O   UNL     1       0.329 -11.644  -5.043  1.00  0.00    -0.460 OA
BRANCH  29  30
ATOM     30  C   UNL     1      -0.150 -12.689  -5.762  1.00  0.00     0.338 C 
ATOM     31  O   UNL     1      -1.310 -13.057  -5.840  1.00  0.00    -0.246 OA
BRANCH  30  32
ATOM     32  C   UNL     1       0.927 -13.239  -6.614  1.00  0.00     0.060 A 
ATOM     33  C   UNL     1       0.616 -13.506  -7.953  1.00  0.00     0.016 A 
ATOM     34  C   UNL     1       2.207 -13.508  -6.119  1.00  0.00     0.016 A 
ATOM     35  C   UNL     1       1.575 -14.066  -8.796  1.00  0.00     0.010 A 
ATOM     36  C   UNL     1       3.164 -14.082  -6.963  1.00  0.00     0.010 A 
ATOM     37  C   UNL     1       2.846 -14.382  -8.299  1.00  0.00    -0.014 A 
BRANCH  37  38
ATOM     38  C   UNL     1       3.810 -15.111  -9.156  1.00  0.00     0.031 A 
ATOM     39  C   UNL     1       3.891 -16.609  -9.067  1.00  0.00     0.074 A 
ATOM     40  C   UNL     1       4.607 -14.443 -10.008  1.00  0.00     0.049 A 
ATOM     41  N   UNL     1       4.671 -17.434  -9.715  1.00  0.00    -0.248 NA
ATOM     42  C   UNL     1       2.973 -17.260  -8.120  1.00  0.00     0.031 C 
ATOM     43  C   UNL     1       4.618 -12.992 -10.191  1.00  0.00     0.029 A 
ATOM     44  N   UNL     1       5.576 -14.899 -10.866  1.00  0.00    -0.354 N 
ATOM     45  C   UNL     1       4.341 -18.703  -9.257  1.00  0.00     0.074 A 
ATOM     46  C   UNL     1       3.305 -18.536  -8.259  1.00  0.00     0.031 C 
ATOM     47  C   UNL     1       5.569 -12.674 -11.086  1.00  0.00     0.029 A 
ATOM     48  C   UNL     1       6.243 -13.896 -11.524  1.00  0.00     0.049 A 
ATOM     49  H   UNL     1       5.773 -15.855 -10.997  1.00  0.00     0.167 HD
ATOM     50  C   UNL     1       4.851 -19.899  -9.637  1.00  0.00     0.037 A 
ATOM     51  C   UNL     1       7.294 -13.953 -12.366  1.00  0.00     0.037 A 
ATOM     52  C   UNL     1       5.881 -20.066 -10.627  1.00  0.00     0.049 A 
ATOM     53  C   UNL     1       7.880 -15.287 -12.738  1.00  0.00     0.074 A 
ATOM     54  C   UNL     1       6.416 -21.241 -11.124  1.00  0.00     0.029 A 
ATOM     55  N   UNL     1       6.548 -19.025 -11.255  1.00  0.00    -0.354 N 
ATOM     56  N   UNL     1       7.513 -16.484 -12.346  1.00  0.00    -0.248 NA
ATOM     57  C   UNL     1       9.019 -15.280 -13.667  1.00  0.00     0.031 C 
ATOM     58  C   UNL     1       7.437 -20.910 -12.025  1.00  0.00     0.029 A 
ATOM     59  C   UNL     1       7.515 -19.529 -12.110  1.00  0.00     0.049 A 
ATOM     60  H   UNL     1       6.362 -18.069 -11.115  1.00  0.00     0.167 HD
ATOM     61  C   UNL     1       8.373 -17.372 -12.982  1.00  0.00     0.074 A 
ATOM     62  C   UNL     1       9.270 -16.576 -13.796  1.00  0.00     0.031 C 
ATOM     63  C   UNL     1       8.414 -18.725 -12.899  1.00  0.00     0.037 A 
BRANCH  50  64
ATOM     64  C   UNL     1       4.308 -21.119  -8.955  1.00  0.00     0.058 A 
ATOM     65  C   UNL     1       3.043 -21.638  -9.274  1.00  0.00     0.135 A 
ATOM     66  C   UNL     1       5.059 -21.776  -7.969  1.00  0.00     0.135 A 
ATOM     67  F   UNL     1       2.280 -21.035 -10.199  1.00  0.00    -0.206 F 
ATOM     68  C   UNL     1       2.528 -22.749  -8.616  1.00  0.00     0.059 A 
ATOM     69  C   UNL     1       4.571 -22.900  -7.309  1.00  0.00     0.059 A 
ATOM     70  F   UNL     1       6.273 -21.316  -7.626  1.00  0.00    -0.206 F 
ATOM     71  C   UNL     1       3.296 -23.367  -7.627  1.00  0.00     0.060 A 
BRANCH  71  72
ATOM     72  S   UNL     1       2.609 -24.791  -6.756  1.00  0.00     0.124 S 
ATOM     73  O   UNL     1       1.708 -24.142  -5.808  1.00  0.00    -0.237 OA
ATOM     74  O   UNL     1       1.965 -25.540  -7.830  1.00  0.00    -0.237 OA
ATOM     75  O   UNL     1       3.785 -25.428  -6.171  1.00  0.00    -0.744 OA
ENDBRANCH  71  72
ENDBRANCH  50  64
BRANCH  51  76
ATOM     76  C   UNL     1       7.876 -12.691 -12.887  1.00  0.00     0.058 A 
ATOM     77  C   UNL     1       7.644 -12.273 -14.204  1.00  0.00     0.135 A 
ATOM     78  C   UNL     1       8.639 -11.857 -12.055  1.00  0.00     0.135 A 
ATOM     79  F   UNL     1       6.928 -13.043 -15.036  1.00  0.00    -0.206 F 
ATOM     80  C   UNL     1       8.142 -11.064 -14.679  1.00  0.00     0.059 A 
ATOM     81  C   UNL     1       9.135 -10.638 -12.502  1.00  0.00     0.059 A 
ATOM     82  F   UNL     1       8.879 -12.214 -10.784  1.00  0.00    -0.206 F 
ATOM     83  C   UNL     1       8.881 -10.250 -13.817  1.00  0.00     0.060 A 
BRANCH  83  84
ATOM     84  S   UNL     1       9.445  -8.638 -14.407  1.00  0.00     0.124 S 
ATOM     85  O   UNL     1      10.617  -9.007 -15.193  1.00  0.00    -0.237 OA
ATOM     86  O   UNL     1       8.291  -8.164 -15.164  1.00  0.00    -0.237 OA
ATOM     87  O   UNL     1       9.714  -7.909 -13.171  1.00  0.00    -0.744 OA
ENDBRANCH  83  84
ENDBRANCH  51  76
BRANCH  63  88
ATOM     88  C   UNL     1       9.468 -19.435 -13.700  1.00  0.00     0.058 A 
ATOM     89  C   UNL     1      10.803 -19.473 -13.272  1.00  0.00     0.135 A 
ATOM     90  C   UNL     1       9.132 -20.130 -14.872  1.00  0.00     0.135 A 
ATOM     91  F   UNL     1      11.175 -18.817 -12.162  1.00  0.00    -0.206 F 
ATOM     92  C   UNL     1      11.775 -20.167 -13.986  1.00  0.00     0.059 A 
ATOM     93  C   UNL     1      10.083 -20.846 -15.592  1.00  0.00     0.059 A 
ATOM     94  F   UNL     1       7.866 -20.130 -15.318  1.00  0.00    -0.206 F 
ATOM     95  C   UNL     1      11.405 -20.851 -15.146  1.00  0.00     0.060 A 
BRANCH  95  96
ATOM     96  S   UNL     1      12.662 -21.786 -16.044  1.00  0.00     0.124 S 
ATOM     97  O   UNL     1      13.347 -20.726 -16.777  1.00  0.00    -0.237 OA
ATOM     98  O   UNL     1      13.426 -22.408 -14.967  1.00  0.00    -0.237 OA
ATOM     99  O   UNL     1      11.877 -22.709 -16.859  1.00  0.00    -0.744 OA
ENDBRANCH  95  96
ENDBRANCH  63  88
ENDBRANCH  37  38
ENDBRANCH  30  32
ENDBRANCH  29  30
ENDBRANCH  28  29
ENDBRANCH   1  28
TORSDOF 20
