REMARK SMILES CC1(C)CCC[C@@H]1NC(=O)CC1(C(=O)OCCOCCOC(=O)c2ccc(-c3c4nc(c(-c5c(F)cc(S(=O)(=O)[O-])cc5F)c5ccc([nH]5)c(-c5c(F)cc(S(=O)(=O)[O-])cc5F)c5nc(c(-c6c(F)cc(S(=O)(=O)[O-])cc6F)c6ccc3[nH]6)C=C5)C=C4)cc2)CCCCC1
REMARK SMILES IDX 18 1 17 2 16 3 15 4 13 5 14 6 12 7 90 8 94 9 91 10 93 11
REMARK SMILES IDX 92 12 11 13 9 14 8 15 10 17 7 18 1 19 2 20 3 21 4 22 5 23
REMARK SMILES IDX 6 24 19 25 20 26 21 27 22 28 23 29 24 30 25 31 89 32 26 33
REMARK SMILES IDX 88 34 27 35 28 36 29 37 82 38 30 39 87 40 81 41 83 42 31 43
REMARK SMILES IDX 86 44 80 45 79 46 32 48 66 49 45 50 65 51 46 52 49 53 64 54
REMARK SMILES IDX 84 55 47 56 48 57 63 59 85 60 50 61 33 62 34 63 43 64 35 65
REMARK SMILES IDX 36 66 42 67 44 68 37 69 38 70 39 71 40 72 41 73 67 74 68 75
REMARK SMILES IDX 77 76 69 77 70 78 76 79 78 80 71 81 72 82 73 83 74 84 75 85
REMARK SMILES IDX 51 86 52 87 61 88 53 89 54 90 60 91 62 92 55 93 56 94 57 95
REMARK SMILES IDX 58 96 59 97
REMARK H PARENT 8 16 83 47 49 58
REMARK Flexibility Score: inf
ROOT
ATOM      1  O   UNL     1      -2.541   1.238   4.809  1.00  0.00    -0.374 OA
ENDROOT
BRANCH   1   2
ATOM      2  C   UNL     1      -3.947   1.288   4.560  1.00  0.00     0.202 C 
BRANCH   2   3
ATOM      3  C   UNL     1      -4.444   2.539   3.829  1.00  0.00     0.261 C 
BRANCH   3   4
ATOM      4  O   UNL     1      -3.958   2.612   2.478  1.00  0.00    -0.463 OA
BRANCH   4   5
ATOM      5  C   UNL     1      -3.191   3.688   2.160  1.00  0.00     0.312 C 
ATOM      6  O   UNL     1      -2.852   4.555   2.959  1.00  0.00    -0.252 OA
BRANCH   5   7
ATOM      7  C   UNL     1      -2.745   3.699   0.685  1.00  0.00     0.077 C 
ATOM      8  C   UNL     1      -3.303   5.002   0.064  1.00  0.00     0.019 C 
ATOM      9  C   UNL     1      -3.239   2.482  -0.118  1.00  0.00     0.019 C 
ATOM     10  C   UNL     1      -4.819   4.937  -0.157  1.00  0.00     0.001 C 
ATOM     11  C   UNL     1      -4.721   2.453  -0.480  1.00  0.00     0.001 C 
ATOM     12  C   UNL     1      -5.192   3.774  -1.065  1.00  0.00     0.000 C 
BRANCH   7  13
ATOM     13  C   UNL     1      -1.186   3.701   0.753  1.00  0.00     0.118 C 
BRANCH  13  14
ATOM     14  C   UNL     1      -0.443   3.499  -0.556  1.00  0.00     0.221 C 
ATOM     15  N   UNL     1       0.039   2.279  -0.930  1.00  0.00    -0.353 N 
ATOM     16  H   UNL     1       0.593   2.305  -1.744  1.00  0.00     0.163 HD
ATOM     17  O   UNL     1      -0.241   4.451  -1.314  1.00  0.00    -0.275 OA
BRANCH  15  18
ATOM     18  C   UNL     1      -0.105   0.941  -0.360  1.00  0.00     0.087 C 
ATOM     19  C   UNL     1       2.203   0.450   0.653  1.00  0.00     0.013 C 
ATOM     20  C   UNL     1       1.184   0.074  -0.425  1.00  0.00    -0.015 C 
ATOM     21  C   UNL     1       1.880   0.101  -1.802  1.00  0.00     0.013 C 
ATOM     22  C   UNL     1       0.618  -1.336  -0.168  1.00  0.00     0.008 C 
ATOM     23  C   UNL     1      -0.725  -1.373  -0.888  1.00  0.00     0.003 C 
ATOM     24  C   UNL     1      -1.114   0.080  -1.140  1.00  0.00     0.025 C 
ENDBRANCH  15  18
ENDBRANCH  13  14
ENDBRANCH   7  13
ENDBRANCH   5   7
ENDBRANCH   4   5
ENDBRANCH   3   4
ENDBRANCH   2   3
ENDBRANCH   1   2
BRANCH   1  25
ATOM     25  C   UNL     1      -1.695   0.924   3.702  1.00  0.00     0.202 C 
BRANCH  25  26
ATOM     26  C   UNL     1      -1.819  -0.505   3.178  1.00  0.00     0.261 C 
BRANCH  26  27
ATOM     27  O   UNL     1      -3.069  -0.680   2.494  1.00  0.00    -0.460 OA
BRANCH  27  28
ATOM     28  C   UNL     1      -3.408  -1.976   2.321  1.00  0.00     0.338 C 
ATOM     29  O   UNL     1      -2.683  -2.949   2.462  1.00  0.00    -0.246 OA
BRANCH  28  30
ATOM     30  C   UNL     1      -4.848  -2.064   2.041  1.00  0.00     0.060 A 
ATOM     31  C   UNL     1      -5.740  -2.124   3.117  1.00  0.00     0.016 A 
ATOM     32  C   UNL     1      -5.298  -2.213   0.729  1.00  0.00     0.016 A 
ATOM     33  C   UNL     1      -7.091  -2.385   2.880  1.00  0.00     0.010 A 
ATOM     34  C   UNL     1      -6.655  -2.460   0.495  1.00  0.00     0.010 A 
ATOM     35  C   UNL     1      -7.552  -2.586   1.570  1.00  0.00    -0.014 A 
BRANCH  35  36
ATOM     36  C   UNL     1      -8.948  -3.037   1.337  1.00  0.00     0.031 A 
ATOM     37  C   UNL     1      -9.219  -4.491   1.054  1.00  0.00     0.074 A 
ATOM     38  C   UNL     1      -9.966  -2.159   1.390  1.00  0.00     0.049 A 
ATOM     39  N   UNL     1     -10.359  -5.091   0.823  1.00  0.00    -0.248 NA
ATOM     40  C   UNL     1      -8.052  -5.388   1.024  1.00  0.00     0.031 C 
ATOM     41  C   UNL     1      -9.832  -0.729   1.661  1.00  0.00     0.029 A 
ATOM     42  N   UNL     1     -11.314  -2.343   1.210  1.00  0.00    -0.354 N 
ATOM     43  C   UNL     1     -10.050  -6.431   0.618  1.00  0.00     0.074 A 
ATOM     44  C   UNL     1      -8.611  -6.552   0.723  1.00  0.00     0.031 C 
ATOM     45  C   UNL     1     -11.050  -0.161   1.619  1.00  0.00     0.029 A 
ATOM     46  C   UNL     1     -12.046  -1.183   1.299  1.00  0.00     0.049 A 
ATOM     47  H   UNL     1     -11.719  -3.223   1.034  1.00  0.00     0.167 HD
ATOM     48  C   UNL     1     -10.888  -7.466   0.374  1.00  0.00     0.037 A 
ATOM     49  C   UNL     1     -13.365  -0.966   1.128  1.00  0.00     0.037 A 
ATOM     50  C   UNL     1     -12.319  -7.345   0.276  1.00  0.00     0.049 A 
ATOM     51  C   UNL     1     -14.273  -2.127   0.823  1.00  0.00     0.074 A 
ATOM     52  C   UNL     1     -13.256  -8.345   0.077  1.00  0.00     0.029 A 
ATOM     53  N   UNL     1     -13.020  -6.152   0.360  1.00  0.00    -0.354 N 
ATOM     54  N   UNL     1     -13.970  -3.396   0.685  1.00  0.00    -0.248 NA
ATOM     55  C   UNL     1     -15.703  -1.829   0.653  1.00  0.00     0.031 C 
ATOM     56  C   UNL     1     -14.521  -7.750  -0.002  1.00  0.00     0.029 A 
ATOM     57  C   UNL     1     -14.375  -6.385   0.189  1.00  0.00     0.049 A 
ATOM     58  H   UNL     1     -12.615  -5.269   0.517  1.00  0.00     0.167 HD
ATOM     59  C   UNL     1     -15.172  -4.049   0.430  1.00  0.00     0.074 A 
ATOM     60  C   UNL     1     -16.209  -3.038   0.445  1.00  0.00     0.031 C 
ATOM     61  C   UNL     1     -15.396  -5.367   0.205  1.00  0.00     0.037 A 
BRANCH  48  62
ATOM     62  C   UNL     1     -10.277  -8.826   0.181  1.00  0.00     0.058 A 
ATOM     63  C   UNL     1      -9.768  -9.564   1.261  1.00  0.00     0.135 A 
ATOM     64  C   UNL     1     -10.239  -9.416  -1.093  1.00  0.00     0.135 A 
ATOM     65  F   UNL     1      -9.767  -9.041   2.497  1.00  0.00    -0.206 F 
ATOM     66  C   UNL     1      -9.221 -10.831   1.081  1.00  0.00     0.059 A 
ATOM     67  C   UNL     1      -9.716 -10.690  -1.292  1.00  0.00     0.059 A 
ATOM     68  F   UNL     1     -10.713  -8.752  -2.159  1.00  0.00    -0.206 F 
ATOM     69  C   UNL     1      -9.197 -11.385  -0.200  1.00  0.00     0.060 A 
BRANCH  69  70
ATOM     70  S   UNL     1      -8.488 -13.031  -0.419  1.00  0.00     0.124 S 
ATOM     71  O   UNL     1      -7.060 -12.748  -0.312  1.00  0.00    -0.237 OA
ATOM     72  O   UNL     1      -9.071 -13.774   0.694  1.00  0.00    -0.237 OA
ATOM     73  O   UNL     1      -8.952 -13.427  -1.745  1.00  0.00    -0.744 OA
ENDBRANCH  69  70
ENDBRANCH  48  62
BRANCH  49  74
ATOM     74  C   UNL     1     -13.906   0.414   1.235  1.00  0.00     0.058 A 
ATOM     75  C   UNL     1     -14.691   0.804   2.329  1.00  0.00     0.135 A 
ATOM     76  C   UNL     1     -13.635   1.374   0.247  1.00  0.00     0.135 A 
ATOM     77  F   UNL     1     -14.985  -0.082   3.293  1.00  0.00    -0.206 F 
ATOM     78  C   UNL     1     -15.196   2.096   2.438  1.00  0.00     0.059 A 
ATOM     79  C   UNL     1     -14.111   2.677   0.345  1.00  0.00     0.059 A 
ATOM     80  F   UNL     1     -12.879   1.052  -0.814  1.00  0.00    -0.206 F 
ATOM     81  C   UNL     1     -14.898   3.026   1.441  1.00  0.00     0.060 A 
BRANCH  81  82
ATOM     82  S   UNL     1     -15.505   4.718   1.620  1.00  0.00     0.124 S 
ATOM     83  O   UNL     1     -16.907   4.566   1.252  1.00  0.00    -0.237 OA
ATOM     84  O   UNL     1     -15.239   4.994   3.029  1.00  0.00    -0.237 OA
ATOM     85  O   UNL     1     -14.680   5.469   0.677  1.00  0.00    -0.744 OA
ENDBRANCH  81  82
ENDBRANCH  49  74
BRANCH  61  86
ATOM     86  C   UNL     1     -16.816  -5.799  -0.029  1.00  0.00     0.058 A 
ATOM     87  C   UNL     1     -17.464  -5.554  -1.250  1.00  0.00     0.135 A 
ATOM     88  C   UNL     1     -17.516  -6.514   0.955  1.00  0.00     0.135 A 
ATOM     89  F   UNL     1     -16.840  -4.869  -2.220  1.00  0.00    -0.206 F 
ATOM     90  C   UNL     1     -18.765  -5.989  -1.480  1.00  0.00     0.059 A 
ATOM     91  C   UNL     1     -18.810  -6.978   0.738  1.00  0.00     0.059 A 
ATOM     92  F   UNL     1     -16.937  -6.783   2.136  1.00  0.00    -0.206 F 
ATOM     93  C   UNL     1     -19.430  -6.701  -0.480  1.00  0.00     0.060 A 
BRANCH  93  94
ATOM     94  S   UNL     1     -21.105  -7.295  -0.803  1.00  0.00     0.124 S 
ATOM     95  O   UNL     1     -21.885  -6.072  -0.647  1.00  0.00    -0.237 OA
ATOM     96  O   UNL     1     -20.999  -7.810  -2.165  1.00  0.00    -0.237 OA
ATOM     97  O   UNL     1     -21.310  -8.307   0.228  1.00  0.00    -0.744 OA
ENDBRANCH  93  94
ENDBRANCH  61  86
ENDBRANCH  35  36
ENDBRANCH  28  30
ENDBRANCH  27  28
ENDBRANCH  26  27
ENDBRANCH  25  26
ENDBRANCH   1  25
TORSDOF 20
