REMARK SMILES Cc1cc(C)n2ncc(C(=O)N(C)CCCC(=O)OCCOCCOC(=O)c3ccc(-c4c5nc(c(-c6c(F)cc(S(=O)(=O)[O-])cc6F)c6ccc([nH]6)c(-c6c(F)cc(S(=O)(=O)[O-])cc6F)c6nc(c(-c7c(F)cc(S(=O)(=O)[O-])cc7F)c7ccc4[nH]7)C=C6)C=C5)cc3)c2n1
REMARK SMILES IDX 21 1 20 2 19 3 17 4 18 5 16 6 15 7 14 8 12 9 13 10 10 11
REMARK SMILES IDX 11 12 9 13 1 14 2 15 3 16 95 17 4 18 94 19 5 20 6 21 7 22
REMARK SMILES IDX 8 23 22 24 23 25 24 26 25 27 26 28 27 29 28 30 29 31 93 32
REMARK SMILES IDX 30 33 92 34 31 35 32 36 33 37 86 38 34 39 91 40 85 41 87 42
REMARK SMILES IDX 35 43 90 44 84 45 83 46 36 48 70 49 49 50 69 51 50 52 53 53
REMARK SMILES IDX 68 54 88 55 51 56 52 57 67 59 89 60 54 61 37 62 38 63 47 64
REMARK SMILES IDX 39 65 40 66 46 67 48 68 41 69 42 70 43 71 44 72 45 73 71 74
REMARK SMILES IDX 72 75 81 76 73 77 74 78 80 79 82 80 75 81 76 82 77 83 78 84
REMARK SMILES IDX 79 85 55 86 56 87 65 88 57 89 58 90 64 91 66 92 59 93 60 94
REMARK SMILES IDX 61 95 62 96 63 97
REMARK H PARENT 87 47 53 58
REMARK Flexibility Score: inf
ROOT
ATOM      1  C   UNL     1       4.497   6.842   0.154  1.00  0.00     0.202 C 
ENDROOT
BRANCH   1   2
ATOM      2  C   UNL     1       3.684   5.608  -0.223  1.00  0.00     0.261 C 
BRANCH   2   3
ATOM      3  O   UNL     1       2.416   5.996  -0.764  1.00  0.00    -0.463 OA
BRANCH   3   4
ATOM      4  C   UNL     1       1.316   5.479  -0.169  1.00  0.00     0.305 C 
ATOM      5  O   UNL     1       1.318   4.772   0.833  1.00  0.00    -0.252 OA
BRANCH   4   6
ATOM      6  C   UNL     1       0.030   5.937  -0.827  1.00  0.00     0.124 C 
BRANCH   6   7
ATOM      7  C   UNL     1       0.093   7.026  -1.903  1.00  0.00     0.033 C 
BRANCH   7   8
ATOM      8  C   UNL     1       0.897   6.742  -3.182  1.00  0.00     0.120 C 
BRANCH   8   9
ATOM      9  N   UNL     1       0.410   5.600  -3.962  1.00  0.00    -0.342 N 
ATOM     10  C   UNL     1      -0.223   5.955  -5.220  1.00  0.00     0.147 C 
BRANCH   9  11
ATOM     11  C   UNL     1       0.835   4.325  -3.555  1.00  0.00     0.259 C 
ATOM     12  O   UNL     1       1.772   4.237  -2.760  1.00  0.00    -0.269 OA
BRANCH  11  13
ATOM     13  C   UNL     1       0.163   3.100  -3.974  1.00  0.00     0.104 A 
ATOM     14  C   UNL     1       0.921   0.218  -0.041  1.00  0.00     0.067 C 
ATOM     15  C   UNL     1       0.441   0.507  -1.443  1.00  0.00     0.042 A 
ATOM     16  C   UNL     1      -0.056  -0.654  -2.243  1.00  0.00     0.047 A 
ATOM     17  N   UNL     1       0.504   1.731  -1.877  1.00  0.00    -0.233 NA
ATOM     18  C   UNL     1      -0.503  -0.376  -3.480  1.00  0.00     0.043 A 
ATOM     19  C   UNL     1       0.095   1.965  -3.166  1.00  0.00     0.168 A 
ATOM     20  C   UNL     1      -1.015  -1.426  -4.415  1.00  0.00     0.067 C 
ATOM     21  N   UNL     1      -0.455   0.946  -3.945  1.00  0.00    -0.219 N 
ATOM     22  N   UNL     1      -0.873   1.414  -5.144  1.00  0.00    -0.174 NA
ATOM     23  C   UNL     1      -0.465   2.683  -5.162  1.00  0.00     0.151 A 
ENDBRANCH  11  13
ENDBRANCH   9  11
ENDBRANCH   8   9
ENDBRANCH   7   8
ENDBRANCH   6   7
ENDBRANCH   4   6
ENDBRANCH   3   4
ENDBRANCH   2   3
ENDBRANCH   1   2
BRANCH   1  24
ATOM     24  O   UNL     1       3.948   7.682   1.171  1.00  0.00    -0.374 OA
BRANCH  24  25
ATOM     25  C   UNL     1       2.756   8.411   0.896  1.00  0.00     0.202 C 
BRANCH  25  26
ATOM     26  C   UNL     1       2.846   9.583  -0.073  1.00  0.00     0.261 C 
BRANCH  26  27
ATOM     27  O   UNL     1       3.187   9.202  -1.403  1.00  0.00    -0.460 OA
BRANCH  27  28
ATOM     28  C   UNL     1       4.470   9.506  -1.727  1.00  0.00     0.338 C 
ATOM     29  O   UNL     1       5.395   9.671  -0.956  1.00  0.00    -0.246 OA
BRANCH  28  30
ATOM     30  C   UNL     1       4.546   9.820  -3.160  1.00  0.00     0.060 A 
ATOM     31  C   UNL     1       5.768  10.324  -3.603  1.00  0.00     0.016 A 
ATOM     32  C   UNL     1       3.389   9.887  -3.952  1.00  0.00     0.016 A 
ATOM     33  C   UNL     1       5.780  11.083  -4.750  1.00  0.00     0.010 A 
ATOM     34  C   UNL     1       3.406  10.639  -5.108  1.00  0.00     0.010 A 
ATOM     35  C   UNL     1       4.581  11.298  -5.448  1.00  0.00    -0.014 A 
BRANCH  35  36
ATOM     36  C   UNL     1       4.654  12.125  -6.635  1.00  0.00     0.031 A 
ATOM     37  C   UNL     1       5.475  11.493  -7.688  1.00  0.00     0.074 A 
ATOM     38  C   UNL     1       4.059  13.324  -6.775  1.00  0.00     0.049 A 
ATOM     39  N   UNL     1       6.697  11.778  -7.985  1.00  0.00    -0.248 NA
ATOM     40  C   UNL     1       4.975  10.257  -8.306  1.00  0.00     0.031 C 
ATOM     41  C   UNL     1       3.063  13.967  -5.918  1.00  0.00     0.029 A 
ATOM     42  N   UNL     1       4.214  14.221  -7.788  1.00  0.00    -0.354 N 
ATOM     43  C   UNL     1       7.041  10.911  -9.011  1.00  0.00     0.074 A 
ATOM     44  C   UNL     1       6.039   9.877  -9.014  1.00  0.00     0.031 C 
ATOM     45  C   UNL     1       2.554  15.049  -6.557  1.00  0.00     0.029 A 
ATOM     46  C   UNL     1       3.290  15.260  -7.793  1.00  0.00     0.049 A 
ATOM     47  H   UNL     1       4.925  14.140  -8.464  1.00  0.00     0.167 HD
ATOM     48  C   UNL     1       7.962  11.281  -9.940  1.00  0.00     0.037 A 
ATOM     49  C   UNL     1       3.143  16.204  -8.761  1.00  0.00     0.037 A 
ATOM     50  C   UNL     1       8.778  12.368  -9.451  1.00  0.00     0.049 A 
ATOM     51  C   UNL     1       4.449  16.287  -9.469  1.00  0.00     0.074 A 
ATOM     52  C   UNL     1       9.637  12.536  -8.382  1.00  0.00     0.029 A 
ATOM     53  N   UNL     1       8.471  13.634  -9.888  1.00  0.00    -0.354 N 
ATOM     54  N   UNL     1       5.546  16.725  -8.912  1.00  0.00    -0.248 NA
ATOM     55  C   UNL     1       4.638  15.452 -10.645  1.00  0.00     0.031 C 
ATOM     56  C   UNL     1       9.437  13.880  -7.949  1.00  0.00     0.029 A 
ATOM     57  C   UNL     1       8.517  14.480  -8.810  1.00  0.00     0.049 A 
ATOM     58  H   UNL     1       8.256  13.890 -10.815  1.00  0.00     0.167 HD
ATOM     59  C   UNL     1       6.545  15.889  -9.390  1.00  0.00     0.074 A 
ATOM     60  C   UNL     1       5.939  15.179 -10.515  1.00  0.00     0.031 C 
ATOM     61  C   UNL     1       7.675  15.649  -8.661  1.00  0.00     0.037 A 
BRANCH  48  62
ATOM     62  C   UNL     1       7.829  10.962 -11.411  1.00  0.00     0.058 A 
ATOM     63  C   UNL     1       8.863  11.353 -12.286  1.00  0.00     0.135 A 
ATOM     64  C   UNL     1       6.624  10.564 -12.036  1.00  0.00     0.135 A 
ATOM     65  F   UNL     1      10.052  11.750 -11.807  1.00  0.00    -0.206 F 
ATOM     66  C   UNL     1       8.682  11.432 -13.667  1.00  0.00     0.059 A 
ATOM     67  C   UNL     1       6.441  10.585 -13.411  1.00  0.00     0.059 A 
ATOM     68  F   UNL     1       5.527  10.226 -11.351  1.00  0.00    -0.206 F 
ATOM     69  C   UNL     1       7.460  11.060 -14.216  1.00  0.00     0.060 A 
BRANCH  69  70
ATOM     70  S   UNL     1       7.188  11.253 -15.983  1.00  0.00     0.124 S 
ATOM     71  O   UNL     1       7.221  12.704 -16.125  1.00  0.00    -0.237 OA
ATOM     72  O   UNL     1       8.324  10.526 -16.540  1.00  0.00    -0.237 OA
ATOM     73  O   UNL     1       5.886  10.627 -16.193  1.00  0.00    -0.744 OA
ENDBRANCH  69  70
ENDBRANCH  48  62
BRANCH  49  74
ATOM     74  C   UNL     1       1.879  16.718  -9.364  1.00  0.00     0.058 A 
ATOM     75  C   UNL     1       1.898  17.756 -10.320  1.00  0.00     0.135 A 
ATOM     76  C   UNL     1       0.665  16.012  -9.252  1.00  0.00     0.135 A 
ATOM     77  F   UNL     1       3.014  18.478 -10.508  1.00  0.00    -0.206 F 
ATOM     78  C   UNL     1       0.809  18.028 -11.158  1.00  0.00     0.059 A 
ATOM     79  C   UNL     1      -0.436  16.271 -10.070  1.00  0.00     0.059 A 
ATOM     80  F   UNL     1       0.539  14.983  -8.402  1.00  0.00    -0.206 F 
ATOM     81  C   UNL     1      -0.348  17.260 -11.042  1.00  0.00     0.060 A 
BRANCH  81  82
ATOM     82  S   UNL     1      -1.691  17.482 -12.236  1.00  0.00     0.124 S 
ATOM     83  O   UNL     1      -2.170  18.820 -11.909  1.00  0.00    -0.237 OA
ATOM     84  O   UNL     1      -0.994  17.349 -13.511  1.00  0.00    -0.237 OA
ATOM     85  O   UNL     1      -2.612  16.394 -11.917  1.00  0.00    -0.744 OA
ENDBRANCH  81  82
ENDBRANCH  49  74
BRANCH  61  86
ATOM     86  C   UNL     1       7.967  16.534  -7.474  1.00  0.00     0.058 A 
ATOM     87  C   UNL     1       7.201  16.563  -6.294  1.00  0.00     0.135 A 
ATOM     88  C   UNL     1       9.182  17.235  -7.465  1.00  0.00     0.135 A 
ATOM     89  F   UNL     1       6.068  15.854  -6.190  1.00  0.00    -0.206 F 
ATOM     90  C   UNL     1       7.624  17.264  -5.161  1.00  0.00     0.059 A 
ATOM     91  C   UNL     1       9.636  17.916  -6.340  1.00  0.00     0.059 A 
ATOM     92  F   UNL     1       9.981  17.206  -8.545  1.00  0.00    -0.206 F 
ATOM     93  C   UNL     1       8.852  17.927  -5.189  1.00  0.00     0.060 A 
BRANCH  93  94
ATOM     94  S   UNL     1       9.455  18.733  -3.688  1.00  0.00     0.124 S 
ATOM     95  O   UNL     1       8.522  19.845  -3.538  1.00  0.00    -0.237 OA
ATOM     96  O   UNL     1       9.340  17.670  -2.693  1.00  0.00    -0.237 OA
ATOM     97  O   UNL     1      10.825  19.111  -4.028  1.00  0.00    -0.744 OA
ENDBRANCH  93  94
ENDBRANCH  61  86
ENDBRANCH  35  36
ENDBRANCH  28  30
ENDBRANCH  27  28
ENDBRANCH  26  27
ENDBRANCH  25  26
ENDBRANCH  24  25
ENDBRANCH   1  24
TORSDOF 22
