REMARK SMILES Cc1noc(C)c1CNc1ccc(Cl)c(C(=O)OCCOCCOC(=O)c2ccc(-c3c4nc(c(-c5c(F)cc(S(=O)(=O)[O-])cc5F)c5ccc([nH]5)c(-c5c(F)cc(S(=O)(=O)[O-])cc5F)c5nc(c(-c6c(F)cc(S(=O)(=O)[O-])cc6F)c6ccc3[nH]6)C=C5)C=C4)cc2)n1
REMARK SMILES IDX 21 1 20 2 19 3 18 4 16 5 17 6 15 7 10 8 11 9 93 10 12 11
REMARK SMILES IDX 13 12 14 13 9 14 8 16 7 17 1 18 2 19 3 20 4 21 5 22 6 23
REMARK SMILES IDX 22 24 23 25 24 26 25 27 26 28 27 29 28 30 92 31 29 32 91 33
REMARK SMILES IDX 30 34 31 35 32 36 85 37 33 38 90 39 84 40 86 41 34 42 89 43
REMARK SMILES IDX 83 44 82 45 35 47 69 48 48 49 68 50 49 51 52 52 67 53 87 54
REMARK SMILES IDX 50 55 51 56 66 58 88 59 53 60 36 61 37 62 46 63 38 64 39 65
REMARK SMILES IDX 45 66 47 67 40 68 41 69 42 70 43 71 44 72 70 73 71 74 80 75
REMARK SMILES IDX 72 76 73 77 79 78 81 79 74 80 75 81 76 82 77 83 78 84 54 85
REMARK SMILES IDX 55 86 64 87 56 88 57 89 63 90 65 91 58 92 59 93 60 94 61 95
REMARK SMILES IDX 62 96
REMARK H PARENT 9 15 86 46 52 57
REMARK Flexibility Score: inf
ROOT
ATOM      1  O   UNL     1      -6.189   3.778  -4.939  1.00  0.00    -0.374 OA
ENDROOT
BRANCH   1   2
ATOM      2  C   UNL     1      -7.344   4.096  -4.158  1.00  0.00     0.202 C 
BRANCH   2   3
ATOM      3  C   UNL     1      -7.354   3.523  -2.739  1.00  0.00     0.261 C 
BRANCH   3   4
ATOM      4  O   UNL     1      -6.342   4.169  -1.949  1.00  0.00    -0.458 OA
BRANCH   4   5
ATOM      5  C   UNL     1      -5.516   3.342  -1.266  1.00  0.00     0.358 C 
ATOM      6  O   UNL     1      -5.648   2.135  -1.120  1.00  0.00    -0.244 OA
BRANCH   5   7
ATOM      7  C   UNL     1      -4.289   4.076  -0.860  1.00  0.00     0.169 A 
ATOM      8  C   UNL     1      -1.970   3.922  -0.797  1.00  0.00     0.127 A 
ATOM      9  C   UNL     1      -1.894   5.091  -0.056  1.00  0.00     0.048 A 
ATOM     10  N   UNL     1      -3.139   3.430  -1.220  1.00  0.00    -0.222 NA
ATOM     11  C   UNL     1      -3.071   5.777   0.259  1.00  0.00     0.027 A 
ATOM     12  C   UNL     1      -4.303   5.260  -0.138  1.00  0.00     0.074 A 
ATOM     13  Cl  UNL     1      -5.730   6.091   0.341  1.00  0.00    -0.082 Cl
BRANCH   8  14
ATOM     14  N   UNL     1      -0.867   3.160  -1.120  1.00  0.00    -0.366 N 
ATOM     15  H   UNL     1      -0.611   3.006  -2.058  1.00  0.00     0.162 HD
BRANCH  14  16
ATOM     16  C   UNL     1      -0.093   2.591  -0.025  1.00  0.00     0.156 C 
BRANCH  16  17
ATOM     17  C   UNL     1      -0.015   1.099  -0.009  1.00  0.00     0.037 A 
ATOM     18  C   UNL     1      -2.548   0.402   0.011  1.00  0.00     0.071 C 
ATOM     19  C   UNL     1      -1.084   0.155   0.018  1.00  0.00     0.086 A 
ATOM     20  N   UNL     1      -0.625  -1.102   0.035  1.00  0.00    -0.085 NA
ATOM     21  O   UNL     1       0.749  -1.004   0.020  1.00  0.00    -0.361 OA
ATOM     22  C   UNL     1       1.113   0.304  -0.007  1.00  0.00     0.138 A 
ATOM     23  C   UNL     1       2.562   0.572  -0.026  1.00  0.00     0.091 C 
ENDBRANCH  16  17
ENDBRANCH  14  16
ENDBRANCH   8  14
ENDBRANCH   5   7
ENDBRANCH   4   5
ENDBRANCH   3   4
ENDBRANCH   2   3
ENDBRANCH   1   2
BRANCH   1  24
ATOM     24  C   UNL     1      -4.990   4.498  -4.654  1.00  0.00     0.202 C 
BRANCH  24  25
ATOM     25  C   UNL     1      -4.888   5.907  -5.253  1.00  0.00     0.261 C 
BRANCH  25  26
ATOM     26  O   UNL     1      -5.873   6.809  -4.718  1.00  0.00    -0.460 OA
BRANCH  26  27
ATOM     27  C   UNL     1      -6.862   7.145  -5.583  1.00  0.00     0.338 C 
ATOM     28  O   UNL     1      -6.955   6.814  -6.758  1.00  0.00    -0.246 OA
BRANCH  27  29
ATOM     29  C   UNL     1      -7.944   7.855  -4.876  1.00  0.00     0.060 A 
ATOM     30  C   UNL     1      -9.248   7.366  -5.030  1.00  0.00     0.016 A 
ATOM     31  C   UNL     1      -7.707   9.018  -4.139  1.00  0.00     0.016 A 
ATOM     32  C   UNL     1     -10.325   8.061  -4.483  1.00  0.00     0.010 A 
ATOM     33  C   UNL     1      -8.792   9.719  -3.598  1.00  0.00     0.010 A 
ATOM     34  C   UNL     1     -10.108   9.261  -3.792  1.00  0.00    -0.014 A 
BRANCH  34  35
ATOM     35  C   UNL     1     -11.269  10.088  -3.376  1.00  0.00     0.031 A 
ATOM     36  C   UNL     1     -11.664  11.277  -4.212  1.00  0.00     0.074 A 
ATOM     37  C   UNL     1     -11.980   9.766  -2.279  1.00  0.00     0.049 A 
ATOM     38  N   UNL     1     -12.628  12.139  -4.020  1.00  0.00    -0.248 NA
ATOM     39  C   UNL     1     -10.867  11.528  -5.424  1.00  0.00     0.031 C 
ATOM     40  C   UNL     1     -11.713   8.625  -1.404  1.00  0.00     0.029 A 
ATOM     41  N   UNL     1     -13.071  10.377  -1.711  1.00  0.00    -0.354 N 
ATOM     42  C   UNL     1     -12.548  13.041  -5.076  1.00  0.00     0.074 A 
ATOM     43  C   UNL     1     -11.429  12.632  -5.897  1.00  0.00     0.031 C 
ATOM     44  C   UNL     1     -12.610   8.623  -0.402  1.00  0.00     0.029 A 
ATOM     45  C   UNL     1     -13.496   9.777  -0.549  1.00  0.00     0.049 A 
ATOM     46  H   UNL     1     -13.507  11.169  -2.098  1.00  0.00     0.167 HD
ATOM     47  C   UNL     1     -13.340  14.107  -5.339  1.00  0.00     0.037 A 
ATOM     48  C   UNL     1     -14.475  10.130   0.308  1.00  0.00     0.037 A 
ATOM     49  C   UNL     1     -14.467  14.498  -4.533  1.00  0.00     0.049 A 
ATOM     50  C   UNL     1     -15.311  11.350   0.013  1.00  0.00     0.074 A 
ATOM     51  C   UNL     1     -15.360  15.534  -4.749  1.00  0.00     0.029 A 
ATOM     52  N   UNL     1     -14.854  13.878  -3.355  1.00  0.00    -0.354 N 
ATOM     53  N   UNL     1     -15.252  12.164  -1.014  1.00  0.00    -0.248 NA
ATOM     54  C   UNL     1     -16.349  11.700   0.995  1.00  0.00     0.031 C 
ATOM     55  C   UNL     1     -16.256  15.572  -3.677  1.00  0.00     0.029 A 
ATOM     56  C   UNL     1     -15.953  14.528  -2.818  1.00  0.00     0.049 A 
ATOM     57  H   UNL     1     -14.414  13.092  -2.959  1.00  0.00     0.167 HD
ATOM     58  C   UNL     1     -16.262  13.100  -0.817  1.00  0.00     0.074 A 
ATOM     59  C   UNL     1     -16.924  12.747   0.421  1.00  0.00     0.031 C 
ATOM     60  C   UNL     1     -16.612  14.157  -1.591  1.00  0.00     0.037 A 
BRANCH  47  61
ATOM     61  C   UNL     1     -13.017  14.948  -6.542  1.00  0.00     0.058 A 
ATOM     62  C   UNL     1     -13.299  14.512  -7.846  1.00  0.00     0.135 A 
ATOM     63  C   UNL     1     -12.496  16.242  -6.380  1.00  0.00     0.135 A 
ATOM     64  F   UNL     1     -13.782  13.278  -8.057  1.00  0.00    -0.206 F 
ATOM     65  C   UNL     1     -13.072  15.330  -8.949  1.00  0.00     0.059 A 
ATOM     66  C   UNL     1     -12.282  17.084  -7.466  1.00  0.00     0.059 A 
ATOM     67  F   UNL     1     -12.205  16.704  -5.154  1.00  0.00    -0.206 F 
ATOM     68  C   UNL     1     -12.569  16.617  -8.748  1.00  0.00     0.060 A 
BRANCH  68  69
ATOM     69  S   UNL     1     -12.321  17.682 -10.185  1.00  0.00     0.124 S 
ATOM     70  O   UNL     1     -11.147  17.071 -10.801  1.00  0.00    -0.237 OA
ATOM     71  O   UNL     1     -13.575  17.519 -10.914  1.00  0.00    -0.237 OA
ATOM     72  O   UNL     1     -12.107  19.001  -9.599  1.00  0.00    -0.744 OA
ENDBRANCH  68  69
ENDBRANCH  47  61
BRANCH  48  73
ATOM     73  C   UNL     1     -14.716   9.339   1.545  1.00  0.00     0.058 A 
ATOM     74  C   UNL     1     -15.896   8.600   1.717  1.00  0.00     0.135 A 
ATOM     75  C   UNL     1     -13.790   9.345   2.599  1.00  0.00     0.135 A 
ATOM     76  F   UNL     1     -16.817   8.571   0.741  1.00  0.00    -0.206 F 
ATOM     77  C   UNL     1     -16.165   7.921   2.901  1.00  0.00     0.059 A 
ATOM     78  C   UNL     1     -14.024   8.652   3.783  1.00  0.00     0.059 A 
ATOM     79  F   UNL     1     -12.640  10.027   2.482  1.00  0.00    -0.206 F 
ATOM     80  C   UNL     1     -15.224   7.959   3.932  1.00  0.00     0.060 A 
BRANCH  80  81
ATOM     81  S   UNL     1     -15.576   7.072   5.465  1.00  0.00     0.124 S 
ATOM     82  O   UNL     1     -16.547   7.956   6.098  1.00  0.00    -0.237 OA
ATOM     83  O   UNL     1     -16.095   5.799   4.973  1.00  0.00    -0.237 OA
ATOM     84  O   UNL     1     -14.270   6.998   6.114  1.00  0.00    -0.744 OA
ENDBRANCH  80  81
ENDBRANCH  48  73
BRANCH  60  85
ATOM     85  C   UNL     1     -17.786  14.985  -1.148  1.00  0.00     0.058 A 
ATOM     86  C   UNL     1     -17.701  15.862  -0.056  1.00  0.00     0.135 A 
ATOM     87  C   UNL     1     -18.999  14.934  -1.855  1.00  0.00     0.135 A 
ATOM     88  F   UNL     1     -16.566  15.945   0.657  1.00  0.00    -0.206 F 
ATOM     89  C   UNL     1     -18.785  16.641   0.337  1.00  0.00     0.059 A 
ATOM     90  C   UNL     1     -20.087  15.724  -1.497  1.00  0.00     0.059 A 
ATOM     91  F   UNL     1     -19.130  14.121  -2.915  1.00  0.00    -0.206 F 
ATOM     92  C   UNL     1     -19.975  16.565  -0.390  1.00  0.00     0.060 A 
BRANCH  92  93
ATOM     93  S   UNL     1     -21.366  17.600   0.111  1.00  0.00     0.124 S 
ATOM     94  O   UNL     1     -21.845  16.895   1.295  1.00  0.00    -0.237 OA
ATOM     95  O   UNL     1     -20.726  18.889   0.357  1.00  0.00    -0.237 OA
ATOM     96  O   UNL     1     -22.254  17.560  -1.046  1.00  0.00    -0.744 OA
ENDBRANCH  92  93
ENDBRANCH  60  85
ENDBRANCH  34  35
ENDBRANCH  27  29
ENDBRANCH  26  27
ENDBRANCH  25  26
ENDBRANCH  24  25
ENDBRANCH   1  24
TORSDOF 20
