REMARK SMILES C[C@]1(C(=O)OCCOCCOC(=O)c2ccc(-c3c4nc(c(-c5c(F)cc(S(=O)(=O)[O-])cc5F)c5ccc([nH]5)c(-c5c(F)cc(S(=O)(=O)[O-])cc5F)c5nc(c(-c6c(F)cc(S(=O)(=O)[O-])cc6F)c6ccc3[nH]6)C=C5)C=C4)cc2)[NH2+]C2(C(=O)c3ccccc3C2=O)[C@@H]2C(=O)N(c3ccccc3)C(=O)[C@H]21
REMARK SMILES IDX 9 1 8 2 7 3 6 4 5 5 3 6 4 7 2 8 1 9 80 10 104 11 81 12 92 15
REMARK SMILES IDX 102 16 82 17 90 18 93 19 95 20 103 21 83 22 84 23 89 24
REMARK SMILES IDX 91 25 94 26 85 27 88 28 86 29 87 30 96 31 97 32 101 33 98 34
REMARK SMILES IDX 100 35 99 36 10 37 11 38 12 39 13 40 14 41 15 42 79 43 16 44
REMARK SMILES IDX 78 45 17 46 18 47 19 48 72 49 20 50 77 51 71 52 73 53 21 54
REMARK SMILES IDX 76 55 70 56 69 57 22 59 56 60 35 61 55 62 36 63 39 64 54 65
REMARK SMILES IDX 74 66 37 67 38 68 53 70 75 71 40 72 23 73 24 74 33 75 25 76
REMARK SMILES IDX 26 77 32 78 34 79 27 80 28 81 29 82 30 83 31 84 57 85 58 86
REMARK SMILES IDX 67 87 59 88 60 89 66 90 68 91 61 92 62 93 63 94 64 95 65 96
REMARK SMILES IDX 41 97 42 98 51 99 43 100 44 101 50 102 52 103 45 104 46 105
REMARK SMILES IDX 47 106 48 107 49 108
REMARK H PARENT 80 13 80 14 73 58 39 69
REMARK Flexibility Score: inf
ROOT
ATOM      1  C   UNL     1      -2.577   0.368   0.361  1.00  0.00     0.202 C 
ENDROOT
BRANCH   1   2
ATOM      2  O   UNL     1      -3.135   0.816  -0.874  1.00  0.00    -0.374 OA
BRANCH   2   3
ATOM      3  C   UNL     1      -3.400  -0.154  -1.883  1.00  0.00     0.202 C 
BRANCH   3   4
ATOM      4  C   UNL     1      -2.211  -0.723  -2.659  1.00  0.00     0.261 C 
BRANCH   4   5
ATOM      5  O   UNL     1      -1.245  -1.347  -1.804  1.00  0.00    -0.459 OA
BRANCH   5   6
ATOM      6  C   UNL     1      -0.138  -0.607  -1.518  1.00  0.00     0.368 C 
ATOM      7  O   UNL     1       0.053   0.529  -1.936  1.00  0.00    -0.245 OA
BRANCH   6   8
ATOM      8  C   UNL     1       0.869  -1.378  -0.612  1.00  0.00     0.205 C 
ATOM      9  C   UNL     1       1.848  -0.351  -0.033  1.00  0.00     0.093 C 
ATOM     10  N   UNL     1       0.231  -2.141   0.553  1.00  0.00    -0.313 N 
ATOM     11  C   UNL     1       1.529  -2.485  -1.388  1.00  0.00     0.172 C 
ATOM     12  C   UNL     1       0.357  -3.635   0.258  1.00  0.00     0.237 C 
ATOM     13  H   UNL     1      -0.753  -1.886   0.637  1.00  0.00     0.348 HD
ATOM     14  H   UNL     1       0.699  -1.910   1.430  1.00  0.00     0.348 HD
ATOM     15  C   UNL     1       0.528  -3.615  -1.218  1.00  0.00     0.177 C 
ATOM     16  C   UNL     1       1.708  -2.493  -2.863  1.00  0.00     0.244 C 
ATOM     17  C   UNL     1       1.474  -4.279   1.080  1.00  0.00     0.232 C 
ATOM     18  C   UNL     1      -0.884  -4.379   0.737  1.00  0.00     0.232 C 
ATOM     19  C   UNL     1       1.072  -4.602  -2.180  1.00  0.00     0.245 C 
ATOM     20  N   UNL     1       1.493  -3.811  -3.249  1.00  0.00    -0.250 N 
ATOM     21  O   UNL     1       2.020  -1.510  -3.513  1.00  0.00    -0.273 OA
ATOM     22  O   UNL     1       2.648  -3.949   1.119  1.00  0.00    -0.286 OA
ATOM     23  C   UNL     1       0.890  -5.309   1.938  1.00  0.00     0.036 A 
ATOM     24  C   UNL     1      -0.486  -5.348   1.760  1.00  0.00     0.036 A 
ATOM     25  O   UNL     1      -2.037  -4.230   0.367  1.00  0.00    -0.286 OA
ATOM     26  O   UNL     1       1.016  -5.809  -2.039  1.00  0.00    -0.273 OA
ATOM     27  C   UNL     1       1.528  -6.129   2.853  1.00  0.00     0.013 A 
ATOM     28  C   UNL     1      -1.288  -6.200   2.500  1.00  0.00     0.013 A 
ATOM     29  C   UNL     1       0.736  -7.004   3.602  1.00  0.00     0.001 A 
ATOM     30  C   UNL     1      -0.661  -7.035   3.432  1.00  0.00     0.001 A 
BRANCH  20  31
ATOM     31  C   UNL     1       1.500  -4.199  -4.604  1.00  0.00     0.052 A 
ATOM     32  C   UNL     1       2.439  -3.653  -5.490  1.00  0.00     0.027 A 
ATOM     33  C   UNL     1       0.472  -5.007  -5.107  1.00  0.00     0.027 A 
ATOM     34  C   UNL     1       2.352  -3.903  -6.858  1.00  0.00     0.002 A 
ATOM     35  C   UNL     1       0.362  -5.216  -6.483  1.00  0.00     0.002 A 
ATOM     36  C   UNL     1       1.303  -4.669  -7.354  1.00  0.00     0.000 A 
ENDBRANCH  20  31
ENDBRANCH   6   8
ENDBRANCH   5   6
ENDBRANCH   4   5
ENDBRANCH   3   4
ENDBRANCH   2   3
ENDBRANCH   1   2
BRANCH   1  37
ATOM     37  C   UNL     1      -3.470  -0.427   1.319  1.00  0.00     0.261 C 
BRANCH  37  38
ATOM     38  O   UNL     1      -3.853  -1.710   0.801  1.00  0.00    -0.460 OA
BRANCH  38  39
ATOM     39  C   UNL     1      -5.152  -1.829   0.433  1.00  0.00     0.338 C 
ATOM     40  O   UNL     1      -6.021  -0.979   0.520  1.00  0.00    -0.246 OA
BRANCH  39  41
ATOM     41  C   UNL     1      -5.342  -3.105  -0.287  1.00  0.00     0.060 A 
ATOM     42  C   UNL     1      -5.034  -4.324   0.315  1.00  0.00     0.016 A 
ATOM     43  C   UNL     1      -5.870  -3.067  -1.583  1.00  0.00     0.016 A 
ATOM     44  C   UNL     1      -5.253  -5.512  -0.387  1.00  0.00     0.010 A 
ATOM     45  C   UNL     1      -6.096  -4.255  -2.280  1.00  0.00     0.010 A 
ATOM     46  C   UNL     1      -5.801  -5.488  -1.681  1.00  0.00    -0.014 A 
BRANCH  46  47
ATOM     47  C   UNL     1      -6.166  -6.753  -2.365  1.00  0.00     0.031 A 
ATOM     48  C   UNL     1      -5.382  -7.262  -3.539  1.00  0.00     0.074 A 
ATOM     49  C   UNL     1      -7.242  -7.433  -1.924  1.00  0.00     0.049 A 
ATOM     50  N   UNL     1      -5.575  -8.344  -4.250  1.00  0.00    -0.248 NA
ATOM     51  C   UNL     1      -4.235  -6.451  -3.974  1.00  0.00     0.031 C 
ATOM     52  C   UNL     1      -8.090  -7.023  -0.802  1.00  0.00     0.029 A 
ATOM     53  N   UNL     1      -7.807  -8.605  -2.357  1.00  0.00    -0.354 N 
ATOM     54  C   UNL     1      -4.570  -8.356  -5.210  1.00  0.00     0.074 A 
ATOM     55  C   UNL     1      -3.797  -7.145  -5.018  1.00  0.00     0.031 C 
ATOM     56  C   UNL     1      -9.050  -7.943  -0.619  1.00  0.00     0.029 A 
ATOM     57  C   UNL     1      -8.913  -8.983  -1.634  1.00  0.00     0.049 A 
ATOM     58  H   UNL     1      -7.454  -9.126  -3.114  1.00  0.00     0.167 HD
ATOM     59  C   UNL     1      -4.311  -9.298  -6.149  1.00  0.00     0.037 A 
ATOM     60  C   UNL     1      -9.731 -10.043  -1.776  1.00  0.00     0.037 A 
ATOM     61  C   UNL     1      -5.099 -10.493  -6.341  1.00  0.00     0.049 A 
ATOM     62  C   UNL     1      -9.455 -11.040  -2.866  1.00  0.00     0.074 A 
ATOM     63  C   UNL     1      -4.903 -11.515  -7.255  1.00  0.00     0.029 A 
ATOM     64  N   UNL     1      -6.238 -10.823  -5.619  1.00  0.00    -0.354 N 
ATOM     65  N   UNL     1      -8.476 -11.059  -3.739  1.00  0.00    -0.248 NA
ATOM     66  C   UNL     1     -10.394 -12.163  -2.988  1.00  0.00     0.031 C 
ATOM     67  C   UNL     1      -5.951 -12.433  -7.122  1.00  0.00     0.029 A 
ATOM     68  C   UNL     1      -6.770 -12.017  -6.086  1.00  0.00     0.049 A 
ATOM     69  H   UNL     1      -6.614 -10.288  -4.883  1.00  0.00     0.167 HD
ATOM     70  C   UNL     1      -8.673 -12.202  -4.506  1.00  0.00     0.074 A 
ATOM     71  C   UNL     1      -9.846 -12.864  -3.971  1.00  0.00     0.031 C 
ATOM     72  C   UNL     1      -7.952 -12.659  -5.561  1.00  0.00     0.037 A 
BRANCH  59  73
ATOM     73  C   UNL     1      -3.124  -9.081  -7.051  1.00  0.00     0.058 A 
ATOM     74  C   UNL     1      -1.807  -9.176  -6.572  1.00  0.00     0.135 A 
ATOM     75  C   UNL     1      -3.301  -8.836  -8.423  1.00  0.00     0.135 A 
ATOM     76  F   UNL     1      -1.577  -9.393  -5.268  1.00  0.00    -0.206 F 
ATOM     77  C   UNL     1      -0.711  -9.017  -7.415  1.00  0.00     0.059 A 
ATOM     78  C   UNL     1      -2.220  -8.702  -9.290  1.00  0.00     0.059 A 
ATOM     79  F   UNL     1      -4.537  -8.736  -8.938  1.00  0.00    -0.206 F 
ATOM     80  C   UNL     1      -0.927  -8.783  -8.774  1.00  0.00     0.060 A 
BRANCH  80  81
ATOM     81  S   UNL     1       0.503  -8.595  -9.859  1.00  0.00     0.124 S 
ATOM     82  O   UNL     1       1.018  -7.295  -9.439  1.00  0.00    -0.237 OA
ATOM     83  O   UNL     1       1.321  -9.749  -9.500  1.00  0.00    -0.237 OA
ATOM     84  O   UNL     1      -0.076  -8.630 -11.198  1.00  0.00    -0.744 OA
ENDBRANCH  80  81
ENDBRANCH  59  73
BRANCH  60  85
ATOM     85  C   UNL     1     -10.877 -10.222  -0.845  1.00  0.00     0.058 A 
ATOM     86  C   UNL     1     -10.887 -11.267   0.090  1.00  0.00     0.135 A 
ATOM     87  C   UNL     1     -11.972  -9.343  -0.855  1.00  0.00     0.135 A 
ATOM     88  F   UNL     1      -9.868 -12.139   0.133  1.00  0.00    -0.206 F 
ATOM     89  C   UNL     1     -11.945 -11.441   0.976  1.00  0.00     0.059 A 
ATOM     90  C   UNL     1     -13.027  -9.478   0.041  1.00  0.00     0.059 A 
ATOM     91  F   UNL     1     -12.005  -8.319  -1.722  1.00  0.00    -0.206 F 
ATOM     92  C   UNL     1     -13.007 -10.536   0.949  1.00  0.00     0.060 A 
BRANCH  92  93
ATOM     93  S   UNL     1     -14.343 -10.742   2.145  1.00  0.00     0.124 S 
ATOM     94  O   UNL     1     -14.968 -11.975   1.681  1.00  0.00    -0.237 OA
ATOM     95  O   UNL     1     -13.611 -10.832   3.405  1.00  0.00    -0.237 OA
ATOM     96  O   UNL     1     -15.138  -9.529   1.976  1.00  0.00    -0.744 OA
ENDBRANCH  92  93
ENDBRANCH  60  85
BRANCH  72  97
ATOM     97  C   UNL     1      -8.415 -13.941  -6.205  1.00  0.00     0.058 A 
ATOM     98  C   UNL     1      -9.611 -14.006  -6.938  1.00  0.00     0.135 A 
ATOM     99  C   UNL     1      -7.650 -15.115  -6.101  1.00  0.00     0.135 A 
ATOM    100  F   UNL     1     -10.385 -12.917  -7.067  1.00  0.00    -0.206 F 
ATOM    101  C   UNL     1     -10.055 -15.197  -7.504  1.00  0.00     0.059 A 
ATOM    102  C   UNL     1      -8.057 -16.309  -6.689  1.00  0.00     0.059 A 
ATOM    103  F   UNL     1      -6.490 -15.110  -5.424  1.00  0.00    -0.206 F 
ATOM    104  C   UNL     1      -9.272 -16.345  -7.372  1.00  0.00     0.060 A 
BRANCH 104 105
ATOM    105  S   UNL     1      -9.867 -17.883  -8.106  1.00  0.00     0.124 S 
ATOM    106  O   UNL     1     -10.993 -18.208  -7.237  1.00  0.00    -0.237 OA
ATOM    107  O   UNL     1     -10.211 -17.468  -9.462  1.00  0.00    -0.237 OA
ATOM    108  O   UNL     1      -8.717 -18.777  -8.003  1.00  0.00    -0.744 OA
ENDBRANCH 104 105
ENDBRANCH  72  97
ENDBRANCH  46  47
ENDBRANCH  39  41
ENDBRANCH  38  39
ENDBRANCH  37  38
ENDBRANCH   1  37
TORSDOF 18
