REMARK SMILES Nc1cc([N+](=O)[O-])ccc1[C@H]([NH3+])C(=O)OCCOCCOC(=O)c1ccc(-c2c3nc(c(-c4c(F)cc(S(=O)(=O)[O-])cc4F)c4ccc([nH]4)c(-c4c(F)cc(S(=O)(=O)[O-])cc4F)c4nc(c(-c5c(F)cc(S(=O)(=O)[O-])cc5F)c5ccc2[nH]5)C=C4)C=C3)cc1
REMARK SMILES IDX 19 1 18 2 17 3 16 4 15 5 13 6 14 7 11 8 10 9 2 10 3 11 4 12
REMARK SMILES IDX 9 13 8 14 1 15 5 18 6 19 7 20 12 21 20 25 21 26 22 27 23 28
REMARK SMILES IDX 24 29 25 30 89 31 26 32 88 33 27 34 28 35 29 36 82 37 30 38
REMARK SMILES IDX 87 39 81 40 83 41 31 42 86 43 80 44 79 45 32 47 66 48 45 49
REMARK SMILES IDX 65 50 46 51 49 52 64 53 84 54 47 55 48 56 63 58 85 59 50 60
REMARK SMILES IDX 33 61 34 62 43 63 35 64 36 65 42 66 44 67 37 68 38 69 39 70
REMARK SMILES IDX 40 71 41 72 67 73 68 74 77 75 69 76 70 77 76 78 78 79 71 80
REMARK SMILES IDX 72 81 73 82 74 83 75 84 51 85 52 86 61 87 53 88 54 89 60 90
REMARK SMILES IDX 62 91 55 92 56 93 57 94 58 95 59 96
REMARK H PARENT 1 16 1 17 12 22 12 23 12 24 83 46 49 57
REMARK Flexibility Score: inf
ROOT
ATOM      1  C   UNL     1       1.023   2.143   3.485  1.00  0.00     0.202 C 
ENDROOT
BRANCH   1   2
ATOM      2  O   UNL     1       0.856   3.405   4.131  1.00  0.00    -0.374 OA
BRANCH   2   3
ATOM      3  C   UNL     1      -0.257   4.202   3.724  1.00  0.00     0.202 C 
BRANCH   3   4
ATOM      4  C   UNL     1      -0.090   4.994   2.424  1.00  0.00     0.261 C 
BRANCH   4   5
ATOM      5  O   UNL     1      -0.057   4.130   1.278  1.00  0.00    -0.459 OA
BRANCH   5   6
ATOM      6  C   UNL     1       1.163   3.955   0.690  1.00  0.00     0.369 C 
ATOM      7  O   UNL     1       2.187   4.553   1.008  1.00  0.00    -0.245 OA
BRANCH   6   8
ATOM      8  C   UNL     1       1.104   2.930  -0.474  1.00  0.00     0.325 C 
BRANCH   8   9
ATOM      9  C   UNL     1       0.694   3.558  -1.813  1.00  0.00     0.044 A 
ATOM     10  C   UNL     1       0.279   2.817  -2.944  1.00  0.00     0.048 A 
ATOM     11  C   UNL     1       0.062   3.479  -4.167  1.00  0.00     0.111 A 
ATOM     12  C   UNL     1       0.202   4.866  -4.272  1.00  0.00     0.271 A 
ATOM     13  C   UNL     1       0.841   4.962  -1.964  1.00  0.00     0.020 A 
ATOM     14  C   UNL     1       0.587   5.616  -3.168  1.00  0.00     0.086 A 
BRANCH  10  15
ATOM     15  N   UNL     1       0.223   1.425  -2.971  1.00  0.00    -0.398 N 
ATOM     16  H   UNL     1      -0.074   0.960  -3.786  1.00  0.00     0.156 HD
ATOM     17  H   UNL     1       0.480   0.907  -2.174  1.00  0.00     0.156 HD
ENDBRANCH  10  15
BRANCH  12  18
ATOM     18  N   UNL     1      -0.012   5.526  -5.563  1.00  0.00     0.062 N 
ATOM     19  O   UNL     1      -0.357   4.820  -6.522  1.00  0.00    -0.258 OA
ATOM     20  O   UNL     1       0.192   6.747  -5.628  1.00  0.00    -0.258 OA
ENDBRANCH  12  18
ENDBRANCH   8   9
BRANCH   8  21
ATOM     21  N   UNL     1       0.297   1.767  -0.037  1.00  0.00    -0.342 N 
ATOM     22  H   UNL     1      -0.651   2.074   0.181  1.00  0.00     0.345 HD
ATOM     23  H   UNL     1       0.720   1.352   0.793  1.00  0.00     0.345 HD
ATOM     24  H   UNL     1       0.266   1.075  -0.785  1.00  0.00     0.345 HD
ENDBRANCH   8  21
ENDBRANCH   6   8
ENDBRANCH   5   6
ENDBRANCH   4   5
ENDBRANCH   3   4
ENDBRANCH   2   3
ENDBRANCH   1   2
BRANCH   1  25
ATOM     25  C   UNL     1       0.125   0.994   3.958  1.00  0.00     0.261 C 
BRANCH  25  26
ATOM     26  O   UNL     1      -1.267   1.231   3.688  1.00  0.00    -0.460 OA
BRANCH  26  27
ATOM     27  C   UNL     1      -2.011   1.520   4.781  1.00  0.00     0.338 C 
ATOM     28  O   UNL     1      -1.637   1.523   5.947  1.00  0.00    -0.246 OA
BRANCH  27  29
ATOM     29  C   UNL     1      -3.338   2.018   4.378  1.00  0.00     0.060 A 
ATOM     30  C   UNL     1      -3.769   3.225   4.944  1.00  0.00     0.016 A 
ATOM     31  C   UNL     1      -4.178   1.290   3.532  1.00  0.00     0.016 A 
ATOM     32  C   UNL     1      -5.066   3.677   4.718  1.00  0.00     0.010 A 
ATOM     33  C   UNL     1      -5.483   1.743   3.311  1.00  0.00     0.010 A 
ATOM     34  C   UNL     1      -5.944   2.915   3.937  1.00  0.00    -0.014 A 
BRANCH  34  35
ATOM     35  C   UNL     1      -7.385   3.266   3.918  1.00  0.00     0.031 A 
ATOM     36  C   UNL     1      -8.329   2.508   4.811  1.00  0.00     0.074 A 
ATOM     37  C   UNL     1      -7.839   4.268   3.147  1.00  0.00     0.049 A 
ATOM     38  N   UNL     1      -9.623   2.635   4.948  1.00  0.00    -0.248 NA
ATOM     39  C   UNL     1      -7.731   1.466   5.660  1.00  0.00     0.031 C 
ATOM     40  C   UNL     1      -7.016   5.092   2.264  1.00  0.00     0.029 A 
ATOM     41  N   UNL     1      -9.110   4.755   2.978  1.00  0.00    -0.354 N 
ATOM     42  C   UNL     1      -9.996   1.690   5.897  1.00  0.00     0.074 A 
ATOM     43  C   UNL     1      -8.797   0.972   6.272  1.00  0.00     0.031 C 
ATOM     44  C   UNL     1      -7.808   5.972   1.629  1.00  0.00     0.029 A 
ATOM     45  C   UNL     1      -9.194   5.757   2.042  1.00  0.00     0.049 A 
ATOM     46  H   UNL     1      -9.888   4.420   3.479  1.00  0.00     0.167 HD
ATOM     47  C   UNL     1     -11.224   1.450   6.417  1.00  0.00     0.037 A 
ATOM     48  C   UNL     1     -10.269   6.409   1.557  1.00  0.00     0.037 A 
ATOM     49  C   UNL     1     -12.415   2.160   6.031  1.00  0.00     0.049 A 
ATOM     50  C   UNL     1     -11.634   6.093   2.106  1.00  0.00     0.074 A 
ATOM     51  C   UNL     1     -13.706   2.001   6.503  1.00  0.00     0.029 A 
ATOM     52  N   UNL     1     -12.463   3.159   5.067  1.00  0.00    -0.354 N 
ATOM     53  N   UNL     1     -11.971   5.215   3.021  1.00  0.00    -0.248 NA
ATOM     54  C   UNL     1     -12.764   6.861   1.565  1.00  0.00     0.031 C 
ATOM     55  C   UNL     1     -14.541   2.871   5.793  1.00  0.00     0.029 A 
ATOM     56  C   UNL     1     -13.764   3.609   4.914  1.00  0.00     0.049 A 
ATOM     57  H   UNL     1     -11.686   3.497   4.567  1.00  0.00     0.167 HD
ATOM     58  C   UNL     1     -13.348   5.336   3.178  1.00  0.00     0.074 A 
ATOM     59  C   UNL     1     -13.779   6.381   2.272  1.00  0.00     0.031 C 
ATOM     60  C   UNL     1     -14.179   4.646   4.000  1.00  0.00     0.037 A 
BRANCH  47  61
ATOM     61  C   UNL     1     -11.332   0.348   7.436  1.00  0.00     0.058 A 
ATOM     62  C   UNL     1     -10.790   0.477   8.725  1.00  0.00     0.135 A 
ATOM     63  C   UNL     1     -11.970  -0.860   7.113  1.00  0.00     0.135 A 
ATOM     64  F   UNL     1     -10.155   1.605   9.081  1.00  0.00    -0.206 F 
ATOM     65  C   UNL     1     -10.834  -0.569   9.641  1.00  0.00     0.059 A 
ATOM     66  C   UNL     1     -12.051  -1.910   8.023  1.00  0.00     0.059 A 
ATOM     67  F   UNL     1     -12.507  -1.038   5.895  1.00  0.00    -0.206 F 
ATOM     68  C   UNL     1     -11.458  -1.763   9.277  1.00  0.00     0.060 A 
BRANCH  68  69
ATOM     69  S   UNL     1     -11.472  -3.128  10.458  1.00  0.00     0.124 S 
ATOM     70  O   UNL     1     -10.093  -3.598  10.373  1.00  0.00    -0.237 OA
ATOM     71  O   UNL     1     -11.838  -2.462  11.704  1.00  0.00    -0.237 OA
ATOM     72  O   UNL     1     -12.479  -4.035   9.917  1.00  0.00    -0.744 OA
ENDBRANCH  68  69
ENDBRANCH  47  61
BRANCH  48  73
ATOM     73  C   UNL     1     -10.082   7.418   0.482  1.00  0.00     0.058 A 
ATOM     74  C   UNL     1     -10.209   8.790   0.738  1.00  0.00     0.135 A 
ATOM     75  C   UNL     1      -9.719   7.024  -0.816  1.00  0.00     0.135 A 
ATOM     76  F   UNL     1     -10.566   9.214   1.960  1.00  0.00    -0.206 F 
ATOM     77  C   UNL     1      -9.974   9.739  -0.252  1.00  0.00     0.059 A 
ATOM     78  C   UNL     1      -9.457   7.953  -1.816  1.00  0.00     0.059 A 
ATOM     79  F   UNL     1      -9.575   5.721  -1.107  1.00  0.00    -0.206 F 
ATOM     80  C   UNL     1      -9.588   9.310  -1.524  1.00  0.00     0.060 A 
BRANCH  80  81
ATOM     81  S   UNL     1      -9.191  10.552  -2.774  1.00  0.00     0.124 S 
ATOM     82  O   UNL     1     -10.515  11.051  -3.124  1.00  0.00    -0.237 OA
ATOM     83  O   UNL     1      -8.337  11.472  -2.029  1.00  0.00    -0.237 OA
ATOM     84  O   UNL     1      -8.511   9.778  -3.809  1.00  0.00    -0.744 OA
ENDBRANCH  80  81
ENDBRANCH  48  73
BRANCH  60  85
ATOM     85  C   UNL     1     -15.639   5.010   3.975  1.00  0.00     0.058 A 
ATOM     86  C   UNL     1     -16.470   4.648   2.903  1.00  0.00     0.135 A 
ATOM     87  C   UNL     1     -16.225   5.678   5.062  1.00  0.00     0.135 A 
ATOM     88  F   UNL     1     -15.959   4.013   1.836  1.00  0.00    -0.206 F 
ATOM     89  C   UNL     1     -17.827   4.955   2.901  1.00  0.00     0.059 A 
ATOM     90  C   UNL     1     -17.585   5.972   5.093  1.00  0.00     0.059 A 
ATOM     91  F   UNL     1     -15.477   6.037   6.118  1.00  0.00    -0.206 F 
ATOM     92  C   UNL     1     -18.376   5.616   4.002  1.00  0.00     0.060 A 
BRANCH  92  93
ATOM     93  S   UNL     1     -20.145   5.977   4.002  1.00  0.00     0.124 S 
ATOM     94  O   UNL     1     -20.218   7.089   3.061  1.00  0.00    -0.237 OA
ATOM     95  O   UNL     1     -20.723   4.718   3.542  1.00  0.00    -0.237 OA
ATOM     96  O   UNL     1     -20.422   6.314   5.396  1.00  0.00    -0.744 OA
ENDBRANCH  92  93
ENDBRANCH  60  85
ENDBRANCH  34  35
ENDBRANCH  27  29
ENDBRANCH  26  27
ENDBRANCH  25  26
ENDBRANCH   1  25
TORSDOF 21
