REMARK SMILES Cc1ccc(S(=O)(=O)n2cc(C(=O)C(=O)N[C@@H](Cc3c[nH]c4ccccc34)C(=O)OCCOCCOC(=O)c3ccc(-c4c5nc(c(-c6c(F)cc(S(=O)(=O)[O-])cc6F)c6ccc([nH]6)c(-c6c(F)cc(S(=O)(=O)[O-])cc6F)c6nc(c(-c7c(F)cc(S(=O)(=O)[O-])cc7F)c7ccc4[nH]7)C=C6)C=C5)cc3)c3ccccc32)cc1
REMARK SMILES IDX 32 1 31 2 30 3 28 4 29 5 17 6 16 7 14 8 15 9 12 11 13 12
REMARK SMILES IDX 11 13 9 14 10 15 110 16 105 17 109 18 106 19 108 20 107 21
REMARK SMILES IDX 6 22 7 23 8 24 5 25 1 26 2 27 3 28 112 29 4 30 111 31 18 32
REMARK SMILES IDX 19 33 20 34 27 35 21 36 22 37 26 38 23 40 25 41 24 42 33 43
REMARK SMILES IDX 34 44 35 45 36 46 37 47 38 48 39 49 40 50 104 51 41 52
REMARK SMILES IDX 103 53 42 54 43 55 44 56 97 57 45 58 102 59 96 60 98 61
REMARK SMILES IDX 46 62 101 63 95 64 94 65 47 67 81 68 60 69 80 70 61 71 64 72
REMARK SMILES IDX 79 73 99 74 62 75 63 76 78 78 100 79 65 80 48 81 49 82 58 83
REMARK SMILES IDX 50 84 51 85 57 86 59 87 52 88 53 89 54 90 55 91 56 92 82 93
REMARK SMILES IDX 83 94 92 95 84 96 85 97 91 98 93 99 86 100 87 101 88 102
REMARK SMILES IDX 89 103 90 104 66 105 67 106 76 107 68 108 69 109 75 110
REMARK SMILES IDX 77 111 70 112 71 113 72 114 73 115 74 116
REMARK H PARENT 16 10 21 39 98 66 64 77
REMARK Flexibility Score: inf
ROOT
ATOM      1  C   UNL     1     -10.149   2.162  -2.549  1.00  0.00     0.202 C 
ENDROOT
BRANCH   1   2
ATOM      2  C   UNL     1     -10.594   0.966  -1.699  1.00  0.00     0.261 C 
BRANCH   2   3
ATOM      3  O   UNL     1     -11.460   1.391  -0.653  1.00  0.00    -0.462 OA
BRANCH   3   4
ATOM      4  C   UNL     1     -11.176   0.769   0.511  1.00  0.00     0.329 C 
ATOM      5  O   UNL     1     -11.886  -0.104   0.996  1.00  0.00    -0.250 OA
BRANCH   4   6
ATOM      6  C   UNL     1      -9.908   1.304   1.179  1.00  0.00     0.197 C 
BRANCH   6   7
ATOM      7  N   UNL     1      -9.170   2.309   0.378  1.00  0.00    -0.335 N 
ATOM      8  C   UNL     1      -7.820   2.400   0.126  1.00  0.00     0.293 C 
ATOM      9  O   UNL     1      -7.303   3.274  -0.560  1.00  0.00    -0.265 OA
ATOM     10  H   UNL     1      -9.725   3.011  -0.032  1.00  0.00     0.164 HD
BRANCH   8  11
ATOM     11  C   UNL     1      -6.904   1.432   0.826  1.00  0.00     0.252 C 
ATOM     12  O   UNL     1      -6.996   1.389   2.054  1.00  0.00    -0.283 OA
BRANCH  11  13
ATOM     13  C   UNL     1      -5.949   0.561   0.145  1.00  0.00     0.054 A 
ATOM     14  N   UNL     1      -4.082  -0.578   0.391  1.00  0.00    -0.240 N 
ATOM     15  C   UNL     1      -4.555   0.699   0.210  1.00  0.00     0.117 A 
ATOM     16  C   UNL     1      -5.142  -1.472   0.406  1.00  0.00     0.065 A 
ATOM     17  C   UNL     1      -6.201  -0.803  -0.192  1.00  0.00     0.012 A 
ATOM     18  C   UNL     1      -5.203  -2.829   0.757  1.00  0.00     0.028 A 
ATOM     19  C   UNL     1      -7.252  -1.579  -0.718  1.00  0.00     0.011 A 
ATOM     20  C   UNL     1      -6.249  -3.578   0.236  1.00  0.00     0.002 A 
ATOM     21  C   UNL     1      -7.216  -2.975  -0.561  1.00  0.00     0.001 A 
BRANCH  14  22
ATOM     22  S   UNL     1      -2.566  -1.270   0.122  1.00  0.00     0.268 S 
ATOM     23  O   UNL     1      -2.728  -1.915  -1.171  1.00  0.00    -0.201 OA
ATOM     24  O   UNL     1      -2.346  -2.055   1.329  1.00  0.00    -0.201 OA
BRANCH  22  25
ATOM     25  C   UNL     1      -1.084  -0.354  -0.040  1.00  0.00     0.088 A 
ATOM     26  C   UNL     1       3.004   0.983  -0.057  1.00  0.00     0.044 C 
ATOM     27  C   UNL     1       1.565   0.564  -0.117  1.00  0.00    -0.051 A 
ATOM     28  C   UNL     1       1.301  -0.779  -0.350  1.00  0.00     0.005 A 
ATOM     29  C   UNL     1       0.490   1.449   0.115  1.00  0.00     0.005 A 
ATOM     30  C   UNL     1      -0.006  -1.224  -0.319  1.00  0.00     0.022 A 
ATOM     31  C   UNL     1      -0.848   0.996   0.158  1.00  0.00     0.022 A 
ENDBRANCH  22  25
ENDBRANCH  14  22
ENDBRANCH  11  13
ENDBRANCH   8  11
ENDBRANCH   6   7
BRANCH   6  32
ATOM     32  C   UNL     1     -10.308   1.805   2.575  1.00  0.00     0.074 C 
BRANCH  32  33
ATOM     33  C   UNL     1     -11.164   3.041   2.589  1.00  0.00    -0.020 A 
ATOM     34  C   UNL     1     -12.542   3.090   2.688  1.00  0.00     0.087 A 
ATOM     35  C   UNL     1     -10.710   4.393   2.464  1.00  0.00     0.003 A 
ATOM     36  N   UNL     1     -12.927   4.404   2.675  1.00  0.00    -0.361 N 
ATOM     37  C   UNL     1     -11.828   5.223   2.529  1.00  0.00     0.046 A 
ATOM     38  C   UNL     1      -9.450   4.985   2.250  1.00  0.00     0.010 A 
ATOM     39  H   UNL     1     -13.856   4.720   2.760  1.00  0.00     0.166 HD
ATOM     40  C   UNL     1     -11.753   6.611   2.342  1.00  0.00     0.026 A 
ATOM     41  C   UNL     1      -9.359   6.362   2.029  1.00  0.00     0.001 A 
ATOM     42  C   UNL     1     -10.498   7.161   2.065  1.00  0.00     0.002 A 
ENDBRANCH  32  33
ENDBRANCH   6  32
ENDBRANCH   4   6
ENDBRANCH   3   4
ENDBRANCH   2   3
ENDBRANCH   1   2
BRANCH   1  43
ATOM     43  O   UNL     1      -9.760   3.474  -2.057  1.00  0.00    -0.374 OA
BRANCH  43  44
ATOM     44  C   UNL     1      -9.495   4.651  -3.023  1.00  0.00     0.202 C 
BRANCH  44  45
ATOM     45  C   UNL     1     -10.516   5.798  -4.043  1.00  0.00     0.261 C 
BRANCH  45  46
ATOM     46  O   UNL     1     -11.817   5.854  -5.226  1.00  0.00    -0.460 OA
BRANCH  46  47
ATOM     47  C   UNL     1     -12.951   5.671  -6.160  1.00  0.00     0.338 C 
ATOM     48  O   UNL     1     -13.322   6.703  -6.740  1.00  0.00    -0.246 OA
BRANCH  47  49
ATOM     49  C   UNL     1     -14.076   4.344  -6.373  1.00  0.00     0.060 A 
ATOM     50  C   UNL     1     -15.361   4.369  -5.802  1.00  0.00     0.016 A 
ATOM     51  C   UNL     1     -13.801   3.054  -6.849  1.00  0.00     0.016 A 
ATOM     52  C   UNL     1     -15.851   3.212  -5.079  1.00  0.00     0.010 A 
ATOM     53  C   UNL     1     -14.269   1.895  -6.143  1.00  0.00     0.010 A 
ATOM     54  C   UNL     1     -15.146   1.999  -5.068  1.00  0.00    -0.014 A 
BRANCH  54  55
ATOM     55  C   UNL     1     -15.166   0.977  -3.938  1.00  0.00     0.031 A 
ATOM     56  C   UNL     1     -15.687  -0.402  -4.043  1.00  0.00     0.074 A 
ATOM     57  C   UNL     1     -14.619   1.145  -2.697  1.00  0.00     0.049 A 
ATOM     58  N   UNL     1     -16.470  -0.956  -3.163  1.00  0.00    -0.248 NA
ATOM     59  C   UNL     1     -15.229  -1.328  -5.064  1.00  0.00     0.031 C 
ATOM     60  C   UNL     1     -14.605   0.279  -1.498  1.00  0.00     0.029 A 
ATOM     61  N   UNL     1     -14.048   2.276  -2.173  1.00  0.00    -0.354 N 
ATOM     62  C   UNL     1     -16.246  -2.319  -3.253  1.00  0.00     0.074 A 
ATOM     63  C   UNL     1     -15.702  -2.486  -4.583  1.00  0.00     0.031 C 
ATOM     64  C   UNL     1     -14.549   1.047  -0.392  1.00  0.00     0.029 A 
ATOM     65  C   UNL     1     -14.459   2.413  -0.841  1.00  0.00     0.049 A 
ATOM     66  H   UNL     1     -13.447   2.890  -2.653  1.00  0.00     0.167 HD
ATOM     67  C   UNL     1     -16.326  -3.133  -2.146  1.00  0.00     0.037 A 
ATOM     68  C   UNL     1     -15.157   3.522  -0.477  1.00  0.00     0.037 A 
ATOM     69  C   UNL     1     -16.714  -2.407  -0.912  1.00  0.00     0.049 A 
ATOM     70  C   UNL     1     -16.541   3.102  -0.028  1.00  0.00     0.074 A 
ATOM     71  C   UNL     1     -16.191  -2.351   0.373  1.00  0.00     0.029 A 
ATOM     72  N   UNL     1     -17.717  -1.433  -0.948  1.00  0.00    -0.354 N 
ATOM     73  N   UNL     1     -16.963   1.882  -0.230  1.00  0.00    -0.248 NA
ATOM     74  C   UNL     1     -17.540   3.877   0.710  1.00  0.00     0.031 C 
ATOM     75  C   UNL     1     -16.810  -1.269   1.061  1.00  0.00     0.029 A 
ATOM     76  C   UNL     1     -17.742  -0.689   0.215  1.00  0.00     0.049 A 
ATOM     77  H   UNL     1     -18.328  -1.294  -1.707  1.00  0.00     0.167 HD
ATOM     78  C   UNL     1     -18.157   1.658   0.377  1.00  0.00     0.074 A 
ATOM     79  C   UNL     1     -18.515   2.961   0.909  1.00  0.00     0.031 C 
ATOM     80  C   UNL     1     -18.699   0.403   0.409  1.00  0.00     0.037 A 
BRANCH  67  81
ATOM     81  C   UNL     1     -15.902  -4.615  -2.105  1.00  0.00     0.058 A 
ATOM     82  C   UNL     1     -16.330  -5.472  -1.060  1.00  0.00     0.135 A 
ATOM     83  C   UNL     1     -15.066  -5.255  -3.048  1.00  0.00     0.135 A 
ATOM     84  F   UNL     1     -17.064  -5.006  -0.039  1.00  0.00    -0.206 F 
ATOM     85  C   UNL     1     -16.024  -6.844  -1.006  1.00  0.00     0.059 A 
ATOM     86  C   UNL     1     -14.816  -6.634  -3.061  1.00  0.00     0.059 A 
ATOM     87  F   UNL     1     -14.380  -4.567  -3.967  1.00  0.00    -0.206 F 
ATOM     88  C   UNL     1     -15.297  -7.427  -2.035  1.00  0.00     0.060 A 
BRANCH  88  89
ATOM     89  S   UNL     1     -14.987  -9.207  -2.032  1.00  0.00     0.124 S 
ATOM     90  O   UNL     1     -13.995  -9.342  -0.970  1.00  0.00    -0.237 OA
ATOM     91  O   UNL     1     -16.306  -9.759  -1.744  1.00  0.00    -0.237 OA
ATOM     92  O   UNL     1     -14.493  -9.468  -3.382  1.00  0.00    -0.744 OA
ENDBRANCH  88  89
ENDBRANCH  67  81
BRANCH  68  93
ATOM     93  C   UNL     1     -14.599   4.739  -1.205  1.00  0.00     0.058 A 
ATOM     94  C   UNL     1     -13.220   4.879  -1.051  1.00  0.00     0.135 A 
ATOM     95  C   UNL     1     -14.891   4.976  -2.520  1.00  0.00     0.135 A 
ATOM     96  F   UNL     1     -12.752   5.202   0.146  1.00  0.00    -0.206 F 
ATOM     97  C   UNL     1     -12.256   4.542  -2.060  1.00  0.00     0.059 A 
ATOM     98  C   UNL     1     -13.883   4.835  -3.539  1.00  0.00     0.059 A 
ATOM     99  F   UNL     1     -16.110   5.418  -2.865  1.00  0.00    -0.206 F 
ATOM    100  C   UNL     1     -12.612   4.275  -3.383  1.00  0.00     0.060 A 
BRANCH 100 101
ATOM    101  S   UNL     1     -11.485   3.181  -4.921  1.00  0.00     0.124 S 
ATOM    102  O   UNL     1     -10.048   3.283  -4.685  1.00  0.00    -0.237 OA
ATOM    103  O   UNL     1     -11.985   1.852  -4.757  1.00  0.00    -0.237 OA
ATOM    104  O   UNL     1     -11.601   3.782  -6.254  1.00  0.00    -0.744 OA
ENDBRANCH 100 101
ENDBRANCH  68  93
BRANCH  80 105
ATOM    105  C   UNL     1     -20.133   0.053   0.728  1.00  0.00     0.058 A 
ATOM    106  C   UNL     1     -21.211   0.929   0.523  1.00  0.00     0.135 A 
ATOM    107  C   UNL     1     -20.486  -1.278   1.068  1.00  0.00     0.135 A 
ATOM    108  F   UNL     1     -21.016   2.195   0.126  1.00  0.00    -0.206 F 
ATOM    109  C   UNL     1     -22.541   0.525   0.668  1.00  0.00     0.059 A 
ATOM    110  C   UNL     1     -21.804  -1.713   1.171  1.00  0.00     0.059 A 
ATOM    111  F   UNL     1     -19.557  -2.219   1.291  1.00  0.00    -0.206 F 
ATOM    112  C   UNL     1     -22.829  -0.800   0.983  1.00  0.00     0.060 A 
BRANCH 112 113
ATOM    113  S   UNL     1     -24.543  -1.348   1.072  1.00  0.00     0.124 S 
ATOM    114  O   UNL     1     -24.873  -1.044   2.460  1.00  0.00    -0.237 OA
ATOM    115  O   UNL     1     -25.200  -0.512   0.071  1.00  0.00    -0.237 OA
ATOM    116  O   UNL     1     -24.462  -2.766   0.736  1.00  0.00    -0.744 OA
ENDBRANCH 112 113
ENDBRANCH  80 105
ENDBRANCH  54  55
ENDBRANCH  47  49
ENDBRANCH  46  47
ENDBRANCH  45  46
ENDBRANCH  44  45
ENDBRANCH  43  44
ENDBRANCH   1  43
TORSDOF 24
