REMARK SMILES Cc1ccc(F)c(-c2ncccc2C(=O)OCCOCCOC(=O)c2ccc(-c3c4nc(c(-c5c(F)cc(S(=O)(=O)[O-])cc5F)c5ccc([nH]5)c(-c5c(F)cc(S(=O)(=O)[O-])cc5F)c5nc(c(-c6c(F)cc(S(=O)(=O)[O-])cc6F)c6ccc3[nH]6)C=C5)C=C4)cc2)c1
REMARK SMILES IDX 20 1 19 2 18 3 17 4 16 5 14 6 15 7 13 8 8 9 9 10 10 11 12 12
REMARK SMILES IDX 11 13 7 14 1 15 2 16 3 17 91 18 4 19 5 20 6 21 21 22 22 23
REMARK SMILES IDX 23 24 24 25 25 26 26 27 90 28 27 29 89 30 28 31 29 32 30 33
REMARK SMILES IDX 83 34 31 35 88 36 82 37 84 38 32 39 87 40 81 41 80 42 33 44
REMARK SMILES IDX 67 45 46 46 66 47 47 48 50 49 65 50 85 51 48 52 49 53 64 55
REMARK SMILES IDX 86 56 51 57 34 58 35 59 44 60 36 61 37 62 43 63 45 64 38 65
REMARK SMILES IDX 39 66 40 67 41 68 42 69 68 70 69 71 78 72 70 73 71 74 77 75
REMARK SMILES IDX 79 76 72 77 73 78 74 79 75 80 76 81 52 82 53 83 62 84 54 85
REMARK SMILES IDX 55 86 61 87 63 88 56 89 57 90 58 91 59 92 60 93
REMARK H PARENT 84 43 50 54
REMARK Flexibility Score: inf
ROOT
ATOM      1  C   UNL     1       2.188  -2.815   1.904  1.00  0.00     0.202 C 
ENDROOT
BRANCH   1   2
ATOM      2  O   UNL     1       2.425  -2.497   3.268  1.00  0.00    -0.374 OA
BRANCH   2   3
ATOM      3  C   UNL     1       1.653  -3.191   4.250  1.00  0.00     0.202 C 
BRANCH   3   4
ATOM      4  C   UNL     1       0.166  -2.838   4.350  1.00  0.00     0.261 C 
BRANCH   4   5
ATOM      5  O   UNL     1      -0.554  -3.327   3.202  1.00  0.00    -0.460 OA
BRANCH   5   6
ATOM      6  C   UNL     1      -1.217  -2.390   2.478  1.00  0.00     0.340 C 
ATOM      7  O   UNL     1      -1.347  -1.213   2.768  1.00  0.00    -0.246 OA
BRANCH   6   8
ATOM      8  C   UNL     1      -1.677  -2.992   1.206  1.00  0.00     0.086 A 
ATOM      9  C   UNL     1      -1.546  -2.308  -0.012  1.00  0.00     0.088 A 
ATOM     10  N   UNL     1      -1.977  -2.842  -1.190  1.00  0.00    -0.255 NA
ATOM     11  C   UNL     1      -2.558  -4.062  -1.150  1.00  0.00     0.112 A 
ATOM     12  C   UNL     1      -2.239  -4.275   1.200  1.00  0.00     0.019 A 
ATOM     13  C   UNL     1      -2.693  -4.816   0.003  1.00  0.00     0.021 A 
BRANCH   9  14
ATOM     14  C   UNL     1      -0.825  -1.038  -0.158  1.00  0.00     0.037 A 
ATOM     15  C   UNL     1       2.801   0.136  -0.528  1.00  0.00     0.044 C 
ATOM     16  C   UNL     1       1.304   0.157  -0.398  1.00  0.00    -0.050 A 
ATOM     17  C   UNL     1       0.644   1.366  -0.157  1.00  0.00     0.006 A 
ATOM     18  C   UNL     1       0.556  -1.030  -0.436  1.00  0.00     0.016 A 
ATOM     19  C   UNL     1      -0.737   1.384   0.040  1.00  0.00     0.040 A 
ATOM     20  C   UNL     1      -1.457   0.190   0.044  1.00  0.00     0.132 A 
ATOM     21  F   UNL     1      -2.777   0.239   0.277  1.00  0.00    -0.206 F 
ENDBRANCH   9  14
ENDBRANCH   6   8
ENDBRANCH   5   6
ENDBRANCH   4   5
ENDBRANCH   3   4
ENDBRANCH   2   3
ENDBRANCH   1   2
BRANCH   1  22
ATOM     22  C   UNL     1       2.851  -4.062   1.307  1.00  0.00     0.261 C 
BRANCH  22  23
ATOM     23  O   UNL     1       2.741  -5.213   2.141  1.00  0.00    -0.460 OA
BRANCH  23  24
ATOM     24  C   UNL     1       3.805  -5.375   2.965  1.00  0.00     0.338 C 
ATOM     25  O   UNL     1       4.834  -4.719   2.988  1.00  0.00    -0.246 OA
BRANCH  24  26
ATOM     26  C   UNL     1       3.462  -6.376   3.983  1.00  0.00     0.060 A 
ATOM     27  C   UNL     1       3.629  -6.015   5.324  1.00  0.00     0.016 A 
ATOM     28  C   UNL     1       3.007  -7.647   3.627  1.00  0.00     0.016 A 
ATOM     29  C   UNL     1       3.388  -6.949   6.323  1.00  0.00     0.010 A 
ATOM     30  C   UNL     1       2.771  -8.585   4.630  1.00  0.00     0.010 A 
ATOM     31  C   UNL     1       2.998  -8.250   5.977  1.00  0.00    -0.014 A 
BRANCH  31  32
ATOM     32  C   UNL     1       2.987  -9.302   7.015  1.00  0.00     0.031 A 
ATOM     33  C   UNL     1       4.144 -10.259   7.078  1.00  0.00     0.074 A 
ATOM     34  C   UNL     1       1.977  -9.377   7.898  1.00  0.00     0.049 A 
ATOM     35  N   UNL     1       4.333 -11.277   7.873  1.00  0.00    -0.248 NA
ATOM     36  C   UNL     1       5.232 -10.041   6.109  1.00  0.00     0.031 C 
ATOM     37  C   UNL     1       0.828  -8.473   7.944  1.00  0.00     0.029 A 
ATOM     38  N   UNL     1       1.755 -10.258   8.924  1.00  0.00    -0.354 N 
ATOM     39  C   UNL     1       5.554 -11.826   7.500  1.00  0.00     0.074 A 
ATOM     40  C   UNL     1       6.044 -11.052   6.380  1.00  0.00     0.031 C 
ATOM     41  C   UNL     1       0.017  -8.852   8.947  1.00  0.00     0.029 A 
ATOM     42  C   UNL     1       0.571 -10.043   9.586  1.00  0.00     0.049 A 
ATOM     43  H   UNL     1       2.385 -10.976   9.164  1.00  0.00     0.167 HD
ATOM     44  C   UNL     1       6.210 -12.873   8.051  1.00  0.00     0.037 A 
ATOM     45  C   UNL     1      -0.006 -10.745  10.580  1.00  0.00     0.037 A 
ATOM     46  C   UNL     1       5.707 -13.632   9.166  1.00  0.00     0.049 A 
ATOM     47  C   UNL     1       0.714 -11.948  11.134  1.00  0.00     0.074 A 
ATOM     48  C   UNL     1       6.295 -14.705   9.811  1.00  0.00     0.029 A 
ATOM     49  N   UNL     1       4.493 -13.401   9.797  1.00  0.00    -0.354 N 
ATOM     50  N   UNL     1       1.877 -12.447  10.786  1.00  0.00    -0.248 NA
ATOM     51  C   UNL     1       0.048 -12.680  12.220  1.00  0.00     0.031 C 
ATOM     52  C   UNL     1       5.410 -15.159  10.794  1.00  0.00     0.029 A 
ATOM     53  C   UNL     1       4.301 -14.326  10.809  1.00  0.00     0.049 A 
ATOM     54  H   UNL     1       3.860 -12.684   9.560  1.00  0.00     0.167 HD
ATOM     55  C   UNL     1       2.099 -13.527  11.634  1.00  0.00     0.074 A 
ATOM     56  C   UNL     1       0.951 -13.604  12.516  1.00  0.00     0.031 C 
ATOM     57  C   UNL     1       3.156 -14.376  11.685  1.00  0.00     0.037 A 
BRANCH  44  58
ATOM     58  C   UNL     1       7.526 -13.275   7.441  1.00  0.00     0.058 A 
ATOM     59  C   UNL     1       8.674 -12.475   7.556  1.00  0.00     0.135 A 
ATOM     60  C   UNL     1       7.647 -14.496   6.758  1.00  0.00     0.135 A 
ATOM     61  F   UNL     1       8.611 -11.287   8.180  1.00  0.00    -0.206 F 
ATOM     62  C   UNL     1       9.889 -12.860   6.998  1.00  0.00     0.059 A 
ATOM     63  C   UNL     1       8.860 -14.916   6.218  1.00  0.00     0.059 A 
ATOM     64  F   UNL     1       6.581 -15.298   6.611  1.00  0.00    -0.206 F 
ATOM     65  C   UNL     1       9.972 -14.084   6.333  1.00  0.00     0.060 A 
BRANCH  65  66
ATOM     66  S   UNL     1      11.559 -14.575   5.627  1.00  0.00     0.124 S 
ATOM     67  O   UNL     1      11.680 -13.645   4.508  1.00  0.00    -0.237 OA
ATOM     68  O   UNL     1      12.477 -14.351   6.739  1.00  0.00    -0.237 OA
ATOM     69  O   UNL     1      11.352 -15.972   5.260  1.00  0.00    -0.744 OA
ENDBRANCH  65  66
ENDBRANCH  44  58
BRANCH  45  70
ATOM     70  C   UNL     1      -1.333 -10.334  11.110  1.00  0.00     0.058 A 
ATOM     71  C   UNL     1      -1.473  -9.836  12.414  1.00  0.00     0.135 A 
ATOM     72  C   UNL     1      -2.491 -10.429  10.321  1.00  0.00     0.135 A 
ATOM     73  F   UNL     1      -0.398  -9.732  13.211  1.00  0.00    -0.206 F 
ATOM     74  C   UNL     1      -2.713  -9.467  12.925  1.00  0.00     0.059 A 
ATOM     75  C   UNL     1      -3.737 -10.038  10.799  1.00  0.00     0.059 A 
ATOM     76  F   UNL     1      -2.411 -10.885   9.061  1.00  0.00    -0.206 F 
ATOM     77  C   UNL     1      -3.840  -9.570  12.107  1.00  0.00     0.060 A 
BRANCH  77  78
ATOM     78  S   UNL     1      -5.438  -9.050  12.767  1.00  0.00     0.124 S 
ATOM     79  O   UNL     1      -5.718 -10.111  13.727  1.00  0.00    -0.237 OA
ATOM     80  O   UNL     1      -5.123  -7.742  13.332  1.00  0.00    -0.237 OA
ATOM     81  O   UNL     1      -6.296  -9.025  11.586  1.00  0.00    -0.744 OA
ENDBRANCH  77  78
ENDBRANCH  45  70
BRANCH  57  82
ATOM     82  C   UNL     1       3.153 -15.428  12.761  1.00  0.00     0.058 A 
ATOM     83  C   UNL     1       2.285 -16.530  12.723  1.00  0.00     0.135 A 
ATOM     84  C   UNL     1       4.076 -15.357  13.818  1.00  0.00     0.135 A 
ATOM     85  F   UNL     1       1.380 -16.644  11.738  1.00  0.00    -0.206 F 
ATOM     86  C   UNL     1       2.314 -17.511  13.708  1.00  0.00     0.059 A 
ATOM     87  C   UNL     1       4.145 -16.344  14.796  1.00  0.00     0.059 A 
ATOM     88  F   UNL     1       4.938 -14.331  13.896  1.00  0.00    -0.206 F 
ATOM     89  C   UNL     1       3.250 -17.411  14.739  1.00  0.00     0.060 A 
BRANCH  89  90
ATOM     90  S   UNL     1       3.299 -18.709  15.993  1.00  0.00     0.124 S 
ATOM     91  O   UNL     1       2.079 -18.436  16.746  1.00  0.00    -0.237 OA
ATOM     92  O   UNL     1       3.286 -19.924  15.183  1.00  0.00    -0.237 OA
ATOM     93  O   UNL     1       4.547 -18.450  16.704  1.00  0.00    -0.744 OA
ENDBRANCH  89  90
ENDBRANCH  57  82
ENDBRANCH  31  32
ENDBRANCH  24  26
ENDBRANCH  23  24
ENDBRANCH  22  23
ENDBRANCH   1  22
TORSDOF 18
