REMARK SMILES Cc1ccc(C(=O)OCCOCCOC(=O)c2ccc(-c3c4nc(c(-c5c(F)cc(S(=O)(=O)[O-])cc5F)c5ccc([nH]5)c(-c5c(F)cc(S(=O)(=O)[O-])cc5F)c5nc(c(-c6c(F)cc(S(=O)(=O)[O-])cc6F)c6ccc3[nH]6)C=C5)C=C4)cc2)cc1O[C@@H](C)C(=O)N[C@@H]1CCS(=O)(=O)C1
REMARK SMILES IDX 10 1 9 2 8 3 6 4 7 5 5 6 1 7 2 8 3 9 84 10 4 11 83 12 85 13
REMARK SMILES IDX 86 14 87 15 88 16 89 17 90 18 91 20 92 21 97 22 93 23 94 24
REMARK SMILES IDX 95 25 96 26 11 27 12 28 13 29 14 30 15 31 16 32 17 33 18 34
REMARK SMILES IDX 82 35 19 36 81 37 20 38 21 39 22 40 75 41 23 42 80 43 74 44
REMARK SMILES IDX 76 45 24 46 79 47 73 48 72 49 25 51 59 52 38 53 58 54 39 55
REMARK SMILES IDX 42 56 57 57 77 58 40 59 41 60 56 62 78 63 43 64 26 65 27 66
REMARK SMILES IDX 36 67 28 68 29 69 35 70 37 71 30 72 31 73 32 74 33 75 34 76
REMARK SMILES IDX 60 77 61 78 70 79 62 80 63 81 69 82 71 83 64 84 65 85 66 86
REMARK SMILES IDX 67 87 68 88 44 89 45 90 54 91 46 92 47 93 53 94 55 95 48 96
REMARK SMILES IDX 49 97 50 98 51 99 52 100
REMARK H PARENT 90 19 76 50 42 61
REMARK Flexibility Score: inf
ROOT
ATOM      1  C   UNL     1      -3.969   1.020  -2.357  1.00  0.00     0.202 C 
ENDROOT
BRANCH   1   2
ATOM      2  C   UNL     1      -3.730   1.633  -1.021  1.00  0.00     0.261 C 
BRANCH   2   3
ATOM      3  O   UNL     1      -2.573   1.159  -0.265  1.00  0.00    -0.460 OA
BRANCH   3   4
ATOM      4  C   UNL     1      -2.557  -0.022   0.422  1.00  0.00     0.338 C 
ATOM      5  O   UNL     1      -3.409  -0.888   0.465  1.00  0.00    -0.246 OA
BRANCH   4   6
ATOM      6  C   UNL     1      -1.225  -0.214   1.061  1.00  0.00     0.063 A 
ATOM      7  C   UNL     1       2.973  -0.953   1.754  1.00  0.00     0.048 C 
ATOM      8  C   UNL     1       1.519  -0.629   1.581  1.00  0.00    -0.009 A 
ATOM      9  C   UNL     1       0.611  -1.710   1.534  1.00  0.00     0.008 A 
ATOM     10  C   UNL     1       1.009   0.665   1.434  1.00  0.00     0.124 A 
ATOM     11  C   UNL     1      -0.742  -1.509   1.240  1.00  0.00     0.016 A 
ATOM     12  C   UNL     1      -0.374   0.865   1.294  1.00  0.00     0.062 A 
BRANCH  10  13
ATOM     13  O   UNL     1       1.686   1.832   1.356  1.00  0.00    -0.481 OA
BRANCH  13  14
ATOM     14  C   UNL     1       2.823   2.093   0.564  1.00  0.00     0.258 C 
ATOM     15  C   UNL     1       3.911   2.426   1.603  1.00  0.00     0.064 C 
BRANCH  14  16
ATOM     16  C   UNL     1       3.516   1.501  -0.744  1.00  0.00     0.261 C 
ATOM     17  O   UNL     1       4.673   1.835  -1.042  1.00  0.00    -0.271 OA
ATOM     18  N   UNL     1       2.899   0.729  -1.680  1.00  0.00    -0.349 N 
ATOM     19  H   UNL     1       3.429   0.568  -2.494  1.00  0.00     0.163 HD
BRANCH  18  20
ATOM     20  C   UNL     1       1.593   0.103  -1.677  1.00  0.00     0.098 C 
ATOM     21  C   UNL     1       1.386  -0.904  -2.835  1.00  0.00     0.042 C 
ATOM     22  C   UNL     1       0.479   1.131  -1.722  1.00  0.00     0.161 C 
ATOM     23  C   UNL     1       0.268  -0.402  -3.743  1.00  0.00     0.139 C 
ATOM     24  S   UNL     1       0.155   1.335  -3.434  1.00  0.00     0.152 S 
ATOM     25  O   UNL     1       1.268   2.000  -4.064  1.00  0.00    -0.229 OA
ATOM     26  O   UNL     1      -1.208   1.774  -3.625  1.00  0.00    -0.229 OA
ENDBRANCH  18  20
ENDBRANCH  14  16
ENDBRANCH  13  14
ENDBRANCH  10  13
ENDBRANCH   4   6
ENDBRANCH   3   4
ENDBRANCH   2   3
ENDBRANCH   1   2
BRANCH   1  27
ATOM     27  O   UNL     1      -3.983  -0.380  -2.152  1.00  0.00    -0.374 OA
BRANCH  27  28
ATOM     28  C   UNL     1      -3.813  -1.158  -3.308  1.00  0.00     0.202 C 
BRANCH  28  29
ATOM     29  C   UNL     1      -4.750  -0.789  -4.459  1.00  0.00     0.261 C 
BRANCH  29  30
ATOM     30  O   UNL     1      -6.098  -1.255  -4.221  1.00  0.00    -0.460 OA
BRANCH  30  31
ATOM     31  C   UNL     1      -7.014  -0.312  -3.837  1.00  0.00     0.338 C 
ATOM     32  O   UNL     1      -7.673   0.343  -4.625  1.00  0.00    -0.246 OA
BRANCH  31  33
ATOM     33  C   UNL     1      -7.168  -0.287  -2.353  1.00  0.00     0.060 A 
ATOM     34  C   UNL     1      -7.677   0.835  -1.674  1.00  0.00     0.016 A 
ATOM     35  C   UNL     1      -6.619  -1.332  -1.626  1.00  0.00     0.016 A 
ATOM     36  C   UNL     1      -7.473   0.984  -0.288  1.00  0.00     0.010 A 
ATOM     37  C   UNL     1      -6.318  -1.127  -0.299  1.00  0.00     0.010 A 
ATOM     38  C   UNL     1      -6.716   0.035   0.388  1.00  0.00    -0.014 A 
BRANCH  38  39
ATOM     39  C   UNL     1      -6.244   0.083   1.782  1.00  0.00     0.031 A 
ATOM     40  C   UNL     1      -6.656  -1.052   2.653  1.00  0.00     0.074 A 
ATOM     41  C   UNL     1      -5.204   0.877   2.157  1.00  0.00     0.049 A 
ATOM     42  N   UNL     1      -6.326  -1.175   3.887  1.00  0.00    -0.248 NA
ATOM     43  C   UNL     1      -7.502  -2.164   2.208  1.00  0.00     0.031 C 
ATOM     44  C   UNL     1      -4.203   0.631   3.201  1.00  0.00     0.029 A 
ATOM     45  N   UNL     1      -4.755   2.094   1.634  1.00  0.00    -0.354 N 
ATOM     46  C   UNL     1      -6.525  -2.489   4.249  1.00  0.00     0.074 A 
ATOM     47  C   UNL     1      -7.398  -3.012   3.235  1.00  0.00     0.031 C 
ATOM     48  C   UNL     1      -3.500   1.756   3.442  1.00  0.00     0.029 A 
ATOM     49  C   UNL     1      -4.101   2.809   2.641  1.00  0.00     0.049 A 
ATOM     50  H   UNL     1      -4.879   2.398   0.706  1.00  0.00     0.167 HD
ATOM     51  C   UNL     1      -5.776  -2.978   5.281  1.00  0.00     0.037 A 
ATOM     52  C   UNL     1      -4.576   4.022   3.026  1.00  0.00     0.037 A 
ATOM     53  C   UNL     1      -5.048  -1.867   5.928  1.00  0.00     0.049 A 
ATOM     54  C   UNL     1      -5.029   3.843   4.442  1.00  0.00     0.074 A 
ATOM     55  C   UNL     1      -3.714  -1.499   5.981  1.00  0.00     0.029 A 
ATOM     56  N   UNL     1      -5.771  -0.756   6.376  1.00  0.00    -0.354 N 
ATOM     57  N   UNL     1      -5.427   2.684   4.902  1.00  0.00    -0.248 NA
ATOM     58  C   UNL     1      -4.865   4.844   5.489  1.00  0.00     0.031 C 
ATOM     59  C   UNL     1      -3.656  -0.124   6.364  1.00  0.00     0.029 A 
ATOM     60  C   UNL     1      -4.951   0.343   6.553  1.00  0.00     0.049 A 
ATOM     61  H   UNL     1      -6.741  -0.756   6.544  1.00  0.00     0.167 HD
ATOM     62  C   UNL     1      -5.391   2.715   6.259  1.00  0.00     0.074 A 
ATOM     63  C   UNL     1      -5.121   4.108   6.586  1.00  0.00     0.031 C 
ATOM     64  C   UNL     1      -5.497   1.606   7.043  1.00  0.00     0.037 A 
BRANCH  51  65
ATOM     65  C   UNL     1      -5.508  -4.451   5.591  1.00  0.00     0.058 A 
ATOM     66  C   UNL     1      -4.586  -4.800   6.607  1.00  0.00     0.135 A 
ATOM     67  C   UNL     1      -6.045  -5.567   4.908  1.00  0.00     0.135 A 
ATOM     68  F   UNL     1      -3.992  -3.866   7.363  1.00  0.00    -0.206 F 
ATOM     69  C   UNL     1      -4.213  -6.119   6.895  1.00  0.00     0.059 A 
ATOM     70  C   UNL     1      -5.705  -6.896   5.193  1.00  0.00     0.059 A 
ATOM     71  F   UNL     1      -6.919  -5.450   3.908  1.00  0.00    -0.206 F 
ATOM     72  C   UNL     1      -4.779  -7.166   6.184  1.00  0.00     0.060 A 
BRANCH  72  73
ATOM     73  S   UNL     1      -4.305  -8.859   6.574  1.00  0.00     0.124 S 
ATOM     74  O   UNL     1      -2.883  -8.860   6.244  1.00  0.00    -0.237 OA
ATOM     75  O   UNL     1      -4.629  -8.949   7.994  1.00  0.00    -0.237 OA
ATOM     76  O   UNL     1      -5.147  -9.663   5.692  1.00  0.00    -0.744 OA
ENDBRANCH  72  73
ENDBRANCH  51  65
BRANCH  52  77
ATOM     77  C   UNL     1      -5.183   4.758   1.865  1.00  0.00     0.058 A 
ATOM     78  C   UNL     1      -4.280   5.234   0.881  1.00  0.00     0.135 A 
ATOM     79  C   UNL     1      -6.502   4.530   1.442  1.00  0.00     0.135 A 
ATOM     80  F   UNL     1      -2.994   5.454   1.206  1.00  0.00    -0.206 F 
ATOM     81  C   UNL     1      -4.623   5.331  -0.470  1.00  0.00     0.059 A 
ATOM     82  C   UNL     1      -6.865   4.614   0.087  1.00  0.00     0.059 A 
ATOM     83  F   UNL     1      -7.414   4.062   2.306  1.00  0.00    -0.206 F 
ATOM     84  C   UNL     1      -5.905   4.961  -0.867  1.00  0.00     0.060 A 
BRANCH  84  85
ATOM     85  S   UNL     1      -6.224   4.729  -2.639  1.00  0.00     0.124 S 
ATOM     86  O   UNL     1      -6.320   6.104  -3.113  1.00  0.00    -0.237 OA
ATOM     87  O   UNL     1      -5.039   3.989  -3.067  1.00  0.00    -0.237 OA
ATOM     88  O   UNL     1      -7.466   3.966  -2.659  1.00  0.00    -0.744 OA
ENDBRANCH  84  85
ENDBRANCH  52  77
BRANCH  64  89
ATOM     89  C   UNL     1      -6.099   1.668   8.411  1.00  0.00     0.058 A 
ATOM     90  C   UNL     1      -6.987   2.688   8.797  1.00  0.00     0.135 A 
ATOM     91  C   UNL     1      -5.960   0.588   9.310  1.00  0.00     0.135 A 
ATOM     92  F   UNL     1      -7.306   3.699   7.975  1.00  0.00    -0.206 F 
ATOM     93  C   UNL     1      -7.613   2.691  10.034  1.00  0.00     0.059 A 
ATOM     94  C   UNL     1      -6.637   0.534  10.518  1.00  0.00     0.059 A 
ATOM     95  F   UNL     1      -5.177  -0.466   9.038  1.00  0.00    -0.206 F 
ATOM     96  C   UNL     1      -7.426   1.612  10.889  1.00  0.00     0.060 A 
BRANCH  96  97
ATOM     97  S   UNL     1      -8.226   1.633  12.492  1.00  0.00     0.124 S 
ATOM     98  O   UNL     1      -7.322   2.496  13.245  1.00  0.00    -0.237 OA
ATOM     99  O   UNL     1      -9.535   2.202  12.185  1.00  0.00    -0.237 OA
ATOM    100  O   UNL     1      -8.235   0.228  12.885  1.00  0.00    -0.744 OA
ENDBRANCH  96  97
ENDBRANCH  64  89
ENDBRANCH  38  39
ENDBRANCH  31  33
ENDBRANCH  30  31
ENDBRANCH  29  30
ENDBRANCH  28  29
ENDBRANCH  27  28
ENDBRANCH   1  27
TORSDOF 21
