REMARK SMILES C[C@@H](C(=O)OCCOCCOC(=O)c1ccc(-c2c3nc(c(-c4c(F)cc(S(=O)(=O)[O-])cc4F)c4ccc([nH]4)c(-c4c(F)cc(S(=O)(=O)[O-])cc4F)c4nc(c(-c5c(F)cc(S(=O)(=O)[O-])cc5F)c5ccc2[nH]5)C=C4)C=C3)cc1)c1ccc(-c2cccc(OC(=O)NCCC3CCCCC3)c2)c(F)c1
REMARK SMILES IDX 6 1 5 2 3 3 4 4 2 5 1 6 80 7 81 8 104 9 82 10 102 11 83 12
REMARK SMILES IDX 103 13 84 14 85 15 101 16 86 17 88 18 87 19 89 20 90 21
REMARK SMILES IDX 91 22 92 23 93 25 94 26 95 27 96 28 100 29 97 30 99 31 98 32
REMARK SMILES IDX 7 33 8 34 9 35 10 36 11 37 12 38 13 39 14 40 15 41 79 42
REMARK SMILES IDX 16 43 78 44 17 45 18 46 19 47 72 48 20 49 77 50 71 51 73 52
REMARK SMILES IDX 21 53 76 54 70 55 69 56 22 58 56 59 35 60 55 61 36 62 39 63
REMARK SMILES IDX 54 64 74 65 37 66 38 67 53 69 75 70 40 71 23 72 24 73 33 74
REMARK SMILES IDX 25 75 26 76 32 77 34 78 27 79 28 80 29 81 30 82 31 83 57 84
REMARK SMILES IDX 58 85 67 86 59 87 60 88 66 89 68 90 61 91 62 92 63 93 64 94
REMARK SMILES IDX 65 95 41 96 42 97 51 98 43 99 44 100 50 101 52 102 45 103
REMARK SMILES IDX 46 104 47 105 48 106 49 107
REMARK H PARENT 92 24 73 57 39 68
REMARK Flexibility Score: inf
ROOT
ATOM      1  C   UNL     1       2.321  -1.837   3.733  1.00  0.00     0.261 C 
ENDROOT
BRANCH   1   2
ATOM      2  O   UNL     1       2.008  -1.499   2.371  1.00  0.00    -0.463 OA
BRANCH   2   3
ATOM      3  C   UNL     1       1.004  -2.225   1.807  1.00  0.00     0.313 C 
ATOM      4  O   UNL     1       0.497  -3.215   2.326  1.00  0.00    -0.252 OA
BRANCH   3   5
ATOM      5  C   UNL     1       0.535  -1.658   0.455  1.00  0.00     0.126 C 
ATOM      6  C   UNL     1       1.325  -0.438  -0.032  1.00  0.00     0.025 C 
BRANCH   5   7
ATOM      7  C   UNL     1      -0.985  -1.467   0.457  1.00  0.00    -0.031 A 
ATOM      8  C   UNL     1      -1.624  -0.220   0.537  1.00  0.00     0.005 A 
ATOM      9  C   UNL     1      -1.794  -2.614   0.454  1.00  0.00     0.044 A 
ATOM     10  C   UNL     1      -3.023  -0.129   0.644  1.00  0.00     0.012 A 
ATOM     11  C   UNL     1      -3.179  -2.517   0.567  1.00  0.00     0.131 A 
ATOM     12  C   UNL     1      -3.825  -1.280   0.678  1.00  0.00     0.018 A 
ATOM     13  F   UNL     1      -3.890  -3.655   0.588  1.00  0.00    -0.206 F 
BRANCH  12  14
ATOM     14  C   UNL     1      -5.278  -1.205   0.893  1.00  0.00    -0.012 A 
ATOM     15  C   UNL     1      -6.123  -0.495   0.027  1.00  0.00     0.009 A 
ATOM     16  C   UNL     1      -5.855  -1.870   1.991  1.00  0.00     0.056 A 
ATOM     17  C   UNL     1      -7.505  -0.465   0.243  1.00  0.00     0.004 A 
ATOM     18  C   UNL     1      -7.229  -1.822   2.220  1.00  0.00     0.133 A 
ATOM     19  C   UNL     1      -8.059  -1.130   1.339  1.00  0.00     0.047 A 
BRANCH  18  20
ATOM     20  O   UNL     1      -7.880  -2.452   3.312  1.00  0.00    -0.410 OA
BRANCH  20  21
ATOM     21  C   UNL     1      -7.229  -2.970   4.429  1.00  0.00     0.412 C 
ATOM     22  O   UNL     1      -6.018  -3.014   4.620  1.00  0.00    -0.224 OA
ATOM     23  N   UNL     1      -8.068  -3.441   5.396  1.00  0.00    -0.321 N 
ATOM     24  H   UNL     1      -7.634  -3.793   6.206  1.00  0.00     0.167 HD
BRANCH  23  25
ATOM     25  C   UNL     1      -9.513  -3.491   5.384  1.00  0.00     0.119 C 
BRANCH  25  26
ATOM     26  C   UNL     1     -10.022  -4.934   5.414  1.00  0.00     0.025 C 
BRANCH  26  27
ATOM     27  C   UNL     1      -9.595  -5.743   6.660  1.00  0.00    -0.009 C 
ATOM     28  C   UNL     1     -10.245  -5.209   7.948  1.00  0.00     0.003 C 
ATOM     29  C   UNL     1      -9.935  -7.230   6.458  1.00  0.00     0.003 C 
ATOM     30  C   UNL     1      -9.895  -6.063   9.166  1.00  0.00     0.000 C 
ATOM     31  C   UNL     1      -9.563  -8.067   7.680  1.00  0.00     0.000 C 
ATOM     32  C   UNL     1     -10.230  -7.534   8.942  1.00  0.00     0.000 C 
ENDBRANCH  26  27
ENDBRANCH  25  26
ENDBRANCH  23  25
ENDBRANCH  20  21
ENDBRANCH  18  20
ENDBRANCH  12  14
ENDBRANCH   5   7
ENDBRANCH   3   5
ENDBRANCH   2   3
ENDBRANCH   1   2
BRANCH   1  33
ATOM     33  C   UNL     1       2.088  -0.658   4.683  1.00  0.00     0.202 C 
BRANCH  33  34
ATOM     34  O   UNL     1       0.791  -0.068   4.713  1.00  0.00    -0.374 OA
BRANCH  34  35
ATOM     35  C   UNL     1       0.371   0.694   3.585  1.00  0.00     0.202 C 
BRANCH  35  36
ATOM     36  C   UNL     1       1.054   2.044   3.319  1.00  0.00     0.261 C 
BRANCH  36  37
ATOM     37  O   UNL     1       2.465   1.933   3.061  1.00  0.00    -0.460 OA
BRANCH  37  38
ATOM     38  C   UNL     1       3.253   2.450   4.038  1.00  0.00     0.338 C 
ATOM     39  O   UNL     1       2.887   3.027   5.048  1.00  0.00    -0.246 OA
BRANCH  38  40
ATOM     40  C   UNL     1       4.659   2.054   3.827  1.00  0.00     0.060 A 
ATOM     41  C   UNL     1       5.290   1.344   4.857  1.00  0.00     0.016 A 
ATOM     42  C   UNL     1       5.374   2.455   2.699  1.00  0.00     0.016 A 
ATOM     43  C   UNL     1       6.654   1.073   4.785  1.00  0.00     0.010 A 
ATOM     44  C   UNL     1       6.747   2.189   2.632  1.00  0.00     0.010 A 
ATOM     45  C   UNL     1       7.400   1.531   3.691  1.00  0.00    -0.014 A 
BRANCH  45  46
ATOM     46  C   UNL     1       8.881   1.444   3.731  1.00  0.00     0.031 A 
ATOM     47  C   UNL     1       9.680   2.683   4.036  1.00  0.00     0.074 A 
ATOM     48  C   UNL     1       9.504   0.267   3.535  1.00  0.00     0.049 A 
ATOM     49  N   UNL     1      10.977   2.843   4.080  1.00  0.00    -0.248 NA
ATOM     50  C   UNL     1       8.912   3.904   4.328  1.00  0.00     0.031 C 
ATOM     51  C   UNL     1       8.836  -1.007   3.275  1.00  0.00     0.029 A 
ATOM     52  N   UNL     1      10.841  -0.043   3.517  1.00  0.00    -0.354 N 
ATOM     53  C   UNL     1      11.182   4.182   4.395  1.00  0.00     0.074 A 
ATOM     54  C   UNL     1       9.877   4.797   4.496  1.00  0.00     0.031 C 
ATOM     55  C   UNL     1       9.768  -1.962   3.111  1.00  0.00     0.029 A 
ATOM     56  C   UNL     1      11.096  -1.360   3.217  1.00  0.00     0.049 A 
ATOM     57  H   UNL     1      11.549   0.615   3.702  1.00  0.00     0.167 HD
ATOM     58  C   UNL     1      12.353   4.835   4.591  1.00  0.00     0.037 A 
ATOM     59  C   UNL     1      12.266  -2.000   3.022  1.00  0.00     0.037 A 
ATOM     60  C   UNL     1      13.649   4.213   4.488  1.00  0.00     0.049 A 
ATOM     61  C   UNL     1      13.557  -1.237   3.175  1.00  0.00     0.074 A 
ATOM     62  C   UNL     1      14.895   4.784   4.683  1.00  0.00     0.029 A 
ATOM     63  N   UNL     1      13.867   2.884   4.155  1.00  0.00    -0.354 N 
ATOM     64  N   UNL     1      13.738   0.024   3.490  1.00  0.00    -0.248 NA
ATOM     65  C   UNL     1      14.802  -1.984   2.951  1.00  0.00     0.031 C 
ATOM     66  C   UNL     1      15.867   3.816   4.410  1.00  0.00     0.029 A 
ATOM     67  C   UNL     1      15.227   2.623   4.110  1.00  0.00     0.049 A 
ATOM     68  H   UNL     1      13.160   2.223   3.977  1.00  0.00     0.167 HD
ATOM     69  C   UNL     1      15.116   0.213   3.532  1.00  0.00     0.074 A 
ATOM     70  C   UNL     1      15.720  -1.066   3.221  1.00  0.00     0.031 C 
ATOM     71  C   UNL     1      15.817   1.342   3.806  1.00  0.00     0.037 A 
BRANCH  58  72
ATOM     72  C   UNL     1      12.290   6.306   4.908  1.00  0.00     0.058 A 
ATOM     73  C   UNL     1      11.803   6.782   6.136  1.00  0.00     0.135 A 
ATOM     74  C   UNL     1      12.758   7.253   3.982  1.00  0.00     0.135 A 
ATOM     75  F   UNL     1      11.327   5.924   7.053  1.00  0.00    -0.206 F 
ATOM     76  C   UNL     1      11.756   8.143   6.423  1.00  0.00     0.059 A 
ATOM     77  C   UNL     1      12.751   8.617   4.260  1.00  0.00     0.059 A 
ATOM     78  F   UNL     1      13.234   6.856   2.791  1.00  0.00    -0.206 F 
ATOM     79  C   UNL     1      12.233   9.053   5.479  1.00  0.00     0.060 A 
BRANCH  79  80
ATOM     80  S   UNL     1      12.169  10.814   5.869  1.00  0.00     0.124 S 
ATOM     81  O   UNL     1      10.734  11.075   5.803  1.00  0.00    -0.237 OA
ATOM     82  O   UNL     1      12.761  10.859   7.202  1.00  0.00    -0.237 OA
ATOM     83  O   UNL     1      12.966  11.428   4.811  1.00  0.00    -0.744 OA
ENDBRANCH  79  80
ENDBRANCH  58  72
BRANCH  59  84
ATOM     84  C   UNL     1      12.270  -3.439   2.642  1.00  0.00     0.058 A 
ATOM     85  C   UNL     1      12.753  -4.422   3.517  1.00  0.00     0.135 A 
ATOM     86  C   UNL     1      11.783  -3.859   1.393  1.00  0.00     0.135 A 
ATOM     87  F   UNL     1      13.240  -4.071   4.717  1.00  0.00    -0.206 F 
ATOM     88  C   UNL     1      12.768  -5.768   3.164  1.00  0.00     0.059 A 
ATOM     89  C   UNL     1      11.759  -5.201   1.030  1.00  0.00     0.059 A 
ATOM     90  F   UNL     1      11.299  -2.959   0.522  1.00  0.00    -0.206 F 
ATOM     91  C   UNL     1      12.263  -6.148   1.919  1.00  0.00     0.060 A 
BRANCH  91  92
ATOM     92  S   UNL     1      12.240  -7.903   1.494  1.00  0.00     0.124 S 
ATOM     93  O   UNL     1      13.658  -8.175   1.291  1.00  0.00    -0.237 OA
ATOM     94  O   UNL     1      11.637  -8.496   2.683  1.00  0.00    -0.237 OA
ATOM     95  O   UNL     1      11.411  -7.945   0.292  1.00  0.00    -0.744 OA
ENDBRANCH  91  92
ENDBRANCH  59  84
BRANCH  71  96
ATOM     96  C   UNL     1      17.320   1.242   3.825  1.00  0.00     0.058 A 
ATOM     97  C   UNL     1      18.069   1.070   2.650  1.00  0.00     0.135 A 
ATOM     98  C   UNL     1      18.024   1.377   5.034  1.00  0.00     0.135 A 
ATOM     99  F   UNL     1      17.449   0.931   1.468  1.00  0.00    -0.206 F 
ATOM    100  C   UNL     1      19.459   1.008   2.676  1.00  0.00     0.059 A 
ATOM    101  C   UNL     1      19.414   1.351   5.079  1.00  0.00     0.059 A 
ATOM    102  F   UNL     1      17.360   1.555   6.187  1.00  0.00    -0.206 F 
ATOM    103  C   UNL     1      20.123   1.154   3.896  1.00  0.00     0.060 A 
BRANCH 103 104
ATOM    104  S   UNL     1      21.928   1.105   3.909  1.00  0.00     0.124 S 
ATOM    105  O   UNL     1      22.187  -0.308   3.653  1.00  0.00    -0.237 OA
ATOM    106  O   UNL     1      22.272   2.020   2.825  1.00  0.00    -0.237 OA
ATOM    107  O   UNL     1      22.272   1.573   5.249  1.00  0.00    -0.744 OA
ENDBRANCH 103 104
ENDBRANCH  71  96
ENDBRANCH  45  46
ENDBRANCH  38  40
ENDBRANCH  37  38
ENDBRANCH  36  37
ENDBRANCH  35  36
ENDBRANCH  34  35
ENDBRANCH  33  34
ENDBRANCH   1  33
TORSDOF 24
