REMARK SMILES Cc1cc(-c2cc(C(=O)OCCOCCOC(=O)c3ccc(-c4c5nc(c(-c6c(F)cc(S(=O)(=O)[O-])cc6F)c6ccc([nH]6)c(-c6c(F)cc(S(=O)(=O)[O-])cc6F)c6nc(c(-c7c(F)cc(S(=O)(=O)[O-])cc7F)c7ccc4[nH]7)C=C6)C=C5)cc3)c[nH]c2=O)ccc1Cl
REMARK SMILES IDX 14 1 13 2 12 3 11 4 10 5 8 6 9 7 7 8 5 9 6 10 87 11 86 12
REMARK SMILES IDX 88 13 85 14 4 16 1 17 2 18 3 19 91 20 90 21 92 22 89 23
REMARK SMILES IDX 15 24 16 25 17 26 18 27 19 28 20 29 84 30 21 31 83 32 22 33
REMARK SMILES IDX 23 34 24 35 77 36 25 37 82 38 76 39 78 40 26 41 81 42 75 43
REMARK SMILES IDX 74 44 27 46 61 47 40 48 60 49 41 50 44 51 59 52 79 53 42 54
REMARK SMILES IDX 43 55 58 57 80 58 45 59 28 60 29 61 38 62 30 63 31 64 37 65
REMARK SMILES IDX 39 66 32 67 33 68 34 69 35 70 36 71 62 72 63 73 72 74 64 75
REMARK SMILES IDX 65 76 71 77 73 78 66 79 67 80 68 81 69 82 70 83 46 84 47 85
REMARK SMILES IDX 56 86 48 87 49 88 55 89 57 90 50 91 51 92 52 93 53 94 54 95
REMARK H PARENT 86 15 78 45 44 56
REMARK Flexibility Score: inf
ROOT
ATOM      1  C   UNL     1      -7.913   0.623   3.311  1.00  0.00     0.202 C 
ENDROOT
BRANCH   1   2
ATOM      2  O   UNL     1      -8.695  -0.436   3.865  1.00  0.00    -0.374 OA
BRANCH   2   3
ATOM      3  C   UNL     1      -7.978  -1.546   4.410  1.00  0.00     0.202 C 
BRANCH   3   4
ATOM      4  C   UNL     1      -7.545  -2.608   3.393  1.00  0.00     0.261 C 
BRANCH   4   5
ATOM      5  O   UNL     1      -6.586  -2.067   2.465  1.00  0.00    -0.460 OA
BRANCH   5   6
ATOM      6  C   UNL     1      -7.024  -1.927   1.190  1.00  0.00     0.339 C 
ATOM      7  O   UNL     1      -8.074  -2.354   0.732  1.00  0.00    -0.246 OA
BRANCH   6   8
ATOM      8  C   UNL     1      -6.114  -1.026   0.434  1.00  0.00     0.077 A 
ATOM      9  C   UNL     1      -3.894  -0.157  -0.132  1.00  0.00     0.048 A 
ATOM     10  C   UNL     1      -4.673  -0.975   0.611  1.00  0.00     0.031 A 
ATOM     11  C   UNL     1      -4.579   0.766  -1.116  1.00  0.00     0.255 A 
ATOM     12  N   UNL     1      -5.949   0.669  -1.189  1.00  0.00    -0.328 N 
ATOM     13  O   UNL     1      -3.976   1.566  -1.825  1.00  0.00    -0.269 OA
ATOM     14  C   UNL     1      -6.700  -0.206  -0.451  1.00  0.00     0.101 A 
ATOM     15  H   UNL     1      -6.421   1.267  -1.812  1.00  0.00     0.169 HD
BRANCH   9  16
ATOM     16  C   UNL     1      -2.417  -0.185  -0.012  1.00  0.00    -0.012 A 
ATOM     17  C   UNL     1       0.502   2.283   0.037  1.00  0.00     0.046 C 
ATOM     18  C   UNL     1      -0.257   0.985   0.048  1.00  0.00    -0.032 A 
ATOM     19  C   UNL     1      -1.665   1.002   0.013  1.00  0.00     0.014 A 
ATOM     20  C   UNL     1       0.400  -0.253   0.068  1.00  0.00     0.044 A 
ATOM     21  C   UNL     1      -0.332  -1.440   0.057  1.00  0.00     0.021 A 
ATOM     22  Cl  UNL     1       2.123  -0.364   0.087  1.00  0.00    -0.084 Cl
ATOM     23  C   UNL     1      -1.728  -1.407   0.011  1.00  0.00     0.010 A 
ENDBRANCH   9  16
ENDBRANCH   6   8
ENDBRANCH   5   6
ENDBRANCH   4   5
ENDBRANCH   3   4
ENDBRANCH   2   3
ENDBRANCH   1   2
BRANCH   1  24
ATOM     24  C   UNL     1      -7.338   1.634   4.310  1.00  0.00     0.261 C 
BRANCH  24  25
ATOM     25  O   UNL     1      -6.350   1.035   5.166  1.00  0.00    -0.460 OA
BRANCH  25  26
ATOM     26  C   UNL     1      -6.741   0.875   6.452  1.00  0.00     0.338 C 
ATOM     27  O   UNL     1      -7.785   1.268   6.956  1.00  0.00    -0.246 OA
BRANCH  26  28
ATOM     28  C   UNL     1      -5.803  -0.012   7.167  1.00  0.00     0.060 A 
ATOM     29  C   UNL     1      -6.358  -1.060   7.910  1.00  0.00     0.016 A 
ATOM     30  C   UNL     1      -4.422   0.203   7.168  1.00  0.00     0.016 A 
ATOM     31  C   UNL     1      -5.542  -1.861   8.704  1.00  0.00     0.010 A 
ATOM     32  C   UNL     1      -3.603  -0.603   7.969  1.00  0.00     0.010 A 
ATOM     33  C   UNL     1      -4.164  -1.614   8.770  1.00  0.00    -0.014 A 
BRANCH  33  34
ATOM     34  C   UNL     1      -3.350  -2.341   9.775  1.00  0.00     0.031 A 
ATOM     35  C   UNL     1      -2.997  -1.659  11.070  1.00  0.00     0.074 A 
ATOM     36  C   UNL     1      -2.981  -3.617   9.561  1.00  0.00     0.049 A 
ATOM     37  N   UNL     1      -2.348  -2.130  12.104  1.00  0.00    -0.248 NA
ATOM     38  C   UNL     1      -3.434  -0.262  11.220  1.00  0.00     0.031 C 
ATOM     39  C   UNL     1      -3.282  -4.391   8.357  1.00  0.00     0.029 A 
ATOM     40  N   UNL     1      -2.279  -4.488  10.354  1.00  0.00    -0.354 N 
ATOM     41  C   UNL     1      -2.294  -1.090  13.025  1.00  0.00     0.074 A 
ATOM     42  C   UNL     1      -2.950   0.047  12.415  1.00  0.00     0.031 C 
ATOM     43  C   UNL     1      -2.772  -5.627   8.495  1.00  0.00     0.029 A 
ATOM     44  C   UNL     1      -2.092  -5.725   9.785  1.00  0.00     0.049 A 
ATOM     45  H   UNL     1      -1.940  -4.250  11.248  1.00  0.00     0.167 HD
ATOM     46  C   UNL     1      -1.758  -1.085  14.269  1.00  0.00     0.037 A 
ATOM     47  C   UNL     1      -1.443  -6.810  10.250  1.00  0.00     0.037 A 
ATOM     48  C   UNL     1      -1.112  -2.221  14.877  1.00  0.00     0.049 A 
ATOM     49  C   UNL     1      -0.819  -6.767  11.620  1.00  0.00     0.074 A 
ATOM     50  C   UNL     1      -0.572  -2.327  16.147  1.00  0.00     0.029 A 
ATOM     51  N   UNL     1      -0.909  -3.444  14.254  1.00  0.00    -0.354 N 
ATOM     52  N   UNL     1      -0.815  -5.790  12.496  1.00  0.00    -0.248 NA
ATOM     53  C   UNL     1      -0.118  -7.978  12.067  1.00  0.00     0.031 C 
ATOM     54  C   UNL     1       0.001  -3.598  16.275  1.00  0.00     0.029 A 
ATOM     55  C   UNL     1      -0.226  -4.301  15.102  1.00  0.00     0.049 A 
ATOM     56  H   UNL     1      -1.206  -3.670  13.343  1.00  0.00     0.167 HD
ATOM     57  C   UNL     1      -0.133  -6.277  13.607  1.00  0.00     0.074 A 
ATOM     58  C   UNL     1       0.246  -7.641  13.297  1.00  0.00     0.031 C 
ATOM     59  C   UNL     1       0.151  -5.654  14.778  1.00  0.00     0.037 A 
BRANCH  46  60
ATOM     60  C   UNL     1      -1.825   0.199  15.050  1.00  0.00     0.058 A 
ATOM     61  C   UNL     1      -3.030   0.676  15.590  1.00  0.00     0.135 A 
ATOM     62  C   UNL     1      -0.661   0.948  15.285  1.00  0.00     0.135 A 
ATOM     63  F   UNL     1      -4.176   0.009  15.381  1.00  0.00    -0.206 F 
ATOM     64  C   UNL     1      -3.083   1.866  16.310  1.00  0.00     0.059 A 
ATOM     65  C   UNL     1      -0.686   2.127  16.024  1.00  0.00     0.059 A 
ATOM     66  F   UNL     1       0.518   0.537  14.790  1.00  0.00    -0.206 F 
ATOM     67  C   UNL     1      -1.906   2.585  16.520  1.00  0.00     0.060 A 
BRANCH  67  68
ATOM     68  S   UNL     1      -1.989   4.128  17.455  1.00  0.00     0.124 S 
ATOM     69  O   UNL     1      -2.613   5.022  16.485  1.00  0.00    -0.237 OA
ATOM     70  O   UNL     1      -2.817   3.757  18.598  1.00  0.00    -0.237 OA
ATOM     71  O   UNL     1      -0.592   4.414  17.765  1.00  0.00    -0.744 OA
ENDBRANCH  67  68
ENDBRANCH  46  60
BRANCH  47  72
ATOM     72  C   UNL     1      -1.358  -8.038   9.416  1.00  0.00     0.058 A 
ATOM     73  C   UNL     1      -2.060  -9.201   9.765  1.00  0.00     0.135 A 
ATOM     74  C   UNL     1      -0.572  -8.072   8.254  1.00  0.00     0.135 A 
ATOM     75  F   UNL     1      -2.816  -9.221  10.874  1.00  0.00    -0.206 F 
ATOM     76  C   UNL     1      -1.978 -10.359   8.999  1.00  0.00     0.059 A 
ATOM     77  C   UNL     1      -0.493  -9.210   7.458  1.00  0.00     0.059 A 
ATOM     78  F   UNL     1       0.111  -6.982   7.872  1.00  0.00    -0.206 F 
ATOM     79  C   UNL     1      -1.193 -10.352   7.844  1.00  0.00     0.060 A 
BRANCH  79  80
ATOM     80  S   UNL     1      -1.138 -11.841   6.824  1.00  0.00     0.124 S 
ATOM     81  O   UNL     1      -0.286 -12.714   7.623  1.00  0.00    -0.237 OA
ATOM     82  O   UNL     1      -2.547 -12.215   6.750  1.00  0.00    -0.237 OA
ATOM     83  O   UNL     1      -0.558 -11.366   5.571  1.00  0.00    -0.744 OA
ENDBRANCH  79  80
ENDBRANCH  47  72
BRANCH  59  84
ATOM     84  C   UNL     1       0.887  -6.454  15.819  1.00  0.00     0.058 A 
ATOM     85  C   UNL     1       2.243  -6.787  15.673  1.00  0.00     0.135 A 
ATOM     86  C   UNL     1       0.230  -6.882  16.985  1.00  0.00     0.135 A 
ATOM     87  F   UNL     1       2.918  -6.406  14.577  1.00  0.00    -0.206 F 
ATOM     88  C   UNL     1       2.910  -7.552  16.625  1.00  0.00     0.059 A 
ATOM     89  C   UNL     1       0.885  -7.624  17.963  1.00  0.00     0.059 A 
ATOM     90  F   UNL     1      -1.063  -6.579  17.183  1.00  0.00    -0.206 F 
ATOM     91  C   UNL     1       2.221  -7.971  17.764  1.00  0.00     0.060 A 
BRANCH  91  92
ATOM     92  S   UNL     1       3.093  -8.968  18.990  1.00  0.00     0.124 S 
ATOM     93  O   UNL     1       3.122 -10.274  18.339  1.00  0.00    -0.237 OA
ATOM     94  O   UNL     1       4.378  -8.284  19.096  1.00  0.00    -0.237 OA
ATOM     95  O   UNL     1       2.241  -8.874  20.172  1.00  0.00    -0.744 OA
ENDBRANCH  91  92
ENDBRANCH  59  84
ENDBRANCH  33  34
ENDBRANCH  26  28
ENDBRANCH  25  26
ENDBRANCH  24  25
ENDBRANCH   1  24
TORSDOF 18
