REMARK SMILES O=C(C[C@@H](NC(=O)C1CCC1)c1ccc(Cl)cc1)OCCOCCOC(=O)c1ccc(-c2c3nc(c(-c4c(F)cc(S(=O)(=O)[O-])cc4F)c4ccc([nH]4)c(-c4c(F)cc(S(=O)(=O)[O-])cc4F)c4nc(c(-c5c(F)cc(S(=O)(=O)[O-])cc5F)c5ccc2[nH]5)C=C4)C=C3)cc1
REMARK SMILES IDX 22 1 21 2 20 3 19 4 2 5 1 6 3 7 4 8 5 9 6 10 7 12 8 13 9 14
REMARK SMILES IDX 11 15 10 16 12 17 13 18 18 19 14 20 17 21 15 22 16 23 23 24
REMARK SMILES IDX 24 25 25 26 26 27 27 28 28 29 29 30 93 31 30 32 92 33 31 34
REMARK SMILES IDX 32 35 33 36 86 37 34 38 91 39 85 40 87 41 35 42 90 43 84 44
REMARK SMILES IDX 83 45 36 47 70 48 49 49 69 50 50 51 53 52 68 53 88 54 51 55
REMARK SMILES IDX 52 56 67 58 89 59 54 60 37 61 38 62 47 63 39 64 40 65 46 66
REMARK SMILES IDX 48 67 41 68 42 69 43 70 44 71 45 72 71 73 72 74 81 75 73 76
REMARK SMILES IDX 74 77 80 78 82 79 75 80 76 81 77 82 78 83 79 84 55 85 56 86
REMARK SMILES IDX 65 87 57 88 58 89 64 90 66 91 59 92 60 93 61 94 62 95 63 96
REMARK H PARENT 5 11 87 46 53 57
REMARK Flexibility Score: inf
ROOT
ATOM      1  O   UNL     1       3.989  -1.154   1.296  1.00  0.00    -0.374 OA
ENDROOT
BRANCH   1   2
ATOM      2  C   UNL     1       4.652   0.073   1.036  1.00  0.00     0.202 C 
BRANCH   2   3
ATOM      3  C   UNL     1       3.980   1.127   0.153  1.00  0.00     0.261 C 
BRANCH   3   4
ATOM      4  O   UNL     1       2.646   0.869  -0.306  1.00  0.00    -0.463 OA
BRANCH   4   5
ATOM      5  C   UNL     1       2.318   0.105  -1.365  1.00  0.00     0.308 C 
ATOM      6  O   UNL     1       1.311   0.371  -2.020  1.00  0.00    -0.252 OA
BRANCH   5   7
ATOM      7  C   UNL     1       3.067  -1.170  -1.631  1.00  0.00     0.152 C 
BRANCH   7   8
ATOM      8  C   UNL     1       4.057  -1.142  -2.795  1.00  0.00     0.123 C 
BRANCH   8   9
ATOM      9  N   UNL     1       5.197  -0.252  -2.510  1.00  0.00    -0.348 N 
ATOM     10  C   UNL     1       6.409  -0.383  -1.869  1.00  0.00     0.223 C 
ATOM     11  H   UNL     1       5.058   0.656  -2.864  1.00  0.00     0.164 HD
ATOM     12  O   UNL     1       6.954   0.696  -1.582  1.00  0.00    -0.275 OA
BRANCH  10  13
ATOM     13  C   UNL     1       7.099  -1.734  -1.606  1.00  0.00     0.078 C 
ATOM     14  C   UNL     1       8.349  -1.709  -0.656  1.00  0.00     0.013 C 
ATOM     15  C   UNL     1       6.560  -2.810  -0.622  1.00  0.00     0.013 C 
ATOM     16  C   UNL     1       8.034  -3.186  -0.359  1.00  0.00     0.002 C 
ENDBRANCH  10  13
ENDBRANCH   8   9
BRANCH   8  17
ATOM     17  C   UNL     1       4.490  -2.525  -3.275  1.00  0.00    -0.025 A 
ATOM     18  C   UNL     1       3.962  -3.719  -2.745  1.00  0.00     0.007 A 
ATOM     19  C   UNL     1       5.502  -2.630  -4.243  1.00  0.00     0.007 A 
ATOM     20  C   UNL     1       4.522  -4.959  -3.062  1.00  0.00     0.021 A 
ATOM     21  C   UNL     1       6.085  -3.866  -4.536  1.00  0.00     0.021 A 
ATOM     22  C   UNL     1       5.610  -5.021  -3.922  1.00  0.00     0.041 A 
ATOM     23  Cl  UNL     1       6.400  -6.524  -4.190  1.00  0.00    -0.084 Cl
ENDBRANCH   8  17
ENDBRANCH   7   8
ENDBRANCH   5   7
ENDBRANCH   4   5
ENDBRANCH   3   4
ENDBRANCH   2   3
ENDBRANCH   1   2
BRANCH   1  24
ATOM     24  C   UNL     1       2.736  -1.119   1.971  1.00  0.00     0.202 C 
BRANCH  24  25
ATOM     25  C   UNL     1       2.832  -1.026   3.490  1.00  0.00     0.261 C 
BRANCH  25  26
ATOM     26  O   UNL     1       3.259   0.285   3.882  1.00  0.00    -0.460 OA
BRANCH  26  27
ATOM     27  C   UNL     1       4.545   0.375   4.290  1.00  0.00     0.338 C 
ATOM     28  O   UNL     1       5.337  -0.543   4.450  1.00  0.00    -0.246 OA
BRANCH  27  29
ATOM     29  C   UNL     1       4.936   1.797   4.289  1.00  0.00     0.060 A 
ATOM     30  C   UNL     1       6.178   2.139   3.733  1.00  0.00     0.016 A 
ATOM     31  C   UNL     1       4.103   2.776   4.834  1.00  0.00     0.016 A 
ATOM     32  C   UNL     1       6.627   3.452   3.792  1.00  0.00     0.010 A 
ATOM     33  C   UNL     1       4.558   4.090   4.905  1.00  0.00     0.010 A 
ATOM     34  C   UNL     1       5.845   4.415   4.440  1.00  0.00    -0.014 A 
BRANCH  34  35
ATOM     35  C   UNL     1       6.478   5.675   4.881  1.00  0.00     0.031 A 
ATOM     36  C   UNL     1       6.959   5.750   6.305  1.00  0.00     0.074 A 
ATOM     37  C   UNL     1       6.642   6.706   4.037  1.00  0.00     0.049 A 
ATOM     38  N   UNL     1       7.506   6.747   6.947  1.00  0.00    -0.248 NA
ATOM     39  C   UNL     1       6.787   4.533   7.118  1.00  0.00     0.031 C 
ATOM     40  C   UNL     1       6.254   6.716   2.628  1.00  0.00     0.029 A 
ATOM     41  N   UNL     1       7.178   7.948   4.252  1.00  0.00    -0.354 N 
ATOM     42  C   UNL     1       7.724   6.285   8.241  1.00  0.00     0.074 A 
ATOM     43  C   UNL     1       7.217   4.934   8.303  1.00  0.00     0.031 C 
ATOM     44  C   UNL     1       6.564   7.914   2.103  1.00  0.00     0.029 A 
ATOM     45  C   UNL     1       7.140   8.760   3.146  1.00  0.00     0.049 A 
ATOM     46  H   UNL     1       7.553   8.231   5.117  1.00  0.00     0.167 HD
ATOM     47  C   UNL     1       8.304   6.930   9.280  1.00  0.00     0.037 A 
ATOM     48  C   UNL     1       7.520  10.045   3.006  1.00  0.00     0.037 A 
ATOM     49  C   UNL     1       8.806   8.275   9.197  1.00  0.00     0.049 A 
ATOM     50  C   UNL     1       8.115  10.762   4.190  1.00  0.00     0.074 A 
ATOM     51  C   UNL     1       9.431   9.024  10.176  1.00  0.00     0.029 A 
ATOM     52  N   UNL     1       8.730   9.077   8.065  1.00  0.00    -0.354 N 
ATOM     53  N   UNL     1       8.334  10.315   5.405  1.00  0.00    -0.248 NA
ATOM     54  C   UNL     1       8.523  12.158   3.982  1.00  0.00     0.031 C 
ATOM     55  C   UNL     1       9.679  10.298   9.656  1.00  0.00     0.029 A 
ATOM     56  C   UNL     1       9.274  10.322   8.330  1.00  0.00     0.049 A 
ATOM     57  H   UNL     1       8.345   8.800   7.202  1.00  0.00     0.167 HD
ATOM     58  C   UNL     1       8.946  11.358   6.093  1.00  0.00     0.074 A 
ATOM     59  C   UNL     1       9.059  12.459   5.156  1.00  0.00     0.031 C 
ATOM     60  C   UNL     1       9.384  11.400   7.377  1.00  0.00     0.037 A 
BRANCH  47  61
ATOM     61  C   UNL     1       8.376   6.200  10.594  1.00  0.00     0.058 A 
ATOM     62  C   UNL     1       9.190   5.069  10.780  1.00  0.00     0.135 A 
ATOM     63  C   UNL     1       7.603   6.631  11.684  1.00  0.00     0.135 A 
ATOM     64  F   UNL     1       9.934   4.597   9.767  1.00  0.00    -0.206 F 
ATOM     65  C   UNL     1       9.201   4.369  11.983  1.00  0.00     0.059 A 
ATOM     66  C   UNL     1       7.625   5.967  12.907  1.00  0.00     0.059 A 
ATOM     67  F   UNL     1       6.803   7.702  11.564  1.00  0.00    -0.206 F 
ATOM     68  C   UNL     1       8.411   4.824  13.040  1.00  0.00     0.060 A 
BRANCH  68  69
ATOM     69  S   UNL     1       8.418   3.894  14.586  1.00  0.00     0.124 S 
ATOM     70  O   UNL     1       7.665   2.700  14.211  1.00  0.00    -0.237 OA
ATOM     71  O   UNL     1       9.844   3.695  14.824  1.00  0.00    -0.237 OA
ATOM     72  O   UNL     1       7.747   4.788  15.525  1.00  0.00    -0.744 OA
ENDBRANCH  68  69
ENDBRANCH  47  61
BRANCH  48  73
ATOM     73  C   UNL     1       7.373  10.719   1.689  1.00  0.00     0.058 A 
ATOM     74  C   UNL     1       8.497  11.052   0.920  1.00  0.00     0.135 A 
ATOM     75  C   UNL     1       6.108  11.021   1.161  1.00  0.00     0.135 A 
ATOM     76  F   UNL     1       9.729  10.792   1.386  1.00  0.00    -0.206 F 
ATOM     77  C   UNL     1       8.376  11.664  -0.323  1.00  0.00     0.059 A 
ATOM     78  C   UNL     1       5.959  11.610  -0.091  1.00  0.00     0.059 A 
ATOM     79  F   UNL     1       4.999  10.714   1.852  1.00  0.00    -0.206 F 
ATOM     80  C   UNL     1       7.101  11.933  -0.824  1.00  0.00     0.060 A 
BRANCH  80  81
ATOM     81  S   UNL     1       6.956  12.666  -2.468  1.00  0.00     0.124 S 
ATOM     82  O   UNL     1       7.445  14.020  -2.231  1.00  0.00    -0.237 OA
ATOM     83  O   UNL     1       7.823  11.803  -3.263  1.00  0.00    -0.237 OA
ATOM     84  O   UNL     1       5.531  12.553  -2.762  1.00  0.00    -0.744 OA
ENDBRANCH  80  81
ENDBRANCH  48  73
BRANCH  60  85
ATOM     85  C   UNL     1      10.085  12.654   7.829  1.00  0.00     0.058 A 
ATOM     86  C   UNL     1       9.402  13.864   8.026  1.00  0.00     0.135 A 
ATOM     87  C   UNL     1      11.461  12.626   8.111  1.00  0.00     0.135 A 
ATOM     88  F   UNL     1       8.086  13.947   7.770  1.00  0.00    -0.206 F 
ATOM     89  C   UNL     1      10.065  15.011   8.450  1.00  0.00     0.059 A 
ATOM     90  C   UNL     1      12.137  13.751   8.569  1.00  0.00     0.059 A 
ATOM     91  F   UNL     1      12.162  11.491   7.956  1.00  0.00    -0.206 F 
ATOM     92  C   UNL     1      11.434  14.944   8.719  1.00  0.00     0.060 A 
BRANCH  92  93
ATOM     93  S   UNL     1      12.280  16.436   9.283  1.00  0.00     0.124 S 
ATOM     94  O   UNL     1      12.331  17.225   8.057  1.00  0.00    -0.237 OA
ATOM     95  O   UNL     1      11.380  16.931  10.320  1.00  0.00    -0.237 OA
ATOM     96  O   UNL     1      13.565  15.937   9.762  1.00  0.00    -0.744 OA
ENDBRANCH  92  93
ENDBRANCH  60  85
ENDBRANCH  34  35
ENDBRANCH  27  29
ENDBRANCH  26  27
ENDBRANCH  25  26
ENDBRANCH  24  25
ENDBRANCH   1  24
TORSDOF 21
