REMARK SMILES O=C(OCCOCCOC(=O)[C@@H](CCCCl)[P@TB3](=O)(c1ccccc1)c1ccccc1)c1ccc(-c2c3nc(c(-c4c(F)cc(S(=O)(=O)[O-])cc4F)c4ccc([nH]4)c(-c4c(F)cc(S(=O)(=O)[O-])cc4F)c4nc(c(-c5c(F)cc(S(=O)(=O)[O-])cc5F)c5ccc2[nH]5)C=C4)C=C3)cc1
REMARK SMILES IDX 6 1 5 2 4 3 3 4 2 5 1 6 31 7 32 8 96 9 33 10 95 11 34 12
REMARK SMILES IDX 35 13 36 14 89 15 37 16 94 17 88 18 90 19 38 20 93 21 87 22
REMARK SMILES IDX 86 23 39 25 73 26 52 27 72 28 53 29 56 30 71 31 91 32 54 33
REMARK SMILES IDX 55 34 70 36 92 37 57 38 40 39 41 40 50 41 42 42 43 43 49 44
REMARK SMILES IDX 51 45 44 46 45 47 46 48 47 49 48 50 74 51 75 52 84 53 76 54
REMARK SMILES IDX 77 55 83 56 85 57 78 58 79 59 80 60 81 61 82 62 58 63 59 64
REMARK SMILES IDX 68 65 60 66 61 67 67 68 69 69 62 70 63 71 64 72 65 73 66 74
REMARK SMILES IDX 7 75 8 76 9 77 10 78 11 79 12 80 13 81 14 82 15 83 16 84
REMARK SMILES IDX 17 85 18 86 19 87 20 88 24 89 21 90 23 91 22 92 25 93 26 94
REMARK SMILES IDX 30 95 27 96 29 97 28 98
REMARK H PARENT 90 24 56 35
REMARK Flexibility Score: inf
ROOT
ATOM      1  O   UNL     1       3.206   0.186   0.399  1.00  0.00       nan OA
ENDROOT
BRANCH   1   2
ATOM      2  C   UNL     1       3.919   1.161  -0.350  1.00  0.00       nan C 
BRANCH   2   3
ATOM      3  C   UNL     1       3.947   0.845  -1.838  1.00  0.00       nan C 
BRANCH   3   4
ATOM      4  O   UNL     1       2.621   0.543  -2.287  1.00  0.00       nan OA
BRANCH   4   5
ATOM      5  C   UNL     1       1.997  -0.634  -2.026  1.00  0.00       nan C 
ATOM      6  O   UNL     1       0.769  -0.687  -2.062  1.00  0.00       nan OA
BRANCH   5   7
ATOM      7  C   UNL     1       2.763  -1.894  -1.791  1.00  0.00       nan A 
ATOM      8  C   UNL     1       3.884  -2.027  -0.959  1.00  0.00       inf A 
ATOM      9  C   UNL     1       2.268  -3.037  -2.427  1.00  0.00       inf A 
ATOM     10  C   UNL     1       4.529  -3.222  -0.789  1.00  0.00     0.010 A 
ATOM     11  C   UNL     1       2.920  -4.258  -2.274  1.00  0.00     0.010 A 
ATOM     12  C   UNL     1       4.061  -4.330  -1.467  1.00  0.00    -0.014 A 
BRANCH  12  13
ATOM     13  C   UNL     1       4.967  -5.471  -1.470  1.00  0.00     0.031 A 
ATOM     14  C   UNL     1       5.820  -5.639  -2.682  1.00  0.00     0.074 A 
ATOM     15  C   UNL     1       5.150  -6.156  -0.330  1.00  0.00     0.049 A 
ATOM     16  N   UNL     1       6.599  -6.626  -3.004  1.00  0.00    -0.248 NA
ATOM     17  C   UNL     1       5.802  -4.535  -3.666  1.00  0.00     0.031 C 
ATOM     18  C   UNL     1       4.504  -5.852   0.954  1.00  0.00     0.029 A 
ATOM     19  N   UNL     1       5.957  -7.217  -0.054  1.00  0.00    -0.354 N 
ATOM     20  C   UNL     1       7.107  -6.300  -4.253  1.00  0.00     0.074 A 
ATOM     21  C   UNL     1       6.581  -5.010  -4.624  1.00  0.00     0.031 C 
ATOM     22  C   UNL     1       4.941  -6.719   1.880  1.00  0.00     0.029 A 
ATOM     23  C   UNL     1       5.807  -7.689   1.227  1.00  0.00     0.049 A 
ATOM     24  H   UNL     1       6.584  -7.606  -0.705  1.00  0.00     0.167 HD
ATOM     25  C   UNL     1       7.919  -7.058  -5.018  1.00  0.00     0.037 A 
ATOM     26  C   UNL     1       6.267  -8.832   1.763  1.00  0.00     0.037 A 
ATOM     27  C   UNL     1       8.409  -8.329  -4.564  1.00  0.00     0.049 A 
ATOM     28  C   UNL     1       7.073  -9.719   0.851  1.00  0.00     0.074 A 
ATOM     29  C   UNL     1       9.164  -9.262  -5.242  1.00  0.00     0.029 A 
ATOM     30  N   UNL     1       8.182  -8.835  -3.287  1.00  0.00    -0.354 N 
ATOM     31  N   UNL     1       7.450  -9.494  -0.390  1.00  0.00    -0.248 NA
ATOM     32  C   UNL     1       7.491 -11.015   1.385  1.00  0.00     0.031 C 
ATOM     33  C   UNL     1       9.351 -10.356  -4.389  1.00  0.00     0.029 A 
ATOM     34  C   UNL     1       8.767 -10.077  -3.159  1.00  0.00     0.049 A 
ATOM     35  H   UNL     1       7.678  -8.373  -2.579  1.00  0.00     0.167 HD
ATOM     36  C   UNL     1       8.168 -10.614  -0.780  1.00  0.00     0.074 A 
ATOM     37  C   UNL     1       8.186 -11.505   0.367  1.00  0.00     0.031 C 
ATOM     38  C   UNL     1       8.756 -10.896  -1.970  1.00  0.00     0.037 A 
BRANCH  25  39
ATOM     39  C   UNL     1       8.205  -6.583  -6.410  1.00  0.00     0.058 A 
ATOM     40  C   UNL     1       9.048  -5.494  -6.679  1.00  0.00     0.135 A 
ATOM     41  C   UNL     1       7.590  -7.220  -7.500  1.00  0.00     0.135 A 
ATOM     42  F   UNL     1       9.619  -4.814  -5.672  1.00  0.00    -0.206 F 
ATOM     43  C   UNL     1       9.270  -5.053  -7.981  1.00  0.00     0.059 A 
ATOM     44  C   UNL     1       7.816  -6.811  -8.810  1.00  0.00     0.059 A 
ATOM     45  F   UNL     1       6.745  -8.243  -7.296  1.00  0.00    -0.206 F 
ATOM     46  C   UNL     1       8.654  -5.722  -9.041  1.00  0.00     0.060 A 
BRANCH  46  47
ATOM     47  S   UNL     1       8.977  -5.159 -10.725  1.00  0.00     0.124 S 
ATOM     48  O   UNL     1       8.252  -3.892 -10.755  1.00  0.00    -0.237 OA
ATOM     49  O   UNL     1      10.432  -5.056 -10.743  1.00  0.00    -0.237 OA
ATOM     50  O   UNL     1       8.416  -6.222 -11.553  1.00  0.00    -0.744 OA
ENDBRANCH  46  47
ENDBRANCH  25  39
BRANCH  26  51
ATOM     51  C   UNL     1       5.890  -9.237   3.144  1.00  0.00     0.058 A 
ATOM     52  C   UNL     1       6.856  -9.421   4.141  1.00  0.00     0.135 A 
ATOM     53  C   UNL     1       4.547  -9.468   3.493  1.00  0.00     0.135 A 
ATOM     54  F   UNL     1       8.152  -9.213   3.865  1.00  0.00    -0.206 F 
ATOM     55  C   UNL     1       6.513  -9.851   5.421  1.00  0.00     0.059 A 
ATOM     56  C   UNL     1       4.175  -9.865   4.774  1.00  0.00     0.059 A 
ATOM     57  F   UNL     1       3.572  -9.295   2.586  1.00  0.00    -0.206 F 
ATOM     58  C   UNL     1       5.169 -10.076   5.726  1.00  0.00     0.060 A 
BRANCH  58  59
ATOM     59  S   UNL     1       4.734 -10.646   7.383  1.00  0.00     0.124 S 
ATOM     60  O   UNL     1       5.216 -12.022   7.354  1.00  0.00    -0.237 OA
ATOM     61  O   UNL     1       5.483  -9.724   8.231  1.00  0.00    -0.237 OA
ATOM     62  O   UNL     1       3.284 -10.486   7.424  1.00  0.00    -0.744 OA
ENDBRANCH  58  59
ENDBRANCH  26  51
BRANCH  38  63
ATOM     63  C   UNL     1       9.501 -12.191  -2.053  1.00  0.00     0.058 A 
ATOM     64  C   UNL     1       8.832 -13.419  -2.138  1.00  0.00     0.135 A 
ATOM     65  C   UNL     1      10.903 -12.185  -2.121  1.00  0.00     0.135 A 
ATOM     66  F   UNL     1       7.492 -13.467  -2.068  1.00  0.00    -0.206 F 
ATOM     67  C   UNL     1       9.533 -14.609  -2.270  1.00  0.00     0.059 A 
ATOM     68  C   UNL     1      11.621 -13.359  -2.287  1.00  0.00     0.059 A 
ATOM     69  F   UNL     1      11.579 -11.027  -2.056  1.00  0.00    -0.206 F 
ATOM     70  C   UNL     1      10.927 -14.566  -2.350  1.00  0.00     0.060 A 
BRANCH  70  71
ATOM     71  S   UNL     1      11.822 -16.114  -2.573  1.00  0.00     0.124 S 
ATOM     72  O   UNL     1      11.710 -16.710  -1.246  1.00  0.00    -0.237 OA
ATOM     73  O   UNL     1      11.056 -16.767  -3.630  1.00  0.00    -0.237 OA
ATOM     74  O   UNL     1      13.162 -15.679  -2.957  1.00  0.00    -0.744 OA
ENDBRANCH  70  71
ENDBRANCH  38  63
ENDBRANCH  12  13
ENDBRANCH   5   7
ENDBRANCH   4   5
ENDBRANCH   3   4
ENDBRANCH   2   3
ENDBRANCH   1   2
BRANCH   1  75
ATOM     75  C   UNL     1       1.884   0.400   0.852  1.00  0.00       nan C 
BRANCH  75  76
ATOM     76  C   UNL     1       1.919   0.327   2.368  1.00  0.00       nan C 
BRANCH  76  77
ATOM     77  O   UNL     1       2.774   1.372   2.853  1.00  0.00       nan OA
BRANCH  77  78
ATOM     78  C   UNL     1       4.122   1.182   2.732  1.00  0.00       nan C 
ATOM     79  O   UNL     1       4.696   0.129   2.471  1.00  0.00       nan OA
BRANCH  78  80
ATOM     80  C   UNL     1       4.822   2.443   3.054  1.00  0.00       nan C 
BRANCH  80  81
ATOM     81  C   UNL     1       4.468   3.605   2.055  1.00  0.00       nan C 
BRANCH  81  82
ATOM     82  C   UNL     1       2.985   3.922   1.697  1.00  0.00       nan C 
BRANCH  82  83
ATOM     83  C   UNL     1       1.978   4.314   2.776  1.00  0.00       nan C 
ATOM     84  Cl  UNL     1       2.353   5.887   3.487  1.00  0.00       nan Cl
ENDBRANCH  82  83
ENDBRANCH  81  82
ENDBRANCH  80  81
BRANCH  80  85
ATOM     85  P   UNL     1       4.212   2.996   4.688  1.00  0.00       nan P 
ATOM     86  O   UNL     1       5.500   3.859   4.786  1.00  0.00       nan OA
BRANCH  85  87
ATOM     87  C   UNL     1       4.654   1.198   5.653  1.00  0.00       nan A 
ATOM     88  C   UNL     1       5.437   1.246   6.824  1.00  0.00       nan A 
ATOM     89  C   UNL     1       3.949   0.006   5.392  1.00  0.00       nan A 
ATOM     90  C   UNL     1       5.487   0.136   7.688  1.00  0.00       nan A 
ATOM     91  C   UNL     1       4.089  -1.128   6.199  1.00  0.00       nan A 
ATOM     92  C   UNL     1       4.836  -1.055   7.364  1.00  0.00       nan A 
ENDBRANCH  85  87
BRANCH  85  93
ATOM     93  C   UNL     1       3.602   3.549   6.322  1.00  0.00       nan A 
ATOM     94  C   UNL     1       3.978   4.825   6.798  1.00  0.00       nan A 
ATOM     95  C   UNL     1       2.701   2.820   7.119  1.00  0.00       nan A 
ATOM     96  C   UNL     1       3.585   5.295   8.052  1.00  0.00       nan A 
ATOM     97  C   UNL     1       2.333   3.273   8.393  1.00  0.00       nan A 
ATOM     98  C   UNL     1       2.785   4.503   8.864  1.00  0.00       nan A 
ENDBRANCH  85  93
ENDBRANCH  80  85
ENDBRANCH  78  80
ENDBRANCH  77  78
ENDBRANCH  76  77
ENDBRANCH  75  76
ENDBRANCH   1  75
TORSDOF 23
