REMARK SMILES O=C(OCCOCCOC(=O)C1([C@H]2CS(=O)(=O)C[C@H]2O)CCCC1)c1ccc(-c2c3nc(c(-c4c(F)cc(S(=O)(=O)[O-])cc4F)c4ccc([nH]4)c(-c4c(F)cc(S(=O)(=O)[O-])cc4F)c4nc(c(-c5c(F)cc(S(=O)(=O)[O-])cc5F)c5ccc2[nH]5)C=C4)C=C3)cc1
REMARK SMILES IDX 5 1 4 2 3 3 2 4 1 5 25 6 26 7 90 8 27 9 89 10 28 11 29 12
REMARK SMILES IDX 30 13 83 14 31 15 88 16 82 17 84 18 32 19 87 20 81 21 80 22
REMARK SMILES IDX 33 24 67 25 46 26 66 27 47 28 50 29 65 30 85 31 48 32 49 33
REMARK SMILES IDX 64 35 86 36 51 37 34 38 35 39 44 40 36 41 37 42 43 43 45 44
REMARK SMILES IDX 38 45 39 46 40 47 41 48 42 49 68 50 69 51 78 52 70 53 71 54
REMARK SMILES IDX 77 55 79 56 72 57 73 58 74 59 75 60 76 61 52 62 53 63 62 64
REMARK SMILES IDX 54 65 55 66 61 67 63 68 56 69 57 70 58 71 59 72 60 73 6 74
REMARK SMILES IDX 7 75 8 76 9 77 10 78 11 79 12 80 21 81 24 82 22 83 23 84
REMARK SMILES IDX 13 85 14 86 19 87 15 88 18 89 16 90 17 91 20 92
REMARK H PARENT 84 23 50 34 20 93
REMARK Flexibility Score: inf
ROOT
ATOM      1  C   UNL     1       7.323   2.504   0.520  1.00  0.00     0.202 C 
ENDROOT
BRANCH   1   2
ATOM      2  C   UNL     1       8.254   2.876   1.670  1.00  0.00     0.261 C 
BRANCH   2   3
ATOM      3  O   UNL     1       8.204   1.928   2.746  1.00  0.00    -0.460 OA
BRANCH   3   4
ATOM      4  C   UNL     1       7.607   2.168   3.945  1.00  0.00     0.338 C 
ATOM      5  O   UNL     1       7.778   1.410   4.892  1.00  0.00    -0.246 OA
BRANCH   4   6
ATOM      6  C   UNL     1       6.753   3.370   4.108  1.00  0.00     0.060 A 
ATOM      7  C   UNL     1       5.827   3.725   3.136  1.00  0.00     0.016 A 
ATOM      8  C   UNL     1       6.833   4.141   5.265  1.00  0.00     0.016 A 
ATOM      9  C   UNL     1       5.149   4.916   3.172  1.00  0.00     0.010 A 
ATOM     10  C   UNL     1       5.999   5.256   5.403  1.00  0.00     0.010 A 
ATOM     11  C   UNL     1       5.164   5.649   4.343  1.00  0.00    -0.014 A 
BRANCH  11  12
ATOM     12  C   UNL     1       4.286   6.827   4.392  1.00  0.00     0.031 A 
ATOM     13  C   UNL     1       4.918   8.171   4.515  1.00  0.00     0.074 A 
ATOM     14  C   UNL     1       2.960   6.666   4.202  1.00  0.00     0.049 A 
ATOM     15  N   UNL     1       4.356   9.322   4.744  1.00  0.00    -0.248 NA
ATOM     16  C   UNL     1       6.383   8.227   4.365  1.00  0.00     0.031 C 
ATOM     17  C   UNL     1       2.289   5.387   3.920  1.00  0.00     0.029 A 
ATOM     18  N   UNL     1       1.939   7.575   4.176  1.00  0.00    -0.354 N 
ATOM     19  C   UNL     1       5.401  10.229   4.839  1.00  0.00     0.074 A 
ATOM     20  C   UNL     1       6.630   9.502   4.625  1.00  0.00     0.031 C 
ATOM     21  C   UNL     1       0.984   5.604   3.707  1.00  0.00     0.029 A 
ATOM     22  C   UNL     1       0.703   7.005   3.966  1.00  0.00     0.049 A 
ATOM     23  H   UNL     1       2.074   8.543   4.295  1.00  0.00     0.167 HD
ATOM     24  C   UNL     1       5.315  11.550   5.108  1.00  0.00     0.037 A 
ATOM     25  C   UNL     1      -0.523   7.551   4.049  1.00  0.00     0.037 A 
ATOM     26  C   UNL     1       4.055  12.218   5.287  1.00  0.00     0.049 A 
ATOM     27  C   UNL     1      -0.593   9.003   4.426  1.00  0.00     0.074 A 
ATOM     28  C   UNL     1       3.811  13.534   5.623  1.00  0.00     0.029 A 
ATOM     29  N   UNL     1       2.816  11.604   5.129  1.00  0.00    -0.354 N 
ATOM     30  N   UNL     1       0.397   9.843   4.635  1.00  0.00    -0.248 NA
ATOM     31  C   UNL     1      -1.927   9.579   4.608  1.00  0.00     0.031 C 
ATOM     32  C   UNL     1       2.425  13.703   5.715  1.00  0.00     0.029 A 
ATOM     33  C   UNL     1       1.802  12.509   5.377  1.00  0.00     0.049 A 
ATOM     34  H   UNL     1       2.681  10.661   4.878  1.00  0.00     0.167 HD
ATOM     35  C   UNL     1      -0.194  11.054   4.962  1.00  0.00     0.074 A 
ATOM     36  C   UNL     1      -1.629  10.838   4.902  1.00  0.00     0.031 C 
ATOM     37  C   UNL     1       0.387  12.235   5.289  1.00  0.00     0.037 A 
BRANCH  24  38
ATOM     38  C   UNL     1       6.602  12.293   5.314  1.00  0.00     0.058 A 
ATOM     39  C   UNL     1       7.489  12.573   4.262  1.00  0.00     0.135 A 
ATOM     40  C   UNL     1       6.979  12.687   6.608  1.00  0.00     0.135 A 
ATOM     41  F   UNL     1       7.199  12.181   3.011  1.00  0.00    -0.206 F 
ATOM     42  C   UNL     1       8.714  13.193   4.489  1.00  0.00     0.059 A 
ATOM     43  C   UNL     1       8.187  13.333   6.855  1.00  0.00     0.059 A 
ATOM     44  F   UNL     1       6.181  12.424   7.654  1.00  0.00    -0.206 F 
ATOM     45  C   UNL     1       9.055  13.568   5.791  1.00  0.00     0.060 A 
BRANCH  45  46
ATOM     46  S   UNL     1      10.650  14.363   6.074  1.00  0.00     0.124 S 
ATOM     47  O   UNL     1      11.571  13.245   5.893  1.00  0.00    -0.237 OA
ATOM     48  O   UNL     1      10.679  15.382   5.029  1.00  0.00    -0.237 OA
ATOM     49  O   UNL     1      10.540  14.871   7.438  1.00  0.00    -0.744 OA
ENDBRANCH  45  46
ENDBRANCH  24  38
BRANCH  25  50
ATOM     50  C   UNL     1      -1.742   6.714   3.863  1.00  0.00     0.058 A 
ATOM     51  C   UNL     1      -2.627   6.939   2.799  1.00  0.00     0.135 A 
ATOM     52  C   UNL     1      -2.042   5.655   4.740  1.00  0.00     0.135 A 
ATOM     53  F   UNL     1      -2.395   7.937   1.934  1.00  0.00    -0.206 F 
ATOM     54  C   UNL     1      -3.767   6.158   2.618  1.00  0.00     0.059 A 
ATOM     55  C   UNL     1      -3.157   4.841   4.561  1.00  0.00     0.059 A 
ATOM     56  F   UNL     1      -1.226   5.382   5.770  1.00  0.00    -0.206 F 
ATOM     57  C   UNL     1      -4.022   5.109   3.504  1.00  0.00     0.060 A 
BRANCH  57  58
ATOM     58  S   UNL     1      -5.486   4.084   3.243  1.00  0.00     0.124 S 
ATOM     59  O   UNL     1      -6.557   4.997   3.626  1.00  0.00    -0.237 OA
ATOM     60  O   UNL     1      -5.392   3.771   1.820  1.00  0.00    -0.237 OA
ATOM     61  O   UNL     1      -5.271   2.953   4.141  1.00  0.00    -0.744 OA
ENDBRANCH  57  58
ENDBRANCH  25  50
BRANCH  37  62
ATOM     62  C   UNL     1      -0.538  13.383   5.559  1.00  0.00     0.058 A 
ATOM     63  C   UNL     1      -1.277  13.467   6.747  1.00  0.00     0.135 A 
ATOM     64  C   UNL     1      -0.625  14.441   4.642  1.00  0.00     0.135 A 
ATOM     65  F   UNL     1      -1.230  12.472   7.647  1.00  0.00    -0.206 F 
ATOM     66  C   UNL     1      -2.089  14.562   7.011  1.00  0.00     0.059 A 
ATOM     67  C   UNL     1      -1.406  15.559   4.900  1.00  0.00     0.059 A 
ATOM     68  F   UNL     1       0.074  14.404   3.496  1.00  0.00    -0.206 F 
ATOM     69  C   UNL     1      -2.141  15.605   6.084  1.00  0.00     0.060 A 
BRANCH  69  70
ATOM     70  S   UNL     1      -3.159  17.044   6.463  1.00  0.00     0.124 S 
ATOM     71  O   UNL     1      -4.502  16.517   6.251  1.00  0.00    -0.237 OA
ATOM     72  O   UNL     1      -2.798  17.325   7.849  1.00  0.00    -0.237 OA
ATOM     73  O   UNL     1      -2.714  18.040   5.492  1.00  0.00    -0.744 OA
ENDBRANCH  69  70
ENDBRANCH  37  62
ENDBRANCH  11  12
ENDBRANCH   4   6
ENDBRANCH   3   4
ENDBRANCH   2   3
ENDBRANCH   1   2
BRANCH   1  74
ATOM     74  O   UNL     1       6.056   1.926   0.798  1.00  0.00    -0.374 OA
BRANCH  74  75
ATOM     75  C   UNL     1       6.011   0.594   1.306  1.00  0.00     0.202 C 
BRANCH  75  76
ATOM     76  C   UNL     1       5.043  -0.207   0.435  1.00  0.00     0.261 C 
BRANCH  76  77
ATOM     77  O   UNL     1       5.645  -0.344  -0.865  1.00  0.00    -0.463 OA
BRANCH  77  78
ATOM     78  C   UNL     1       5.457   0.701  -1.726  1.00  0.00     0.312 C 
ATOM     79  O   UNL     1       4.578   1.546  -1.625  1.00  0.00    -0.252 OA
BRANCH  78  80
ATOM     80  C   UNL     1       6.510   0.675  -2.860  1.00  0.00     0.074 C 
ATOM     81  C   UNL     1       7.923   0.449  -2.281  1.00  0.00     0.019 C 
ATOM     82  C   UNL     1       6.211  -0.623  -3.650  1.00  0.00     0.019 C 
ATOM     83  C   UNL     1       8.615  -0.556  -3.176  1.00  0.00     0.001 C 
ATOM     84  C   UNL     1       7.507  -1.426  -3.731  1.00  0.00     0.001 C 
BRANCH  80  85
ATOM     85  C   UNL     1       6.344   1.989  -3.729  1.00  0.00     0.051 C 
ATOM     86  C   UNL     1       6.580   3.318  -2.972  1.00  0.00     0.144 C 
ATOM     87  C   UNL     1       7.128   2.174  -5.050  1.00  0.00     0.134 C 
ATOM     88  S   UNL     1       8.143   4.003  -3.506  1.00  0.00     0.153 S 
ATOM     89  C   UNL     1       8.480   2.800  -4.757  1.00  0.00     0.169 C 
ATOM     90  O   UNL     1       7.907   5.273  -4.163  1.00  0.00    -0.229 OA
ATOM     91  O   UNL     1       9.119   3.849  -2.449  1.00  0.00    -0.229 OA
BRANCH  87  92
ATOM     92  O   UNL     1       7.226   1.006  -5.838  1.00  0.00    -0.392 OA
ATOM     93  H   UNL     1       7.732   0.333  -5.357  1.00  0.00     0.211 HD
ENDBRANCH  87  92
ENDBRANCH  80  85
ENDBRANCH  78  80
ENDBRANCH  77  78
ENDBRANCH  76  77
ENDBRANCH  75  76
ENDBRANCH  74  75
ENDBRANCH   1  74
TORSDOF 19
