REMARK SMILES O=C(CCC(=O)N1CCC(c2nnc3ccccn23)CC1)OCCOCCOC(=O)c1ccc(-c2c3nc(c(-c4c(F)cc(S(=O)(=O)[O-])cc4F)c4ccc([nH]4)c(-c4c(F)cc(S(=O)(=O)[O-])cc4F)c4nc(c(-c5c(F)cc(S(=O)(=O)[O-])cc5F)c5ccc2[nH]5)C=C4)C=C3)cc1
REMARK SMILES IDX 25 1 24 2 23 3 22 4 2 5 1 6 3 7 4 8 5 9 6 10 7 11 8 12 21 13
REMARK SMILES IDX 9 14 20 15 10 16 11 17 12 18 19 19 13 20 14 21 18 22 15 23
REMARK SMILES IDX 17 24 16 25 26 26 27 27 28 28 29 29 30 30 31 31 32 32 96 33
REMARK SMILES IDX 33 34 95 35 34 36 35 37 36 38 89 39 37 40 94 41 88 42 90 43
REMARK SMILES IDX 38 44 93 45 87 46 86 47 39 49 73 50 52 51 72 52 53 53 56 54
REMARK SMILES IDX 71 55 91 56 54 57 55 58 70 60 92 61 57 62 40 63 41 64 50 65
REMARK SMILES IDX 42 66 43 67 49 68 51 69 44 70 45 71 46 72 47 73 48 74 74 75
REMARK SMILES IDX 75 76 84 77 76 78 77 79 83 80 85 81 78 82 79 83 80 84 81 85
REMARK SMILES IDX 82 86 58 87 59 88 68 89 60 90 61 91 67 92 69 93 62 94 63 95
REMARK SMILES IDX 64 96 65 97 66 98
REMARK H PARENT 90 48 56 59
REMARK Flexibility Score: inf
ROOT
ATOM      1  O   UNL     1       4.454  -1.821   2.604  1.00  0.00    -0.374 OA
ENDROOT
BRANCH   1   2
ATOM      2  C   UNL     1       5.333  -0.864   2.027  1.00  0.00     0.202 C 
BRANCH   2   3
ATOM      3  C   UNL     1       4.916  -0.246   0.687  1.00  0.00     0.261 C 
BRANCH   3   4
ATOM      4  O   UNL     1       3.503  -0.009   0.583  1.00  0.00    -0.463 OA
BRANCH   4   5
ATOM      5  C   UNL     1       2.638  -0.779  -0.112  1.00  0.00     0.306 C 
ATOM      6  O   UNL     1       1.424  -0.640   0.034  1.00  0.00    -0.252 OA
BRANCH   5   7
ATOM      7  C   UNL     1       3.164  -1.742  -1.135  1.00  0.00     0.132 C 
BRANCH   7   8
ATOM      8  C   UNL     1       3.224  -1.103  -2.514  1.00  0.00     0.112 C 
BRANCH   8   9
ATOM      9  C   UNL     1       4.187   0.069  -2.578  1.00  0.00     0.223 C 
ATOM     10  O   UNL     1       5.392  -0.171  -2.695  1.00  0.00    -0.275 OA
ATOM     11  N   UNL     1       3.695   1.362  -2.482  1.00  0.00    -0.343 N 
ATOM     12  C   UNL     1       4.600   2.486  -2.741  1.00  0.00     0.120 C 
ATOM     13  C   UNL     1       2.298   1.737  -2.244  1.00  0.00     0.120 C 
ATOM     14  C   UNL     1       4.495   3.580  -1.678  1.00  0.00     0.033 C 
ATOM     15  C   UNL     1       2.193   2.765  -1.125  1.00  0.00     0.033 C 
ATOM     16  C   UNL     1       3.035   4.002  -1.463  1.00  0.00     0.062 C 
BRANCH  16  17
ATOM     17  C   UNL     1       2.906   5.037  -0.392  1.00  0.00     0.140 A 
ATOM     18  N   UNL     1       2.677   4.810   0.887  1.00  0.00    -0.134 NA
ATOM     19  N   UNL     1       2.956   6.399  -0.608  1.00  0.00    -0.286 N 
ATOM     20  N   UNL     1       2.580   6.019   1.533  1.00  0.00    -0.130 NA
ATOM     21  C   UNL     1       2.789   6.966   0.647  1.00  0.00     0.160 A 
ATOM     22  C   UNL     1       3.111   7.151  -1.771  1.00  0.00     0.095 A 
ATOM     23  C   UNL     1       2.853   8.381   0.746  1.00  0.00     0.050 A 
ATOM     24  C   UNL     1       3.109   8.491  -1.685  1.00  0.00     0.019 A 
ATOM     25  C   UNL     1       2.996   9.115  -0.374  1.00  0.00     0.005 A 
ENDBRANCH  16  17
ENDBRANCH   8   9
ENDBRANCH   7   8
ENDBRANCH   5   7
ENDBRANCH   4   5
ENDBRANCH   3   4
ENDBRANCH   2   3
ENDBRANCH   1   2
BRANCH   1  26
ATOM     26  C   UNL     1       3.213  -1.358   3.148  1.00  0.00     0.202 C 
BRANCH  26  27
ATOM     27  C   UNL     1       3.212  -0.174   4.125  1.00  0.00     0.261 C 
BRANCH  27  28
ATOM     28  O   UNL     1       3.633   1.072   3.538  1.00  0.00    -0.460 OA
BRANCH  28  29
ATOM     29  C   UNL     1       4.660   1.682   4.181  1.00  0.00     0.338 C 
ATOM     30  O   UNL     1       5.291   1.250   5.130  1.00  0.00    -0.246 OA
BRANCH  29  31
ATOM     31  C   UNL     1       5.014   2.959   3.542  1.00  0.00     0.060 A 
ATOM     32  C   UNL     1       6.217   3.061   2.830  1.00  0.00     0.016 A 
ATOM     33  C   UNL     1       4.278   4.097   3.856  1.00  0.00     0.016 A 
ATOM     34  C   UNL     1       6.712   4.321   2.470  1.00  0.00     0.010 A 
ATOM     35  C   UNL     1       4.780   5.351   3.500  1.00  0.00     0.010 A 
ATOM     36  C   UNL     1       6.015   5.479   2.839  1.00  0.00    -0.014 A 
BRANCH  36  37
ATOM     37  C   UNL     1       6.628   6.831   2.729  1.00  0.00     0.031 A 
ATOM     38  C   UNL     1       7.086   7.511   3.996  1.00  0.00     0.074 A 
ATOM     39  C   UNL     1       6.745   7.472   1.551  1.00  0.00     0.049 A 
ATOM     40  N   UNL     1       7.488   8.742   4.184  1.00  0.00    -0.248 NA
ATOM     41  C   UNL     1       7.083   6.687   5.217  1.00  0.00     0.031 C 
ATOM     42  C   UNL     1       6.393   6.923   0.244  1.00  0.00     0.029 A 
ATOM     43  N   UNL     1       7.163   8.752   1.273  1.00  0.00    -0.354 N 
ATOM     44  C   UNL     1       7.786   8.838   5.539  1.00  0.00     0.074 A 
ATOM     45  C   UNL     1       7.467   7.560   6.136  1.00  0.00     0.031 C 
ATOM     46  C   UNL     1       6.555   7.877  -0.691  1.00  0.00     0.029 A 
ATOM     47  C   UNL     1       7.005   9.109  -0.046  1.00  0.00     0.049 A 
ATOM     48  H   UNL     1       7.539   9.356   1.953  1.00  0.00     0.167 HD
ATOM     49  C   UNL     1       8.307   9.885   6.222  1.00  0.00     0.037 A 
ATOM     50  C   UNL     1       7.165  10.302  -0.652  1.00  0.00     0.037 A 
ATOM     51  C   UNL     1       8.642  11.152   5.628  1.00  0.00     0.049 A 
ATOM     52  C   UNL     1       7.619  11.491   0.145  1.00  0.00     0.074 A 
ATOM     53  C   UNL     1       9.234  12.254   6.219  1.00  0.00     0.029 A 
ATOM     54  N   UNL     1       8.408  11.486   4.303  1.00  0.00    -0.354 N 
ATOM     55  N   UNL     1       7.873  11.575   1.428  1.00  0.00    -0.248 NA
ATOM     56  C   UNL     1       7.827  12.743  -0.597  1.00  0.00     0.031 C 
ATOM     57  C   UNL     1       9.329  13.268   5.259  1.00  0.00     0.029 A 
ATOM     58  C   UNL     1       8.829  12.782   4.061  1.00  0.00     0.049 A 
ATOM     59  H   UNL     1       8.001  10.890   3.633  1.00  0.00     0.167 HD
ATOM     60  C   UNL     1       8.304  12.878   1.642  1.00  0.00     0.074 A 
ATOM     61  C   UNL     1       8.247  13.556   0.362  1.00  0.00     0.031 C 
ATOM     62  C   UNL     1       8.743  13.451   2.789  1.00  0.00     0.037 A 
BRANCH  49  63
ATOM     63  C   UNL     1       8.562   9.695   7.691  1.00  0.00     0.058 A 
ATOM     64  C   UNL     1       9.608   8.878   8.151  1.00  0.00     0.135 A 
ATOM     65  C   UNL     1       7.772  10.350   8.648  1.00  0.00     0.135 A 
ATOM     66  F   UNL     1      10.385   8.218   7.278  1.00  0.00    -0.206 F 
ATOM     67  C   UNL     1       9.842   8.693   9.509  1.00  0.00     0.059 A 
ATOM     68  C   UNL     1       8.004  10.199  10.012  1.00  0.00     0.059 A 
ATOM     69  F   UNL     1       6.761  11.144   8.262  1.00  0.00    -0.206 F 
ATOM     70  C   UNL     1       9.032   9.356  10.433  1.00  0.00     0.060 A 
BRANCH  70  71
ATOM     71  S   UNL     1       9.351   9.112  12.193  1.00  0.00     0.124 S 
ATOM     72  O   UNL     1       8.784   7.785  12.411  1.00  0.00    -0.237 OA
ATOM     73  O   UNL     1      10.806   9.197  12.265  1.00  0.00    -0.237 OA
ATOM     74  O   UNL     1       8.631  10.214  12.824  1.00  0.00    -0.744 OA
ENDBRANCH  70  71
ENDBRANCH  49  63
BRANCH  50  75
ATOM     75  C   UNL     1       6.845  10.460  -2.092  1.00  0.00     0.058 A 
ATOM     76  C   UNL     1       7.757  10.098  -3.091  1.00  0.00     0.135 A 
ATOM     77  C   UNL     1       5.611  10.991  -2.489  1.00  0.00     0.135 A 
ATOM     78  F   UNL     1       8.965   9.621  -2.756  1.00  0.00    -0.206 F 
ATOM     79  C   UNL     1       7.440  10.218  -4.441  1.00  0.00     0.059 A 
ATOM     80  C   UNL     1       5.265  11.110  -3.829  1.00  0.00     0.059 A 
ATOM     81  F   UNL     1       4.728  11.401  -1.567  1.00  0.00    -0.206 F 
ATOM     82  C   UNL     1       6.184  10.712  -4.800  1.00  0.00     0.060 A 
BRANCH  82  83
ATOM     83  S   UNL     1       5.687  10.758  -6.535  1.00  0.00     0.124 S 
ATOM     84  O   UNL     1       5.909  12.159  -6.868  1.00  0.00    -0.237 OA
ATOM     85  O   UNL     1       6.593   9.800  -7.161  1.00  0.00    -0.237 OA
ATOM     86  O   UNL     1       4.292  10.329  -6.464  1.00  0.00    -0.744 OA
ENDBRANCH  82  83
ENDBRANCH  50  75
BRANCH  62  87
ATOM     87  C   UNL     1       9.239  14.863   2.702  1.00  0.00     0.058 A 
ATOM     88  C   UNL     1       8.361  15.954   2.637  1.00  0.00     0.135 A 
ATOM     89  C   UNL     1      10.619  15.125   2.715  1.00  0.00     0.135 A 
ATOM     90  F   UNL     1       7.034  15.753   2.607  1.00  0.00    -0.206 F 
ATOM     91  C   UNL     1       8.835  17.261   2.572  1.00  0.00     0.059 A 
ATOM     92  C   UNL     1      11.114  16.422   2.670  1.00  0.00     0.059 A 
ATOM     93  F   UNL     1      11.498  14.112   2.778  1.00  0.00    -0.206 F 
ATOM     94  C   UNL     1      10.214  17.484   2.587  1.00  0.00     0.060 A 
BRANCH  94  95
ATOM     95  S   UNL     1      10.822  19.183   2.527  1.00  0.00     0.124 S 
ATOM     96  O   UNL     1      10.659  19.502   1.113  1.00  0.00    -0.237 OA
ATOM     97  O   UNL     1       9.918  19.874   3.442  1.00  0.00    -0.237 OA
ATOM     98  O   UNL     1      12.201  19.064   2.991  1.00  0.00    -0.744 OA
ENDBRANCH  94  95
ENDBRANCH  62  87
ENDBRANCH  36  37
ENDBRANCH  29  31
ENDBRANCH  28  29
ENDBRANCH  27  28
ENDBRANCH  26  27
ENDBRANCH   1  26
TORSDOF 20
