REMARK SMILES C[C@@H](CCCO)Nc1ccc(Cl)cc1C(=O)OCCOCCOC(=O)c1ccc(-c2c3nc(c(-c4c(F)cc(S(=O)(=O)[O-])cc4F)c4ccc([nH]4)c(-c4c(F)cc(S(=O)(=O)[O-])cc4F)c4nc(c(-c5c(F)cc(S(=O)(=O)[O-])cc5F)c5ccc2[nH]5)C=C4)C=C3)cc1
REMARK SMILES IDX 18 1 17 2 15 3 16 4 14 5 8 6 9 7 10 8 13 9 11 10 12 11 7 12
REMARK SMILES IDX 2 14 1 15 3 16 4 17 5 18 6 19 19 21 20 22 21 23 22 24 23 25
REMARK SMILES IDX 24 26 25 27 26 28 27 29 91 30 28 31 90 32 29 33 30 34 31 35
REMARK SMILES IDX 84 36 32 37 89 38 83 39 85 40 33 41 88 42 82 43 81 44 34 46
REMARK SMILES IDX 68 47 47 48 67 49 48 50 51 51 66 52 86 53 49 54 50 55 65 57
REMARK SMILES IDX 87 58 52 59 35 60 36 61 45 62 37 63 38 64 44 65 46 66 39 67
REMARK SMILES IDX 40 68 41 69 42 70 43 71 69 72 70 73 79 74 71 75 72 76 78 77
REMARK SMILES IDX 80 78 73 79 74 80 75 81 76 82 77 83 53 84 54 85 63 86 55 87
REMARK SMILES IDX 56 88 62 89 64 90 57 91 58 92 59 93 60 94 61 95
REMARK H PARENT 7 13 6 20 85 45 51 56
REMARK Flexibility Score: inf
ROOT
ATOM      1  C   UNL     1      -4.031  -0.183   1.135  1.00  0.00     0.261 C 
ENDROOT
BRANCH   1   2
ATOM      2  O   UNL     1      -3.270   0.163  -0.038  1.00  0.00    -0.460 OA
BRANCH   2   3
ATOM      3  C   UNL     1      -4.000   0.589  -1.100  1.00  0.00     0.340 C 
ATOM      4  O   UNL     1      -5.218   0.552  -1.190  1.00  0.00    -0.246 OA
BRANCH   3   5
ATOM      5  C   UNL     1      -3.150   1.285  -2.112  1.00  0.00     0.084 A 
ATOM      6  C   UNL     1      -1.769   1.044  -2.328  1.00  0.00     0.049 A 
ATOM      7  C   UNL     1      -1.166   1.734  -3.395  1.00  0.00     0.028 A 
ATOM      8  C   UNL     1      -1.853   2.700  -4.139  1.00  0.00     0.022 A 
ATOM      9  C   UNL     1      -3.833   2.270  -2.854  1.00  0.00     0.038 A 
ATOM     10  C   UNL     1      -3.177   2.982  -3.847  1.00  0.00     0.042 A 
ATOM     11  Cl  UNL     1      -4.009   4.210  -4.716  1.00  0.00    -0.084 Cl
BRANCH   6  12
ATOM     12  N   UNL     1      -1.054   0.129  -1.567  1.00  0.00    -0.382 N 
ATOM     13  H   UNL     1      -1.577  -0.499  -1.018  1.00  0.00     0.160 HD
BRANCH  12  14
ATOM     14  C   UNL     1       0.405   0.009  -1.504  1.00  0.00     0.076 C 
ATOM     15  C   UNL     1       0.858   0.080  -0.047  1.00  0.00     0.031 C 
BRANCH  14  16
ATOM     16  C   UNL     1       0.890  -1.264  -2.212  1.00  0.00     0.027 C 
BRANCH  16  17
ATOM     17  C   UNL     1       0.492  -2.614  -1.595  1.00  0.00     0.030 C 
BRANCH  17  18
ATOM     18  C   UNL     1      -1.001  -2.919  -1.534  1.00  0.00     0.156 C 
BRANCH  18  19
ATOM     19  O   UNL     1      -1.658  -2.537  -2.734  1.00  0.00    -0.396 OA
ATOM     20  H   UNL     1      -1.556  -1.581  -2.867  1.00  0.00     0.210 HD
ENDBRANCH  18  19
ENDBRANCH  17  18
ENDBRANCH  16  17
ENDBRANCH  14  16
ENDBRANCH  12  14
ENDBRANCH   6  12
ENDBRANCH   3   5
ENDBRANCH   2   3
ENDBRANCH   1   2
BRANCH   1  21
ATOM     21  C   UNL     1      -3.681   0.750   2.298  1.00  0.00     0.202 C 
BRANCH  21  22
ATOM     22  O   UNL     1      -4.063   2.118   2.136  1.00  0.00    -0.374 OA
BRANCH  22  23
ATOM     23  C   UNL     1      -3.226   2.935   1.318  1.00  0.00     0.202 C 
BRANCH  23  24
ATOM     24  C   UNL     1      -1.952   3.481   1.973  1.00  0.00     0.261 C 
BRANCH  24  25
ATOM     25  O   UNL     1      -1.044   2.437   2.362  1.00  0.00    -0.460 OA
BRANCH  25  26
ATOM     26  C   UNL     1      -0.960   2.232   3.698  1.00  0.00     0.338 C 
ATOM     27  O   UNL     1      -1.504   2.884   4.580  1.00  0.00    -0.246 OA
BRANCH  26  28
ATOM     28  C   UNL     1      -0.240   0.975   3.972  1.00  0.00     0.060 A 
ATOM     29  C   UNL     1      -0.867   0.043   4.806  1.00  0.00     0.016 A 
ATOM     30  C   UNL     1       1.042   0.731   3.473  1.00  0.00     0.016 A 
ATOM     31  C   UNL     1      -0.197  -1.119   5.179  1.00  0.00     0.010 A 
ATOM     32  C   UNL     1       1.712  -0.440   3.845  1.00  0.00     0.010 A 
ATOM     33  C   UNL     1       1.109  -1.354   4.727  1.00  0.00    -0.014 A 
BRANCH  33  34
ATOM     34  C   UNL     1       1.869  -2.507   5.271  1.00  0.00     0.031 A 
ATOM     35  C   UNL     1       2.911  -2.277   6.331  1.00  0.00     0.074 A 
ATOM     36  C   UNL     1       1.605  -3.756   4.846  1.00  0.00     0.049 A 
ATOM     37  N   UNL     1       3.657  -3.147   6.962  1.00  0.00    -0.248 NA
ATOM     38  C   UNL     1       3.150  -0.881   6.725  1.00  0.00     0.031 C 
ATOM     39  C   UNL     1       0.620  -4.107   3.824  1.00  0.00     0.029 A 
ATOM     40  N   UNL     1       2.149  -4.959   5.218  1.00  0.00    -0.354 N 
ATOM     41  C   UNL     1       4.460  -2.407   7.822  1.00  0.00     0.074 A 
ATOM     42  C   UNL     1       4.133  -1.013   7.605  1.00  0.00     0.031 C 
ATOM     43  C   UNL     1       0.634  -5.438   3.645  1.00  0.00     0.029 A 
ATOM     44  C   UNL     1       1.643  -6.030   4.523  1.00  0.00     0.049 A 
ATOM     45  H   UNL     1       2.837  -5.046   5.917  1.00  0.00     0.167 HD
ATOM     46  C   UNL     1       5.378  -2.847   8.716  1.00  0.00     0.037 A 
ATOM     47  C   UNL     1       1.964  -7.337   4.578  1.00  0.00     0.037 A 
ATOM     48  C   UNL     1       5.696  -4.236   8.931  1.00  0.00     0.049 A 
ATOM     49  C   UNL     1       2.996  -7.806   5.567  1.00  0.00     0.074 A 
ATOM     50  C   UNL     1       6.566  -4.787   9.856  1.00  0.00     0.029 A 
ATOM     51  N   UNL     1       5.171  -5.293   8.201  1.00  0.00    -0.354 N 
ATOM     52  N   UNL     1       3.700  -7.101   6.421  1.00  0.00    -0.248 NA
ATOM     53  C   UNL     1       3.268  -9.249   5.610  1.00  0.00     0.031 C 
ATOM     54  C   UNL     1       6.609  -6.170   9.647  1.00  0.00     0.029 A 
ATOM     55  C   UNL     1       5.725  -6.489   8.629  1.00  0.00     0.049 A 
ATOM     56  H   UNL     1       4.502  -5.205   7.484  1.00  0.00     0.167 HD
ATOM     57  C   UNL     1       4.492  -8.014   7.109  1.00  0.00     0.074 A 
ATOM     58  C   UNL     1       4.162  -9.325   6.587  1.00  0.00     0.031 C 
ATOM     59  C   UNL     1       5.409  -7.787   8.084  1.00  0.00     0.037 A 
BRANCH  46  60
ATOM     60  C   UNL     1       6.128  -1.807   9.503  1.00  0.00     0.058 A 
ATOM     61  C   UNL     1       5.508  -1.034  10.499  1.00  0.00     0.135 A 
ATOM     62  C   UNL     1       7.492  -1.580   9.255  1.00  0.00     0.135 A 
ATOM     63  F   UNL     1       4.203  -1.200  10.768  1.00  0.00    -0.206 F 
ATOM     64  C   UNL     1       6.201  -0.044  11.188  1.00  0.00     0.059 A 
ATOM     65  C   UNL     1       8.212  -0.614   9.953  1.00  0.00     0.059 A 
ATOM     66  F   UNL     1       8.136  -2.290   8.316  1.00  0.00    -0.206 F 
ATOM     67  C   UNL     1       7.551   0.164  10.902  1.00  0.00     0.060 A 
BRANCH  67  68
ATOM     68  S   UNL     1       8.431   1.474  11.780  1.00  0.00     0.124 S 
ATOM     69  O   UNL     1       7.894   2.667  11.132  1.00  0.00    -0.237 OA
ATOM     70  O   UNL     1       8.012   1.261  13.162  1.00  0.00    -0.237 OA
ATOM     71  O   UNL     1       9.835   1.186  11.502  1.00  0.00    -0.744 OA
ENDBRANCH  67  68
ENDBRANCH  46  60
BRANCH  47  72
ATOM     72  C   UNL     1       1.291  -8.288   3.656  1.00  0.00     0.058 A 
ATOM     73  C   UNL     1       0.330  -9.197   4.119  1.00  0.00     0.135 A 
ATOM     74  C   UNL     1       1.562  -8.265   2.278  1.00  0.00     0.135 A 
ATOM     75  F   UNL     1       0.045  -9.264   5.428  1.00  0.00    -0.206 F 
ATOM     76  C   UNL     1      -0.346 -10.046   3.248  1.00  0.00     0.059 A 
ATOM     77  C   UNL     1       0.883  -9.087   1.385  1.00  0.00     0.059 A 
ATOM     78  F   UNL     1       2.466  -7.403   1.786  1.00  0.00    -0.206 F 
ATOM     79  C   UNL     1      -0.070  -9.975   1.881  1.00  0.00     0.060 A 
BRANCH  79  80
ATOM     80  S   UNL     1      -1.024 -11.009   0.749  1.00  0.00     0.124 S 
ATOM     81  O   UNL     1      -0.458 -12.328   1.007  1.00  0.00    -0.237 OA
ATOM     82  O   UNL     1      -2.389 -10.796   1.221  1.00  0.00    -0.237 OA
ATOM     83  O   UNL     1      -0.725 -10.436  -0.560  1.00  0.00    -0.744 OA
ENDBRANCH  79  80
ENDBRANCH  47  72
BRANCH  59  84
ATOM     84  C   UNL     1       6.122  -8.987   8.649  1.00  0.00     0.058 A 
ATOM     85  C   UNL     1       7.082  -9.691   7.904  1.00  0.00     0.135 A 
ATOM     86  C   UNL     1       5.859  -9.426   9.957  1.00  0.00     0.135 A 
ATOM     87  F   UNL     1       7.370  -9.316   6.648  1.00  0.00    -0.206 F 
ATOM     88  C   UNL     1       7.729 -10.809   8.422  1.00  0.00     0.059 A 
ATOM     89  C   UNL     1       6.514 -10.525  10.505  1.00  0.00     0.059 A 
ATOM     90  F   UNL     1       4.960  -8.783  10.719  1.00  0.00    -0.206 F 
ATOM     91  C   UNL     1       7.434 -11.221   9.723  1.00  0.00     0.060 A 
BRANCH  91  92
ATOM     92  S   UNL     1       8.279 -12.674  10.385  1.00  0.00     0.124 S 
ATOM     93  O   UNL     1       7.588 -13.755   9.691  1.00  0.00    -0.237 OA
ATOM     94  O   UNL     1       9.663 -12.444   9.982  1.00  0.00    -0.237 OA
ATOM     95  O   UNL     1       8.029 -12.586  11.821  1.00  0.00    -0.744 OA
ENDBRANCH  91  92
ENDBRANCH  59  84
ENDBRANCH  33  34
ENDBRANCH  26  28
ENDBRANCH  25  26
ENDBRANCH  24  25
ENDBRANCH  23  24
ENDBRANCH  22  23
ENDBRANCH  21  22
ENDBRANCH   1  21
TORSDOF 23
