REMARK SMILES C[C@H](C(=O)Nc1ccc(C(F)(F)F)cc1)n1nc(C(=O)OCCOCCOC(=O)c2ccc(-c3c4nc(c(-c5c(F)cc(S(=O)(=O)[O-])cc5F)c5ccc([nH]5)c(-c5c(F)cc(S(=O)(=O)[O-])cc5F)c5nc(c(-c6c(F)cc(S(=O)(=O)[O-])cc6F)c6ccc3[nH]6)C=C5)C=C4)cc2)c2ccccc2c1=O
REMARK SMILES IDX 23 1 22 2 21 3 19 4 20 5 18 6 16 7 17 8 102 9 101 10 103 11
REMARK SMILES IDX 96 12 100 13 97 14 99 15 98 16 2 17 1 18 3 19 4 20 5 21 6 23
REMARK SMILES IDX 7 24 15 25 8 26 14 27 9 28 10 29 11 30 12 31 13 32 24 33
REMARK SMILES IDX 25 34 26 35 27 36 28 37 29 38 30 39 31 40 95 41 32 42 94 43
REMARK SMILES IDX 33 44 34 45 35 46 88 47 36 48 93 49 87 50 89 51 37 52 92 53
REMARK SMILES IDX 86 54 85 55 38 57 72 58 51 59 71 60 52 61 55 62 70 63 90 64
REMARK SMILES IDX 53 65 54 66 69 68 91 69 56 70 39 71 40 72 49 73 41 74 42 75
REMARK SMILES IDX 48 76 50 77 43 78 44 79 45 80 46 81 47 82 73 83 74 84 83 85
REMARK SMILES IDX 75 86 76 87 82 88 84 89 77 90 78 91 79 92 80 93 81 94 57 95
REMARK SMILES IDX 58 96 67 97 59 98 60 99 66 100 68 101 61 102 62 103 63 104
REMARK SMILES IDX 64 105 65 106
REMARK H PARENT 5 22 89 56 55 67
REMARK Flexibility Score: inf
ROOT
ATOM      1  C   UNL     1      -5.853   3.020  -3.249  1.00  0.00     0.202 C 
ENDROOT
BRANCH   1   2
ATOM      2  C   UNL     1      -5.037   2.804  -1.974  1.00  0.00     0.261 C 
BRANCH   2   3
ATOM      3  O   UNL     1      -4.110   1.719  -2.083  1.00  0.00    -0.458 OA
BRANCH   3   4
ATOM      4  C   UNL     1      -4.420   0.650  -1.333  1.00  0.00     0.359 C 
ATOM      5  O   UNL     1      -5.415   0.485  -0.647  1.00  0.00    -0.244 OA
BRANCH   4   6
ATOM      6  C   UNL     1      -3.310  -0.385  -1.329  1.00  0.00     0.176 A 
ATOM      7  N   UNL     1      -1.101  -0.735  -0.807  1.00  0.00    -0.216 N 
ATOM      8  N   UNL     1      -2.097   0.066  -1.320  1.00  0.00    -0.161 NA
ATOM      9  C   UNL     1      -1.346  -1.971  -0.204  1.00  0.00     0.275 A 
ATOM     10  C   UNL     1      -2.731  -2.489  -0.308  1.00  0.00     0.051 A 
ATOM     11  O   UNL     1      -0.508  -2.640   0.392  1.00  0.00    -0.267 OA
ATOM     12  C   UNL     1      -3.659  -1.776  -1.052  1.00  0.00     0.022 A 
ATOM     13  C   UNL     1      -3.130  -3.679   0.307  1.00  0.00     0.014 A 
ATOM     14  C   UNL     1      -4.904  -2.327  -1.373  1.00  0.00     0.011 A 
ATOM     15  C   UNL     1      -4.413  -4.189   0.076  1.00  0.00     0.001 A 
ATOM     16  C   UNL     1      -5.277  -3.543  -0.808  1.00  0.00     0.001 A 
BRANCH   7  17
ATOM     17  C   UNL     1       0.235  -0.122  -0.844  1.00  0.00     0.197 C 
ATOM     18  C   UNL     1       1.113  -0.778  -1.911  1.00  0.00     0.044 C 
BRANCH  17  19
ATOM     19  C   UNL     1       0.965   0.003   0.514  1.00  0.00     0.249 C 
ATOM     20  O   UNL     1       1.955  -0.692   0.778  1.00  0.00    -0.272 OA
ATOM     21  N   UNL     1       0.663   1.008   1.402  1.00  0.00    -0.324 N 
ATOM     22  H   UNL     1       1.324   1.120   2.123  1.00  0.00     0.170 HD
BRANCH  21  23
ATOM     23  C   UNL     1      -0.413   1.901   1.469  1.00  0.00     0.041 A 
ATOM     24  C   UNL     1      -0.153   3.223   1.833  1.00  0.00     0.027 A 
ATOM     25  C   UNL     1      -1.735   1.508   1.296  1.00  0.00     0.027 A 
ATOM     26  C   UNL     1      -1.190   4.163   1.891  1.00  0.00     0.015 A 
ATOM     27  C   UNL     1      -2.777   2.438   1.355  1.00  0.00     0.015 A 
ATOM     28  C   UNL     1      -2.512   3.786   1.619  1.00  0.00     0.056 A 
BRANCH  28  29
ATOM     29  C   UNL     1      -3.637   4.790   1.660  1.00  0.00     0.416 C 
ATOM     30  F   UNL     1      -4.213   4.877   2.890  1.00  0.00    -0.166 F 
ATOM     31  F   UNL     1      -3.251   6.052   1.329  1.00  0.00    -0.166 F 
ATOM     32  F   UNL     1      -4.650   4.479   0.799  1.00  0.00    -0.166 F 
ENDBRANCH  28  29
ENDBRANCH  21  23
ENDBRANCH  17  19
ENDBRANCH   7  17
ENDBRANCH   4   6
ENDBRANCH   3   4
ENDBRANCH   2   3
ENDBRANCH   1   2
BRANCH   1  33
ATOM     33  O   UNL     1      -6.640   1.944  -3.744  1.00  0.00    -0.374 OA
BRANCH  33  34
ATOM     34  C   UNL     1      -6.009   0.734  -4.142  1.00  0.00     0.202 C 
BRANCH  34  35
ATOM     35  C   UNL     1      -4.918   0.739  -5.225  1.00  0.00     0.261 C 
BRANCH  35  36
ATOM     36  O   UNL     1      -3.823   1.636  -4.983  1.00  0.00    -0.460 OA
BRANCH  36  37
ATOM     37  C   UNL     1      -3.749   2.665  -5.863  1.00  0.00     0.338 C 
ATOM     38  O   UNL     1      -4.512   2.894  -6.788  1.00  0.00    -0.246 OA
BRANCH  37  39
ATOM     39  C   UNL     1      -2.678   3.607  -5.499  1.00  0.00     0.060 A 
ATOM     40  C   UNL     1      -3.050   4.898  -5.104  1.00  0.00     0.016 A 
ATOM     41  C   UNL     1      -1.341   3.296  -5.753  1.00  0.00     0.016 A 
ATOM     42  C   UNL     1      -2.090   5.902  -5.017  1.00  0.00     0.010 A 
ATOM     43  C   UNL     1      -0.380   4.311  -5.675  1.00  0.00     0.010 A 
ATOM     44  C   UNL     1      -0.759   5.627  -5.354  1.00  0.00    -0.014 A 
BRANCH  44  45
ATOM     45  C   UNL     1       0.185   6.755  -5.541  1.00  0.00     0.031 A 
ATOM     46  C   UNL     1       0.457   7.255  -6.936  1.00  0.00     0.074 A 
ATOM     47  C   UNL     1       0.749   7.360  -4.481  1.00  0.00     0.049 A 
ATOM     48  N   UNL     1       1.262   8.206  -7.333  1.00  0.00    -0.248 NA
ATOM     49  C   UNL     1      -0.281   6.598  -8.027  1.00  0.00     0.031 C 
ATOM     50  C   UNL     1       0.518   6.999  -3.083  1.00  0.00     0.029 A 
ATOM     51  N   UNL     1       1.635   8.405  -4.418  1.00  0.00    -0.354 N 
ATOM     52  C   UNL     1       1.137   8.255  -8.717  1.00  0.00     0.074 A 
ATOM     53  C   UNL     1       0.195   7.224  -9.094  1.00  0.00     0.031 C 
ATOM     54  C   UNL     1       1.256   7.803  -2.299  1.00  0.00     0.029 A 
ATOM     55  C   UNL     1       2.034   8.711  -3.140  1.00  0.00     0.049 A 
ATOM     56  H   UNL     1       1.954   8.889  -5.214  1.00  0.00     0.167 HD
ATOM     57  C   UNL     1       1.747   9.090  -9.593  1.00  0.00     0.037 A 
ATOM     58  C   UNL     1       2.942   9.605  -2.702  1.00  0.00     0.037 A 
ATOM     59  C   UNL     1       2.679  10.118  -9.210  1.00  0.00     0.049 A 
ATOM     60  C   UNL     1       3.657  10.479  -3.700  1.00  0.00     0.074 A 
ATOM     61  C   UNL     1       3.344  11.023 -10.020  1.00  0.00     0.029 A 
ATOM     62  N   UNL     1       3.081  10.377  -7.908  1.00  0.00    -0.354 N 
ATOM     63  N   UNL     1       3.525  10.520  -5.005  1.00  0.00    -0.248 NA
ATOM     64  C   UNL     1       4.644  11.429  -3.167  1.00  0.00     0.031 C 
ATOM     65  C   UNL     1       4.181  11.799  -9.212  1.00  0.00     0.029 A 
ATOM     66  C   UNL     1       4.001  11.412  -7.893  1.00  0.00     0.049 A 
ATOM     67  H   UNL     1       2.759   9.896  -7.111  1.00  0.00     0.167 HD
ATOM     68  C   UNL     1       4.389  11.517  -5.445  1.00  0.00     0.074 A 
ATOM     69  C   UNL     1       5.034  12.059  -4.266  1.00  0.00     0.031 C 
ATOM     70  C   UNL     1       4.626  11.947  -6.709  1.00  0.00     0.037 A 
BRANCH  57  71
ATOM     71  C   UNL     1       1.448   8.907 -11.055  1.00  0.00     0.058 A 
ATOM     72  C   UNL     1       0.215   9.282 -11.611  1.00  0.00     0.135 A 
ATOM     73  C   UNL     1       2.423   8.382 -11.919  1.00  0.00     0.135 A 
ATOM     74  F   UNL     1      -0.759   9.773 -10.828  1.00  0.00    -0.206 F 
ATOM     75  C   UNL     1      -0.050   9.121 -12.968  1.00  0.00     0.059 A 
ATOM     76  C   UNL     1       2.189   8.235 -13.283  1.00  0.00     0.059 A 
ATOM     77  F   UNL     1       3.618   8.005 -11.439  1.00  0.00    -0.206 F 
ATOM     78  C   UNL     1       0.944   8.595 -13.796  1.00  0.00     0.060 A 
BRANCH  78  79
ATOM     79  S   UNL     1       0.588   8.397 -15.555  1.00  0.00     0.124 S 
ATOM     80  O   UNL     1      -0.313   7.249 -15.542  1.00  0.00    -0.237 OA
ATOM     81  O   UNL     1      -0.022   9.677 -15.898  1.00  0.00    -0.237 OA
ATOM     82  O   UNL     1       1.903   8.155 -16.143  1.00  0.00    -0.744 OA
ENDBRANCH  78  79
ENDBRANCH  57  71
BRANCH  58  83
ATOM     83  C   UNL     1       3.242   9.705  -1.250  1.00  0.00     0.058 A 
ATOM     84  C   UNL     1       2.862  10.829  -0.503  1.00  0.00     0.135 A 
ATOM     85  C   UNL     1       3.912   8.670  -0.579  1.00  0.00     0.135 A 
ATOM     86  F   UNL     1       2.229  11.849  -1.102  1.00  0.00    -0.206 F 
ATOM     87  C   UNL     1       3.145  10.931   0.855  1.00  0.00     0.059 A 
ATOM     88  C   UNL     1       4.185   8.737   0.783  1.00  0.00     0.059 A 
ATOM     89  F   UNL     1       4.287   7.567  -1.246  1.00  0.00    -0.206 F 
ATOM     90  C   UNL     1       3.805   9.877   1.490  1.00  0.00     0.060 A 
BRANCH  90  91
ATOM     91  S   UNL     1       4.117   9.989   3.265  1.00  0.00     0.124 S 
ATOM     92  O   UNL     1       5.221  10.939   3.310  1.00  0.00    -0.237 OA
ATOM     93  O   UNL     1       2.836  10.471   3.772  1.00  0.00    -0.237 OA
ATOM     94  O   UNL     1       4.447   8.615   3.633  1.00  0.00    -0.744 OA
ENDBRANCH  90  91
ENDBRANCH  58  83
BRANCH  70  95
ATOM     95  C   UNL     1       5.594  13.084  -6.886  1.00  0.00     0.058 A 
ATOM     96  C   UNL     1       6.978  12.905  -6.743  1.00  0.00     0.135 A 
ATOM     97  C   UNL     1       5.132  14.357  -7.260  1.00  0.00     0.135 A 
ATOM     98  F   UNL     1       7.471  11.710  -6.381  1.00  0.00    -0.206 F 
ATOM     99  C   UNL     1       7.870  13.954  -6.944  1.00  0.00     0.059 A 
ATOM    100  C   UNL     1       6.007  15.413  -7.492  1.00  0.00     0.059 A 
ATOM    101  F   UNL     1       3.817  14.579  -7.421  1.00  0.00    -0.206 F 
ATOM    102  C   UNL     1       7.375  15.204  -7.320  1.00  0.00     0.060 A 
BRANCH 102 103
ATOM    103  S   UNL     1       8.545  16.547  -7.614  1.00  0.00     0.124 S 
ATOM    104  O   UNL     1       8.926  16.907  -6.253  1.00  0.00    -0.237 OA
ATOM    105  O   UNL     1       9.579  15.895  -8.411  1.00  0.00    -0.237 OA
ATOM    106  O   UNL     1       7.748  17.542  -8.327  1.00  0.00    -0.744 OA
ENDBRANCH 102 103
ENDBRANCH  70  95
ENDBRANCH  44  45
ENDBRANCH  37  39
ENDBRANCH  36  37
ENDBRANCH  35  36
ENDBRANCH  34  35
ENDBRANCH  33  34
ENDBRANCH   1  33
TORSDOF 21
