REMARK SMILES Cc1ccc(C(=O)OCCOCCOC(=O)c2ccc(-c3c4nc(c(-c5c(F)cc(S(=O)(=O)[O-])cc5F)c5ccc([nH]5)c(-c5c(F)cc(S(=O)(=O)[O-])cc5F)c5nc(c(-c6c(F)cc(S(=O)(=O)[O-])cc6F)c6ccc3[nH]6)C=C5)C=C4)cc2)cc1NC(=O)c1nn(C)c(=O)c2ccccc12
REMARK SMILES IDX 12 1 11 2 10 3 9 4 8 5 6 6 7 7 5 8 1 9 2 10 3 11 84 12 4 13
REMARK SMILES IDX 83 14 85 15 86 16 87 18 88 19 89 20 99 21 90 22 94 23 98 24
REMARK SMILES IDX 91 25 92 26 95 27 97 28 93 29 96 30 13 31 14 32 15 33 16 34
REMARK SMILES IDX 17 35 18 36 82 37 19 38 81 39 20 40 21 41 22 42 75 43 23 44
REMARK SMILES IDX 80 45 74 46 76 47 24 48 79 49 73 50 72 51 25 53 59 54 38 55
REMARK SMILES IDX 58 56 39 57 42 58 57 59 77 60 40 61 41 62 56 64 78 65 43 66
REMARK SMILES IDX 26 67 27 68 36 69 28 70 29 71 35 72 37 73 30 74 31 75 32 76
REMARK SMILES IDX 33 77 34 78 60 79 61 80 70 81 62 82 63 83 69 84 71 85 64 86
REMARK SMILES IDX 65 87 66 88 67 89 68 90 44 91 45 92 54 93 46 94 47 95 53 96
REMARK SMILES IDX 55 97 48 98 49 99 50 100 51 101 52 102
REMARK H PARENT 85 17 76 52 42 63
REMARK Flexibility Score: inf
ROOT
ATOM      1  C   UNL     1      -3.570  -1.227  -3.583  1.00  0.00     0.202 C 
ENDROOT
BRANCH   1   2
ATOM      2  O   UNL     1      -3.810  -0.552  -2.371  1.00  0.00    -0.374 OA
BRANCH   2   3
ATOM      3  C   UNL     1      -3.926   0.855  -2.482  1.00  0.00     0.202 C 
BRANCH   3   4
ATOM      4  C   UNL     1      -4.164   1.342  -1.097  1.00  0.00     0.261 C 
BRANCH   4   5
ATOM      5  O   UNL     1      -2.998   1.212  -0.280  1.00  0.00    -0.460 OA
BRANCH   5   6
ATOM      6  C   UNL     1      -2.645   0.049   0.354  1.00  0.00     0.338 C 
ATOM      7  O   UNL     1      -3.173  -1.018   0.376  1.00  0.00    -0.246 OA
BRANCH   6   8
ATOM      8  C   UNL     1      -1.298   0.389   0.875  1.00  0.00     0.062 A 
ATOM      9  C   UNL     1       2.563   1.871  -0.027  1.00  0.00     0.046 C 
ATOM     10  C   UNL     1       1.185   1.448   0.393  1.00  0.00    -0.027 A 
ATOM     11  C   UNL     1       0.969   0.041   0.327  1.00  0.00     0.006 A 
ATOM     12  C   UNL     1       0.151   2.319   0.834  1.00  0.00     0.045 A 
ATOM     13  C   UNL     1      -0.289  -0.493   0.529  1.00  0.00     0.016 A 
ATOM     14  C   UNL     1      -1.045   1.732   1.214  1.00  0.00     0.042 A 
BRANCH  12  15
ATOM     15  N   UNL     1       0.145   3.740   0.607  1.00  0.00    -0.320 N 
ATOM     16  C   UNL     1      -0.866   4.644   1.040  1.00  0.00     0.276 C 
ATOM     17  H   UNL     1       0.904   4.120   0.109  1.00  0.00     0.170 HD
ATOM     18  O   UNL     1      -1.325   4.708   2.170  1.00  0.00    -0.267 OA
BRANCH  16  19
ATOM     19  C   UNL     1      -1.473   5.496  -0.121  1.00  0.00     0.157 A 
ATOM     20  N   UNL     1      -1.000   5.108  -1.274  1.00  0.00    -0.164 NA
ATOM     21  C   UNL     1      -2.654   6.447  -0.026  1.00  0.00     0.020 A 
ATOM     22  N   UNL     1      -1.733   5.389  -2.392  1.00  0.00    -0.232 N 
ATOM     23  C   UNL     1      -3.175   6.906  -1.249  1.00  0.00     0.051 A 
ATOM     24  C   UNL     1      -3.380   6.774   1.130  1.00  0.00     0.011 A 
ATOM     25  C   UNL     1      -2.340   4.192  -2.954  1.00  0.00     0.178 C 
ATOM     26  C   UNL     1      -2.510   6.530  -2.503  1.00  0.00     0.274 A 
ATOM     27  C   UNL     1      -4.434   7.530  -1.352  1.00  0.00     0.014 A 
ATOM     28  C   UNL     1      -4.649   7.402   1.031  1.00  0.00     0.001 A 
ATOM     29  O   UNL     1      -2.766   7.096  -3.560  1.00  0.00    -0.267 OA
ATOM     30  C   UNL     1      -5.189   7.746  -0.209  1.00  0.00     0.001 A 
ENDBRANCH  16  19
ENDBRANCH  12  15
ENDBRANCH   6   8
ENDBRANCH   5   6
ENDBRANCH   4   5
ENDBRANCH   3   4
ENDBRANCH   2   3
ENDBRANCH   1   2
BRANCH   1  31
ATOM     31  C   UNL     1      -4.639  -0.949  -4.646  1.00  0.00     0.261 C 
BRANCH  31  32
ATOM     32  O   UNL     1      -5.898  -1.518  -4.229  1.00  0.00    -0.460 OA
BRANCH  32  33
ATOM     33  C   UNL     1      -6.861  -0.630  -3.838  1.00  0.00     0.338 C 
ATOM     34  O   UNL     1      -7.444   0.114  -4.606  1.00  0.00    -0.246 OA
BRANCH  33  35
ATOM     35  C   UNL     1      -7.062  -0.705  -2.358  1.00  0.00     0.060 A 
ATOM     36  C   UNL     1      -7.717   0.321  -1.653  1.00  0.00     0.016 A 
ATOM     37  C   UNL     1      -6.419  -1.718  -1.648  1.00  0.00     0.016 A 
ATOM     38  C   UNL     1      -7.609   0.402  -0.251  1.00  0.00     0.010 A 
ATOM     39  C   UNL     1      -6.252  -1.595  -0.282  1.00  0.00     0.010 A 
ATOM     40  C   UNL     1      -6.813  -0.520   0.426  1.00  0.00    -0.014 A 
BRANCH  40  41
ATOM     41  C   UNL     1      -6.384  -0.448   1.827  1.00  0.00     0.031 A 
ATOM     42  C   UNL     1      -6.806  -1.497   2.763  1.00  0.00     0.074 A 
ATOM     43  C   UNL     1      -5.349   0.343   2.188  1.00  0.00     0.049 A 
ATOM     44  N   UNL     1      -6.569  -1.472   4.029  1.00  0.00    -0.248 NA
ATOM     45  C   UNL     1      -7.591  -2.659   2.356  1.00  0.00     0.031 C 
ATOM     46  C   UNL     1      -4.381   0.195   3.276  1.00  0.00     0.029 A 
ATOM     47  N   UNL     1      -5.037   1.589   1.678  1.00  0.00    -0.354 N 
ATOM     48  C   UNL     1      -6.712  -2.766   4.461  1.00  0.00     0.074 A 
ATOM     49  C   UNL     1      -7.579  -3.371   3.486  1.00  0.00     0.031 C 
ATOM     50  C   UNL     1      -3.839   1.393   3.557  1.00  0.00     0.029 A 
ATOM     51  C   UNL     1      -4.550   2.353   2.737  1.00  0.00     0.049 A 
ATOM     52  H   UNL     1      -5.139   1.882   0.743  1.00  0.00     0.167 HD
ATOM     53  C   UNL     1      -5.875  -3.210   5.443  1.00  0.00     0.037 A 
ATOM     54  C   UNL     1      -5.185   3.498   3.084  1.00  0.00     0.037 A 
ATOM     55  C   UNL     1      -5.141  -2.089   6.057  1.00  0.00     0.049 A 
ATOM     56  C   UNL     1      -5.455   3.414   4.536  1.00  0.00     0.074 A 
ATOM     57  C   UNL     1      -3.803  -1.735   6.124  1.00  0.00     0.029 A 
ATOM     58  N   UNL     1      -5.854  -0.985   6.525  1.00  0.00    -0.354 N 
ATOM     59  N   UNL     1      -5.801   2.286   5.094  1.00  0.00    -0.248 NA
ATOM     60  C   UNL     1      -5.102   4.463   5.489  1.00  0.00     0.031 C 
ATOM     61  C   UNL     1      -3.729  -0.381   6.567  1.00  0.00     0.029 A 
ATOM     62  C   UNL     1      -5.020   0.082   6.781  1.00  0.00     0.049 A 
ATOM     63  H   UNL     1      -6.830  -0.969   6.655  1.00  0.00     0.167 HD
ATOM     64  C   UNL     1      -5.561   2.398   6.427  1.00  0.00     0.074 A 
ATOM     65  C   UNL     1      -5.199   3.789   6.648  1.00  0.00     0.031 C 
ATOM     66  C   UNL     1      -5.560   1.338   7.274  1.00  0.00     0.037 A 
BRANCH  53  67
ATOM     67  C   UNL     1      -5.535  -4.671   5.711  1.00  0.00     0.058 A 
ATOM     68  C   UNL     1      -4.624  -5.005   6.740  1.00  0.00     0.135 A 
ATOM     69  C   UNL     1      -5.987  -5.785   4.966  1.00  0.00     0.135 A 
ATOM     70  F   UNL     1      -4.089  -4.066   7.534  1.00  0.00    -0.206 F 
ATOM     71  C   UNL     1      -4.206  -6.313   7.003  1.00  0.00     0.059 A 
ATOM     72  C   UNL     1      -5.622  -7.104   5.241  1.00  0.00     0.059 A 
ATOM     73  F   UNL     1      -6.777  -5.674   3.896  1.00  0.00    -0.206 F 
ATOM     74  C   UNL     1      -4.723  -7.362   6.258  1.00  0.00     0.060 A 
BRANCH  74  75
ATOM     75  S   UNL     1      -4.230  -9.048   6.641  1.00  0.00     0.124 S 
ATOM     76  O   UNL     1      -2.810  -9.033   6.306  1.00  0.00    -0.237 OA
ATOM     77  O   UNL     1      -4.549  -9.145   8.061  1.00  0.00    -0.237 OA
ATOM     78  O   UNL     1      -5.068  -9.858   5.760  1.00  0.00    -0.744 OA
ENDBRANCH  74  75
ENDBRANCH  53  67
BRANCH  54  79
ATOM     79  C   UNL     1      -5.969   4.044   1.939  1.00  0.00     0.058 A 
ATOM     80  C   UNL     1      -5.201   4.292   0.782  1.00  0.00     0.135 A 
ATOM     81  C   UNL     1      -7.350   3.949   1.740  1.00  0.00     0.135 A 
ATOM     82  F   UNL     1      -3.864   4.165   0.836  1.00  0.00    -0.206 F 
ATOM     83  C   UNL     1      -5.738   4.462  -0.478  1.00  0.00     0.059 A 
ATOM     84  C   UNL     1      -7.920   4.064   0.451  1.00  0.00     0.059 A 
ATOM     85  F   UNL     1      -8.156   3.612   2.757  1.00  0.00    -0.206 F 
ATOM     86  C   UNL     1      -7.097   4.310  -0.651  1.00  0.00     0.060 A 
BRANCH  86  87
ATOM     87  S   UNL     1      -7.647   4.233  -2.367  1.00  0.00     0.124 S 
ATOM     88  O   UNL     1      -7.629   5.644  -2.737  1.00  0.00    -0.237 OA
ATOM     89  O   UNL     1      -6.598   3.411  -2.974  1.00  0.00    -0.237 OA
ATOM     90  O   UNL     1      -8.959   3.607  -2.269  1.00  0.00    -0.744 OA
ENDBRANCH  86  87
ENDBRANCH  54  79
BRANCH  66  91
ATOM     91  C   UNL     1      -6.156   1.456   8.640  1.00  0.00     0.058 A 
ATOM     92  C   UNL     1      -7.006   2.519   9.005  1.00  0.00     0.135 A 
ATOM     93  C   UNL     1      -6.064   0.390   9.559  1.00  0.00     0.135 A 
ATOM     94  F   UNL     1      -7.278   3.534   8.171  1.00  0.00    -0.206 F 
ATOM     95  C   UNL     1      -7.649   2.566  10.230  1.00  0.00     0.059 A 
ATOM     96  C   UNL     1      -6.748   0.391  10.768  1.00  0.00     0.059 A 
ATOM     97  F   UNL     1      -5.331  -0.703   9.298  1.00  0.00    -0.206 F 
ATOM     98  C   UNL     1      -7.506   1.502  11.110  1.00  0.00     0.060 A 
BRANCH  98  99
ATOM     99  S   UNL     1      -8.325   1.597  12.702  1.00  0.00     0.124 S 
ATOM    100  O   UNL     1      -7.420   2.480  13.431  1.00  0.00    -0.237 OA
ATOM    101  O   UNL     1      -9.624   2.170  12.357  1.00  0.00    -0.237 OA
ATOM    102  O   UNL     1      -8.356   0.210  13.152  1.00  0.00    -0.744 OA
ENDBRANCH  98  99
ENDBRANCH  66  91
ENDBRANCH  40  41
ENDBRANCH  33  35
ENDBRANCH  32  33
ENDBRANCH  31  32
ENDBRANCH   1  31
TORSDOF 19
