REMARK SMILES Cc1cc(C)n(CCC(=O)N[C@@H](C(=O)OCCOCCOC(=O)c2ccc(-c3c4nc(c(-c5c(F)cc(S(=O)(=O)[O-])cc5F)c5ccc([nH]5)c(-c5c(F)cc(S(=O)(=O)[O-])cc5F)c5nc(c(-c6c(F)cc(S(=O)(=O)[O-])cc6F)c6ccc3[nH]6)C=C5)C=C4)cc2)[C@@H](C)O)n1
REMARK SMILES IDX 17 1 16 2 15 3 13 4 14 5 12 6 11 7 9 8 10 9 8 11 7 12 6 13
REMARK SMILES IDX 1 14 2 15 3 16 93 17 4 18 5 19 90 20 91 21 92 22 18 24 19 25
REMARK SMILES IDX 20 26 21 27 22 28 23 29 24 30 25 31 89 32 26 33 88 34 27 35
REMARK SMILES IDX 28 36 29 37 82 38 30 39 87 40 81 41 83 42 31 43 86 44 80 45
REMARK SMILES IDX 79 46 32 48 66 49 45 50 65 51 46 52 49 53 64 54 84 55 47 56
REMARK SMILES IDX 48 57 63 59 85 60 50 61 33 62 34 63 43 64 35 65 36 66 42 67
REMARK SMILES IDX 44 68 37 69 38 70 39 71 40 72 41 73 67 74 68 75 77 76 69 77
REMARK SMILES IDX 70 78 76 79 78 80 71 81 72 82 73 83 74 84 75 85 51 86 52 87
REMARK SMILES IDX 61 88 53 89 54 90 60 91 62 92 55 93 56 94 57 95 58 96 59 97
REMARK H PARENT 11 10 92 23 83 47 49 58
REMARK Flexibility Score: inf
ROOT
ATOM      1  C   UNL     1       3.925  -3.715  -0.423  1.00  0.00     0.202 C 
ENDROOT
BRANCH   1   2
ATOM      2  C   UNL     1       2.809  -2.864   0.182  1.00  0.00     0.261 C 
BRANCH   2   3
ATOM      3  O   UNL     1       1.544  -3.511   0.428  1.00  0.00    -0.462 OA
BRANCH   3   4
ATOM      4  C   UNL     1       0.466  -2.891  -0.135  1.00  0.00     0.331 C 
ATOM      5  O   UNL     1       0.549  -2.004  -0.984  1.00  0.00    -0.250 OA
BRANCH   4   6
ATOM      6  C   UNL     1      -0.904  -3.342   0.414  1.00  0.00     0.221 C 
BRANCH   6   7
ATOM      7  N   UNL     1      -0.842  -4.403   1.421  1.00  0.00    -0.341 N 
ATOM      8  C   UNL     1      -1.421  -4.437   2.655  1.00  0.00     0.222 C 
ATOM      9  O   UNL     1      -1.172  -5.387   3.397  1.00  0.00    -0.275 OA
ATOM     10  H   UNL     1      -0.312  -5.196   1.176  1.00  0.00     0.164 HD
BRANCH   8  11
ATOM     11  C   UNL     1      -2.311  -3.306   3.127  1.00  0.00     0.123 C 
BRANCH  11  12
ATOM     12  C   UNL     1      -1.545  -2.378   4.059  1.00  0.00     0.154 C 
BRANCH  12  13
ATOM     13  N   UNL     1      -0.487  -1.643   3.387  1.00  0.00    -0.269 N 
ATOM     14  C   UNL     1       0.355   0.759   0.923  1.00  0.00     0.069 C 
ATOM     15  C   UNL     1       0.329  -0.223   2.035  1.00  0.00     0.060 A 
ATOM     16  C   UNL     1       1.419  -0.908   2.606  1.00  0.00     0.048 A 
ATOM     17  N   UNL     1      -0.832  -0.640   2.550  1.00  0.00    -0.178 NA
ATOM     18  C   UNL     1       0.860  -1.904   3.380  1.00  0.00     0.036 A 
ATOM     19  C   UNL     1       1.494  -3.091   4.008  1.00  0.00     0.066 C 
ENDBRANCH  12  13
ENDBRANCH  11  12
ENDBRANCH   8  11
ENDBRANCH   6   7
BRANCH   6  20
ATOM     20  C   UNL     1      -1.846  -3.672  -0.771  1.00  0.00     0.145 C 
ATOM     21  C   UNL     1      -3.227  -4.146  -0.325  1.00  0.00     0.041 C 
BRANCH  20  22
ATOM     22  O   UNL     1      -2.115  -2.518  -1.586  1.00  0.00    -0.391 OA
ATOM     23  H   UNL     1      -2.590  -1.855  -1.061  1.00  0.00     0.211 HD
ENDBRANCH  20  22
ENDBRANCH   6  20
ENDBRANCH   4   6
ENDBRANCH   3   4
ENDBRANCH   2   3
ENDBRANCH   1   2
BRANCH   1  24
ATOM     24  O   UNL     1       3.701  -4.424  -1.633  1.00  0.00    -0.374 OA
BRANCH  24  25
ATOM     25  C   UNL     1       2.539  -5.227  -1.784  1.00  0.00     0.202 C 
BRANCH  25  26
ATOM     26  C   UNL     1       2.360  -6.462  -0.902  1.00  0.00     0.261 C 
BRANCH  26  27
ATOM     27  O   UNL     1       2.595  -6.207   0.473  1.00  0.00    -0.460 OA
BRANCH  27  28
ATOM     28  C   UNL     1       3.860  -6.485   0.852  1.00  0.00     0.338 C 
ATOM     29  O   UNL     1       4.803  -6.768   0.112  1.00  0.00    -0.246 OA
BRANCH  28  30
ATOM     30  C   UNL     1       3.962  -6.482   2.314  1.00  0.00     0.060 A 
ATOM     31  C   UNL     1       5.216  -6.841   2.816  1.00  0.00     0.016 A 
ATOM     32  C   UNL     1       2.785  -6.614   3.063  1.00  0.00     0.016 A 
ATOM     33  C   UNL     1       5.246  -7.688   3.894  1.00  0.00     0.010 A 
ATOM     34  C   UNL     1       2.817  -7.456   4.144  1.00  0.00     0.010 A 
ATOM     35  C   UNL     1       4.025  -8.090   4.435  1.00  0.00    -0.014 A 
BRANCH  35  36
ATOM     36  C   UNL     1       4.013  -9.324   5.190  1.00  0.00     0.031 A 
ATOM     37  C   UNL     1       4.428  -9.180   6.597  1.00  0.00     0.074 A 
ATOM     38  C   UNL     1       3.519 -10.449   4.633  1.00  0.00     0.049 A 
ATOM     39  N   UNL     1       5.404  -9.755   7.218  1.00  0.00    -0.248 NA
ATOM     40  C   UNL     1       3.732  -8.146   7.380  1.00  0.00     0.031 C 
ATOM     41  C   UNL     1       2.810 -10.580   3.351  1.00  0.00     0.029 A 
ATOM     42  N   UNL     1       3.412 -11.694   5.163  1.00  0.00    -0.354 N 
ATOM     43  C   UNL     1       5.298  -9.319   8.533  1.00  0.00     0.074 A 
ATOM     44  C   UNL     1       4.393  -8.199   8.533  1.00  0.00     0.031 C 
ATOM     45  C   UNL     1       2.136 -11.750   3.338  1.00  0.00     0.029 A 
ATOM     46  C   UNL     1       2.453 -12.487   4.549  1.00  0.00     0.049 A 
ATOM     47  H   UNL     1       3.965 -12.006   5.915  1.00  0.00     0.167 HD
ATOM     48  C   UNL     1       5.732 -10.070   9.578  1.00  0.00     0.037 A 
ATOM     49  C   UNL     1       1.872 -13.589   5.083  1.00  0.00     0.037 A 
ATOM     50  C   UNL     1       6.680 -11.073   9.177  1.00  0.00     0.049 A 
ATOM     51  C   UNL     1       2.743 -14.048   6.202  1.00  0.00     0.074 A 
ATOM     52  C   UNL     1       7.909 -11.040   8.547  1.00  0.00     0.029 A 
ATOM     53  N   UNL     1       6.253 -12.377   9.095  1.00  0.00    -0.354 N 
ATOM     54  N   UNL     1       3.954 -14.513   6.050  1.00  0.00    -0.248 NA
ATOM     55  C   UNL     1       2.428 -13.573   7.542  1.00  0.00     0.031 C 
ATOM     56  C   UNL     1       7.937 -12.200   7.720  1.00  0.00     0.029 A 
ATOM     57  C   UNL     1       6.737 -12.886   7.914  1.00  0.00     0.049 A 
ATOM     58  H   UNL     1       5.705 -12.855   9.757  1.00  0.00     0.167 HD
ATOM     59  C   UNL     1       4.669 -14.032   7.141  1.00  0.00     0.074 A 
ATOM     60  C   UNL     1       3.655 -13.539   8.068  1.00  0.00     0.031 C 
ATOM     61  C   UNL     1       6.017 -13.820   7.074  1.00  0.00     0.037 A 
BRANCH  48  62
ATOM     62  C   UNL     1       5.000 -10.099  10.890  1.00  0.00     0.058 A 
ATOM     63  C   UNL     1       5.638 -10.589  12.041  1.00  0.00     0.135 A 
ATOM     64  C   UNL     1       3.603  -9.893  10.995  1.00  0.00     0.135 A 
ATOM     65  F   UNL     1       6.954 -10.850  12.031  1.00  0.00    -0.206 F 
ATOM     66  C   UNL     1       4.929 -10.891  13.204  1.00  0.00     0.059 A 
ATOM     67  C   UNL     1       2.891 -10.123  12.161  1.00  0.00     0.059 A 
ATOM     68  F   UNL     1       2.853  -9.555   9.937  1.00  0.00    -0.206 F 
ATOM     69  C   UNL     1       3.554 -10.665  13.247  1.00  0.00     0.060 A 
BRANCH  69  70
ATOM     70  S   UNL     1       2.614 -11.169  14.696  1.00  0.00     0.124 S 
ATOM     71  O   UNL     1       2.611 -12.619  14.544  1.00  0.00    -0.237 OA
ATOM     72  O   UNL     1       3.425 -10.639  15.787  1.00  0.00    -0.237 OA
ATOM     73  O   UNL     1       1.326 -10.509  14.505  1.00  0.00    -0.744 OA
ENDBRANCH  69  70
ENDBRANCH  48  62
BRANCH  49  74
ATOM     74  C   UNL     1       0.441 -13.980   4.951  1.00  0.00     0.058 A 
ATOM     75  C   UNL     1      -0.005 -15.263   5.309  1.00  0.00     0.135 A 
ATOM     76  C   UNL     1      -0.569 -13.024   4.699  1.00  0.00     0.135 A 
ATOM     77  F   UNL     1       0.882 -16.225   5.605  1.00  0.00    -0.206 F 
ATOM     78  C   UNL     1      -1.366 -15.574   5.430  1.00  0.00     0.059 A 
ATOM     79  C   UNL     1      -1.927 -13.315   4.793  1.00  0.00     0.059 A 
ATOM     80  F   UNL     1      -0.267 -11.744   4.436  1.00  0.00    -0.206 F 
ATOM     81  C   UNL     1      -2.321 -14.587   5.180  1.00  0.00     0.060 A 
BRANCH  81  82
ATOM     82  S   UNL     1      -4.070 -14.938   5.468  1.00  0.00     0.124 S 
ATOM     83  O   UNL     1      -4.366 -15.893   4.406  1.00  0.00    -0.237 OA
ATOM     84  O   UNL     1      -4.057 -15.475   6.824  1.00  0.00    -0.237 OA
ATOM     85  O   UNL     1      -4.707 -13.630   5.325  1.00  0.00    -0.744 OA
ENDBRANCH  81  82
ENDBRANCH  49  74
BRANCH  61  86
ATOM     86  C   UNL     1       6.764 -14.367   5.883  1.00  0.00     0.058 A 
ATOM     87  C   UNL     1       6.579 -13.900   4.569  1.00  0.00     0.135 A 
ATOM     88  C   UNL     1       7.824 -15.259   6.099  1.00  0.00     0.135 A 
ATOM     89  F   UNL     1       5.664 -12.961   4.298  1.00  0.00    -0.206 F 
ATOM     90  C   UNL     1       7.382 -14.330   3.512  1.00  0.00     0.059 A 
ATOM     91  C   UNL     1       8.659 -15.679   5.064  1.00  0.00     0.059 A 
ATOM     92  F   UNL     1       8.099 -15.688   7.342  1.00  0.00    -0.206 F 
ATOM     93  C   UNL     1       8.425 -15.217   3.770  1.00  0.00     0.060 A 
BRANCH  93  94
ATOM     94  S   UNL     1       9.529 -15.686   2.419  1.00  0.00     0.124 S 
ATOM     95  O   UNL     1       8.691 -16.590   1.638  1.00  0.00    -0.237 OA
ATOM     96  O   UNL     1       9.830 -14.402   1.792  1.00  0.00    -0.237 OA
ATOM     97  O   UNL     1      10.657 -16.313   3.102  1.00  0.00    -0.744 OA
ENDBRANCH  93  94
ENDBRANCH  61  86
ENDBRANCH  35  36
ENDBRANCH  28  30
ENDBRANCH  27  28
ENDBRANCH  26  27
ENDBRANCH  25  26
ENDBRANCH  24  25
ENDBRANCH   1  24
TORSDOF 23
