REMARK SMILES O=C(C[C@@H](C(=O)N(c1ccccc1)c1ccccc1)[NH+]1CCOCC1)OCCOCCOC(=O)c1ccc(-c2c3nc(c(-c4c(F)cc(S(=O)(=O)[O-])cc4F)c4ccc([nH]4)c(-c4c(F)cc(S(=O)(=O)[O-])cc4F)c4nc(c(-c5c(F)cc(S(=O)(=O)[O-])cc5F)c5ccc2[nH]5)C=C4)C=C3)cc1
REMARK SMILES IDX 29 1 28 2 27 3 26 4 2 5 1 6 3 7 4 8 5 9 6 10 7 11 8 12 9 13
REMARK SMILES IDX 13 14 10 15 12 16 11 17 14 18 15 19 19 20 16 21 18 22 17 23
REMARK SMILES IDX 20 24 21 25 25 26 22 28 24 29 23 30 30 31 31 32 32 33 33 34
REMARK SMILES IDX 34 35 35 36 36 37 100 38 37 39 99 40 38 41 39 42 40 43 93 44
REMARK SMILES IDX 41 45 98 46 92 47 94 48 42 49 97 50 91 51 90 52 43 54 77 55
REMARK SMILES IDX 56 56 76 57 57 58 60 59 75 60 95 61 58 62 59 63 74 65 96 66
REMARK SMILES IDX 61 67 44 68 45 69 54 70 46 71 47 72 53 73 55 74 48 75 49 76
REMARK SMILES IDX 50 77 51 78 52 79 78 80 79 81 88 82 80 83 81 84 87 85 89 86
REMARK SMILES IDX 82 87 83 88 84 89 85 90 86 91 62 92 63 93 72 94 64 95 65 96
REMARK SMILES IDX 71 97 73 98 66 99 67 100 68 101 69 102 70 103
REMARK H PARENT 20 27 94 53 60 64
REMARK Flexibility Score: inf
ROOT
ATOM      1  O   UNL     1       4.753  -1.139  -2.944  1.00  0.00    -0.374 OA
ENDROOT
BRANCH   1   2
ATOM      2  C   UNL     1       5.111  -0.785  -1.611  1.00  0.00     0.202 C 
BRANCH   2   3
ATOM      3  C   UNL     1       4.248  -1.242  -0.432  1.00  0.00     0.261 C 
BRANCH   3   4
ATOM      4  O   UNL     1       2.853  -0.874  -0.397  1.00  0.00    -0.463 OA
BRANCH   4   5
ATOM      5  C   UNL     1       2.268   0.325  -0.507  1.00  0.00     0.312 C 
ATOM      6  O   UNL     1       1.042   0.391  -0.625  1.00  0.00    -0.252 OA
BRANCH   5   7
ATOM      7  C   UNL     1       3.074   1.583  -0.597  1.00  0.00     0.198 C 
BRANCH   7   8
ATOM      8  C   UNL     1       3.658   2.273   0.652  1.00  0.00     0.286 C 
BRANCH   8   9
ATOM      9  C   UNL     1       4.481   1.272   1.515  1.00  0.00     0.290 C 
ATOM     10  O   UNL     1       5.666   1.117   1.156  1.00  0.00    -0.267 OA
ATOM     11  N   UNL     1       3.957   0.517   2.595  1.00  0.00    -0.276 N 
BRANCH  11  12
ATOM     12  C   UNL     1       2.569   0.315   3.036  1.00  0.00     0.049 A 
ATOM     13  C   UNL     1       2.277  -0.449   4.192  1.00  0.00     0.027 A 
ATOM     14  C   UNL     1       1.441   0.732   2.337  1.00  0.00     0.027 A 
ATOM     15  C   UNL     1       1.029  -1.049   4.409  1.00  0.00     0.002 A 
ATOM     16  C   UNL     1       0.179   0.142   2.539  1.00  0.00     0.002 A 
ATOM     17  C   UNL     1      -0.012  -0.800   3.535  1.00  0.00     0.000 A 
ENDBRANCH  11  12
BRANCH  11  18
ATOM     18  C   UNL     1       4.926  -0.400   3.209  1.00  0.00     0.049 A 
ATOM     19  C   UNL     1       4.642  -1.772   3.335  1.00  0.00     0.027 A 
ATOM     20  C   UNL     1       6.189   0.040   3.634  1.00  0.00     0.027 A 
ATOM     21  C   UNL     1       5.516  -2.631   3.994  1.00  0.00     0.002 A 
ATOM     22  C   UNL     1       7.107  -0.849   4.209  1.00  0.00     0.002 A 
ATOM     23  C   UNL     1       6.761  -2.180   4.411  1.00  0.00     0.000 A 
ENDBRANCH  11  18
ENDBRANCH   8   9
BRANCH   8  24
ATOM     24  N   UNL     1       4.598   3.361   0.156  1.00  0.00    -0.320 N 
ATOM     25  C   UNL     1       5.142   4.216   1.233  1.00  0.00     0.291 C 
ATOM     26  C   UNL     1       4.101   4.253  -0.911  1.00  0.00     0.291 C 
ATOM     27  H   UNL     1       5.328   2.780  -0.257  1.00  0.00     0.348 HD
ATOM     28  C   UNL     1       4.160   5.304   1.703  1.00  0.00     0.221 C 
ATOM     29  C   UNL     1       3.076   5.267  -0.399  1.00  0.00     0.221 C 
ATOM     30  O   UNL     1       3.655   6.094   0.617  1.00  0.00    -0.370 OA
ENDBRANCH   8  24
ENDBRANCH   7   8
ENDBRANCH   5   7
ENDBRANCH   4   5
ENDBRANCH   3   4
ENDBRANCH   2   3
ENDBRANCH   1   2
BRANCH   1  31
ATOM     31  C   UNL     1       3.388  -1.196  -3.315  1.00  0.00     0.202 C 
BRANCH  31  32
ATOM     32  C   UNL     1       2.823  -2.624  -3.342  1.00  0.00     0.261 C 
BRANCH  32  33
ATOM     33  O   UNL     1       3.305  -3.466  -2.284  1.00  0.00    -0.460 OA
BRANCH  33  34
ATOM     34  C   UNL     1       4.523  -4.020  -2.522  1.00  0.00     0.338 C 
ATOM     35  O   UNL     1       5.200  -3.915  -3.529  1.00  0.00    -0.246 OA
BRANCH  34  36
ATOM     36  C   UNL     1       4.983  -4.749  -1.324  1.00  0.00     0.060 A 
ATOM     37  C   UNL     1       6.261  -4.474  -0.822  1.00  0.00     0.016 A 
ATOM     38  C   UNL     1       4.206  -5.770  -0.771  1.00  0.00     0.016 A 
ATOM     39  C   UNL     1       6.798  -5.279   0.183  1.00  0.00     0.010 A 
ATOM     40  C   UNL     1       4.750  -6.582   0.228  1.00  0.00     0.010 A 
ATOM     41  C   UNL     1       6.069  -6.374   0.668  1.00  0.00    -0.014 A 
BRANCH  41  42
ATOM     42  C   UNL     1       6.757  -7.397   1.497  1.00  0.00     0.031 A 
ATOM     43  C   UNL     1       7.277  -8.635   0.830  1.00  0.00     0.074 A 
ATOM     44  C   UNL     1       6.956  -7.208   2.812  1.00  0.00     0.049 A 
ATOM     45  N   UNL     1       7.924  -9.641   1.355  1.00  0.00    -0.248 NA
ATOM     46  C   UNL     1       7.032  -8.758  -0.616  1.00  0.00     0.031 C 
ATOM     47  C   UNL     1       6.493  -6.042   3.546  1.00  0.00     0.029 A 
ATOM     48  N   UNL     1       7.586  -7.970   3.762  1.00  0.00    -0.354 N 
ATOM     49  C   UNL     1       8.176 -10.512   0.304  1.00  0.00     0.074 A 
ATOM     50  C   UNL     1       7.571  -9.939  -0.879  1.00  0.00     0.031 C 
ATOM     51  C   UNL     1       6.846  -6.154   4.836  1.00  0.00     0.029 A 
ATOM     52  C   UNL     1       7.554  -7.417   5.022  1.00  0.00     0.049 A 
ATOM     53  H   UNL     1       8.019  -8.830   3.562  1.00  0.00     0.167 HD
ATOM     54  C   UNL     1       8.865 -11.675   0.326  1.00  0.00     0.037 A 
ATOM     55  C   UNL     1       8.036  -7.881   6.192  1.00  0.00     0.037 A 
ATOM     56  C   UNL     1       9.451 -12.242   1.512  1.00  0.00     0.049 A 
ATOM     57  C   UNL     1       8.772  -9.194   6.193  1.00  0.00     0.074 A 
ATOM     58  C   UNL     1      10.156 -13.425   1.644  1.00  0.00     0.029 A 
ATOM     59  N   UNL     1       9.399 -11.665   2.774  1.00  0.00    -0.354 N 
ATOM     60  N   UNL     1       9.016 -10.000   5.185  1.00  0.00    -0.248 NA
ATOM     61  C   UNL     1       9.308  -9.658   7.479  1.00  0.00     0.031 C 
ATOM     62  C   UNL     1      10.500 -13.581   2.992  1.00  0.00     0.029 A 
ATOM     63  C   UNL     1      10.049 -12.473   3.692  1.00  0.00     0.049 A 
ATOM     64  H   UNL     1       8.963 -10.808   2.985  1.00  0.00     0.167 HD
ATOM     65  C   UNL     1       9.741 -11.061   5.714  1.00  0.00     0.074 A 
ATOM     66  C   UNL     1       9.924 -10.777   7.123  1.00  0.00     0.031 C 
ATOM     67  C   UNL     1      10.207 -12.174   5.094  1.00  0.00     0.037 A 
BRANCH  54  68
ATOM     68  C   UNL     1       9.009 -12.410  -0.976  1.00  0.00     0.058 A 
ATOM     69  C   UNL     1       9.853 -11.937  -1.994  1.00  0.00     0.135 A 
ATOM     70  C   UNL     1       8.312 -13.606  -1.204  1.00  0.00     0.135 A 
ATOM     71  F   UNL     1      10.522 -10.784  -1.837  1.00  0.00    -0.206 F 
ATOM     72  C   UNL     1       9.988 -12.617  -3.199  1.00  0.00     0.059 A 
ATOM     73  C   UNL     1       8.450 -14.315  -2.392  1.00  0.00     0.059 A 
ATOM     74  F   UNL     1       7.482 -14.094  -0.268  1.00  0.00    -0.206 F 
ATOM     75  C   UNL     1       9.284 -13.807  -3.388  1.00  0.00     0.060 A 
BRANCH  75  76
ATOM     76  S   UNL     1       9.487 -14.690  -4.950  1.00  0.00     0.124 S 
ATOM     77  O   UNL     1       8.746 -13.831  -5.868  1.00  0.00    -0.237 OA
ATOM     78  O   UNL     1      10.937 -14.696  -5.118  1.00  0.00    -0.237 OA
ATOM     79  O   UNL     1       8.884 -15.992  -4.685  1.00  0.00    -0.744 OA
ENDBRANCH  75  76
ENDBRANCH  54  68
BRANCH  55  80
ATOM     80  C   UNL     1       7.834  -7.114   7.453  1.00  0.00     0.058 A 
ATOM     81  C   UNL     1       8.911  -6.524   8.132  1.00  0.00     0.135 A 
ATOM     82  C   UNL     1       6.555  -6.970   8.015  1.00  0.00     0.135 A 
ATOM     83  F   UNL     1      10.154  -6.636   7.641  1.00  0.00    -0.206 F 
ATOM     84  C   UNL     1       8.733  -5.843   9.333  1.00  0.00     0.059 A 
ATOM     85  C   UNL     1       6.348  -6.271   9.200  1.00  0.00     0.059 A 
ATOM     86  F   UNL     1       5.486  -7.499   7.399  1.00  0.00    -0.206 F 
ATOM     87  C   UNL     1       7.447  -5.723   9.861  1.00  0.00     0.060 A 
BRANCH  87  88
ATOM     88  S   UNL     1       7.218  -4.811  11.403  1.00  0.00     0.124 S 
ATOM     89  O   UNL     1       7.718  -5.765  12.385  1.00  0.00    -0.237 OA
ATOM     90  O   UNL     1       8.042  -3.626  11.185  1.00  0.00    -0.237 OA
ATOM     91  O   UNL     1       5.779  -4.566  11.435  1.00  0.00    -0.744 OA
ENDBRANCH  87  88
ENDBRANCH  55  80
BRANCH  67  92
ATOM     92  C   UNL     1      10.967 -13.153   5.944  1.00  0.00     0.058 A 
ATOM     93  C   UNL     1      10.320 -13.952   6.900  1.00  0.00     0.135 A 
ATOM     94  C   UNL     1      12.355 -13.298   5.797  1.00  0.00     0.135 A 
ATOM     95  F   UNL     1       8.994 -13.848   7.082  1.00  0.00    -0.206 F 
ATOM     96  C   UNL     1      11.030 -14.829   7.713  1.00  0.00     0.059 A 
ATOM     97  C   UNL     1      13.081 -14.190   6.579  1.00  0.00     0.059 A 
ATOM     98  F   UNL     1      13.020 -12.568   4.887  1.00  0.00    -0.206 F 
ATOM     99  C   UNL     1      12.412 -14.935   7.549  1.00  0.00     0.060 A 
BRANCH  99 100
ATOM    100  S   UNL     1      13.325 -16.069   8.616  1.00  0.00     0.124 S 
ATOM    101  O   UNL     1      13.371 -15.319   9.867  1.00  0.00    -0.237 OA
ATOM    102  O   UNL     1      12.475 -17.254   8.618  1.00  0.00    -0.237 OA
ATOM    103  O   UNL     1      14.604 -16.224   7.929  1.00  0.00    -0.744 OA
ENDBRANCH  99 100
ENDBRANCH  67  92
ENDBRANCH  41  42
ENDBRANCH  34  36
ENDBRANCH  33  34
ENDBRANCH  32  33
ENDBRANCH  31  32
ENDBRANCH   1  31
TORSDOF 22
