REMARK SMILES O=C(Cn1cccc1C(=O)NCCC1CCCCC1)OCCOCCOC(=O)c1ccc(-c2c3nc(c(-c4c(F)cc(S(=O)(=O)[O-])cc4F)c4ccc([nH]4)c(-c4c(F)cc(S(=O)(=O)[O-])cc4F)c4nc(c(-c5c(F)cc(S(=O)(=O)[O-])cc5F)c5ccc2[nH]5)C=C4)C=C3)cc1
REMARK SMILES IDX 22 1 21 2 20 3 2 4 1 5 3 6 4 7 5 8 8 9 6 10 7 11 9 12 10 13
REMARK SMILES IDX 11 14 12 16 13 17 14 18 15 19 19 20 16 21 18 22 17 23 23 24
REMARK SMILES IDX 24 25 25 26 26 27 27 28 28 29 29 30 30 31 94 32 31 33 93 34
REMARK SMILES IDX 32 35 33 36 34 37 87 38 35 39 92 40 86 41 88 42 36 43 91 44
REMARK SMILES IDX 85 45 84 46 37 48 71 49 50 50 70 51 51 52 54 53 69 54 89 55
REMARK SMILES IDX 52 56 53 57 68 59 90 60 55 61 38 62 39 63 48 64 40 65 41 66
REMARK SMILES IDX 47 67 49 68 42 69 43 70 44 71 45 72 46 73 72 74 73 75 82 76
REMARK SMILES IDX 74 77 75 78 81 79 83 80 76 81 77 82 78 83 79 84 80 85 56 86
REMARK SMILES IDX 57 87 66 88 58 89 59 90 65 91 67 92 60 93 61 94 62 95 63 96
REMARK SMILES IDX 64 97
REMARK H PARENT 11 15 88 47 54 58
REMARK Flexibility Score: inf
ROOT
ATOM      1  C   UNL     1       4.290  -0.162   1.311  1.00  0.00     0.202 C 
ENDROOT
BRANCH   1   2
ATOM      2  C   UNL     1       4.259   1.266   0.794  1.00  0.00     0.261 C 
BRANCH   2   3
ATOM      3  O   UNL     1       2.906   1.736   0.630  1.00  0.00    -0.462 OA
BRANCH   3   4
ATOM      4  C   UNL     1       2.128   1.498  -0.451  1.00  0.00     0.326 C 
ATOM      5  O   UNL     1       0.933   1.799  -0.405  1.00  0.00    -0.250 OA
BRANCH   4   6
ATOM      6  C   UNL     1       2.685   0.812  -1.677  1.00  0.00     0.244 C 
BRANCH   6   7
ATOM      7  N   UNL     1       3.757   1.476  -2.385  1.00  0.00    -0.332 N 
ATOM      8  C   UNL     1       3.777   2.853  -2.468  1.00  0.00     0.087 A 
ATOM      9  C   UNL     1       4.899   0.923  -2.969  1.00  0.00     0.107 A 
ATOM     10  C   UNL     1       4.996   3.238  -2.948  1.00  0.00     0.020 A 
ATOM     11  C   UNL     1       5.688   2.052  -3.252  1.00  0.00     0.033 A 
BRANCH   9  12
ATOM     12  C   UNL     1       5.415  -0.431  -3.274  1.00  0.00     0.267 C 
ATOM     13  O   UNL     1       6.596  -0.555  -3.633  1.00  0.00    -0.268 OA
ATOM     14  N   UNL     1       4.747  -1.635  -3.286  1.00  0.00    -0.351 N 
ATOM     15  H   UNL     1       5.232  -2.344  -3.768  1.00  0.00     0.163 HD
BRANCH  14  16
ATOM     16  C   UNL     1       3.494  -2.076  -2.744  1.00  0.00     0.116 C 
BRANCH  16  17
ATOM     17  C   UNL     1       2.884  -3.375  -3.262  1.00  0.00     0.025 C 
BRANCH  17  18
ATOM     18  C   UNL     1       3.540  -4.751  -2.985  1.00  0.00    -0.009 C 
ATOM     19  C   UNL     1       4.516  -4.846  -1.806  1.00  0.00     0.003 C 
ATOM     20  C   UNL     1       2.406  -5.788  -2.800  1.00  0.00     0.003 C 
ATOM     21  C   UNL     1       5.041  -6.272  -1.604  1.00  0.00     0.000 C 
ATOM     22  C   UNL     1       2.927  -7.207  -2.611  1.00  0.00     0.000 C 
ATOM     23  C   UNL     1       3.912  -7.290  -1.453  1.00  0.00     0.000 C 
ENDBRANCH  17  18
ENDBRANCH  16  17
ENDBRANCH  14  16
ENDBRANCH   9  12
ENDBRANCH   6   7
ENDBRANCH   4   6
ENDBRANCH   3   4
ENDBRANCH   2   3
ENDBRANCH   1   2
BRANCH   1  24
ATOM     24  O   UNL     1       3.659  -1.042   0.384  1.00  0.00    -0.374 OA
BRANCH  24  25
ATOM     25  C   UNL     1       2.331  -1.478   0.702  1.00  0.00     0.202 C 
BRANCH  25  26
ATOM     26  C   UNL     1       2.336  -2.963   1.002  1.00  0.00     0.261 C 
BRANCH  26  27
ATOM     27  O   UNL     1       2.896  -3.124   2.281  1.00  0.00    -0.460 OA
BRANCH  27  28
ATOM     28  C   UNL     1       4.220  -2.962   2.421  1.00  0.00     0.338 C 
ATOM     29  O   UNL     1       5.099  -3.030   1.559  1.00  0.00    -0.246 OA
BRANCH  28  30
ATOM     30  C   UNL     1       4.440  -2.758   3.853  1.00  0.00     0.060 A 
ATOM     31  C   UNL     1       5.731  -3.036   4.296  1.00  0.00     0.016 A 
ATOM     32  C   UNL     1       3.302  -2.926   4.654  1.00  0.00     0.016 A 
ATOM     33  C   UNL     1       5.838  -3.836   5.402  1.00  0.00     0.010 A 
ATOM     34  C   UNL     1       3.382  -3.889   5.610  1.00  0.00     0.010 A 
ATOM     35  C   UNL     1       4.657  -4.327   5.972  1.00  0.00    -0.014 A 
BRANCH  35  36
ATOM     36  C   UNL     1       4.752  -5.147   7.163  1.00  0.00     0.031 A 
ATOM     37  C   UNL     1       4.686  -4.223   8.391  1.00  0.00     0.074 A 
ATOM     38  C   UNL     1       4.883  -6.486   6.924  1.00  0.00     0.049 A 
ATOM     39  N   UNL     1       5.137  -4.413   9.587  1.00  0.00    -0.248 NA
ATOM     40  C   UNL     1       4.119  -2.838   8.265  1.00  0.00     0.031 C 
ATOM     41  C   UNL     1       4.917  -7.129   5.583  1.00  0.00     0.029 A 
ATOM     42  N   UNL     1       5.017  -7.580   7.742  1.00  0.00    -0.354 N 
ATOM     43  C   UNL     1       4.678  -3.339  10.374  1.00  0.00     0.074 A 
ATOM     44  C   UNL     1       4.202  -2.331   9.490  1.00  0.00     0.031 C 
ATOM     45  C   UNL     1       5.163  -8.455   5.688  1.00  0.00     0.029 A 
ATOM     46  C   UNL     1       5.259  -8.818   7.088  1.00  0.00     0.049 A 
ATOM     47  H   UNL     1       4.949  -7.511   8.721  1.00  0.00     0.167 HD
ATOM     48  C   UNL     1       4.550  -3.416  11.724  1.00  0.00     0.037 A 
ATOM     49  C   UNL     1       5.551 -10.029   7.659  1.00  0.00     0.037 A 
ATOM     50  C   UNL     1       4.990  -4.693  12.176  1.00  0.00     0.049 A 
ATOM     51  C   UNL     1       5.320  -9.816   9.097  1.00  0.00     0.074 A 
ATOM     52  C   UNL     1       6.244  -5.247  12.207  1.00  0.00     0.029 A 
ATOM     53  N   UNL     1       4.044  -5.693  12.213  1.00  0.00    -0.354 N 
ATOM     54  N   UNL     1       4.153  -9.639   9.643  1.00  0.00    -0.248 NA
ATOM     55  C   UNL     1       6.484  -9.662   9.977  1.00  0.00     0.031 C 
ATOM     56  C   UNL     1       6.019  -6.566  11.770  1.00  0.00     0.029 A 
ATOM     57  C   UNL     1       4.644  -6.838  11.747  1.00  0.00     0.049 A 
ATOM     58  H   UNL     1       3.112  -5.604  12.516  1.00  0.00     0.167 HD
ATOM     59  C   UNL     1       4.471  -9.024  10.828  1.00  0.00     0.074 A 
ATOM     60  C   UNL     1       5.853  -9.356  11.108  1.00  0.00     0.031 C 
ATOM     61  C   UNL     1       3.817  -7.891  11.195  1.00  0.00     0.037 A 
BRANCH  48  62
ATOM     62  C   UNL     1       3.824  -2.538  12.686  1.00  0.00     0.058 A 
ATOM     63  C   UNL     1       4.240  -2.582  14.033  1.00  0.00     0.135 A 
ATOM     64  C   UNL     1       2.568  -1.968  12.426  1.00  0.00     0.135 A 
ATOM     65  F   UNL     1       5.455  -3.055  14.359  1.00  0.00    -0.206 F 
ATOM     66  C   UNL     1       3.397  -2.232  15.076  1.00  0.00     0.059 A 
ATOM     67  C   UNL     1       1.722  -1.566  13.458  1.00  0.00     0.059 A 
ATOM     68  F   UNL     1       2.092  -1.873  11.176  1.00  0.00    -0.206 F 
ATOM     69  C   UNL     1       2.123  -1.764  14.778  1.00  0.00     0.060 A 
BRANCH  69  70
ATOM     70  S   UNL     1       0.982  -1.487  16.146  1.00  0.00     0.124 S 
ATOM     71  O   UNL     1       0.653  -2.853  16.534  1.00  0.00    -0.237 OA
ATOM     72  O   UNL     1       1.810  -0.742  17.090  1.00  0.00    -0.237 OA
ATOM     73  O   UNL     1      -0.098  -0.721  15.532  1.00  0.00    -0.744 OA
ENDBRANCH  69  70
ENDBRANCH  48  62
BRANCH  49  74
ATOM     74  C   UNL     1       6.120 -11.377   7.263  1.00  0.00     0.058 A 
ATOM     75  C   UNL     1       6.512 -11.774   5.979  1.00  0.00     0.135 A 
ATOM     76  C   UNL     1       6.481 -12.300   8.290  1.00  0.00     0.135 A 
ATOM     77  F   UNL     1       6.129 -11.087   4.896  1.00  0.00    -0.206 F 
ATOM     78  C   UNL     1       7.343 -12.892   5.757  1.00  0.00     0.059 A 
ATOM     79  C   UNL     1       7.351 -13.369   8.107  1.00  0.00     0.059 A 
ATOM     80  F   UNL     1       6.038 -12.165   9.548  1.00  0.00    -0.206 F 
ATOM     81  C   UNL     1       7.812 -13.641   6.836  1.00  0.00     0.060 A 
BRANCH  81  82
ATOM     82  S   UNL     1       9.119 -14.870   6.626  1.00  0.00     0.124 S 
ATOM     83  O   UNL     1       8.360 -16.071   6.299  1.00  0.00    -0.237 OA
ATOM     84  O   UNL     1       9.916 -14.304   5.541  1.00  0.00    -0.237 OA
ATOM     85  O   UNL     1       9.779 -14.876   7.930  1.00  0.00    -0.744 OA
ENDBRANCH  81  82
ENDBRANCH  49  74
BRANCH  61  86
ATOM     86  C   UNL     1       2.407  -7.749  10.637  1.00  0.00     0.058 A 
ATOM     87  C   UNL     1       1.435  -8.722  10.931  1.00  0.00     0.135 A 
ATOM     88  C   UNL     1       1.994  -6.731   9.759  1.00  0.00     0.135 A 
ATOM     89  F   UNL     1       1.729  -9.724  11.775  1.00  0.00    -0.206 F 
ATOM     90  C   UNL     1       0.147  -8.690  10.384  1.00  0.00     0.059 A 
ATOM     91  C   UNL     1       0.713  -6.671   9.198  1.00  0.00     0.059 A 
ATOM     92  F   UNL     1       2.829  -5.750   9.420  1.00  0.00    -0.206 F 
ATOM     93  C   UNL     1      -0.209  -7.658   9.518  1.00  0.00     0.060 A 
BRANCH  93  94
ATOM     94  S   UNL     1      -1.889  -7.610   8.848  1.00  0.00     0.124 S 
ATOM     95  O   UNL     1      -1.987  -8.889   8.150  1.00  0.00    -0.237 OA
ATOM     96  O   UNL     1      -2.696  -7.488  10.057  1.00  0.00    -0.237 OA
ATOM     97  O   UNL     1      -1.883  -6.433   7.981  1.00  0.00    -0.744 OA
ENDBRANCH  93  94
ENDBRANCH  61  86
ENDBRANCH  35  36
ENDBRANCH  28  30
ENDBRANCH  27  28
ENDBRANCH  26  27
ENDBRANCH  25  26
ENDBRANCH  24  25
ENDBRANCH   1  24
TORSDOF 22
