REMARK SMILES N#Cc1ccc(C[N@H+]2CCCC[C@H]2C(=O)OCCOCCOC(=O)c2ccc(-c3c4nc(c(-c5c(F)cc(S(=O)(=O)[O-])cc5F)c5ccc([nH]5)c(-c5c(F)cc(S(=O)(=O)[O-])cc5F)c5nc(c(-c6c(F)cc(S(=O)(=O)[O-])cc6F)c6ccc3[nH]6)C=C5)C=C4)cc2)c(F)c1
REMARK SMILES IDX 19 1 18 2 17 3 16 4 14 5 15 6 13 7 8 8 9 9 10 11 12 12 11 13
REMARK SMILES IDX 7 14 6 15 3 16 4 17 93 18 5 19 91 20 92 21 2 22 1 23 20 24
REMARK SMILES IDX 21 25 22 26 23 27 24 28 25 29 26 30 90 31 27 32 89 33 28 34
REMARK SMILES IDX 29 35 30 36 83 37 31 38 88 39 82 40 84 41 32 42 87 43 81 44
REMARK SMILES IDX 80 45 33 47 67 48 46 49 66 50 47 51 50 52 65 53 85 54 48 55
REMARK SMILES IDX 49 56 64 58 86 59 51 60 34 61 35 62 44 63 36 64 37 65 43 66
REMARK SMILES IDX 45 67 38 68 39 69 40 70 41 71 42 72 68 73 69 74 78 75 70 76
REMARK SMILES IDX 71 77 77 78 79 79 72 80 73 81 74 82 75 83 76 84 52 85 53 86
REMARK SMILES IDX 62 87 54 88 55 89 61 90 63 91 56 92 57 93 58 94 59 95 60 96
REMARK H PARENT 8 10 84 46 50 57
REMARK Flexibility Score: inf
ROOT
ATOM      1  O   UNL     1      -0.291  -0.956   2.876  1.00  0.00    -0.374 OA
ENDROOT
BRANCH   1   2
ATOM      2  C   UNL     1      -0.224  -2.256   2.305  1.00  0.00     0.202 C 
BRANCH   2   3
ATOM      3  C   UNL     1       0.901  -2.808   1.382  1.00  0.00     0.261 C 
BRANCH   3   4
ATOM      4  O   UNL     1       2.270  -2.427   1.593  1.00  0.00    -0.459 OA
BRANCH   4   5
ATOM      5  C   UNL     1       2.448  -1.144   1.207  1.00  0.00     0.364 C 
ATOM      6  O   UNL     1       1.481  -0.411   1.071  1.00  0.00    -0.245 OA
BRANCH   5   7
ATOM      7  C   UNL     1       3.882  -0.683   0.932  1.00  0.00     0.295 C 
ATOM      8  N   UNL     1       3.983   0.810   0.841  1.00  0.00    -0.319 N 
ATOM      9  C   UNL     1       3.634   1.478   2.097  1.00  0.00     0.263 C 
ATOM     10  H   UNL     1       4.980   0.978   0.703  1.00  0.00     0.349 HD
ATOM     11  C   UNL     1       4.445   0.959   3.299  1.00  0.00     0.062 C 
ATOM     12  C   UNL     1       4.869  -1.178   2.000  1.00  0.00     0.078 C 
ATOM     13  C   UNL     1       4.613  -0.558   3.368  1.00  0.00     0.013 C 
BRANCH   8  14
ATOM     14  C   UNL     1       3.426   1.444  -0.391  1.00  0.00     0.302 C 
BRANCH  14  15
ATOM     15  C   UNL     1       1.944   1.328  -0.721  1.00  0.00     0.042 A 
ATOM     16  C   UNL     1      -0.797   0.636  -0.775  1.00  0.00     0.055 A 
ATOM     17  C   UNL     1      -0.375   1.804  -0.126  1.00  0.00     0.020 A 
ATOM     18  C   UNL     1       0.124  -0.112  -1.513  1.00  0.00     0.059 A 
ATOM     19  C   UNL     1       0.986   2.155  -0.105  1.00  0.00     0.014 A 
ATOM     20  C   UNL     1       1.476   0.247  -1.493  1.00  0.00     0.133 A 
ATOM     21  F   UNL     1       2.357  -0.586  -2.067  1.00  0.00    -0.206 F 
BRANCH  16  22
ATOM     22  C   UNL     1      -2.135   0.154  -0.596  1.00  0.00     0.099 C 
ATOM     23  N   UNL     1      -3.217  -0.248  -0.439  1.00  0.00    -0.192 NA
ENDBRANCH  16  22
ENDBRANCH  14  15
ENDBRANCH   8  14
ENDBRANCH   5   7
ENDBRANCH   4   5
ENDBRANCH   3   4
ENDBRANCH   2   3
ENDBRANCH   1   2
BRANCH   1  24
ATOM     24  C   UNL     1       0.705  -0.472   3.765  1.00  0.00     0.202 C 
BRANCH  24  25
ATOM     25  C   UNL     1       1.034  -1.189   5.071  1.00  0.00     0.261 C 
BRANCH  25  26
ATOM     26  O   UNL     1       1.222  -2.594   4.905  1.00  0.00    -0.460 OA
BRANCH  26  27
ATOM     27  C   UNL     1       0.180  -3.316   5.386  1.00  0.00     0.338 C 
ATOM     28  O   UNL     1      -0.792  -2.897   5.991  1.00  0.00    -0.246 OA
BRANCH  27  29
ATOM     29  C   UNL     1       0.252  -4.690   4.872  1.00  0.00     0.060 A 
ATOM     30  C   UNL     1      -0.872  -5.162   4.178  1.00  0.00     0.016 A 
ATOM     31  C   UNL     1       1.346  -5.514   5.127  1.00  0.00     0.016 A 
ATOM     32  C   UNL     1      -0.939  -6.487   3.792  1.00  0.00     0.010 A 
ATOM     33  C   UNL     1       1.262  -6.858   4.770  1.00  0.00     0.010 A 
ATOM     34  C   UNL     1       0.098  -7.351   4.152  1.00  0.00    -0.014 A 
BRANCH  34  35
ATOM     35  C   UNL     1      -0.156  -8.802   4.075  1.00  0.00     0.031 A 
ATOM     36  C   UNL     1      -0.546  -9.523   5.333  1.00  0.00     0.074 A 
ATOM     37  C   UNL     1      -0.124  -9.430   2.890  1.00  0.00     0.049 A 
ATOM     38  N   UNL     1      -0.801 -10.791   5.515  1.00  0.00    -0.248 NA
ATOM     39  C   UNL     1      -0.663  -8.704   6.553  1.00  0.00     0.031 C 
ATOM     40  C   UNL     1       0.163  -8.793   1.605  1.00  0.00     0.029 A 
ATOM     41  N   UNL     1      -0.343 -10.744   2.577  1.00  0.00    -0.354 N 
ATOM     42  C   UNL     1      -1.098 -10.924   6.866  1.00  0.00     0.074 A 
ATOM     43  C   UNL     1      -0.953  -9.617   7.466  1.00  0.00     0.031 C 
ATOM     44  C   UNL     1       0.106  -9.723   0.638  1.00  0.00     0.029 A 
ATOM     45  C   UNL     1      -0.177 -11.022   1.244  1.00  0.00     0.049 A 
ATOM     46  H   UNL     1      -0.595 -11.423   3.244  1.00  0.00     0.167 HD
ATOM     47  C   UNL     1      -1.468 -12.039   7.538  1.00  0.00     0.037 A 
ATOM     48  C   UNL     1      -0.224 -12.202   0.598  1.00  0.00     0.037 A 
ATOM     49  C   UNL     1      -1.600 -13.331   6.917  1.00  0.00     0.049 A 
ATOM     50  C   UNL     1      -0.533 -13.447   1.387  1.00  0.00     0.074 A 
ATOM     51  C   UNL     1      -1.964 -14.532   7.497  1.00  0.00     0.029 A 
ATOM     52  N   UNL     1      -1.363 -13.591   5.573  1.00  0.00    -0.354 N 
ATOM     53  N   UNL     1      -0.811 -13.569   2.664  1.00  0.00    -0.248 NA
ATOM     54  C   UNL     1      -0.538 -14.714   0.646  1.00  0.00     0.031 C 
ATOM     55  C   UNL     1      -1.878 -15.530   6.521  1.00  0.00     0.029 A 
ATOM     56  C   UNL     1      -1.539 -14.940   5.313  1.00  0.00     0.049 A 
ATOM     57  H   UNL     1      -1.108 -12.916   4.904  1.00  0.00     0.167 HD
ATOM     58  C   UNL     1      -1.061 -14.921   2.873  1.00  0.00     0.074 A 
ATOM     59  C   UNL     1      -0.910 -15.572   1.587  1.00  0.00     0.031 C 
ATOM     60  C   UNL     1      -1.389 -15.566   4.021  1.00  0.00     0.037 A 
BRANCH  47  61
ATOM     61  C   UNL     1      -1.706 -11.915   9.020  1.00  0.00     0.058 A 
ATOM     62  C   UNL     1      -2.786 -11.186   9.546  1.00  0.00     0.135 A 
ATOM     63  C   UNL     1      -0.844 -12.548   9.931  1.00  0.00     0.135 A 
ATOM     64  F   UNL     1      -3.632 -10.543   8.725  1.00  0.00    -0.206 F 
ATOM     65  C   UNL     1      -2.981 -11.059  10.918  1.00  0.00     0.059 A 
ATOM     66  C   UNL     1      -1.041 -12.465  11.306  1.00  0.00     0.059 A 
ATOM     67  F   UNL     1       0.208 -13.254   9.488  1.00  0.00    -0.206 F 
ATOM     68  C   UNL     1      -2.103 -11.703  11.790  1.00  0.00     0.060 A 
BRANCH  68  69
ATOM     69  S   UNL     1      -2.367 -11.524  13.567  1.00  0.00     0.124 S 
ATOM     70  O   UNL     1      -2.022 -10.121  13.774  1.00  0.00    -0.237 OA
ATOM     71  O   UNL     1      -3.781 -11.857  13.705  1.00  0.00    -0.237 OA
ATOM     72  O   UNL     1      -1.438 -12.488  14.149  1.00  0.00    -0.744 OA
ENDBRANCH  68  69
ENDBRANCH  47  61
BRANCH  48  73
ATOM     73  C   UNL     1       0.034 -12.258  -0.865  1.00  0.00     0.058 A 
ATOM     74  C   UNL     1      -0.981 -12.614  -1.764  1.00  0.00     0.135 A 
ATOM     75  C   UNL     1       1.297 -11.949  -1.395  1.00  0.00     0.135 A 
ATOM     76  F   UNL     1      -2.204 -12.925  -1.307  1.00  0.00    -0.206 F 
ATOM     77  C   UNL     1      -0.751 -12.680  -3.134  1.00  0.00     0.059 A 
ATOM     78  C   UNL     1       1.544 -11.975  -2.763  1.00  0.00     0.059 A 
ATOM     79  F   UNL     1       2.301 -11.589  -0.579  1.00  0.00    -0.206 F 
ATOM     80  C   UNL     1       0.515 -12.352  -3.624  1.00  0.00     0.060 A 
BRANCH  80  81
ATOM     81  S   UNL     1       0.786 -12.397  -5.408  1.00  0.00     0.124 S 
ATOM     82  O   UNL     1       0.718 -13.828  -5.680  1.00  0.00    -0.237 OA
ATOM     83  O   UNL     1      -0.329 -11.596  -5.904  1.00  0.00    -0.237 OA
ATOM     84  O   UNL     1       2.104 -11.788  -5.562  1.00  0.00    -0.744 OA
ENDBRANCH  80  81
ENDBRANCH  48  73
BRANCH  60  85
ATOM     85  C   UNL     1      -1.655 -17.046   3.931  1.00  0.00     0.058 A 
ATOM     86  C   UNL     1      -0.631 -17.973   3.682  1.00  0.00     0.135 A 
ATOM     87  C   UNL     1      -2.950 -17.546   4.151  1.00  0.00     0.135 A 
ATOM     88  F   UNL     1       0.624 -17.551   3.457  1.00  0.00    -0.206 F 
ATOM     89  C   UNL     1      -0.886 -19.339   3.624  1.00  0.00     0.059 A 
ATOM     90  C   UNL     1      -3.221 -18.910   4.137  1.00  0.00     0.059 A 
ATOM     91  F   UNL     1      -3.966 -16.705   4.406  1.00  0.00    -0.206 F 
ATOM     92  C   UNL     1      -2.184 -19.798   3.859  1.00  0.00     0.060 A 
BRANCH  92  93
ATOM     93  S   UNL     1      -2.491 -21.576   3.817  1.00  0.00     0.124 S 
ATOM     94  O   UNL     1      -2.342 -21.868   2.395  1.00  0.00    -0.237 OA
ATOM     95  O   UNL     1      -1.436 -22.092   4.684  1.00  0.00    -0.237 OA
ATOM     96  O   UNL     1      -3.846 -21.701   4.345  1.00  0.00    -0.744 OA
ENDBRANCH  92  93
ENDBRANCH  60  85
ENDBRANCH  34  35
ENDBRANCH  27  29
ENDBRANCH  26  27
ENDBRANCH  25  26
ENDBRANCH  24  25
ENDBRANCH   1  24
TORSDOF 20
