REMARK SMILES Cc1nc(SCc2cccc(Cl)c2)[nH]c(=O)c1CC(=O)OCCOCCOC(=O)c1ccc(-c2c3nc(c(-c4c(F)cc(S(=O)(=O)[O-])cc4F)c4ccc([nH]4)c(-c4c(F)cc(S(=O)(=O)[O-])cc4F)c4nc(c(-c5c(F)cc(S(=O)(=O)[O-])cc5F)c5ccc2[nH]5)C=C4)C=C3)cc1
REMARK SMILES IDX 23 1 22 2 21 3 19 4 20 5 18 6 17 7 1 8 2 9 3 10 4 11 15 12
REMARK SMILES IDX 14 13 16 14 5 16 6 17 7 18 8 19 13 20 9 21 11 22 10 23 12 24
REMARK SMILES IDX 24 25 25 26 26 27 27 28 28 29 29 30 30 31 31 32 95 33 32 34
REMARK SMILES IDX 94 35 33 36 34 37 35 38 88 39 36 40 93 41 87 42 89 43 37 44
REMARK SMILES IDX 92 45 86 46 85 47 38 49 72 50 51 51 71 52 52 53 55 54 70 55
REMARK SMILES IDX 90 56 53 57 54 58 69 60 91 61 56 62 39 63 40 64 49 65 41 66
REMARK SMILES IDX 42 67 48 68 50 69 43 70 44 71 45 72 46 73 47 74 73 75 74 76
REMARK SMILES IDX 83 77 75 78 76 79 82 80 84 81 77 82 78 83 79 84 80 85 81 86
REMARK SMILES IDX 57 87 58 88 67 89 59 90 60 91 66 92 68 93 61 94 62 95 63 96
REMARK SMILES IDX 64 97 65 98
REMARK H PARENT 14 15 89 48 55 59
REMARK Flexibility Score: inf
ROOT
ATOM      1  C   UNL     1       1.958  -3.313  -3.550  1.00  0.00     0.202 C 
ENDROOT
BRANCH   1   2
ATOM      2  C   UNL     1       0.600  -3.696  -2.945  1.00  0.00     0.261 C 
BRANCH   2   3
ATOM      3  O   UNL     1       0.237  -2.927  -1.779  1.00  0.00    -0.463 OA
BRANCH   3   4
ATOM      4  C   UNL     1       0.088  -3.649  -0.636  1.00  0.00     0.310 C 
ATOM      5  O   UNL     1       0.182  -4.872  -0.568  1.00  0.00    -0.252 OA
BRANCH   4   6
ATOM      6  C   UNL     1      -0.214  -2.831   0.612  1.00  0.00     0.166 C 
BRANCH   6   7
ATOM      7  C   UNL     1      -0.327  -1.338   0.514  1.00  0.00     0.050 A 
ATOM      8  C   UNL     1      -2.825  -1.295   0.364  1.00  0.00     0.067 C 
ATOM      9  C   UNL     1      -1.475  -0.635   0.472  1.00  0.00     0.050 A 
ATOM     10  N   UNL     1      -1.530   0.738   0.444  1.00  0.00    -0.229 NA
ATOM     11  C   UNL     1      -0.424   1.378   0.298  1.00  0.00     0.168 A 
ATOM     12  C   UNL     1       0.924  -0.540   0.592  1.00  0.00     0.255 A 
ATOM     13  N   UNL     1       0.794   0.791   0.343  1.00  0.00    -0.301 N 
ATOM     14  O   UNL     1       2.005  -1.041   0.882  1.00  0.00    -0.269 OA
ATOM     15  H   UNL     1       1.600   1.336   0.192  1.00  0.00     0.172 HD
BRANCH  11  16
ATOM     16  S   UNL     1      -0.346   3.087   0.013  1.00  0.00    -0.083 SA
BRANCH  16  17
ATOM     17  C   UNL     1      -2.103   3.510  -0.167  1.00  0.00     0.113 C 
BRANCH  17  18
ATOM     18  C   UNL     1      -2.711   3.286  -1.537  1.00  0.00    -0.036 A 
ATOM     19  C   UNL     1      -3.325   4.350  -2.217  1.00  0.00     0.005 A 
ATOM     20  C   UNL     1      -2.791   2.013  -2.123  1.00  0.00     0.025 A 
ATOM     21  C   UNL     1      -3.997   4.138  -3.428  1.00  0.00     0.002 A 
ATOM     22  C   UNL     1      -3.458   1.802  -3.328  1.00  0.00     0.041 A 
ATOM     23  C   UNL     1      -4.069   2.861  -3.983  1.00  0.00     0.020 A 
ATOM     24  Cl  UNL     1      -3.534   0.211  -3.981  1.00  0.00    -0.084 Cl
ENDBRANCH  17  18
ENDBRANCH  16  17
ENDBRANCH  11  16
ENDBRANCH   6   7
ENDBRANCH   4   6
ENDBRANCH   3   4
ENDBRANCH   2   3
ENDBRANCH   1   2
BRANCH   1  25
ATOM     25  O   UNL     1       3.098  -3.328  -2.695  1.00  0.00    -0.374 OA
BRANCH  25  26
ATOM     26  C   UNL     1       3.181  -2.302  -1.708  1.00  0.00     0.202 C 
BRANCH  26  27
ATOM     27  C   UNL     1       3.502  -0.879  -2.188  1.00  0.00     0.261 C 
BRANCH  27  28
ATOM     28  O   UNL     1       2.522  -0.353  -3.102  1.00  0.00    -0.460 OA
BRANCH  28  29
ATOM     29  C   UNL     1       2.994  -0.104  -4.349  1.00  0.00     0.338 C 
ATOM     30  O   UNL     1       4.157  -0.186  -4.725  1.00  0.00    -0.246 OA
BRANCH  29  31
ATOM     31  C   UNL     1       1.886   0.122  -5.294  1.00  0.00     0.060 A 
ATOM     32  C   UNL     1       1.837  -0.691  -6.435  1.00  0.00     0.016 A 
ATOM     33  C   UNL     1       0.967   1.160  -5.124  1.00  0.00     0.016 A 
ATOM     34  C   UNL     1       0.897  -0.440  -7.433  1.00  0.00     0.010 A 
ATOM     35  C   UNL     1       0.030   1.417  -6.133  1.00  0.00     0.010 A 
ATOM     36  C   UNL     1       0.013   0.639  -7.305  1.00  0.00    -0.014 A 
BRANCH  36  37
ATOM     37  C   UNL     1      -0.848   1.017  -8.454  1.00  0.00     0.031 A 
ATOM     38  C   UNL     1      -0.419   2.144  -9.354  1.00  0.00     0.074 A 
ATOM     39  C   UNL     1      -1.984   0.343  -8.705  1.00  0.00     0.049 A 
ATOM     40  N   UNL     1      -1.033   2.656 -10.389  1.00  0.00    -0.248 NA
ATOM     41  C   UNL     1       0.872   2.779  -9.046  1.00  0.00     0.031 C 
ATOM     42  C   UNL     1      -2.482  -0.787  -7.923  1.00  0.00     0.029 A 
ATOM     43  N   UNL     1      -2.928   0.516  -9.686  1.00  0.00    -0.354 N 
ATOM     44  C   UNL     1      -0.210   3.678 -10.851  1.00  0.00     0.074 A 
ATOM     45  C   UNL     1       0.937   3.727  -9.970  1.00  0.00     0.031 C 
ATOM     46  C   UNL     1      -3.650  -1.198  -8.446  1.00  0.00     0.029 A 
ATOM     47  C   UNL     1      -3.997  -0.342  -9.578  1.00  0.00     0.049 A 
ATOM     48  H   UNL     1      -2.847   1.190 -10.399  1.00  0.00     0.167 HD
ATOM     49  C   UNL     1      -0.394   4.495 -11.916  1.00  0.00     0.037 A 
ATOM     50  C   UNL     1      -5.136  -0.409 -10.295  1.00  0.00     0.037 A 
ATOM     51  C   UNL     1      -1.537   4.435 -12.791  1.00  0.00     0.049 A 
ATOM     52  C   UNL     1      -5.346   0.549 -11.439  1.00  0.00     0.074 A 
ATOM     53  C   UNL     1      -1.800   5.199 -13.915  1.00  0.00     0.029 A 
ATOM     54  N   UNL     1      -2.610   3.570 -12.635  1.00  0.00    -0.354 N 
ATOM     55  N   UNL     1      -4.546   1.489 -11.883  1.00  0.00    -0.248 NA
ATOM     56  C   UNL     1      -6.612   0.440 -12.178  1.00  0.00     0.031 C 
ATOM     57  C   UNL     1      -3.057   4.831 -14.408  1.00  0.00     0.029 A 
ATOM     58  C   UNL     1      -3.553   3.803 -13.622  1.00  0.00     0.049 A 
ATOM     59  H   UNL     1      -2.690   2.891 -11.927  1.00  0.00     0.167 HD
ATOM     60  C   UNL     1      -5.202   2.070 -12.964  1.00  0.00     0.074 A 
ATOM     61  C   UNL     1      -6.460   1.367 -13.114  1.00  0.00     0.031 C 
ATOM     62  C   UNL     1      -4.801   3.092 -13.759  1.00  0.00     0.037 A 
BRANCH  49  63
ATOM     63  C   UNL     1       0.648   5.546 -12.180  1.00  0.00     0.058 A 
ATOM     64  C   UNL     1       1.914   5.223 -12.693  1.00  0.00     0.135 A 
ATOM     65  C   UNL     1       0.360   6.903 -11.956  1.00  0.00     0.135 A 
ATOM     66  F   UNL     1       2.248   3.941 -12.911  1.00  0.00    -0.206 F 
ATOM     67  C   UNL     1       2.865   6.205 -12.953  1.00  0.00     0.059 A 
ATOM     68  C   UNL     1       1.287   7.903 -12.232  1.00  0.00     0.059 A 
ATOM     69  F   UNL     1      -0.835   7.268 -11.465  1.00  0.00    -0.206 F 
ATOM     70  C   UNL     1       2.542   7.543 -12.719  1.00  0.00     0.060 A 
BRANCH  70  71
ATOM     71  S   UNL     1       3.784   8.806 -13.069  1.00  0.00     0.124 S 
ATOM     72  O   UNL     1       4.723   8.603 -11.970  1.00  0.00    -0.237 OA
ATOM     73  O   UNL     1       4.263   8.417 -14.391  1.00  0.00    -0.237 OA
ATOM     74  O   UNL     1       3.025  10.052 -13.022  1.00  0.00    -0.744 OA
ENDBRANCH  70  71
ENDBRANCH  49  63
BRANCH  50  75
ATOM     75  C   UNL     1      -6.179  -1.406  -9.934  1.00  0.00     0.058 A 
ATOM     76  C   UNL     1      -6.461  -2.499 -10.766  1.00  0.00     0.135 A 
ATOM     77  C   UNL     1      -6.911  -1.286  -8.742  1.00  0.00     0.135 A 
ATOM     78  F   UNL     1      -5.798  -2.651 -11.923  1.00  0.00    -0.206 F 
ATOM     79  C   UNL     1      -7.438  -3.433 -10.436  1.00  0.00     0.059 A 
ATOM     80  C   UNL     1      -7.875  -2.221  -8.377  1.00  0.00     0.059 A 
ATOM     81  F   UNL     1      -6.675  -0.262  -7.908  1.00  0.00    -0.206 F 
ATOM     82  C   UNL     1      -8.138  -3.287  -9.236  1.00  0.00     0.060 A 
BRANCH  82  83
ATOM     83  S   UNL     1      -9.369  -4.532  -8.791  1.00  0.00     0.124 S 
ATOM     84  O   UNL     1     -10.461  -4.202  -9.700  1.00  0.00    -0.237 OA
ATOM     85  O   UNL     1      -8.660  -5.777  -9.069  1.00  0.00    -0.237 OA
ATOM     86  O   UNL     1      -9.620  -4.264  -7.378  1.00  0.00    -0.744 OA
ENDBRANCH  82  83
ENDBRANCH  50  75
BRANCH  62  87
ATOM     87  C   UNL     1      -5.717   3.505 -14.878  1.00  0.00     0.058 A 
ATOM     88  C   UNL     1      -6.895   4.228 -14.635  1.00  0.00     0.135 A 
ATOM     89  C   UNL     1      -5.376   3.236 -16.214  1.00  0.00     0.135 A 
ATOM     90  F   UNL     1      -7.270   4.505 -13.376  1.00  0.00    -0.206 F 
ATOM     91  C   UNL     1      -7.712   4.657 -15.676  1.00  0.00     0.059 A 
ATOM     92  C   UNL     1      -6.164   3.678 -17.272  1.00  0.00     0.059 A 
ATOM     93  F   UNL     1      -4.254   2.557 -16.502  1.00  0.00    -0.206 F 
ATOM     94  C   UNL     1      -7.335   4.381 -16.992  1.00  0.00     0.060 A 
BRANCH  94  95
ATOM     95  S   UNL     1      -8.379   4.986 -18.336  1.00  0.00     0.124 S 
ATOM     96  O   UNL     1      -9.515   4.075 -18.260  1.00  0.00    -0.237 OA
ATOM     97  O   UNL     1      -8.643   6.364 -17.931  1.00  0.00    -0.237 OA
ATOM     98  O   UNL     1      -7.533   4.838 -19.517  1.00  0.00    -0.744 OA
ENDBRANCH  94  95
ENDBRANCH  62  87
ENDBRANCH  36  37
ENDBRANCH  29  31
ENDBRANCH  28  29
ENDBRANCH  27  28
ENDBRANCH  26  27
ENDBRANCH  25  26
ENDBRANCH   1  25
TORSDOF 21
