REMARK SMILES CC(C)N(CC(F)(F)F)C(=O)N(CC(=O)OCCOCCOC(=O)c1ccc(-c2c3nc(c(-c4c(F)cc(S(=O)(=O)[O-])cc4F)c4ccc([nH]4)c(-c4c(F)cc(S(=O)(=O)[O-])cc4F)c4nc(c(-c5c(F)cc(S(=O)(=O)[O-])cc5F)c5ccc2[nH]5)C=C4)C=C3)cc1)C(C)(C)C
REMARK SMILES IDX 18 1 17 2 16 3 14 4 15 5 13 6 12 7 10 8 11 9 4 10 2 11 1 12
REMARK SMILES IDX 3 13 5 14 6 15 7 16 8 17 9 18 91 19 92 20 93 21 94 22 19 23
REMARK SMILES IDX 20 24 21 25 22 26 23 27 24 28 25 29 26 30 90 31 27 32 89 33
REMARK SMILES IDX 28 34 29 35 30 36 83 37 31 38 88 39 82 40 84 41 32 42 87 43
REMARK SMILES IDX 81 44 80 45 33 47 67 48 46 49 66 50 47 51 50 52 65 53 85 54
REMARK SMILES IDX 48 55 49 56 64 58 86 59 51 60 34 61 35 62 44 63 36 64 37 65
REMARK SMILES IDX 43 66 45 67 38 68 39 69 40 70 41 71 42 72 68 73 69 74 78 75
REMARK SMILES IDX 70 76 71 77 77 78 79 79 72 80 73 81 74 82 75 83 76 84 52 85
REMARK SMILES IDX 53 86 62 87 54 88 55 89 61 90 63 91 56 92 57 93 58 94 59 95
REMARK SMILES IDX 60 96
REMARK H PARENT 84 46 50 57
REMARK Flexibility Score: inf
ROOT
ATOM      1  C   UNL     1      -5.971  -4.457   2.411  1.00  0.00     0.202 C 
ENDROOT
BRANCH   1   2
ATOM      2  C   UNL     1      -5.247  -4.196   1.080  1.00  0.00     0.261 C 
BRANCH   2   3
ATOM      3  O   UNL     1      -4.588  -2.902   1.030  1.00  0.00    -0.462 OA
BRANCH   3   4
ATOM      4  C   UNL     1      -4.613  -2.275  -0.177  1.00  0.00     0.325 C 
ATOM      5  O   UNL     1      -5.200  -2.705  -1.167  1.00  0.00    -0.250 OA
BRANCH   4   6
ATOM      6  C   UNL     1      -3.887  -0.918  -0.224  1.00  0.00     0.244 C 
BRANCH   6   7
ATOM      7  N   UNL     1      -3.003  -0.497   0.871  1.00  0.00    -0.309 N 
BRANCH   7   8
ATOM      8  C   UNL     1      -1.634  -0.752   0.963  1.00  0.00     0.321 C 
ATOM      9  O   UNL     1      -1.000  -0.224   1.883  1.00  0.00    -0.248 OA
BRANCH   8  10
ATOM     10  N   UNL     1      -0.915  -1.506   0.045  1.00  0.00    -0.313 N 
BRANCH  10  11
ATOM     11  C   UNL     1       0.577  -1.468   0.174  1.00  0.00     0.081 C 
ATOM     12  C   UNL     1       1.165  -0.060  -0.008  1.00  0.00     0.031 C 
ATOM     13  C   UNL     1       1.106  -2.142   1.447  1.00  0.00     0.031 C 
ENDBRANCH  10  11
BRANCH  10  14
ATOM     14  C   UNL     1      -1.389  -2.602  -0.834  1.00  0.00     0.237 C 
BRANCH  14  15
ATOM     15  C   UNL     1      -1.556  -3.970  -0.169  1.00  0.00     0.406 C 
ATOM     16  F   UNL     1      -1.989  -3.875   1.103  1.00  0.00    -0.169 F 
ATOM     17  F   UNL     1      -2.468  -4.702  -0.854  1.00  0.00    -0.169 F 
ATOM     18  F   UNL     1      -0.396  -4.658  -0.173  1.00  0.00    -0.169 F 
ENDBRANCH  14  15
ENDBRANCH  10  14
ENDBRANCH   8  10
ENDBRANCH   7   8
BRANCH   7  19
ATOM     19  C   UNL     1      -3.587   0.457   1.919  1.00  0.00     0.037 C 
ATOM     20  C   UNL     1      -3.409  -0.125   3.341  1.00  0.00     0.034 C 
ATOM     21  C   UNL     1      -2.925   1.857   1.820  1.00  0.00     0.034 C 
ATOM     22  C   UNL     1      -5.101   0.756   1.754  1.00  0.00     0.034 C 
ENDBRANCH   7  19
ENDBRANCH   6   7
ENDBRANCH   4   6
ENDBRANCH   3   4
ENDBRANCH   2   3
ENDBRANCH   1   2
BRANCH   1  23
ATOM     23  O   UNL     1      -7.206  -3.752   2.597  1.00  0.00    -0.374 OA
BRANCH  23  24
ATOM     24  C   UNL     1      -7.102  -2.340   2.732  1.00  0.00     0.202 C 
BRANCH  24  25
ATOM     25  C   UNL     1      -6.714  -1.826   4.124  1.00  0.00     0.261 C 
BRANCH  25  26
ATOM     26  O   UNL     1      -5.555  -2.491   4.649  1.00  0.00    -0.460 OA
BRANCH  26  27
ATOM     27  C   UNL     1      -5.773  -3.159   5.803  1.00  0.00     0.338 C 
ATOM     28  O   UNL     1      -6.772  -3.096   6.511  1.00  0.00    -0.246 OA
BRANCH  27  29
ATOM     29  C   UNL     1      -4.706  -4.143   6.051  1.00  0.00     0.060 A 
ATOM     30  C   UNL     1      -5.106  -5.474   6.205  1.00  0.00     0.016 A 
ATOM     31  C   UNL     1      -3.371  -3.775   6.238  1.00  0.00     0.016 A 
ATOM     32  C   UNL     1      -4.186  -6.430   6.624  1.00  0.00     0.010 A 
ATOM     33  C   UNL     1      -2.446  -4.742   6.660  1.00  0.00     0.010 A 
ATOM     34  C   UNL     1      -2.861  -6.064   6.899  1.00  0.00    -0.014 A 
BRANCH  34  35
ATOM     35  C   UNL     1      -1.986  -7.068   7.556  1.00  0.00     0.031 A 
ATOM     36  C   UNL     1      -1.820  -7.041   9.051  1.00  0.00     0.074 A 
ATOM     37  C   UNL     1      -1.450  -8.070   6.836  1.00  0.00     0.049 A 
ATOM     38  N   UNL     1      -1.288  -7.937   9.842  1.00  0.00    -0.248 NA
ATOM     39  C   UNL     1      -2.328  -5.849   9.748  1.00  0.00     0.031 C 
ATOM     40  C   UNL     1      -1.552  -8.209   5.384  1.00  0.00     0.029 A 
ATOM     41  N   UNL     1      -0.745  -9.178   7.233  1.00  0.00    -0.354 N 
ATOM     42  C   UNL     1      -1.410  -7.428  11.130  1.00  0.00     0.074 A 
ATOM     43  C   UNL     1      -2.027  -6.124  11.009  1.00  0.00     0.031 C 
ATOM     44  C   UNL     1      -0.960  -9.357   5.014  1.00  0.00     0.029 A 
ATOM     45  C   UNL     1      -0.433 -10.029   6.201  1.00  0.00     0.049 A 
ATOM     46  H   UNL     1      -0.488  -9.347   8.168  1.00  0.00     0.167 HD
ATOM     47  C   UNL     1      -1.056  -8.000  12.307  1.00  0.00     0.037 A 
ATOM     48  C   UNL     1       0.188 -11.225   6.213  1.00  0.00     0.037 A 
ATOM     49  C   UNL     1      -0.431  -9.293  12.422  1.00  0.00     0.049 A 
ATOM     50  C   UNL     1       0.604 -11.827   7.527  1.00  0.00     0.074 A 
ATOM     51  C   UNL     1      -0.059  -9.975  13.567  1.00  0.00     0.029 A 
ATOM     52  N   UNL     1      -0.067 -10.093  11.347  1.00  0.00    -0.354 N 
ATOM     53  N   UNL     1       0.430 -11.361   8.742  1.00  0.00    -0.248 NA
ATOM     54  C   UNL     1       1.292 -13.124   7.473  1.00  0.00     0.031 C 
ATOM     55  C   UNL     1       0.571 -11.167  13.183  1.00  0.00     0.029 A 
ATOM     56  C   UNL     1       0.552 -11.247  11.800  1.00  0.00     0.049 A 
ATOM     57  H   UNL     1      -0.227  -9.873  10.401  1.00  0.00     0.167 HD
ATOM     58  C   UNL     1       0.975 -12.312   9.597  1.00  0.00     0.074 A 
ATOM     59  C   UNL     1       1.466 -13.389   8.760  1.00  0.00     0.031 C 
ATOM     60  C   UNL     1       1.060 -12.298  10.952  1.00  0.00     0.037 A 
BRANCH  47  61
ATOM     61  C   UNL     1      -1.317  -7.209  13.560  1.00  0.00     0.058 A 
ATOM     62  C   UNL     1      -2.618  -7.007  14.050  1.00  0.00     0.135 A 
ATOM     63  C   UNL     1      -0.254  -6.635  14.275  1.00  0.00     0.135 A 
ATOM     64  F   UNL     1      -3.673  -7.523  13.400  1.00  0.00    -0.206 F 
ATOM     65  C   UNL     1      -2.859  -6.228  15.178  1.00  0.00     0.059 A 
ATOM     66  C   UNL     1      -0.470  -5.872  15.420  1.00  0.00     0.059 A 
ATOM     67  F   UNL     1       1.010  -6.797  13.854  1.00  0.00    -0.206 F 
ATOM     68  C   UNL     1      -1.778  -5.655  15.851  1.00  0.00     0.060 A 
BRANCH  68  69
ATOM     69  S   UNL     1      -2.104  -4.615  17.290  1.00  0.00     0.124 S 
ATOM     70  O   UNL     1      -2.585  -3.389  16.660  1.00  0.00    -0.237 OA
ATOM     71  O   UNL     1      -3.105  -5.387  18.018  1.00  0.00    -0.237 OA
ATOM     72  O   UNL     1      -0.800  -4.516  17.939  1.00  0.00    -0.744 OA
ENDBRANCH  68  69
ENDBRANCH  47  61
BRANCH  48  73
ATOM     73  C   UNL     1       0.413 -11.946   4.933  1.00  0.00     0.058 A 
ATOM     74  C   UNL     1      -0.330 -13.089   4.604  1.00  0.00     0.135 A 
ATOM     75  C   UNL     1       1.348 -11.481   3.995  1.00  0.00     0.135 A 
ATOM     76  F   UNL     1      -1.228 -13.578   5.473  1.00  0.00    -0.206 F 
ATOM     77  C   UNL     1      -0.160 -13.743   3.388  1.00  0.00     0.059 A 
ATOM     78  C   UNL     1       1.522 -12.105   2.765  1.00  0.00     0.059 A 
ATOM     79  F   UNL     1       2.078 -10.387   4.261  1.00  0.00    -0.206 F 
ATOM     80  C   UNL     1       0.763 -13.238   2.471  1.00  0.00     0.060 A 
BRANCH  80  81
ATOM     81  S   UNL     1       0.913 -14.039   0.859  1.00  0.00     0.124 S 
ATOM     82  O   UNL     1       1.647 -15.252   1.199  1.00  0.00    -0.237 OA
ATOM     83  O   UNL     1      -0.484 -14.224   0.476  1.00  0.00    -0.237 OA
ATOM     84  O   UNL     1       1.645 -13.058   0.064  1.00  0.00    -0.744 OA
ENDBRANCH  80  81
ENDBRANCH  48  73
BRANCH  60  85
ATOM     85  C   UNL     1       1.716 -13.484  11.605  1.00  0.00     0.058 A 
ATOM     86  C   UNL     1       3.102 -13.691  11.526  1.00  0.00     0.135 A 
ATOM     87  C   UNL     1       0.953 -14.422  12.319  1.00  0.00     0.135 A 
ATOM     88  F   UNL     1       3.877 -12.827  10.852  1.00  0.00    -0.206 F 
ATOM     89  C   UNL     1       3.704 -14.808  12.097  1.00  0.00     0.059 A 
ATOM     90  C   UNL     1       1.538 -15.533  12.919  1.00  0.00     0.059 A 
ATOM     91  F   UNL     1      -0.375 -14.265  12.437  1.00  0.00    -0.206 F 
ATOM     92  C   UNL     1       2.912 -15.729  12.784  1.00  0.00     0.060 A 
BRANCH  92  93
ATOM     93  S   UNL     1       3.699 -17.182  13.512  1.00  0.00     0.124 S 
ATOM     94  O   UNL     1       3.887 -18.030  12.339  1.00  0.00    -0.237 OA
ATOM     95  O   UNL     1       4.917 -16.625  14.093  1.00  0.00    -0.237 OA
ATOM     96  O   UNL     1       2.711 -17.654  14.478  1.00  0.00    -0.744 OA
ENDBRANCH  92  93
ENDBRANCH  60  85
ENDBRANCH  34  35
ENDBRANCH  27  29
ENDBRANCH  26  27
ENDBRANCH  25  26
ENDBRANCH  24  25
ENDBRANCH  23  24
ENDBRANCH   1  23
TORSDOF 24
