REMARK SMILES O=C(OCCOCCOC(=O)c1cc(Br)ccc1N1CC2(CCCCC2)C1)c1ccc(-c2c3nc(c(-c4c(F)cc(S(=O)(=O)[O-])cc4F)c4ccc([nH]4)c(-c4c(F)cc(S(=O)(=O)[O-])cc4F)c4nc(c(-c5c(F)cc(S(=O)(=O)[O-])cc5F)c5ccc2[nH]5)C=C4)C=C3)cc1
REMARK SMILES IDX 5 1 4 2 3 3 2 4 1 5 28 6 29 7 93 8 30 9 92 10 31 11 32 12
REMARK SMILES IDX 33 13 86 14 34 15 91 16 85 17 87 18 35 19 90 20 84 21 83 22
REMARK SMILES IDX 36 24 70 25 49 26 69 27 50 28 53 29 68 30 88 31 51 32 52 33
REMARK SMILES IDX 67 35 89 36 54 37 37 38 38 39 47 40 39 41 40 42 46 43 48 44
REMARK SMILES IDX 41 45 42 46 43 47 44 48 45 49 71 50 72 51 81 52 73 53 74 54
REMARK SMILES IDX 80 55 82 56 75 57 76 58 77 59 78 60 79 61 55 62 56 63 65 64
REMARK SMILES IDX 57 65 58 66 64 67 66 68 59 69 60 70 61 71 62 72 63 73 6 74
REMARK SMILES IDX 7 75 8 76 9 77 10 78 11 79 12 80 13 81 18 82 14 83 17 84
REMARK SMILES IDX 15 85 16 86 19 87 20 88 27 89 21 90 22 91 26 92 23 93 25 94
REMARK SMILES IDX 24 95
REMARK H PARENT 87 23 53 34
REMARK Flexibility Score: inf
ROOT
ATOM      1  C   UNL     1       2.841   1.264  -1.031  1.00  0.00     0.202 C 
ENDROOT
BRANCH   1   2
ATOM      2  C   UNL     1       2.911  -0.261  -1.146  1.00  0.00     0.261 C 
BRANCH   2   3
ATOM      3  O   UNL     1       1.645  -0.809  -0.714  1.00  0.00    -0.460 OA
BRANCH   3   4
ATOM      4  C   UNL     1       1.300  -1.199   0.536  1.00  0.00     0.338 C 
ATOM      5  O   UNL     1       0.113  -1.301   0.836  1.00  0.00    -0.246 OA
BRANCH   4   6
ATOM      6  C   UNL     1       2.313  -1.675   1.513  1.00  0.00     0.060 A 
ATOM      7  C   UNL     1       3.401  -0.912   1.915  1.00  0.00     0.016 A 
ATOM      8  C   UNL     1       2.084  -2.897   2.163  1.00  0.00     0.016 A 
ATOM      9  C   UNL     1       4.279  -1.376   2.882  1.00  0.00     0.010 A 
ATOM     10  C   UNL     1       2.946  -3.344   3.178  1.00  0.00     0.010 A 
ATOM     11  C   UNL     1       4.065  -2.585   3.538  1.00  0.00    -0.014 A 
BRANCH  11  12
ATOM     12  C   UNL     1       5.079  -3.017   4.534  1.00  0.00     0.031 A 
ATOM     13  C   UNL     1       5.887  -4.255   4.271  1.00  0.00     0.074 A 
ATOM     14  C   UNL     1       5.387  -2.214   5.575  1.00  0.00     0.049 A 
ATOM     15  N   UNL     1       6.762  -4.847   5.040  1.00  0.00    -0.248 NA
ATOM     16  C   UNL     1       5.689  -4.913   2.969  1.00  0.00     0.031 C 
ATOM     17  C   UNL     1       4.747  -0.925   5.865  1.00  0.00     0.029 A 
ATOM     18  N   UNL     1       6.347  -2.324   6.549  1.00  0.00    -0.354 N 
ATOM     19  C   UNL     1       7.181  -5.972   4.339  1.00  0.00     0.074 A 
ATOM     20  C   UNL     1       6.468  -5.979   3.081  1.00  0.00     0.031 C 
ATOM     21  C   UNL     1       5.382  -0.334   6.887  1.00  0.00     0.029 A 
ATOM     22  C   UNL     1       6.392  -1.247   7.407  1.00  0.00     0.049 A 
ATOM     23  H   UNL     1       6.948  -3.100   6.627  1.00  0.00     0.167 HD
ATOM     24  C   UNL     1       8.073  -6.914   4.724  1.00  0.00     0.037 A 
ATOM     25  C   UNL     1       7.128  -1.040   8.517  1.00  0.00     0.037 A 
ATOM     26  C   UNL     1       8.793  -6.866   5.970  1.00  0.00     0.049 A 
ATOM     27  C   UNL     1       8.070  -2.130   8.952  1.00  0.00     0.074 A 
ATOM     28  C   UNL     1       9.647  -7.807   6.514  1.00  0.00     0.029 A 
ATOM     29  N   UNL     1       8.758  -5.797   6.856  1.00  0.00    -0.354 N 
ATOM     30  N   UNL     1       8.349  -3.265   8.352  1.00  0.00    -0.248 NA
ATOM     31  C   UNL     1       8.772  -1.934  10.226  1.00  0.00     0.031 C 
ATOM     32  C   UNL     1      10.107  -7.320   7.743  1.00  0.00     0.029 A 
ATOM     33  C   UNL     1       9.576  -6.055   7.942  1.00  0.00     0.049 A 
ATOM     34  H   UNL     1       8.229  -4.977   6.730  1.00  0.00     0.167 HD
ATOM     35  C   UNL     1       9.251  -3.921   9.180  1.00  0.00     0.074 A 
ATOM     36  C   UNL     1       9.505  -3.036  10.300  1.00  0.00     0.031 C 
ATOM     37  C   UNL     1       9.806  -5.150   9.041  1.00  0.00     0.037 A 
BRANCH  24  38
ATOM     38  C   UNL     1       8.262  -8.098   3.817  1.00  0.00     0.058 A 
ATOM     39  C   UNL     1       8.953  -8.005   2.599  1.00  0.00     0.135 A 
ATOM     40  C   UNL     1       7.732  -9.349   4.175  1.00  0.00     0.135 A 
ATOM     41  F   UNL     1       9.452  -6.827   2.193  1.00  0.00    -0.206 F 
ATOM     42  C   UNL     1       9.092  -9.105   1.757  1.00  0.00     0.059 A 
ATOM     43  C   UNL     1       7.880 -10.468   3.360  1.00  0.00     0.059 A 
ATOM     44  F   UNL     1       7.052  -9.492   5.323  1.00  0.00    -0.206 F 
ATOM     45  C   UNL     1       8.550 -10.332   2.146  1.00  0.00     0.060 A 
BRANCH  45  46
ATOM     46  S   UNL     1       8.732 -11.748   1.040  1.00  0.00     0.124 S 
ATOM     47  O   UNL     1       7.810 -11.397  -0.036  1.00  0.00    -0.237 OA
ATOM     48  O   UNL     1      10.150 -11.697   0.700  1.00  0.00    -0.237 OA
ATOM     49  O   UNL     1       8.328 -12.881   1.867  1.00  0.00    -0.744 OA
ENDBRANCH  45  46
ENDBRANCH  24  38
BRANCH  25  50
ATOM     50  C   UNL     1       6.934   0.189   9.341  1.00  0.00     0.058 A 
ATOM     51  C   UNL     1       7.968   1.115   9.545  1.00  0.00     0.135 A 
ATOM     52  C   UNL     1       5.702   0.451   9.965  1.00  0.00     0.135 A 
ATOM     53  F   UNL     1       9.172   0.910   8.987  1.00  0.00    -0.206 F 
ATOM     54  C   UNL     1       7.797   2.239  10.352  1.00  0.00     0.059 A 
ATOM     55  C   UNL     1       5.494   1.586  10.742  1.00  0.00     0.059 A 
ATOM     56  F   UNL     1       4.672  -0.395   9.806  1.00  0.00    -0.206 F 
ATOM     57  C   UNL     1       6.554   2.465  10.946  1.00  0.00     0.060 A 
BRANCH  57  58
ATOM     58  S   UNL     1       6.325   3.931  11.976  1.00  0.00     0.124 S 
ATOM     59  O   UNL     1       7.012   3.539  13.201  1.00  0.00    -0.237 OA
ATOM     60  O   UNL     1       6.973   4.972  11.184  1.00  0.00    -0.237 OA
ATOM     61  O   UNL     1       4.873   4.045  12.076  1.00  0.00    -0.744 OA
ENDBRANCH  57  58
ENDBRANCH  25  50
BRANCH  37  62
ATOM     62  C   UNL     1      10.753  -5.591  10.120  1.00  0.00     0.058 A 
ATOM     63  C   UNL     1      10.293  -5.962  11.394  1.00  0.00     0.135 A 
ATOM     64  C   UNL     1      12.131  -5.671   9.867  1.00  0.00     0.135 A 
ATOM     65  F   UNL     1       8.984  -5.897  11.685  1.00  0.00    -0.206 F 
ATOM     66  C   UNL     1      11.172  -6.366  12.391  1.00  0.00     0.059 A 
ATOM     67  C   UNL     1      13.025  -6.100  10.842  1.00  0.00     0.059 A 
ATOM     68  F   UNL     1      12.618  -5.339   8.661  1.00  0.00    -0.206 F 
ATOM     69  C   UNL     1      12.538  -6.429  12.106  1.00  0.00     0.060 A 
BRANCH  69  70
ATOM     70  S   UNL     1      13.668  -6.970  13.404  1.00  0.00     0.124 S 
ATOM     71  O   UNL     1      13.716  -5.790  14.261  1.00  0.00    -0.237 OA
ATOM     72  O   UNL     1      12.977  -8.130  13.959  1.00  0.00    -0.237 OA
ATOM     73  O   UNL     1      14.899  -7.270  12.678  1.00  0.00    -0.744 OA
ENDBRANCH  69  70
ENDBRANCH  37  62
ENDBRANCH  11  12
ENDBRANCH   4   6
ENDBRANCH   3   4
ENDBRANCH   2   3
ENDBRANCH   1   2
BRANCH   1  74
ATOM     74  O   UNL     1       2.952   1.613   0.342  1.00  0.00    -0.374 OA
BRANCH  74  75
ATOM     75  C   UNL     1       2.044   2.584   0.844  1.00  0.00     0.202 C 
BRANCH  75  76
ATOM     76  C   UNL     1       2.813   3.837   1.254  1.00  0.00     0.261 C 
BRANCH  76  77
ATOM     77  O   UNL     1       3.541   4.316   0.110  1.00  0.00    -0.460 OA
BRANCH  77  78
ATOM     78  C   UNL     1       4.848   3.931   0.018  1.00  0.00     0.340 C 
ATOM     79  O   UNL     1       5.507   3.426   0.908  1.00  0.00    -0.246 OA
BRANCH  78  80
ATOM     80  C   UNL     1       5.282   4.159  -1.393  1.00  0.00     0.084 A 
ATOM     81  C   UNL     1       4.677   5.223  -2.091  1.00  0.00     0.033 A 
ATOM     82  C   UNL     1       6.248   3.348  -2.037  1.00  0.00     0.051 A 
ATOM     83  C   UNL     1       4.975   5.447  -3.428  1.00  0.00     0.018 A 
ATOM     84  C   UNL     1       6.532   3.608  -3.388  1.00  0.00     0.028 A 
ATOM     85  Br  UNL     1       4.120   6.856  -4.353  1.00  0.00    -0.051 Br
ATOM     86  C   UNL     1       5.889   4.635  -4.085  1.00  0.00     0.018 A 
BRANCH  82  87
ATOM     87  N   UNL     1       6.934   2.310  -1.387  1.00  0.00    -0.370 N 
ATOM     88  C   UNL     1       6.480   0.983  -1.101  1.00  0.00     0.125 C 
ATOM     89  C   UNL     1       8.308   1.900  -1.455  1.00  0.00     0.125 C 
ATOM     90  C   UNL     1       7.905   0.703  -0.552  1.00  0.00     0.005 C 
ATOM     91  C   UNL     1       8.498  -0.668  -0.885  1.00  0.00     0.011 C 
ATOM     92  C   UNL     1       8.089   1.012   0.945  1.00  0.00     0.011 C 
ATOM     93  C   UNL     1       7.816  -1.753  -0.043  1.00  0.00     0.001 C 
ATOM     94  C   UNL     1       7.366  -0.044   1.765  1.00  0.00     0.001 C 
ATOM     95  C   UNL     1       7.878  -1.447   1.455  1.00  0.00     0.000 C 
ENDBRANCH  82  87
ENDBRANCH  78  80
ENDBRANCH  77  78
ENDBRANCH  76  77
ENDBRANCH  75  76
ENDBRANCH  74  75
ENDBRANCH   1  74
TORSDOF 18
