REMARK SMILES COc1ccc2c(c1)O[C@]1(CCC(=O)N([C@@H](C)C(=O)OCCOCCOC(=O)c3ccc(-c4c5nc(c(-c6c(F)cc(S(=O)(=O)[O-])cc6F)c6ccc([nH]6)c(-c6c(F)cc(S(=O)(=O)[O-])cc6F)c6nc(c(-c7c(F)cc(S(=O)(=O)[O-])cc7F)c7ccc4[nH]7)C=C6)C=C5)cc3)CC1)CC2=O
REMARK SMILES IDX 22 1 21 2 20 3 18 4 19 5 16 6 17 7 15 8 95 9 96 10 10 11
REMARK SMILES IDX 3 12 4 13 8 14 5 15 7 16 6 17 9 18 98 19 97 20 99 21 2 22
REMARK SMILES IDX 1 23 11 24 13 26 14 27 12 28 23 30 24 31 25 32 26 33 27 34
REMARK SMILES IDX 28 35 29 36 30 37 94 38 31 39 93 40 32 41 33 42 34 43 87 44
REMARK SMILES IDX 35 45 92 46 86 47 88 48 36 49 91 50 85 51 84 52 37 54 71 55
REMARK SMILES IDX 50 56 70 57 51 58 54 59 69 60 89 61 52 62 53 63 68 65 90 66
REMARK SMILES IDX 55 67 38 68 39 69 48 70 40 71 41 72 47 73 49 74 42 75 43 76
REMARK SMILES IDX 44 77 45 78 46 79 72 80 73 81 82 82 74 83 75 84 81 85 83 86
REMARK SMILES IDX 76 87 77 88 78 89 79 90 80 91 56 92 57 93 66 94 58 95 59 96
REMARK SMILES IDX 65 97 67 98 60 99 61 100 62 101 63 102 64 103
REMARK H PARENT 88 53 54 64
REMARK Flexibility Score: 90.00
ROOT
ATOM      1  C   UNL     1      -4.435  -4.939  -0.540  1.00  0.00     0.202 C 
ENDROOT
BRANCH   1   2
ATOM      2  C   UNL     1      -5.386  -3.738  -0.491  1.00  0.00     0.261 C 
BRANCH   2   3
ATOM      3  O   UNL     1      -5.081  -2.662  -1.396  1.00  0.00    -0.462 OA
BRANCH   3   4
ATOM      4  C   UNL     1      -4.364  -1.653  -0.831  1.00  0.00     0.328 C 
ATOM      5  O   UNL     1      -3.690  -1.773   0.189  1.00  0.00    -0.250 OA
BRANCH   4   6
ATOM      6  C   UNL     1      -4.771  -0.255  -1.317  1.00  0.00     0.192 C 
ATOM      7  C   UNL     1      -6.252  -0.224  -1.045  1.00  0.00     0.044 C 
BRANCH   6   8
ATOM      8  N   UNL     1      -4.264   0.556  -2.451  1.00  0.00    -0.329 N 
BRANCH   8   9
ATOM      9  C   UNL     1      -3.029   1.243  -2.176  1.00  0.00     0.124 C 
BRANCH   9  10
ATOM     10  C   UNL     1      -3.348   2.608  -1.599  1.00  0.00     0.070 C 
BRANCH  10  11
ATOM     11  C   UNL     1      -4.575   2.915  -0.626  1.00  0.00     0.118 C 
ATOM     12  C   UNL     1      -1.076   1.429   1.623  1.00  0.00     0.122 A 
ATOM     13  C   UNL     1      -1.797   0.479   2.353  1.00  0.00     0.047 A 
ATOM     14  C   UNL     1      -1.690   2.575   1.081  1.00  0.00     0.093 A 
ATOM     15  C   UNL     1      -3.170   0.620   2.465  1.00  0.00     0.019 A 
ATOM     16  C   UNL     1      -3.078   2.698   1.135  1.00  0.00     0.134 A 
ATOM     17  C   UNL     1      -3.783   1.697   1.814  1.00  0.00     0.060 A 
ATOM     18  O   UNL     1      -3.766   3.679   0.352  1.00  0.00    -0.486 OA
ATOM     19  C   UNL     1      -5.213   1.687   1.627  1.00  0.00     0.170 C 
ATOM     20  C   UNL     1      -5.659   2.440   0.419  1.00  0.00     0.129 C 
ATOM     21  O   UNL     1      -5.967   1.105   2.394  1.00  0.00    -0.294 OA
BRANCH  12  22
ATOM     22  O   UNL     1       0.269   1.238   1.440  1.00  0.00    -0.497 OA
ATOM     23  C   UNL     1       0.505   0.393   0.308  1.00  0.00     0.278 C 
ENDBRANCH  12  22
BRANCH  11  24
ATOM     24  C   UNL     1      -5.585   3.464  -1.728  1.00  0.00     0.059 CG0
ATOM     25  G   UNL     1      -5.973   2.415  -2.870  1.00  0.00     0.000 G0
ENDBRANCH  11  24
ENDBRANCH  10  11
ENDBRANCH   9  10
ENDBRANCH   8   9
BRANCH   8  26
ATOM     26  C   UNL     1      -4.991   1.313  -3.377  1.00  0.00     0.223 C 
ATOM     27  O   UNL     1      -4.660   1.302  -4.568  1.00  0.00    -0.275 OA
BRANCH  26  28
ATOM     28  C   UNL     1      -5.973   2.415  -2.870  1.00  0.00     0.104 CG0
ATOM     29  G   UNL     1      -5.585   3.464  -1.728  1.00  0.00     0.000 G0
ENDBRANCH  26  28
ENDBRANCH   8  26
ENDBRANCH   6   8
ENDBRANCH   4   6
ENDBRANCH   3   4
ENDBRANCH   2   3
ENDBRANCH   1   2
BRANCH   1  30
ATOM     30  O   UNL     1      -3.085  -4.777  -0.146  1.00  0.00    -0.374 OA
BRANCH  30  31
ATOM     31  C   UNL     1      -2.162  -3.995  -0.890  1.00  0.00     0.202 C 
BRANCH  31  32
ATOM     32  C   UNL     1      -2.132  -3.921  -2.426  1.00  0.00     0.261 C 
BRANCH  32  33
ATOM     33  O   UNL     1      -3.376  -3.675  -3.092  1.00  0.00    -0.460 OA
BRANCH  33  34
ATOM     34  C   UNL     1      -3.892  -4.751  -3.744  1.00  0.00     0.338 C 
ATOM     35  O   UNL     1      -3.429  -5.868  -3.781  1.00  0.00    -0.246 OA
BRANCH  34  36
ATOM     36  C   UNL     1      -5.223  -4.425  -4.299  1.00  0.00     0.060 A 
ATOM     37  C   UNL     1      -5.349  -3.570  -5.393  1.00  0.00     0.016 A 
ATOM     38  C   UNL     1      -6.337  -5.114  -3.802  1.00  0.00     0.016 A 
ATOM     39  C   UNL     1      -6.594  -3.442  -6.021  1.00  0.00     0.010 A 
ATOM     40  C   UNL     1      -7.578  -4.977  -4.423  1.00  0.00     0.010 A 
ATOM     41  C   UNL     1      -7.708  -4.165  -5.558  1.00  0.00    -0.014 A 
BRANCH  41  42
ATOM     42  C   UNL     1      -8.966  -4.207  -6.347  1.00  0.00     0.031 A 
ATOM     43  C   UNL     1     -10.198  -3.482  -5.900  1.00  0.00     0.074 A 
ATOM     44  C   UNL     1      -8.998  -4.972  -7.456  1.00  0.00     0.049 A 
ATOM     45  N   UNL     1     -11.361  -3.397  -6.493  1.00  0.00    -0.248 NA
ATOM     46  C   UNL     1     -10.121  -2.771  -4.616  1.00  0.00     0.031 C 
ATOM     47  C   UNL     1      -7.876  -5.771  -7.954  1.00  0.00     0.029 A 
ATOM     48  N   UNL     1     -10.003  -5.210  -8.358  1.00  0.00    -0.354 N 
ATOM     49  C   UNL     1     -12.154  -2.610  -5.668  1.00  0.00     0.074 A 
ATOM     50  C   UNL     1     -11.350  -2.283  -4.507  1.00  0.00     0.031 C 
ATOM     51  C   UNL     1      -8.248  -6.393  -9.082  1.00  0.00     0.029 A 
ATOM     52  C   UNL     1      -9.640  -6.062  -9.374  1.00  0.00     0.049 A 
ATOM     53  H   UNL     1     -10.899  -4.808  -8.286  1.00  0.00     0.167 HD
ATOM     54  C   UNL     1     -13.427  -2.190  -5.872  1.00  0.00     0.037 A 
ATOM     55  C   UNL     1     -10.346  -6.529 -10.423  1.00  0.00     0.037 A 
ATOM     56  C   UNL     1     -14.224  -2.547  -7.021  1.00  0.00     0.049 A 
ATOM     57  C   UNL     1     -11.762  -6.066 -10.618  1.00  0.00     0.074 A 
ATOM     58  C   UNL     1     -15.505  -2.130  -7.341  1.00  0.00     0.029 A 
ATOM     59  N   UNL     1     -13.830  -3.420  -8.026  1.00  0.00    -0.354 N 
ATOM     60  N   UNL     1     -12.470  -5.250  -9.874  1.00  0.00    -0.248 NA
ATOM     61  C   UNL     1     -12.472  -6.578 -11.797  1.00  0.00     0.031 C 
ATOM     62  C   UNL     1     -15.908  -2.799  -8.503  1.00  0.00     0.029 A 
ATOM     63  C   UNL     1     -14.855  -3.582  -8.947  1.00  0.00     0.049 A 
ATOM     64  H   UNL     1     -12.950  -3.860  -8.078  1.00  0.00     0.167 HD
ATOM     65  C   UNL     1     -13.705  -5.135 -10.504  1.00  0.00     0.074 A 
ATOM     66  C   UNL     1     -13.638  -5.953 -11.699  1.00  0.00     0.031 C 
ATOM     67  C   UNL     1     -14.791  -4.415 -10.125  1.00  0.00     0.037 A 
BRANCH  54  68
ATOM     68  C   UNL     1     -14.047  -1.302  -4.825  1.00  0.00     0.058 A 
ATOM     69  C   UNL     1     -13.611   0.018  -4.626  1.00  0.00     0.135 A 
ATOM     70  C   UNL     1     -15.123  -1.757  -4.044  1.00  0.00     0.135 A 
ATOM     71  F   UNL     1     -12.580   0.504  -5.335  1.00  0.00    -0.206 F 
ATOM     72  C   UNL     1     -14.196   0.843  -3.671  1.00  0.00     0.059 A 
ATOM     73  C   UNL     1     -15.743  -0.939  -3.103  1.00  0.00     0.059 A 
ATOM     74  F   UNL     1     -15.585  -3.009  -4.193  1.00  0.00    -0.206 F 
ATOM     75  C   UNL     1     -15.262   0.355  -2.914  1.00  0.00     0.060 A 
BRANCH  75  76
ATOM     76  S   UNL     1     -15.999   1.439  -1.673  1.00  0.00     0.124 S 
ATOM     77  O   UNL     1     -14.920   1.535  -0.694  1.00  0.00    -0.237 OA
ATOM     78  O   UNL     1     -16.267   2.651  -2.440  1.00  0.00    -0.237 OA
ATOM     79  O   UNL     1     -17.180   0.703  -1.233  1.00  0.00    -0.744 OA
ENDBRANCH  75  76
ENDBRANCH  54  68
BRANCH  55  80
ATOM     80  C   UNL     1      -9.690  -7.457 -11.381  1.00  0.00     0.058 A 
ATOM     81  C   UNL     1      -9.320  -7.027 -12.664  1.00  0.00     0.135 A 
ATOM     82  C   UNL     1      -9.350  -8.766 -11.005  1.00  0.00     0.135 A 
ATOM     83  F   UNL     1      -9.632  -5.788 -13.072  1.00  0.00    -0.206 F 
ATOM     84  C   UNL     1      -8.627  -7.859 -13.537  1.00  0.00     0.059 A 
ATOM     85  C   UNL     1      -8.634  -9.607 -11.851  1.00  0.00     0.059 A 
ATOM     86  F   UNL     1      -9.670  -9.219  -9.783  1.00  0.00    -0.206 F 
ATOM     87  C   UNL     1      -8.275  -9.143 -13.116  1.00  0.00     0.060 A 
BRANCH  87  88
ATOM     88  S   UNL     1      -7.289 -10.173 -14.223  1.00  0.00     0.124 S 
ATOM     89  O   UNL     1      -8.239 -10.452 -15.293  1.00  0.00    -0.237 OA
ATOM     90  O   UNL     1      -6.186  -9.280 -14.565  1.00  0.00    -0.237 OA
ATOM     91  O   UNL     1      -6.926 -11.315 -13.388  1.00  0.00    -0.744 OA
ENDBRANCH  87  88
ENDBRANCH  55  80
BRANCH  67  92
ATOM     92  C   UNL     1     -16.004  -4.470 -11.018  1.00  0.00     0.058 A 
ATOM     93  C   UNL     1     -16.792  -5.627 -11.124  1.00  0.00     0.135 A 
ATOM     94  C   UNL     1     -16.408  -3.337 -11.743  1.00  0.00     0.135 A 
ATOM     95  F   UNL     1     -16.451  -6.741 -10.457  1.00  0.00    -0.206 F 
ATOM     96  C   UNL     1     -17.919  -5.669 -11.940  1.00  0.00     0.059 A 
ATOM     97  C   UNL     1     -17.549  -3.346 -12.540  1.00  0.00     0.059 A 
ATOM     98  F   UNL     1     -15.700  -2.199 -11.671  1.00  0.00    -0.206 F 
ATOM     99  C   UNL     1     -18.290  -4.522 -12.643  1.00  0.00     0.060 A 
BRANCH  99 100
ATOM    100  S   UNL     1     -19.763  -4.588 -13.686  1.00  0.00     0.124 S 
ATOM    101  O   UNL     1     -19.317  -5.455 -14.772  1.00  0.00    -0.237 OA
ATOM    102  O   UNL     1     -20.757  -5.162 -12.784  1.00  0.00    -0.237 OA
ATOM    103  O   UNL     1     -19.986  -3.192 -14.051  1.00  0.00    -0.744 OA
ENDBRANCH  99 100
ENDBRANCH  67  92
ENDBRANCH  41  42
ENDBRANCH  34  36
ENDBRANCH  33  34
ENDBRANCH  32  33
ENDBRANCH  31  32
ENDBRANCH  30  31
ENDBRANCH   1  30
TORSDOF 19
