REMARK SMILES COc1cc2c(CC(=O)OCCOCCOC(=O)c3ccc(-c4c5nc(c(-c6c(F)cc(S(=O)(=O)[O-])cc6F)c6ccc([nH]6)c(-c6c(F)cc(S(=O)(=O)[O-])cc6F)c6nc(c(-c7c(F)cc(S(=O)(=O)[O-])cc7F)c7ccc4[nH]7)C=C6)C=C5)cc3)c(C)n(C(=O)c3ccc(Cl)cc3)c2cc1Cl
REMARK SMILES IDX 13 1 12 2 11 3 10 4 8 5 9 6 7 7 6 8 3 9 4 10 99 11 5 12
REMARK SMILES IDX 98 13 100 14 97 15 85 16 87 17 86 18 2 19 1 20 88 21 89 22
REMARK SMILES IDX 90 23 91 24 96 25 92 26 95 27 93 28 94 29 14 30 15 31 16 32
REMARK SMILES IDX 17 33 18 34 19 35 20 36 84 37 21 38 83 39 22 40 23 41 24 42
REMARK SMILES IDX 77 43 25 44 82 45 76 46 78 47 26 48 81 49 75 50 74 51 27 53
REMARK SMILES IDX 61 54 40 55 60 56 41 57 44 58 59 59 79 60 42 61 43 62 58 64
REMARK SMILES IDX 80 65 45 66 28 67 29 68 38 69 30 70 31 71 37 72 39 73 32 74
REMARK SMILES IDX 33 75 34 76 35 77 36 78 62 79 63 80 72 81 64 82 65 83 71 84
REMARK SMILES IDX 73 85 66 86 67 87 68 88 69 89 70 90 46 91 47 92 56 93 48 94
REMARK SMILES IDX 49 95 55 96 57 97 50 98 51 99 52 100 53 101 54 102
REMARK H PARENT 78 52 44 63
REMARK Flexibility Score: inf
ROOT
ATOM      1  O   UNL     1      -2.629   1.415  -5.020  1.00  0.00    -0.374 OA
ENDROOT
BRANCH   1   2
ATOM      2  C   UNL     1      -2.591   2.146  -6.238  1.00  0.00     0.202 C 
BRANCH   2   3
ATOM      3  C   UNL     1      -2.567   3.686  -6.242  1.00  0.00     0.261 C 
BRANCH   3   4
ATOM      4  O   UNL     1      -1.782   4.302  -5.202  1.00  0.00    -0.463 OA
BRANCH   4   5
ATOM      5  C   UNL     1      -2.523   4.812  -4.185  1.00  0.00     0.310 C 
ATOM      6  O   UNL     1      -3.752   4.773  -4.145  1.00  0.00    -0.252 OA
BRANCH   5   7
ATOM      7  C   UNL     1      -1.757   5.452  -3.050  1.00  0.00     0.160 C 
BRANCH   7   8
ATOM      8  C   UNL     1      -0.267   5.243  -2.888  1.00  0.00    -0.008 A 
ATOM      9  C   UNL     1       0.827   1.982  -1.151  1.00  0.00     0.138 A 
ATOM     10  C   UNL     1      -0.071   2.986  -1.566  1.00  0.00     0.058 A 
ATOM     11  C   UNL     1       2.188   2.237  -1.219  1.00  0.00     0.085 A 
ATOM     12  C   UNL     1       0.385   4.172  -2.202  1.00  0.00     0.008 A 
ATOM     13  C   UNL     1       2.643   3.487  -1.649  1.00  0.00     0.051 A 
ATOM     14  Cl  UNL     1       3.430   1.064  -0.948  1.00  0.00    -0.080 Cl
ATOM     15  C   UNL     1       1.760   4.425  -2.225  1.00  0.00     0.058 A 
ATOM     16  C   UNL     1       0.725   6.146  -3.267  1.00  0.00     0.028 A 
ATOM     17  N   UNL     1       1.981   5.661  -2.865  1.00  0.00    -0.280 N 
ATOM     18  C   UNL     1       0.483   7.445  -3.979  1.00  0.00     0.065 C 
BRANCH   9  19
ATOM     19  O   UNL     1       0.239   0.766  -0.918  1.00  0.00    -0.495 OA
ATOM     20  C   UNL     1       0.647   0.073   0.255  1.00  0.00     0.278 C 
ENDBRANCH   9  19
BRANCH  17  21
ATOM     21  C   UNL     1       3.251   6.303  -3.035  1.00  0.00     0.262 C 
ATOM     22  O   UNL     1       3.301   7.451  -3.471  1.00  0.00    -0.268 OA
BRANCH  21  23
ATOM     23  C   UNL     1       4.555   5.730  -2.653  1.00  0.00     0.040 A 
ATOM     24  C   UNL     1       5.102   4.649  -3.355  1.00  0.00     0.015 A 
ATOM     25  C   UNL     1       5.199   6.248  -1.522  1.00  0.00     0.015 A 
ATOM     26  C   UNL     1       6.243   4.015  -2.851  1.00  0.00     0.021 A 
ATOM     27  C   UNL     1       6.348   5.622  -1.036  1.00  0.00     0.021 A 
ATOM     28  C   UNL     1       6.848   4.493  -1.686  1.00  0.00     0.041 A 
ATOM     29  Cl  UNL     1       8.203   3.664  -1.024  1.00  0.00    -0.084 Cl
ENDBRANCH  21  23
ENDBRANCH  17  21
ENDBRANCH   7   8
ENDBRANCH   5   7
ENDBRANCH   4   5
ENDBRANCH   3   4
ENDBRANCH   2   3
ENDBRANCH   1   2
BRANCH   1  30
ATOM     30  C   UNL     1      -1.545   1.584  -4.114  1.00  0.00     0.202 C 
BRANCH  30  31
ATOM     31  C   UNL     1      -0.101   1.260  -4.549  1.00  0.00     0.261 C 
BRANCH  31  32
ATOM     32  O   UNL     1       0.287   1.910  -5.757  1.00  0.00    -0.460 OA
BRANCH  32  33
ATOM     33  C   UNL     1       0.955   1.112  -6.638  1.00  0.00     0.338 C 
ATOM     34  O   UNL     1       1.586   0.108  -6.404  1.00  0.00    -0.246 OA
BRANCH  33  35
ATOM     35  C   UNL     1       0.401   1.492  -7.952  1.00  0.00     0.060 A 
ATOM     36  C   UNL     1       0.358   2.834  -8.334  1.00  0.00     0.016 A 
ATOM     37  C   UNL     1      -0.402   0.523  -8.575  1.00  0.00     0.016 A 
ATOM     38  C   UNL     1      -0.580   3.220  -9.282  1.00  0.00     0.010 A 
ATOM     39  C   UNL     1      -1.361   0.922  -9.497  1.00  0.00     0.010 A 
ATOM     40  C   UNL     1      -1.480   2.276  -9.819  1.00  0.00    -0.014 A 
BRANCH  40  41
ATOM     41  C   UNL     1      -2.296   2.682 -10.968  1.00  0.00     0.031 A 
ATOM     42  C   UNL     1      -1.401   3.001 -12.117  1.00  0.00     0.074 A 
ATOM     43  C   UNL     1      -3.643   2.651 -11.086  1.00  0.00     0.049 A 
ATOM     44  N   UNL     1      -1.150   4.170 -12.604  1.00  0.00    -0.248 NA
ATOM     45  C   UNL     1      -0.485   1.948 -12.595  1.00  0.00     0.031 C 
ATOM     46  C   UNL     1      -4.640   2.161 -10.134  1.00  0.00     0.029 A 
ATOM     47  N   UNL     1      -4.421   3.007 -12.156  1.00  0.00    -0.354 N 
ATOM     48  C   UNL     1      -0.230   3.955 -13.625  1.00  0.00     0.074 A 
ATOM     49  C   UNL     1       0.307   2.639 -13.414  1.00  0.00     0.031 C 
ATOM     50  C   UNL     1      -5.841   2.031 -10.755  1.00  0.00     0.029 A 
ATOM     51  C   UNL     1      -5.742   2.549 -12.110  1.00  0.00     0.049 A 
ATOM     52  H   UNL     1      -4.075   3.547 -12.903  1.00  0.00     0.167 HD
ATOM     53  C   UNL     1      -0.204   4.761 -14.719  1.00  0.00     0.037 A 
ATOM     54  C   UNL     1      -6.665   2.580 -13.117  1.00  0.00     0.037 A 
ATOM     55  C   UNL     1      -0.885   6.003 -14.457  1.00  0.00     0.049 A 
ATOM     56  C   UNL     1      -6.213   3.619 -14.078  1.00  0.00     0.074 A 
ATOM     57  C   UNL     1      -0.716   7.032 -13.552  1.00  0.00     0.029 A 
ATOM     58  N   UNL     1      -2.163   6.132 -14.945  1.00  0.00    -0.354 N 
ATOM     59  N   UNL     1      -6.189   4.893 -13.798  1.00  0.00    -0.248 NA
ATOM     60  C   UNL     1      -5.330   3.192 -15.152  1.00  0.00     0.031 C 
ATOM     61  C   UNL     1      -2.036   7.427 -13.193  1.00  0.00     0.029 A 
ATOM     62  C   UNL     1      -2.933   6.680 -13.957  1.00  0.00     0.049 A 
ATOM     63  H   UNL     1      -2.469   5.875 -15.845  1.00  0.00     0.167 HD
ATOM     64  C   UNL     1      -4.994   5.343 -14.336  1.00  0.00     0.074 A 
ATOM     65  C   UNL     1      -4.532   4.261 -15.206  1.00  0.00     0.031 C 
ATOM     66  C   UNL     1      -4.346   6.419 -13.805  1.00  0.00     0.037 A 
BRANCH  53  67
ATOM     67  C   UNL     1       0.028   4.256 -16.125  1.00  0.00     0.058 A 
ATOM     68  C   UNL     1       0.096   5.193 -17.176  1.00  0.00     0.135 A 
ATOM     69  C   UNL     1      -0.126   2.908 -16.521  1.00  0.00     0.135 A 
ATOM     70  F   UNL     1       0.244   6.503 -16.917  1.00  0.00    -0.206 F 
ATOM     71  C   UNL     1      -0.077   4.830 -18.511  1.00  0.00     0.059 A 
ATOM     72  C   UNL     1      -0.246   2.519 -17.848  1.00  0.00     0.059 A 
ATOM     73  F   UNL     1      -0.270   1.906 -15.648  1.00  0.00    -0.206 F 
ATOM     74  C   UNL     1      -0.264   3.490 -18.833  1.00  0.00     0.060 A 
BRANCH  74  75
ATOM     75  S   UNL     1      -0.587   3.029 -20.541  1.00  0.00     0.124 S 
ATOM     76  O   UNL     1      -1.885   3.653 -20.770  1.00  0.00    -0.237 OA
ATOM     77  O   UNL     1       0.548   3.634 -21.231  1.00  0.00    -0.237 OA
ATOM     78  O   UNL     1      -0.585   1.570 -20.500  1.00  0.00    -0.744 OA
ENDBRANCH  74  75
ENDBRANCH  53  67
BRANCH  54  79
ATOM     79  C   UNL     1      -7.728   1.593 -13.492  1.00  0.00     0.058 A 
ATOM     80  C   UNL     1      -8.734   1.894 -14.438  1.00  0.00     0.135 A 
ATOM     81  C   UNL     1      -7.597   0.230 -13.164  1.00  0.00     0.135 A 
ATOM     82  F   UNL     1      -8.923   3.160 -14.841  1.00  0.00    -0.206 F 
ATOM     83  C   UNL     1      -9.529   0.906 -15.044  1.00  0.00     0.059 A 
ATOM     84  C   UNL     1      -8.377  -0.772 -13.754  1.00  0.00     0.059 A 
ATOM     85  F   UNL     1      -6.637  -0.180 -12.322  1.00  0.00    -0.206 F 
ATOM     86  C   UNL     1      -9.327  -0.432 -14.710  1.00  0.00     0.060 A 
BRANCH  86  87
ATOM     87  S   UNL     1     -10.238  -1.729 -15.594  1.00  0.00     0.124 S 
ATOM     88  O   UNL     1     -11.613  -1.479 -15.172  1.00  0.00    -0.237 OA
ATOM     89  O   UNL     1      -9.936  -1.427 -16.988  1.00  0.00    -0.237 OA
ATOM     90  O   UNL     1      -9.648  -2.965 -15.085  1.00  0.00    -0.744 OA
ENDBRANCH  86  87
ENDBRANCH  54  79
BRANCH  66  91
ATOM     91  C   UNL     1      -5.074   7.306 -12.833  1.00  0.00     0.058 A 
ATOM     92  C   UNL     1      -5.451   6.930 -11.531  1.00  0.00     0.135 A 
ATOM     93  C   UNL     1      -5.186   8.662 -13.173  1.00  0.00     0.135 A 
ATOM     94  F   UNL     1      -5.294   5.668 -11.104  1.00  0.00    -0.206 F 
ATOM     95  C   UNL     1      -5.918   7.871 -10.608  1.00  0.00     0.059 A 
ATOM     96  C   UNL     1      -5.619   9.617 -12.262  1.00  0.00     0.059 A 
ATOM     97  F   UNL     1      -4.791   9.084 -14.386  1.00  0.00    -0.206 F 
ATOM     98  C   UNL     1      -5.984   9.216 -10.980  1.00  0.00     0.060 A 
BRANCH  98  99
ATOM     99  S   UNL     1      -6.465  10.453  -9.755  1.00  0.00     0.124 S 
ATOM    100  O   UNL     1      -7.876  10.148  -9.547  1.00  0.00    -0.237 OA
ATOM    101  O   UNL     1      -5.577  10.150  -8.636  1.00  0.00    -0.237 OA
ATOM    102  O   UNL     1      -6.194  11.723 -10.425  1.00  0.00    -0.744 OA
ENDBRANCH  98  99
ENDBRANCH  66  91
ENDBRANCH  40  41
ENDBRANCH  33  35
ENDBRANCH  32  33
ENDBRANCH  31  32
ENDBRANCH  30  31
ENDBRANCH   1  30
TORSDOF 21
