REMARK SMILES C[C@]12CC/C(=N\OCC(=O)OCCOCCOC(=O)c3ccc(-c4c5nc(c(-c6c(F)cc(S(=O)(=O)[O-])cc6F)c6ccc([nH]6)c(-c6c(F)cc(S(=O)(=O)[O-])cc6F)c6nc(c(-c7c(F)cc(S(=O)(=O)[O-])cc7F)c7ccc4[nH]7)C=C6)C=C5)cc3)C=C1CC[C@@H]1[C@@H]2CC[C@]2(C)[C@H]1CC[C@]2(C)O
REMARK SMILES IDX 14 1 13 2 12 3 11 4 9 5 10 6 8 7 7 8 6 9 100 10 99 11 98 12
REMARK SMILES IDX 94 13 97 14 96 15 93 16 95 17 90 18 92 19 89 20 91 21 88 22
REMARK SMILES IDX 2 23 87 24 3 25 1 26 86 27 4 28 5 29 101 30 15 32 16 33
REMARK SMILES IDX 17 34 18 35 19 36 20 37 21 38 85 39 22 40 84 41 23 42 24 43
REMARK SMILES IDX 25 44 78 45 26 46 83 47 77 48 79 49 27 50 82 51 76 52 75 53
REMARK SMILES IDX 28 55 62 56 41 57 61 58 42 59 45 60 60 61 80 62 43 63 44 64
REMARK SMILES IDX 59 66 81 67 46 68 29 69 30 70 39 71 31 72 32 73 38 74 40 75
REMARK SMILES IDX 33 76 34 77 35 78 36 79 37 80 63 81 64 82 73 83 65 84 66 85
REMARK SMILES IDX 72 86 74 87 67 88 68 89 69 90 70 91 71 92 47 93 48 94 57 95
REMARK SMILES IDX 49 96 50 97 56 98 58 99 51 100 52 101 53 102 54 103 55 104
REMARK H PARENT 101 31 79 54 45 65
REMARK Flexibility Score: inf
ROOT
ATOM      1  O   UNL     1      -3.621  -5.941   8.961  1.00  0.00    -0.374 OA
ENDROOT
BRANCH   1   2
ATOM      2  C   UNL     1      -2.317  -6.156   9.498  1.00  0.00     0.202 C 
BRANCH   2   3
ATOM      3  C   UNL     1      -1.593  -7.422   9.025  1.00  0.00     0.261 C 
BRANCH   3   4
ATOM      4  O   UNL     1      -1.449  -7.484   7.596  1.00  0.00    -0.461 OA
BRANCH   4   5
ATOM      5  C   UNL     1      -2.137  -8.482   6.974  1.00  0.00     0.347 C 
ATOM      6  O   UNL     1      -2.767  -9.364   7.551  1.00  0.00    -0.248 OA
BRANCH   5   7
ATOM      7  C   UNL     1      -2.075  -8.411   5.452  1.00  0.00     0.386 C 
BRANCH   7   8
ATOM      8  O   UNL     1      -1.348  -7.376   4.823  1.00  0.00    -0.384 OA
BRANCH   8   9
ATOM      9  N   UNL     1      -2.116  -6.201   4.739  1.00  0.00    -0.091 NA
ATOM     10  C   UNL     1       1.709   0.663  -1.658  1.00  0.00     0.042 C 
ATOM     11  C   UNL     1       1.048   0.700  -0.292  1.00  0.00     0.068 C 
ATOM     12  C   UNL     1       0.375   2.030   0.111  1.00  0.00     0.036 C 
ATOM     13  C   UNL     1       1.974   0.451   0.955  1.00  0.00    -0.001 C 
ATOM     14  C   UNL     1       0.241   1.966   1.656  1.00  0.00     0.007 C 
ATOM     15  C   UNL     1       0.963   0.679   2.125  1.00  0.00     0.001 C 
ATOM     16  C   UNL     1       2.691  -0.888   1.105  1.00  0.00     0.010 C 
ATOM     17  C   UNL     1       3.138   1.492   0.977  1.00  0.00     0.015 C 
ATOM     18  C   UNL     1      -0.011  -0.537   2.321  1.00  0.00    -0.003 C 
ATOM     19  C   UNL     1       1.811  -2.080   1.349  1.00  0.00     0.005 C 
ATOM     20  C   UNL     1      -1.022  -0.423   3.475  1.00  0.00     0.008 C 
ATOM     21  C   UNL     1       0.734  -1.891   2.432  1.00  0.00     0.002 C 
ATOM     22  C   UNL     1      -2.083  -1.527   3.306  1.00  0.00     0.032 C 
ATOM     23  C   UNL     1      -0.235  -3.137   2.443  1.00  0.00    -0.008 C 
ATOM     24  C   UNL     1      -1.483  -2.917   3.292  1.00  0.00    -0.062 C 
ATOM     25  C   UNL     1       0.571  -4.337   3.011  1.00  0.00     0.018 C 
ATOM     26  C   UNL     1      -0.749  -3.485   1.019  1.00  0.00     0.016 C 
ATOM     27  C   UNL     1      -2.090  -3.932   3.935  1.00  0.00     0.027 C 
ATOM     28  C   UNL     1      -0.252  -5.590   3.223  1.00  0.00     0.061 C 
ATOM     29  C   UNL     1      -1.509  -5.302   4.015  1.00  0.00     0.080 C 
BRANCH  11  30
ATOM     30  O   UNL     1       0.009  -0.275  -0.450  1.00  0.00    -0.390 OA
ATOM     31  H   UNL     1      -0.520  -0.060  -1.234  1.00  0.00     0.211 HD
ENDBRANCH  11  30
ENDBRANCH   8   9
ENDBRANCH   7   8
ENDBRANCH   5   7
ENDBRANCH   4   5
ENDBRANCH   3   4
ENDBRANCH   2   3
ENDBRANCH   1   2
BRANCH   1  32
ATOM     32  C   UNL     1      -3.687  -5.429   7.626  1.00  0.00     0.202 C 
BRANCH  32  33
ATOM     33  C   UNL     1      -3.149  -4.008   7.444  1.00  0.00     0.261 C 
BRANCH  33  34
ATOM     34  O   UNL     1      -1.712  -3.971   7.519  1.00  0.00    -0.460 OA
BRANCH  34  35
ATOM     35  C   UNL     1      -1.226  -2.869   8.139  1.00  0.00     0.338 C 
ATOM     36  O   UNL     1      -1.850  -1.873   8.458  1.00  0.00    -0.246 OA
BRANCH  35  37
ATOM     37  C   UNL     1       0.168  -3.092   8.562  1.00  0.00     0.060 A 
ATOM     38  C   UNL     1       0.408  -3.287   9.928  1.00  0.00     0.016 A 
ATOM     39  C   UNL     1       1.228  -2.950   7.667  1.00  0.00     0.016 A 
ATOM     40  C   UNL     1       1.715  -3.284  10.413  1.00  0.00     0.010 A 
ATOM     41  C   UNL     1       2.541  -2.946   8.158  1.00  0.00     0.010 A 
ATOM     42  C   UNL     1       2.790  -3.072   9.538  1.00  0.00    -0.014 A 
BRANCH  42  43
ATOM     43  C   UNL     1       4.153  -2.854  10.090  1.00  0.00     0.031 A 
ATOM     44  C   UNL     1       4.696  -1.452  10.191  1.00  0.00     0.074 A 
ATOM     45  C   UNL     1       4.887  -3.891  10.536  1.00  0.00     0.049 A 
ATOM     46  N   UNL     1       5.864  -1.043  10.616  1.00  0.00    -0.248 NA
ATOM     47  C   UNL     1       3.800  -0.367   9.760  1.00  0.00     0.031 C 
ATOM     48  C   UNL     1       4.458  -5.289  10.534  1.00  0.00     0.029 A 
ATOM     49  N   UNL     1       6.150  -3.928  11.073  1.00  0.00    -0.354 N 
ATOM     50  C   UNL     1       5.849   0.343  10.496  1.00  0.00     0.074 A 
ATOM     51  C   UNL     1       4.564   0.702   9.935  1.00  0.00     0.031 C 
ATOM     52  C   UNL     1       5.446  -6.049  11.037  1.00  0.00     0.029 A 
ATOM     53  C   UNL     1       6.589  -5.197  11.364  1.00  0.00     0.049 A 
ATOM     54  H   UNL     1       6.691  -3.121  11.235  1.00  0.00     0.167 HD
ATOM     55  C   UNL     1       6.814   1.233  10.830  1.00  0.00     0.037 A 
ATOM     56  C   UNL     1       7.783  -5.628  11.819  1.00  0.00     0.037 A 
ATOM     57  C   UNL     1       8.090   0.872  11.394  1.00  0.00     0.049 A 
ATOM     58  C   UNL     1       8.867  -4.625  12.117  1.00  0.00     0.074 A 
ATOM     59  C   UNL     1       9.124   1.704  11.785  1.00  0.00     0.029 A 
ATOM     60  N   UNL     1       8.510  -0.427  11.639  1.00  0.00    -0.354 N 
ATOM     61  N   UNL     1       8.831  -3.317  12.017  1.00  0.00    -0.248 NA
ATOM     62  C   UNL     1      10.154  -5.155  12.591  1.00  0.00     0.031 C 
ATOM     63  C   UNL     1      10.188   0.906  12.220  1.00  0.00     0.029 A 
ATOM     64  C   UNL     1       9.798  -0.421  12.149  1.00  0.00     0.049 A 
ATOM     65  H   UNL     1       7.971  -1.235  11.474  1.00  0.00     0.167 HD
ATOM     66  C   UNL     1      10.080  -2.868  12.436  1.00  0.00     0.074 A 
ATOM     67  C   UNL     1      10.845  -4.042  12.802  1.00  0.00     0.031 C 
ATOM     68  C   UNL     1      10.549  -1.598  12.513  1.00  0.00     0.037 A 
BRANCH  55  69
ATOM     69  C   UNL     1       6.541   2.690  10.572  1.00  0.00     0.058 A 
ATOM     70  C   UNL     1       5.633   3.424  11.352  1.00  0.00     0.135 A 
ATOM     71  C   UNL     1       7.228   3.372   9.554  1.00  0.00     0.135 A 
ATOM     72  F   UNL     1       4.939   2.820  12.329  1.00  0.00    -0.206 F 
ATOM     73  C   UNL     1       5.397   4.775  11.116  1.00  0.00     0.059 A 
ATOM     74  C   UNL     1       7.027   4.729   9.316  1.00  0.00     0.059 A 
ATOM     75  F   UNL     1       8.107   2.719   8.778  1.00  0.00    -0.206 F 
ATOM     76  C   UNL     1       6.098   5.419  10.094  1.00  0.00     0.060 A 
BRANCH  76  77
ATOM     77  S   UNL     1       5.782   7.172   9.800  1.00  0.00     0.124 S 
ATOM     78  O   UNL     1       4.461   7.129   9.180  1.00  0.00    -0.237 OA
ATOM     79  O   UNL     1       5.832   7.730  11.147  1.00  0.00    -0.237 OA
ATOM     80  O   UNL     1       6.875   7.572   8.918  1.00  0.00    -0.744 OA
ENDBRANCH  76  77
ENDBRANCH  55  69
BRANCH  56  81
ATOM     81  C   UNL     1       8.024  -7.084  12.001  1.00  0.00     0.058 A 
ATOM     82  C   UNL     1       8.168  -7.645  13.278  1.00  0.00     0.135 A 
ATOM     83  C   UNL     1       8.113  -7.946  10.895  1.00  0.00     0.135 A 
ATOM     84  F   UNL     1       8.105  -6.861  14.365  1.00  0.00    -0.206 F 
ATOM     85  C   UNL     1       8.399  -9.005  13.455  1.00  0.00     0.059 A 
ATOM     86  C   UNL     1       8.317  -9.313  11.047  1.00  0.00     0.059 A 
ATOM     87  F   UNL     1       7.975  -7.461   9.652  1.00  0.00    -0.206 F 
ATOM     88  C   UNL     1       8.468  -9.832  12.332  1.00  0.00     0.060 A 
BRANCH  88  89
ATOM     89  S   UNL     1       8.715 -11.605  12.574  1.00  0.00     0.124 S 
ATOM     90  O   UNL     1      10.122 -11.657  12.954  1.00  0.00    -0.237 OA
ATOM     91  O   UNL     1       7.755 -11.907  13.632  1.00  0.00    -0.237 OA
ATOM     92  O   UNL     1       8.392 -12.169  11.267  1.00  0.00    -0.744 OA
ENDBRANCH  88  89
ENDBRANCH  56  81
BRANCH  68  93
ATOM     93  C   UNL     1      11.945  -1.401  13.037  1.00  0.00     0.058 A 
ATOM     94  C   UNL     1      13.074  -1.722  12.267  1.00  0.00     0.135 A 
ATOM     95  C   UNL     1      12.157  -0.825  14.300  1.00  0.00     0.135 A 
ATOM     96  F   UNL     1      12.929  -2.281  11.055  1.00  0.00    -0.206 F 
ATOM     97  C   UNL     1      14.364  -1.496  12.739  1.00  0.00     0.059 A 
ATOM     98  C   UNL     1      13.437  -0.566  14.781  1.00  0.00     0.059 A 
ATOM     99  F   UNL     1      11.112  -0.489  15.074  1.00  0.00    -0.206 F 
ATOM    100  C   UNL     1      14.535  -0.914  13.996  1.00  0.00     0.060 A 
BRANCH 100 101
ATOM    101  S   UNL     1      16.213  -0.587  14.578  1.00  0.00     0.124 S 
ATOM    102  O   UNL     1      16.675  -1.929  14.914  1.00  0.00    -0.237 OA
ATOM    103  O   UNL     1      16.837   0.024  13.408  1.00  0.00    -0.237 OA
ATOM    104  O   UNL     1      16.011   0.310  15.713  1.00  0.00    -0.744 OA
ENDBRANCH 100 101
ENDBRANCH  68  93
ENDBRANCH  42  43
ENDBRANCH  35  37
ENDBRANCH  34  35
ENDBRANCH  33  34
ENDBRANCH  32  33
ENDBRANCH   1  32
TORSDOF 20
