REMARK SMILES NS(=O)(=O)c1ccc(-n2nc(C(F)F)cc2-c2ccc(C(=O)OCCOCCOC(=O)c3ccc(-c4c5nc(c(-c6c(F)cc(S(=O)(=O)[O-])cc6F)c6ccc([nH]6)c(-c6c(F)cc(S(=O)(=O)[O-])cc6F)c6nc(c(-c7c(F)cc(S(=O)(=O)[O-])cc7F)c7ccc4[nH]7)C=C6)C=C5)cc3)cc2)cc1
REMARK SMILES IDX 25 1 24 2 23 3 21 4 22 5 20 6 17 7 18 8 99 9 19 10 98 11
REMARK SMILES IDX 16 12 9 13 10 14 11 15 15 16 8 17 5 18 6 19 101 20 7 21
REMARK SMILES IDX 100 22 2 23 3 24 4 25 1 26 12 29 13 30 14 31 26 32 27 33
REMARK SMILES IDX 28 34 29 35 30 36 31 37 32 38 33 39 97 40 34 41 96 42 35 43
REMARK SMILES IDX 36 44 37 45 90 46 38 47 95 48 89 49 91 50 39 51 94 52 88 53
REMARK SMILES IDX 87 54 40 56 74 57 53 58 73 59 54 60 57 61 72 62 92 63 55 64
REMARK SMILES IDX 56 65 71 67 93 68 58 69 41 70 42 71 51 72 43 73 44 74 50 75
REMARK SMILES IDX 52 76 45 77 46 78 47 79 48 80 49 81 75 82 76 83 85 84 77 85
REMARK SMILES IDX 78 86 84 87 86 88 79 89 80 90 81 91 82 92 83 93 59 94 60 95
REMARK SMILES IDX 69 96 61 97 62 98 68 99 70 100 63 101 64 102 65 103 66 104
REMARK SMILES IDX 67 105
REMARK H PARENT 1 27 1 28 91 55 57 66
REMARK Flexibility Score: inf
ROOT
ATOM      1  C   UNL     1      -5.207  -6.602  -6.533  1.00  0.00     0.202 C 
ENDROOT
BRANCH   1   2
ATOM      2  C   UNL     1      -4.604  -6.346  -7.915  1.00  0.00     0.261 C 
BRANCH   2   3
ATOM      3  O   UNL     1      -3.248  -5.884  -7.851  1.00  0.00    -0.460 OA
BRANCH   3   4
ATOM      4  C   UNL     1      -3.095  -4.575  -8.160  1.00  0.00     0.338 C 
ATOM      5  O   UNL     1      -3.963  -3.800  -8.530  1.00  0.00    -0.246 OA
BRANCH   4   6
ATOM      6  C   UNL     1      -1.727  -4.122  -7.840  1.00  0.00     0.060 A 
ATOM      7  C   UNL     1       0.816  -3.028  -7.460  1.00  0.00     0.000 A 
ATOM      8  C   UNL     1      -0.327  -2.287  -7.129  1.00  0.00     0.011 A 
ATOM      9  C   UNL     1       0.676  -4.347  -7.914  1.00  0.00     0.011 A 
ATOM     10  C   UNL     1      -1.593  -2.830  -7.321  1.00  0.00     0.016 A 
ATOM     11  C   UNL     1      -0.596  -4.902  -8.094  1.00  0.00     0.016 A 
BRANCH   7  12
ATOM     12  C   UNL     1       2.125  -2.377  -7.446  1.00  0.00     0.075 A 
ATOM     13  N   UNL     1       2.645  -1.612  -6.410  1.00  0.00    -0.233 N 
ATOM     14  N   UNL     1       3.658  -0.813  -6.833  1.00  0.00    -0.166 NA
ATOM     15  C   UNL     1       3.948  -1.255  -8.070  1.00  0.00     0.129 A 
ATOM     16  C   UNL     1       2.996  -2.207  -8.503  1.00  0.00     0.060 A 
BRANCH  13  17
ATOM     17  C   UNL     1       2.203  -1.578  -5.063  1.00  0.00     0.065 A 
ATOM     18  C   UNL     1       1.181  -1.501  -2.479  1.00  0.00     0.082 A 
ATOM     19  C   UNL     1       1.310  -2.729  -3.131  1.00  0.00     0.024 A 
ATOM     20  C   UNL     1       1.590  -0.313  -3.097  1.00  0.00     0.024 A 
ATOM     21  C   UNL     1       1.805  -2.767  -4.433  1.00  0.00     0.030 A 
ATOM     22  C   UNL     1       2.133  -0.355  -4.385  1.00  0.00     0.030 A 
BRANCH  18  23
ATOM     23  S   UNL     1       0.539  -1.492  -0.833  1.00  0.00     0.238 S 
ATOM     24  O   UNL     1       1.060  -2.645  -0.126  1.00  0.00    -0.207 OA
ATOM     25  O   UNL     1      -0.862  -1.179  -0.895  1.00  0.00    -0.207 OA
BRANCH  23  26
ATOM     26  N   UNL     1       1.288  -0.171  -0.110  1.00  0.00    -0.225 NA
ATOM     27  H   UNL     1       0.973  -0.088   0.856  1.00  0.00     0.137 HD
ATOM     28  H   UNL     1       1.047   0.678  -0.621  1.00  0.00     0.137 HD
ENDBRANCH  23  26
ENDBRANCH  18  23
ENDBRANCH  13  17
BRANCH  15  29
ATOM     29  C   UNL     1       5.104  -0.741  -8.875  1.00  0.00     0.393 C 
ATOM     30  F   UNL     1       5.210   0.615  -8.837  1.00  0.00    -0.203 F 
ATOM     31  F   UNL     1       6.289  -1.240  -8.428  1.00  0.00    -0.203 F 
ENDBRANCH  15  29
ENDBRANCH   7  12
ENDBRANCH   4   6
ENDBRANCH   3   4
ENDBRANCH   2   3
ENDBRANCH   1   2
BRANCH   1  32
ATOM     32  O   UNL     1      -5.327  -5.507  -5.627  1.00  0.00    -0.374 OA
BRANCH  32  33
ATOM     33  C   UNL     1      -4.165  -4.929  -5.041  1.00  0.00     0.202 C 
BRANCH  33  34
ATOM     34  C   UNL     1      -3.361  -5.735  -4.032  1.00  0.00     0.261 C 
BRANCH  34  35
ATOM     35  O   UNL     1      -2.905  -6.967  -4.563  1.00  0.00    -0.460 OA
BRANCH  35  36
ATOM     36  C   UNL     1      -3.649  -8.027  -4.169  1.00  0.00     0.338 C 
ATOM     37  O   UNL     1      -4.771  -8.005  -3.693  1.00  0.00    -0.246 OA
BRANCH  36  38
ATOM     38  C   UNL     1      -2.829  -9.235  -4.271  1.00  0.00     0.060 A 
ATOM     39  C   UNL     1      -3.431 -10.424  -3.857  1.00  0.00     0.016 A 
ATOM     40  C   UNL     1      -1.442  -9.109  -4.430  1.00  0.00     0.016 A 
ATOM     41  C   UNL     1      -2.621 -11.411  -3.349  1.00  0.00     0.010 A 
ATOM     42  C   UNL     1      -0.638 -10.085  -3.905  1.00  0.00     0.010 A 
ATOM     43  C   UNL     1      -1.245 -11.172  -3.283  1.00  0.00    -0.014 A 
BRANCH  43  44
ATOM     44  C   UNL     1      -0.406 -12.162  -2.651  1.00  0.00     0.031 A 
ATOM     45  C   UNL     1      -0.227 -13.340  -3.525  1.00  0.00     0.074 A 
ATOM     46  C   UNL     1       0.208 -11.936  -1.474  1.00  0.00     0.049 A 
ATOM     47  N   UNL     1      -0.781 -14.499  -3.398  1.00  0.00    -0.248 NA
ATOM     48  C   UNL     1       0.418 -13.128  -4.835  1.00  0.00     0.031 C 
ATOM     49  C   UNL     1       0.263 -10.694  -0.699  1.00  0.00     0.029 A 
ATOM     50  N   UNL     1       1.011 -12.771  -0.761  1.00  0.00    -0.354 N 
ATOM     51  C   UNL     1      -0.300 -15.242  -4.469  1.00  0.00     0.074 A 
ATOM     52  C   UNL     1       0.171 -14.291  -5.437  1.00  0.00     0.031 C 
ATOM     53  C   UNL     1       1.236 -10.792   0.238  1.00  0.00     0.029 A 
ATOM     54  C   UNL     1       1.779 -12.138   0.217  1.00  0.00     0.049 A 
ATOM     55  H   UNL     1       1.047 -13.742  -0.922  1.00  0.00     0.167 HD
ATOM     56  C   UNL     1      -0.007 -16.561  -4.314  1.00  0.00     0.037 A 
ATOM     57  C   UNL     1       2.832 -12.696   0.875  1.00  0.00     0.037 A 
ATOM     58  C   UNL     1      -0.655 -17.095  -3.140  1.00  0.00     0.049 A 
ATOM     59  C   UNL     1       2.681 -14.174   0.740  1.00  0.00     0.074 A 
ATOM     60  C   UNL     1      -1.968 -17.190  -2.718  1.00  0.00     0.029 A 
ATOM     61  N   UNL     1       0.117 -17.258  -2.014  1.00  0.00    -0.354 N 
ATOM     62  N   UNL     1       1.699 -14.848   1.280  1.00  0.00    -0.248 NA
ATOM     63  C   UNL     1       3.312 -14.808  -0.409  1.00  0.00     0.031 C 
ATOM     64  C   UNL     1      -1.927 -16.934  -1.316  1.00  0.00     0.029 A 
ATOM     65  C   UNL     1      -0.591 -16.782  -0.940  1.00  0.00     0.049 A 
ATOM     66  H   UNL     1       1.020 -17.648  -1.984  1.00  0.00     0.167 HD
ATOM     67  C   UNL     1       1.308 -15.753   0.301  1.00  0.00     0.074 A 
ATOM     68  C   UNL     1       2.376 -15.717  -0.697  1.00  0.00     0.031 C 
ATOM     69  C   UNL     1       0.024 -16.217   0.242  1.00  0.00     0.037 A 
BRANCH  56  70
ATOM     70  C   UNL     1       1.188 -17.229  -4.957  1.00  0.00     0.058 A 
ATOM     71  C   UNL     1       1.336 -18.623  -4.821  1.00  0.00     0.135 A 
ATOM     72  C   UNL     1       2.325 -16.545  -5.451  1.00  0.00     0.135 A 
ATOM     73  F   UNL     1       0.326 -19.375  -4.356  1.00  0.00    -0.206 F 
ATOM     74  C   UNL     1       2.542 -19.275  -5.081  1.00  0.00     0.059 A 
ATOM     75  C   UNL     1       3.515 -17.182  -5.769  1.00  0.00     0.059 A 
ATOM     76  F   UNL     1       2.384 -15.215  -5.567  1.00  0.00    -0.206 F 
ATOM     77  C   UNL     1       3.629 -18.540  -5.543  1.00  0.00     0.060 A 
BRANCH  77  78
ATOM     78  S   UNL     1       5.209 -19.358  -5.804  1.00  0.00     0.124 S 
ATOM     79  O   UNL     1       5.591 -19.692  -4.437  1.00  0.00    -0.237 OA
ATOM     80  O   UNL     1       4.827 -20.478  -6.657  1.00  0.00    -0.237 OA
ATOM     81  O   UNL     1       6.016 -18.330  -6.454  1.00  0.00    -0.744 OA
ENDBRANCH  77  78
ENDBRANCH  56  70
BRANCH  57  82
ATOM     82  C   UNL     1       4.133 -12.058   1.231  1.00  0.00     0.058 A 
ATOM     83  C   UNL     1       5.066 -12.705   2.067  1.00  0.00     0.135 A 
ATOM     84  C   UNL     1       4.616 -10.935   0.529  1.00  0.00     0.135 A 
ATOM     85  F   UNL     1       4.705 -13.797   2.758  1.00  0.00    -0.206 F 
ATOM     86  C   UNL     1       6.404 -12.295   2.159  1.00  0.00     0.059 A 
ATOM     87  C   UNL     1       5.941 -10.504   0.612  1.00  0.00     0.059 A 
ATOM     88  F   UNL     1       3.837 -10.274  -0.339  1.00  0.00    -0.206 F 
ATOM     89  C   UNL     1       6.838 -11.203   1.409  1.00  0.00     0.060 A 
BRANCH  89  90
ATOM     90  S   UNL     1       8.597 -10.773   1.378  1.00  0.00     0.124 S 
ATOM     91  O   UNL     1       8.806 -10.257   2.726  1.00  0.00    -0.237 OA
ATOM     92  O   UNL     1       9.225 -12.056   1.082  1.00  0.00    -0.237 OA
ATOM     93  O   UNL     1       8.684  -9.780   0.310  1.00  0.00    -0.744 OA
ENDBRANCH  89  90
ENDBRANCH  57  82
BRANCH  69  94
ATOM     94  C   UNL     1      -0.886 -15.963   1.418  1.00  0.00     0.058 A 
ATOM     95  C   UNL     1      -1.320 -14.693   1.842  1.00  0.00     0.135 A 
ATOM     96  C   UNL     1      -1.466 -17.077   2.041  1.00  0.00     0.135 A 
ATOM     97  F   UNL     1      -0.892 -13.579   1.230  1.00  0.00    -0.206 F 
ATOM     98  C   UNL     1      -2.260 -14.541   2.866  1.00  0.00     0.059 A 
ATOM     99  C   UNL     1      -2.426 -16.951   3.039  1.00  0.00     0.059 A 
ATOM    100  F   UNL     1      -1.140 -18.316   1.639  1.00  0.00    -0.206 F 
ATOM    101  C   UNL     1      -2.808 -15.680   3.459  1.00  0.00     0.060 A 
BRANCH 101 102
ATOM    102  S   UNL     1      -4.065 -15.495   4.743  1.00  0.00     0.124 S 
ATOM    103  O   UNL     1      -3.290 -14.959   5.857  1.00  0.00    -0.237 OA
ATOM    104  O   UNL     1      -5.015 -14.573   4.128  1.00  0.00    -0.237 OA
ATOM    105  O   UNL     1      -4.565 -16.856   4.930  1.00  0.00    -0.744 OA
ENDBRANCH 101 102
ENDBRANCH  69  94
ENDBRANCH  43  44
ENDBRANCH  36  38
ENDBRANCH  35  36
ENDBRANCH  34  35
ENDBRANCH  33  34
ENDBRANCH  32  33
ENDBRANCH   1  32
TORSDOF 22
