REMARK SMILES Cc1ccc(-c2nc(NC(=O)[C@H]3[C@@H](C(=O)OCCOCCOC(=O)c4ccc(-c5c6nc(c(-c7c(F)cc(S(=O)(=O)[O-])cc7F)c7ccc([nH]7)c(-c7c(F)cc(S(=O)(=O)[O-])cc7F)c7nc(c(-c8c(F)cc(S(=O)(=O)[O-])cc8F)c8ccc5[nH]8)C=C7)C=C6)cc4)[C@@H]4CC[C@H]3O4)sc2C)cc1
REMARK SMILES IDX 19 1 18 2 17 3 16 4 14 5 15 6 13 7 12 8 94 9 91 10 93 11
REMARK SMILES IDX 95 12 92 13 10 14 9 15 11 17 8 18 6 19 7 20 97 21 96 22
REMARK SMILES IDX 98 23 5 24 1 25 2 26 3 27 100 28 4 29 99 30 20 31 21 32
REMARK SMILES IDX 22 33 23 34 24 35 25 36 26 37 90 38 27 39 89 40 28 41 29 42
REMARK SMILES IDX 30 43 83 44 31 45 88 46 82 47 84 48 32 49 87 50 81 51 80 52
REMARK SMILES IDX 33 54 67 55 46 56 66 57 47 58 50 59 65 60 85 61 48 62 49 63
REMARK SMILES IDX 64 65 86 66 51 67 34 68 35 69 44 70 36 71 37 72 43 73 45 74
REMARK SMILES IDX 38 75 39 76 40 77 41 78 42 79 68 80 69 81 78 82 70 83 71 84
REMARK SMILES IDX 77 85 79 86 72 87 73 88 74 89 75 90 76 91 52 92 53 93 62 94
REMARK SMILES IDX 54 95 55 96 61 97 63 98 56 99 57 100 58 101 59 102 60 103
REMARK H PARENT 9 16 84 53 50 64
REMARK Flexibility Score: inf
ROOT
ATOM      1  O   UNL     1      -7.839   2.327  -2.579  1.00  0.00    -0.374 OA
ENDROOT
BRANCH   1   2
ATOM      2  C   UNL     1      -7.058   1.289  -1.972  1.00  0.00     0.202 C 
BRANCH   2   3
ATOM      3  C   UNL     1      -7.120   1.325  -0.418  1.00  0.00     0.261 C 
BRANCH   3   4
ATOM      4  O   UNL     1      -8.311   1.239   0.497  1.00  0.00    -0.463 OA
BRANCH   4   5
ATOM      5  C   UNL     1      -9.287   0.552   1.114  1.00  0.00     0.312 C 
ATOM      6  O   UNL     1      -9.791   0.926   2.176  1.00  0.00    -0.252 OA
BRANCH   5   7
ATOM      7  C   UNL     1      -9.787  -0.713   0.559  1.00  0.00     0.143 C 
ATOM      8  C   UNL     1      -9.462  -0.871  -0.872  1.00  0.00     0.124 C 
ATOM      9  C   UNL     1     -10.409  -2.023  -1.214  1.00  0.00     0.132 C 
ATOM     10  C   UNL     1     -11.312  -1.054   0.512  1.00  0.00     0.133 C 
ATOM     11  C   UNL     1     -10.563  -3.164  -0.168  1.00  0.00     0.035 C 
ATOM     12  O   UNL     1     -11.615  -1.270  -0.915  1.00  0.00    -0.373 OA
ATOM     13  C   UNL     1     -11.512  -2.519   0.867  1.00  0.00     0.036 C 
BRANCH   8  14
ATOM     14  C   UNL     1      -9.860   0.290  -1.834  1.00  0.00     0.232 C 
ATOM     15  N   UNL     1     -10.109   1.615  -1.634  1.00  0.00    -0.302 N 
ATOM     16  H   UNL     1     -10.024   2.045  -2.516  1.00  0.00     0.172 HD
ATOM     17  O   UNL     1      -9.757  -0.030  -3.039  1.00  0.00    -0.274 OA
BRANCH  15  18
ATOM     18  C   UNL     1     -10.427   2.621  -0.745  1.00  0.00     0.190 A 
ATOM     19  C   UNL     1     -10.263   4.698   0.114  1.00  0.00     0.086 A 
ATOM     20  N   UNL     1      -9.863   3.807  -0.880  1.00  0.00    -0.220 NA
ATOM     21  C   UNL     1     -11.383   4.268   0.794  1.00  0.00     0.031 A 
ATOM     22  S   UNL     1     -11.753   2.623   0.319  1.00  0.00    -0.101 S 
ATOM     23  C   UNL     1     -12.157   4.970   1.848  1.00  0.00     0.059 C 
BRANCH  19  24
ATOM     24  C   UNL     1      -9.366   5.815   0.523  1.00  0.00     0.001 A 
ATOM     25  C   UNL     1      -5.502   8.821   1.712  1.00  0.00     0.044 C 
ATOM     26  C   UNL     1      -6.220   7.557   1.262  1.00  0.00    -0.051 A 
ATOM     27  C   UNL     1      -6.935   7.622  -0.389  1.00  0.00     0.004 A 
ATOM     28  C   UNL     1      -7.019   6.585   2.559  1.00  0.00     0.004 A 
ATOM     29  C   UNL     1      -8.472   6.705  -0.768  1.00  0.00     0.010 A 
ATOM     30  C   UNL     1      -8.680   5.849   2.219  1.00  0.00     0.010 A 
ENDBRANCH  19  24
ENDBRANCH  15  18
ENDBRANCH   8  14
ENDBRANCH   5   7
ENDBRANCH   4   5
ENDBRANCH   3   4
ENDBRANCH   2   3
ENDBRANCH   1   2
BRANCH   1  31
ATOM     31  C   UNL     1      -8.006   2.346  -3.999  1.00  0.00     0.202 C 
BRANCH  31  32
ATOM     32  C   UNL     1      -6.780   2.126  -4.890  1.00  0.00     0.261 C 
BRANCH  32  33
ATOM     33  O   UNL     1      -5.997   3.314  -5.166  1.00  0.00    -0.460 OA
BRANCH  33  34
ATOM     34  C   UNL     1      -4.867   3.553  -4.421  1.00  0.00     0.338 C 
ATOM     35  O   UNL     1      -3.743   3.348  -4.845  1.00  0.00    -0.246 OA
BRANCH  34  36
ATOM     36  C   UNL     1      -5.185   4.335  -3.189  1.00  0.00     0.060 A 
ATOM     37  C   UNL     1      -4.371   4.476  -2.055  1.00  0.00     0.016 A 
ATOM     38  C   UNL     1      -6.451   4.846  -3.131  1.00  0.00     0.016 A 
ATOM     39  C   UNL     1      -4.893   5.051  -0.851  1.00  0.00     0.010 A 
ATOM     40  C   UNL     1      -7.002   4.997  -1.887  1.00  0.00     0.010 A 
ATOM     41  C   UNL     1      -6.277   5.289  -0.725  1.00  0.00    -0.014 A 
BRANCH  41  42
ATOM     42  C   UNL     1      -7.198   5.689   0.655  1.00  0.00     0.031 A 
ATOM     43  C   UNL     1      -8.298   7.485   1.136  1.00  0.00     0.074 A 
ATOM     44  C   UNL     1      -7.137   4.332   1.237  1.00  0.00     0.049 A 
ATOM     45  N   UNL     1      -8.485   8.102   2.366  1.00  0.00    -0.248 NA
ATOM     46  C   UNL     1      -9.264   8.576   0.308  1.00  0.00     0.031 C 
ATOM     47  C   UNL     1      -8.161   3.557   2.028  1.00  0.00     0.029 A 
ATOM     48  N   UNL     1      -6.011   3.509   1.502  1.00  0.00    -0.354 N 
ATOM     49  C   UNL     1      -9.671   8.730   2.522  1.00  0.00     0.074 A 
ATOM     50  C   UNL     1     -10.058   9.145   1.215  1.00  0.00     0.031 C 
ATOM     51  C   UNL     1      -7.623   2.720   2.894  1.00  0.00     0.029 A 
ATOM     52  C   UNL     1      -6.228   2.735   2.641  1.00  0.00     0.049 A 
ATOM     53  H   UNL     1      -5.191   3.488   0.958  1.00  0.00     0.167 HD
ATOM     54  C   UNL     1     -10.291   8.741   3.738  1.00  0.00     0.037 A 
ATOM     55  C   UNL     1      -5.398   2.294   3.597  1.00  0.00     0.037 A 
ATOM     56  C   UNL     1      -9.910   7.619   4.644  1.00  0.00     0.049 A 
ATOM     57  C   UNL     1      -5.786   2.983   4.879  1.00  0.00     0.074 A 
ATOM     58  C   UNL     1     -10.597   6.470   5.024  1.00  0.00     0.029 A 
ATOM     59  N   UNL     1      -8.606   7.427   5.130  1.00  0.00    -0.354 N 
ATOM     60  N   UNL     1      -6.509   4.090   4.883  1.00  0.00    -0.248 NA
ATOM     61  C   UNL     1      -5.480   2.512   6.222  1.00  0.00     0.031 C 
ATOM     62  C   UNL     1      -9.692   5.570   5.660  1.00  0.00     0.029 A 
ATOM     63  C   UNL     1      -8.444   6.171   5.745  1.00  0.00     0.049 A 
ATOM     64  H   UNL     1      -7.887   8.095   5.050  1.00  0.00     0.167 HD
ATOM     65  C   UNL     1      -6.692   4.517   6.167  1.00  0.00     0.074 A 
ATOM     66  C   UNL     1      -6.045   3.481   6.966  1.00  0.00     0.031 C 
ATOM     67  C   UNL     1      -7.226   5.744   6.474  1.00  0.00     0.037 A 
BRANCH  54  68
ATOM     68  C   UNL     1     -11.463   9.673   3.930  1.00  0.00     0.058 A 
ATOM     69  C   UNL     1     -12.509   9.444   4.837  1.00  0.00     0.135 A 
ATOM     70  C   UNL     1     -11.528  10.909   3.239  1.00  0.00     0.135 A 
ATOM     71  F   UNL     1     -12.526   8.361   5.626  1.00  0.00    -0.206 F 
ATOM     72  C   UNL     1     -13.581  10.334   4.979  1.00  0.00     0.059 A 
ATOM     73  C   UNL     1     -12.619  11.764   3.298  1.00  0.00     0.059 A 
ATOM     74  F   UNL     1     -10.502  11.347   2.491  1.00  0.00    -0.206 F 
ATOM     75  C   UNL     1     -13.640  11.476   4.185  1.00  0.00     0.060 A 
BRANCH  75  76
ATOM     76  S   UNL     1     -15.036  12.604   4.324  1.00  0.00     0.124 S 
ATOM     77  O   UNL     1     -16.173  11.691   4.375  1.00  0.00    -0.237 OA
ATOM     78  O   UNL     1     -14.725  13.309   5.562  1.00  0.00    -0.237 OA
ATOM     79  O   UNL     1     -14.944  13.404   3.105  1.00  0.00    -0.744 OA
ENDBRANCH  75  76
ENDBRANCH  54  68
BRANCH  55  80
ATOM     80  C   UNL     1      -4.329   1.432   3.058  1.00  0.00     0.058 A 
ATOM     81  C   UNL     1      -4.737   0.145   2.618  1.00  0.00     0.135 A 
ATOM     82  C   UNL     1      -3.298   2.047   2.337  1.00  0.00     0.135 A 
ATOM     83  F   UNL     1      -5.739  -0.494   3.248  1.00  0.00    -0.206 F 
ATOM     84  C   UNL     1      -4.299  -0.397   1.408  1.00  0.00     0.059 A 
ATOM     85  C   UNL     1      -2.873   1.540   1.108  1.00  0.00     0.059 A 
ATOM     86  F   UNL     1      -2.889   3.275   2.689  1.00  0.00    -0.206 F 
ATOM     87  C   UNL     1      -3.432   0.355   0.619  1.00  0.00     0.060 A 
BRANCH  87  88
ATOM     88  S   UNL     1      -3.317  -0.008  -1.160  1.00  0.00     0.124 S 
ATOM     89  O   UNL     1      -2.134  -0.855  -1.219  1.00  0.00    -0.237 OA
ATOM     90  O   UNL     1      -4.591  -0.671  -1.439  1.00  0.00    -0.237 OA
ATOM     91  O   UNL     1      -3.192   1.323  -1.741  1.00  0.00    -0.744 OA
ENDBRANCH  87  88
ENDBRANCH  55  80
BRANCH  67  92
ATOM     92  C   UNL     1      -6.691   6.547   7.643  1.00  0.00     0.058 A 
ATOM     93  C   UNL     1      -5.428   6.314   8.233  1.00  0.00     0.135 A 
ATOM     94  C   UNL     1      -7.366   7.693   8.115  1.00  0.00     0.135 A 
ATOM     95  F   UNL     1      -4.600   5.356   7.794  1.00  0.00    -0.206 F 
ATOM     96  C   UNL     1      -4.931   7.084   9.279  1.00  0.00     0.059 A 
ATOM     97  C   UNL     1      -6.851   8.522   9.107  1.00  0.00     0.059 A 
ATOM     98  F   UNL     1      -8.551   8.072   7.617  1.00  0.00    -0.206 F 
ATOM     99  C   UNL     1      -5.652   8.185   9.713  1.00  0.00     0.060 A 
BRANCH  99 100
ATOM    100  S   UNL     1      -4.992   9.183  11.053  1.00  0.00     0.124 S 
ATOM    101  O   UNL     1      -5.349   8.374  12.214  1.00  0.00    -0.237 OA
ATOM    102  O   UNL     1      -3.568   9.238  10.735  1.00  0.00    -0.237 OA
ATOM    103  O   UNL     1      -5.707  10.447  10.916  1.00  0.00    -0.744 OA
ENDBRANCH  99 100
ENDBRANCH  67  92
ENDBRANCH  41  42
ENDBRANCH  34  36
ENDBRANCH  33  34
ENDBRANCH  32  33
ENDBRANCH  31  32
ENDBRANCH   1  31
TORSDOF 20
