REMARK SMILES C=CC[N@@H+](CC(=O)OCCOCCOC(=O)c1ccc(-c2c3nc(c(-c4c(F)cc(S(=O)(=O)[O-])cc4F)c4ccc([nH]4)c(-c4c(F)cc(S(=O)(=O)[O-])cc4F)c4nc(c(-c5c(F)cc(S(=O)(=O)[O-])cc5F)c5ccc2[nH]5)C=C4)C=C3)cc1)[C@@H]1CC[N@@H+](C(C)C)C1
REMARK SMILES IDX 11 1 10 2 9 3 8 4 6 5 7 6 5 7 4 8 3 10 2 11 1 12 83 13 84 14
REMARK SMILES IDX 90 15 85 16 86 17 87 19 88 20 89 21 12 22 13 23 14 24 15 25
REMARK SMILES IDX 16 26 17 27 18 28 82 29 19 30 81 31 20 32 21 33 22 34 75 35
REMARK SMILES IDX 23 36 80 37 74 38 76 39 24 40 79 41 73 42 72 43 25 45 59 46
REMARK SMILES IDX 38 47 58 48 39 49 42 50 57 51 77 52 40 53 41 54 56 56 78 57
REMARK SMILES IDX 43 58 26 59 27 60 36 61 28 62 29 63 35 64 37 65 30 66 31 67
REMARK SMILES IDX 32 68 33 69 34 70 60 71 61 72 70 73 62 74 63 75 69 76 71 77
REMARK SMILES IDX 64 78 65 79 66 80 67 81 68 82 44 83 45 84 54 85 46 86 47 87
REMARK SMILES IDX 53 88 55 89 48 90 49 91 50 92 51 93 52 94
REMARK H PARENT 4 9 86 18 76 44 42 55
REMARK Flexibility Score: inf
ROOT
ATOM      1  O   UNL     1      -4.637  -2.447  -2.264  1.00  0.00    -0.374 OA
ENDROOT
BRANCH   1   2
ATOM      2  C   UNL     1      -4.519  -1.028  -2.312  1.00  0.00     0.202 C 
BRANCH   2   3
ATOM      3  C   UNL     1      -4.708  -0.250  -1.005  1.00  0.00     0.261 C 
BRANCH   3   4
ATOM      4  O   UNL     1      -3.706  -0.522   0.002  1.00  0.00    -0.459 OA
BRANCH   4   5
ATOM      5  C   UNL     1      -4.175  -0.692   1.269  1.00  0.00     0.361 C 
ATOM      6  O   UNL     1      -5.371  -0.764   1.546  1.00  0.00    -0.245 OA
BRANCH   5   7
ATOM      7  C   UNL     1      -3.123  -0.697   2.385  1.00  0.00     0.387 C 
BRANCH   7   8
ATOM      8  N   UNL     1      -1.717  -0.949   2.056  1.00  0.00    -0.315 N 
ATOM      9  H   UNL     1      -1.296  -0.705   2.952  1.00  0.00     0.349 HD
BRANCH   8  10
ATOM     10  C   UNL     1      -1.098   0.013   1.153  1.00  0.00     0.291 C 
BRANCH  10  11
ATOM     11  C   UNL     1       0.378   0.182   1.379  1.00  0.00     0.025 C 
ATOM     12  C   UNL     1       1.286   0.150   0.394  1.00  0.00     0.010 C 
ENDBRANCH  10  11
ENDBRANCH   8  10
BRANCH   8  13
ATOM     13  C   UNL     1      -1.183  -2.313   2.103  1.00  0.00     0.246 C 
ATOM     14  C   UNL     1      -2.119  -3.499   1.823  1.00  0.00     0.132 C 
ATOM     15  C   UNL     1      -0.590  -2.669   3.489  1.00  0.00     0.328 C 
ATOM     16  C   UNL     1      -1.987  -4.453   2.993  1.00  0.00     0.269 C 
ATOM     17  N   UNL     1      -0.728  -4.127   3.659  1.00  0.00    -0.328 N 
ATOM     18  H   UNL     1      -0.731  -4.358   4.653  1.00  0.00     0.348 HD
BRANCH  17  19
ATOM     19  C   UNL     1       0.410  -4.961   3.228  1.00  0.00     0.177 C 
ATOM     20  C   UNL     1       1.116  -4.602   1.917  1.00  0.00     0.075 C 
ATOM     21  C   UNL     1       1.433  -5.005   4.369  1.00  0.00     0.075 C 
ENDBRANCH  17  19
ENDBRANCH   8  13
ENDBRANCH   7   8
ENDBRANCH   5   7
ENDBRANCH   4   5
ENDBRANCH   3   4
ENDBRANCH   2   3
ENDBRANCH   1   2
BRANCH   1  22
ATOM     22  C   UNL     1      -3.808  -3.167  -1.363  1.00  0.00     0.202 C 
BRANCH  22  23
ATOM     23  C   UNL     1      -2.293  -2.961  -1.435  1.00  0.00     0.261 C 
BRANCH  23  24
ATOM     24  O   UNL     1      -1.881  -2.047  -2.430  1.00  0.00    -0.460 OA
BRANCH  24  25
ATOM     25  C   UNL     1      -1.124  -2.515  -3.432  1.00  0.00     0.338 C 
ATOM     26  O   UNL     1      -0.780  -3.652  -3.676  1.00  0.00    -0.246 OA
BRANCH  25  27
ATOM     27  C   UNL     1      -0.677  -1.288  -4.087  1.00  0.00     0.060 A 
ATOM     28  C   UNL     1      -1.476  -0.689  -5.063  1.00  0.00     0.016 A 
ATOM     29  C   UNL     1       0.485  -0.681  -3.606  1.00  0.00     0.016 A 
ATOM     30  C   UNL     1      -1.062   0.514  -5.623  1.00  0.00     0.010 A 
ATOM     31  C   UNL     1       0.876   0.538  -4.139  1.00  0.00     0.010 A 
ATOM     32  C   UNL     1       0.130   1.109  -5.184  1.00  0.00    -0.014 A 
BRANCH  32  33
ATOM     33  C   UNL     1       0.741   2.204  -5.964  1.00  0.00     0.031 A 
ATOM     34  C   UNL     1       1.895   1.846  -6.857  1.00  0.00     0.074 A 
ATOM     35  C   UNL     1       0.281   3.462  -5.864  1.00  0.00     0.049 A 
ATOM     36  N   UNL     1       2.676   2.623  -7.555  1.00  0.00    -0.248 NA
ATOM     37  C   UNL     1       2.228   0.412  -6.958  1.00  0.00     0.031 C 
ATOM     38  C   UNL     1      -0.849   3.889  -5.038  1.00  0.00     0.029 A 
ATOM     39  N   UNL     1       0.718   4.616  -6.458  1.00  0.00    -0.354 N 
ATOM     40  C   UNL     1       3.598   1.777  -8.162  1.00  0.00     0.074 A 
ATOM     41  C   UNL     1       3.312   0.434  -7.716  1.00  0.00     0.031 C 
ATOM     42  C   UNL     1      -1.018   5.215  -5.181  1.00  0.00     0.029 A 
ATOM     43  C   UNL     1       0.013   5.733  -6.077  1.00  0.00     0.049 A 
ATOM     44  H   UNL     1       1.466   4.643  -7.097  1.00  0.00     0.167 HD
ATOM     45  C   UNL     1       4.582   2.096  -9.031  1.00  0.00     0.037 A 
ATOM     46  C   UNL     1       0.201   7.024  -6.411  1.00  0.00     0.037 A 
ATOM     47  C   UNL     1       4.832   3.440  -9.472  1.00  0.00     0.049 A 
ATOM     48  C   UNL     1       1.325   7.361  -7.358  1.00  0.00     0.074 A 
ATOM     49  C   UNL     1       5.803   3.899 -10.340  1.00  0.00     0.029 A 
ATOM     50  N   UNL     1       4.086   4.543  -9.077  1.00  0.00    -0.354 N 
ATOM     51  N   UNL     1       2.196   6.554  -7.922  1.00  0.00    -0.248 NA
ATOM     52  C   UNL     1       1.496   8.774  -7.718  1.00  0.00     0.031 C 
ATOM     53  C   UNL     1       5.661   5.286 -10.450  1.00  0.00     0.029 A 
ATOM     54  C   UNL     1       4.573   5.683  -9.686  1.00  0.00     0.049 A 
ATOM     55  H   UNL     1       3.323   4.517  -8.456  1.00  0.00     0.167 HD
ATOM     56  C   UNL     1       2.989   7.356  -8.734  1.00  0.00     0.074 A 
ATOM     57  C   UNL     1       2.498   8.712  -8.584  1.00  0.00     0.031 C 
ATOM     58  C   UNL     1       4.027   7.009  -9.535  1.00  0.00     0.037 A 
BRANCH  45  59
ATOM     59  C   UNL     1       5.448   0.980  -9.542  1.00  0.00     0.058 A 
ATOM     60  C   UNL     1       4.952   0.011 -10.430  1.00  0.00     0.135 A 
ATOM     61  C   UNL     1       6.789   0.872  -9.140  1.00  0.00     0.135 A 
ATOM     62  F   UNL     1       3.670   0.049 -10.825  1.00  0.00    -0.206 F 
ATOM     63  C   UNL     1       5.746  -1.040 -10.880  1.00  0.00     0.059 A 
ATOM     64  C   UNL     1       7.609  -0.154  -9.600  1.00  0.00     0.059 A 
ATOM     65  F   UNL     1       7.312   1.765  -8.285  1.00  0.00    -0.206 F 
ATOM     66  C   UNL     1       7.074  -1.114 -10.458  1.00  0.00     0.060 A 
BRANCH  66  67
ATOM     67  S   UNL     1       8.093  -2.481 -11.053  1.00  0.00     0.124 S 
ATOM     68  O   UNL     1       7.559  -3.599 -10.282  1.00  0.00    -0.237 OA
ATOM     69  O   UNL     1       7.792  -2.495 -12.481  1.00  0.00    -0.237 OA
ATOM     70  O   UNL     1       9.449  -2.070 -10.705  1.00  0.00    -0.744 OA
ENDBRANCH  66  67
ENDBRANCH  45  59
BRANCH  46  71
ATOM     71  C   UNL     1      -0.691   8.081  -5.863  1.00  0.00     0.058 A 
ATOM     72  C   UNL     1      -1.595   8.765  -6.690  1.00  0.00     0.135 A 
ATOM     73  C   UNL     1      -0.665   8.427  -4.503  1.00  0.00     0.135 A 
ATOM     74  F   UNL     1      -1.658   8.475  -7.998  1.00  0.00    -0.206 F 
ATOM     75  C   UNL     1      -2.425   9.767  -6.195  1.00  0.00     0.059 A 
ATOM     76  C   UNL     1      -1.502   9.408  -3.979  1.00  0.00     0.059 A 
ATOM     77  F   UNL     1       0.169   7.792  -3.663  1.00  0.00    -0.206 F 
ATOM     78  C   UNL     1      -2.370  10.082  -4.836  1.00  0.00     0.060 A 
BRANCH  78  79
ATOM     79  S   UNL     1      -3.476  11.359  -4.196  1.00  0.00     0.124 S 
ATOM     80  O   UNL     1      -2.853  12.572  -4.715  1.00  0.00    -0.237 OA
ATOM     81  O   UNL     1      -4.753  10.989  -4.797  1.00  0.00    -0.237 OA
ATOM     82  O   UNL     1      -3.397  11.177  -2.750  1.00  0.00    -0.744 OA
ENDBRANCH  78  79
ENDBRANCH  46  71
BRANCH  58  83
ATOM     83  C   UNL     1       4.657   8.090 -10.362  1.00  0.00     0.058 A 
ATOM     84  C   UNL     1       5.545   9.020  -9.804  1.00  0.00     0.135 A 
ATOM     85  C   UNL     1       4.450   8.119 -11.751  1.00  0.00     0.135 A 
ATOM     86  F   UNL     1       5.769   9.033  -8.481  1.00  0.00    -0.206 F 
ATOM     87  C   UNL     1       6.209   9.948 -10.598  1.00  0.00     0.059 A 
ATOM     88  C   UNL     1       5.121   9.021 -12.566  1.00  0.00     0.059 A 
ATOM     89  F   UNL     1       3.617   7.239 -12.328  1.00  0.00    -0.206 F 
ATOM     90  C   UNL     1       5.997   9.934 -11.980  1.00  0.00     0.060 A 
BRANCH  90  91
ATOM     91  S   UNL     1       6.926  11.091 -13.008  1.00  0.00     0.124 S 
ATOM     92  O   UNL     1       6.238  12.347 -12.729  1.00  0.00    -0.237 OA
ATOM     93  O   UNL     1       8.277  10.973 -12.467  1.00  0.00    -0.237 OA
ATOM     94  O   UNL     1       6.750  10.562 -14.357  1.00  0.00    -0.744 OA
ENDBRANCH  90  91
ENDBRANCH  58  83
ENDBRANCH  32  33
ENDBRANCH  25  27
ENDBRANCH  24  25
ENDBRANCH  23  24
ENDBRANCH  22  23
ENDBRANCH   1  22
TORSDOF 22
