REMARK SMILES Nc1ccccc1C(=O)NCc1ccc(C(=O)OCCOCCOC(=O)c2ccc(-c3c4nc(c(-c5c(F)cc(S(=O)(=O)[O-])cc5F)c5ccc([nH]5)c(-c5c(F)cc(S(=O)(=O)[O-])cc5F)c5nc(c(-c6c(F)cc(S(=O)(=O)[O-])cc6F)c6ccc3[nH]6)C=C5)C=C4)cc2)o1
REMARK SMILES IDX 20 1 19 2 18 3 16 4 17 5 15 6 12 7 13 8 93 9 14 10 11 11
REMARK SMILES IDX 10 12 8 13 9 14 7 16 2 17 3 18 4 19 6 20 5 21 1 22 21 25
REMARK SMILES IDX 22 26 23 27 24 28 25 29 26 30 27 31 28 32 92 33 29 34 91 35
REMARK SMILES IDX 30 36 31 37 32 38 85 39 33 40 90 41 84 42 86 43 34 44 89 45
REMARK SMILES IDX 83 46 82 47 35 49 69 50 48 51 68 52 49 53 52 54 67 55 87 56
REMARK SMILES IDX 50 57 51 58 66 60 88 61 53 62 36 63 37 64 46 65 38 66 39 67
REMARK SMILES IDX 45 68 47 69 40 70 41 71 42 72 43 73 44 74 70 75 71 76 80 77
REMARK SMILES IDX 72 78 73 79 79 80 81 81 74 82 75 83 76 84 77 85 78 86 54 87
REMARK SMILES IDX 55 88 64 89 56 90 57 91 63 92 65 93 58 94 59 95 60 96 61 97
REMARK SMILES IDX 62 98
REMARK H PARENT 10 15 1 23 1 24 86 48 52 59
REMARK Flexibility Score: inf
ROOT
ATOM      1  C   UNL     1       7.268  -2.119  -5.574  1.00  0.00     0.202 C 
ENDROOT
BRANCH   1   2
ATOM      2  C   UNL     1       6.048  -1.442  -6.204  1.00  0.00     0.261 C 
BRANCH   2   3
ATOM      3  O   UNL     1       5.722  -0.234  -5.496  1.00  0.00    -0.457 OA
BRANCH   3   4
ATOM      4  C   UNL     1       4.518  -0.247  -4.854  1.00  0.00     0.374 C 
ATOM      5  O   UNL     1       3.662  -1.109  -4.994  1.00  0.00    -0.242 OA
BRANCH   4   6
ATOM      6  C   UNL     1       4.476   0.811  -3.872  1.00  0.00     0.211 A 
ATOM      7  C   UNL     1       3.879   1.585  -1.891  1.00  0.00     0.124 A 
ATOM      8  C   UNL     1       4.740   2.521  -2.423  1.00  0.00     0.048 A 
ATOM      9  O   UNL     1       3.680   0.586  -2.790  1.00  0.00    -0.452 OA
ATOM     10  C   UNL     1       5.141   2.011  -3.694  1.00  0.00     0.058 A 
BRANCH   7  11
ATOM     11  C   UNL     1       3.253   1.327  -0.576  1.00  0.00     0.191 C 
BRANCH  11  12
ATOM     12  N   UNL     1       2.388   2.392  -0.131  1.00  0.00    -0.345 N 
ATOM     13  C   UNL     1       1.105   2.320   0.357  1.00  0.00     0.253 C 
ATOM     14  O   UNL     1       0.575   3.348   0.779  1.00  0.00    -0.269 OA
ATOM     15  H   UNL     1       2.771   3.297  -0.185  1.00  0.00     0.164 HD
BRANCH  13  16
ATOM     16  C   UNL     1       0.303   1.067   0.309  1.00  0.00     0.062 A 
ATOM     17  C   UNL     1       0.711  -0.185   0.810  1.00  0.00     0.044 A 
ATOM     18  C   UNL     1      -0.126  -1.292   0.588  1.00  0.00     0.026 A 
ATOM     19  C   UNL     1      -1.376  -1.151  -0.022  1.00  0.00     0.002 A 
ATOM     20  C   UNL     1      -0.974   1.206  -0.268  1.00  0.00     0.016 A 
ATOM     21  C   UNL     1      -1.812   0.104  -0.426  1.00  0.00     0.001 A 
BRANCH  17  22
ATOM     22  N   UNL     1       1.893  -0.392   1.511  1.00  0.00    -0.398 N 
ATOM     23  H   UNL     1       2.122  -1.293   1.835  1.00  0.00     0.156 HD
ATOM     24  H   UNL     1       2.502   0.362   1.683  1.00  0.00     0.156 HD
ENDBRANCH  17  22
ENDBRANCH  13  16
ENDBRANCH  11  12
ENDBRANCH   7  11
ENDBRANCH   4   6
ENDBRANCH   3   4
ENDBRANCH   2   3
ENDBRANCH   1   2
BRANCH   1  25
ATOM     25  O   UNL     1       7.041  -2.673  -4.277  1.00  0.00    -0.374 OA
BRANCH  25  26
ATOM     26  C   UNL     1       7.210  -1.792  -3.163  1.00  0.00     0.202 C 
BRANCH  26  27
ATOM     27  C   UNL     1       8.664  -1.542  -2.741  1.00  0.00     0.261 C 
BRANCH  27  28
ATOM     28  O   UNL     1       9.306  -0.607  -3.629  1.00  0.00    -0.460 OA
BRANCH  28  29
ATOM     29  C   UNL     1      10.287  -1.125  -4.408  1.00  0.00     0.338 C 
ATOM     30  O   UNL     1      10.732  -2.259  -4.375  1.00  0.00    -0.246 OA
BRANCH  29  31
ATOM     31  C   UNL     1      10.626  -0.158  -5.471  1.00  0.00     0.060 A 
ATOM     32  C   UNL     1      10.665  -0.626  -6.792  1.00  0.00     0.016 A 
ATOM     33  C   UNL     1      10.941   1.171  -5.181  1.00  0.00     0.016 A 
ATOM     34  C   UNL     1      11.058   0.224  -7.825  1.00  0.00     0.010 A 
ATOM     35  C   UNL     1      11.350   2.018  -6.215  1.00  0.00     0.010 A 
ATOM     36  C   UNL     1      11.439   1.539  -7.535  1.00  0.00    -0.014 A 
BRANCH  36  37
ATOM     37  C   UNL     1      12.091   2.375  -8.570  1.00  0.00     0.031 A 
ATOM     38  C   UNL     1      13.592   2.454  -8.587  1.00  0.00     0.074 A 
ATOM     39  C   UNL     1      11.363   3.067  -9.464  1.00  0.00     0.049 A 
ATOM     40  N   UNL     1      14.374   3.222  -9.297  1.00  0.00    -0.248 NA
ATOM     41  C   UNL     1      14.305   1.546  -7.672  1.00  0.00     0.031 C 
ATOM     42  C   UNL     1       9.906   3.027  -9.581  1.00  0.00     0.029 A 
ATOM     43  N   UNL     1      11.755   3.957 -10.432  1.00  0.00    -0.354 N 
ATOM     44  C   UNL     1      15.669   2.905  -8.905  1.00  0.00     0.074 A 
ATOM     45  C   UNL     1      15.568   1.884  -7.886  1.00  0.00     0.031 C 
ATOM     46  C   UNL     1       9.525   3.877 -10.551  1.00  0.00     0.029 A 
ATOM     47  C   UNL     1      10.705   4.547 -11.094  1.00  0.00     0.049 A 
ATOM     48  H   UNL     1      12.699   4.154 -10.633  1.00  0.00     0.167 HD
ATOM     49  C   UNL     1      16.837   3.422  -9.355  1.00  0.00     0.037 A 
ATOM     50  C   UNL     1      10.699   5.539 -12.007  1.00  0.00     0.037 A 
ATOM     51  C   UNL     1      16.930   4.438 -10.368  1.00  0.00     0.049 A 
ATOM     52  C   UNL     1      12.006   6.147 -12.447  1.00  0.00     0.074 A 
ATOM     53  C   UNL     1      18.065   5.033 -10.890  1.00  0.00     0.029 A 
ATOM     54  N   UNL     1      15.844   5.012 -11.012  1.00  0.00    -0.354 N 
ATOM     55  N   UNL     1      13.224   5.846 -12.064  1.00  0.00    -0.248 NA
ATOM     56  C   UNL     1      11.940   7.231 -13.438  1.00  0.00     0.031 C 
ATOM     57  C   UNL     1      17.663   5.991 -11.826  1.00  0.00     0.029 A 
ATOM     58  C   UNL     1      16.280   5.962 -11.917  1.00  0.00     0.049 A 
ATOM     59  H   UNL     1      14.902   4.777 -10.848  1.00  0.00     0.167 HD
ATOM     60  C   UNL     1      14.070   6.678 -12.791  1.00  0.00     0.074 A 
ATOM     61  C   UNL     1      13.225   7.500 -13.632  1.00  0.00     0.031 C 
ATOM     62  C   UNL     1      15.423   6.751 -12.767  1.00  0.00     0.037 A 
BRANCH  49  63
ATOM     63  C   UNL     1      18.104   2.917  -8.726  1.00  0.00     0.058 A 
ATOM     64  C   UNL     1      18.610   1.639  -9.011  1.00  0.00     0.135 A 
ATOM     65  C   UNL     1      18.827   3.727  -7.836  1.00  0.00     0.135 A 
ATOM     66  F   UNL     1      17.945   0.818  -9.839  1.00  0.00    -0.206 F 
ATOM     67  C   UNL     1      19.776   1.171  -8.415  1.00  0.00     0.059 A 
ATOM     68  C   UNL     1      20.008   3.288  -7.246  1.00  0.00     0.059 A 
ATOM     69  F   UNL     1      18.382   4.955  -7.526  1.00  0.00    -0.206 F 
ATOM     70  C   UNL     1      20.466   2.002  -7.529  1.00  0.00     0.060 A 
BRANCH  70  71
ATOM     71  S   UNL     1      21.972   1.380  -6.753  1.00  0.00     0.124 S 
ATOM     72  O   UNL     1      21.426   0.472  -5.748  1.00  0.00    -0.237 OA
ATOM     73  O   UNL     1      22.663   0.746  -7.870  1.00  0.00    -0.237 OA
ATOM     74  O   UNL     1      22.607   2.586  -6.230  1.00  0.00    -0.744 OA
ENDBRANCH  70  71
ENDBRANCH  49  63
BRANCH  50  75
ATOM     75  C   UNL     1       9.409   6.034 -12.553  1.00  0.00     0.058 A 
ATOM     76  C   UNL     1       9.034   5.766 -13.878  1.00  0.00     0.135 A 
ATOM     77  C   UNL     1       8.521   6.777 -11.759  1.00  0.00     0.135 A 
ATOM     78  F   UNL     1       9.855   5.070 -14.679  1.00  0.00    -0.206 F 
ATOM     79  C   UNL     1       7.828   6.223 -14.400  1.00  0.00     0.059 A 
ATOM     80  C   UNL     1       7.301   7.227 -12.252  1.00  0.00     0.059 A 
ATOM     81  F   UNL     1       8.830   7.052 -10.482  1.00  0.00    -0.206 F 
ATOM     82  C   UNL     1       6.966   6.951 -13.577  1.00  0.00     0.060 A 
BRANCH  82  83
ATOM     83  S   UNL     1       5.378   7.492 -14.246  1.00  0.00     0.124 S 
ATOM     84  O   UNL     1       5.781   8.608 -15.092  1.00  0.00    -0.237 OA
ATOM     85  O   UNL     1       4.915   6.296 -14.943  1.00  0.00    -0.237 OA
ATOM     86  O   UNL     1       4.616   7.845 -13.051  1.00  0.00    -0.744 OA
ENDBRANCH  82  83
ENDBRANCH  50  75
BRANCH  62  87
ATOM     87  C   UNL     1      16.092   7.708 -13.712  1.00  0.00     0.058 A 
ATOM     88  C   UNL     1      16.141   9.085 -13.456  1.00  0.00     0.135 A 
ATOM     89  C   UNL     1      16.780   7.221 -14.836  1.00  0.00     0.135 A 
ATOM     90  F   UNL     1      15.495   9.599 -12.398  1.00  0.00    -0.206 F 
ATOM     91  C   UNL     1      16.853   9.950 -14.282  1.00  0.00     0.059 A 
ATOM     92  C   UNL     1      17.513   8.064 -15.663  1.00  0.00     0.059 A 
ATOM     93  F   UNL     1      16.769   5.908 -15.118  1.00  0.00    -0.206 F 
ATOM     94  C   UNL     1      17.542   9.428 -15.379  1.00  0.00     0.060 A 
BRANCH  94  95
ATOM     95  S   UNL     1      18.525  10.548 -16.399  1.00  0.00     0.124 S 
ATOM     96  O   UNL     1      17.491  11.223 -17.176  1.00  0.00    -0.237 OA
ATOM     97  O   UNL     1      19.204  11.368 -15.401  1.00  0.00    -0.237 OA
ATOM     98  O   UNL     1      19.391   9.647 -17.154  1.00  0.00    -0.744 OA
ENDBRANCH  94  95
ENDBRANCH  62  87
ENDBRANCH  36  37
ENDBRANCH  29  31
ENDBRANCH  28  29
ENDBRANCH  27  28
ENDBRANCH  26  27
ENDBRANCH  25  26
ENDBRANCH   1  25
TORSDOF 21
