REMARK SMILES CCCCCCNC(=O)Oc1cccc(-c2ccc([C@@H](C)C(=O)OCCOCCOC(=O)c3ccc(-c4c5nc(c(-c6c(F)cc(S(=O)(=O)[O-])cc6F)c6ccc([nH]6)c(-c6c(F)cc(S(=O)(=O)[O-])cc6F)c6nc(c(-c7c(F)cc(S(=O)(=O)[O-])cc7F)c7ccc4[nH]7)C=C6)C=C5)cc3)cc2N)c1
REMARK SMILES IDX 24 1 22 2 23 3 20 4 21 5 19 6 16 7 17 8 100 9 18 10 99 11
REMARK SMILES IDX 15 12 11 13 12 14 102 15 13 16 14 17 10 18 8 19 7 20 9 22
REMARK SMILES IDX 6 23 5 24 4 25 3 26 2 27 1 28 101 29 25 32 26 33 27 34 28 35
REMARK SMILES IDX 29 36 30 37 31 38 32 39 33 40 34 41 98 42 35 43 97 44 36 45
REMARK SMILES IDX 37 46 38 47 91 48 39 49 96 50 90 51 92 52 40 53 95 54 89 55
REMARK SMILES IDX 88 56 41 58 75 59 54 60 74 61 55 62 58 63 73 64 93 65 56 66
REMARK SMILES IDX 57 67 72 69 94 70 59 71 42 72 43 73 52 74 44 75 45 76 51 77
REMARK SMILES IDX 53 78 46 79 47 80 48 81 49 82 50 83 76 84 77 85 86 86 78 87
REMARK SMILES IDX 79 88 85 89 87 90 80 91 81 92 82 93 83 94 84 95 60 96 61 97
REMARK SMILES IDX 70 98 62 99 63 100 69 101 71 102 64 103 65 104 66 105 67 106
REMARK SMILES IDX 68 107
REMARK H PARENT 7 21 101 30 101 31 92 57 58 68
REMARK Flexibility Score: inf
ROOT
ATOM      1  O   UNL     1      -3.869  13.592   6.479  1.00  0.00    -0.463 OA
ENDROOT
BRANCH   1   2
ATOM      2  C   UNL     1      -4.401  14.045   5.315  1.00  0.00     0.313 C 
ATOM      3  O   UNL     1      -4.109  15.114   4.786  1.00  0.00    -0.252 OA
BRANCH   2   4
ATOM      4  C   UNL     1      -5.440  13.115   4.709  1.00  0.00     0.126 C 
ATOM      5  C   UNL     1      -6.834  13.592   5.104  1.00  0.00     0.025 C 
BRANCH   4   6
ATOM      6  C   UNL     1      -5.269  11.612   4.915  1.00  0.00    -0.032 A 
ATOM      7  C   UNL     1      -5.192   8.768   5.154  1.00  0.00     0.005 A 
ATOM      8  C   UNL     1      -5.340   9.603   6.280  1.00  0.00     0.011 A 
ATOM      9  C   UNL     1      -5.026   9.381   3.891  1.00  0.00     0.040 A 
ATOM     10  C   UNL     1      -5.383  10.999   6.165  1.00  0.00     0.005 A 
ATOM     11  C   UNL     1      -5.075  10.784   3.794  1.00  0.00     0.030 A 
BRANCH   7  12
ATOM     12  C   UNL     1      -5.261   7.298   5.325  1.00  0.00    -0.013 A 
ATOM     13  C   UNL     1      -4.357   5.064   4.999  1.00  0.00     0.133 A 
ATOM     14  C   UNL     1      -5.505   4.490   5.542  1.00  0.00     0.047 A 
ATOM     15  C   UNL     1      -4.224   6.451   4.895  1.00  0.00     0.056 A 
ATOM     16  C   UNL     1      -6.527   5.314   6.003  1.00  0.00     0.004 A 
ATOM     17  C   UNL     1      -6.407   6.703   5.889  1.00  0.00     0.009 A 
BRANCH  13  18
ATOM     18  O   UNL     1      -3.422   4.173   4.439  1.00  0.00    -0.410 OA
BRANCH  18  19
ATOM     19  C   UNL     1      -2.070   4.341   4.695  1.00  0.00     0.412 C 
ATOM     20  N   UNL     1      -1.281   3.428   4.053  1.00  0.00    -0.321 N 
ATOM     21  H   UNL     1      -0.312   3.498   4.214  1.00  0.00     0.167 HD
ATOM     22  O   UNL     1      -1.576   5.203   5.417  1.00  0.00    -0.224 OA
BRANCH  20  23
ATOM     23  C   UNL     1      -1.712   2.369   3.162  1.00  0.00     0.119 C 
BRANCH  23  24
ATOM     24  C   UNL     1      -1.124   2.526   1.759  1.00  0.00     0.021 C 
BRANCH  24  25
ATOM     25  C   UNL     1       0.405   2.419   1.683  1.00  0.00     0.002 C 
BRANCH  25  26
ATOM     26  C   UNL     1       0.999   1.087   2.156  1.00  0.00    -0.000 C 
BRANCH  26  27
ATOM     27  C   UNL     1       0.527  -0.152   1.393  1.00  0.00    -0.003 C 
ATOM     28  C   UNL     1       0.916  -0.141  -0.078  1.00  0.00     0.004 C 
ENDBRANCH  26  27
ENDBRANCH  25  26
ENDBRANCH  24  25
ENDBRANCH  23  24
ENDBRANCH  20  23
ENDBRANCH  18  19
ENDBRANCH  13  18
ENDBRANCH   7  12
BRANCH   9  29
ATOM     29  N   UNL     1      -4.971   8.649   2.705  1.00  0.00    -0.398 N 
ATOM     30  H   UNL     1      -4.936   7.666   2.734  1.00  0.00     0.156 HD
ATOM     31  H   UNL     1      -4.968   9.116   1.838  1.00  0.00     0.156 HD
ENDBRANCH   9  29
ENDBRANCH   4   6
ENDBRANCH   2   4
ENDBRANCH   1   2
BRANCH   1  32
ATOM     32  C   UNL     1      -2.788  14.369   7.024  1.00  0.00     0.261 C 
BRANCH  32  33
ATOM     33  C   UNL     1      -1.474  13.583   7.013  1.00  0.00     0.202 C 
BRANCH  33  34
ATOM     34  O   UNL     1      -0.931  13.267   5.730  1.00  0.00    -0.374 OA
BRANCH  34  35
ATOM     35  C   UNL     1      -1.545  12.207   4.997  1.00  0.00     0.202 C 
BRANCH  35  36
ATOM     36  C   UNL     1      -1.250  10.771   5.450  1.00  0.00     0.261 C 
BRANCH  36  37
ATOM     37  O   UNL     1      -1.744  10.491   6.771  1.00  0.00    -0.460 OA
BRANCH  37  38
ATOM     38  C   UNL     1      -0.777  10.339   7.708  1.00  0.00     0.338 C 
ATOM     39  O   UNL     1       0.430  10.374   7.532  1.00  0.00    -0.246 OA
BRANCH  38  40
ATOM     40  C   UNL     1      -1.372  10.317   9.059  1.00  0.00     0.060 A 
ATOM     41  C   UNL     1      -0.816  11.182  10.010  1.00  0.00     0.016 A 
ATOM     42  C   UNL     1      -2.377   9.418   9.420  1.00  0.00     0.016 A 
ATOM     43  C   UNL     1      -1.211  11.101  11.342  1.00  0.00     0.010 A 
ATOM     44  C   UNL     1      -2.772   9.337  10.762  1.00  0.00     0.010 A 
ATOM     45  C   UNL     1      -2.157  10.146  11.736  1.00  0.00    -0.014 A 
BRANCH  45  46
ATOM     46  C   UNL     1      -2.358   9.897  13.187  1.00  0.00     0.031 A 
ATOM     47  C   UNL     1      -1.679   8.714  13.826  1.00  0.00     0.074 A 
ATOM     48  C   UNL     1      -3.067  10.756  13.941  1.00  0.00     0.049 A 
ATOM     49  N   UNL     1      -1.679   8.334  15.078  1.00  0.00    -0.248 NA
ATOM     50  C   UNL     1      -0.893   7.844  12.935  1.00  0.00     0.031 C 
ATOM     51  C   UNL     1      -3.740  11.957  13.446  1.00  0.00     0.029 A 
ATOM     52  N   UNL     1      -3.333  10.753  15.287  1.00  0.00    -0.354 N 
ATOM     53  C   UNL     1      -0.900   7.183  15.126  1.00  0.00     0.074 A 
ATOM     54  C   UNL     1      -0.472   6.907  13.772  1.00  0.00     0.031 C 
ATOM     55  C   UNL     1      -4.342  12.575  14.476  1.00  0.00     0.029 A 
ATOM     56  C   UNL     1      -4.119  11.803  15.698  1.00  0.00     0.049 A 
ATOM     57  H   UNL     1      -2.993  10.063  15.902  1.00  0.00     0.167 HD
ATOM     58  C   UNL     1      -0.559   6.432  16.201  1.00  0.00     0.037 A 
ATOM     59  C   UNL     1      -4.611  12.101  16.917  1.00  0.00     0.037 A 
ATOM     60  C   UNL     1      -0.981   6.714  17.549  1.00  0.00     0.049 A 
ATOM     61  C   UNL     1      -4.262  11.222  18.090  1.00  0.00     0.074 A 
ATOM     62  C   UNL     1      -0.674   6.024  18.709  1.00  0.00     0.029 A 
ATOM     63  N   UNL     1      -1.806   7.766  17.918  1.00  0.00    -0.354 N 
ATOM     64  N   UNL     1      -3.504  10.152  18.123  1.00  0.00    -0.248 NA
ATOM     65  C   UNL     1      -4.830  11.596  19.393  1.00  0.00     0.031 C 
ATOM     66  C   UNL     1      -1.352   6.630  19.772  1.00  0.00     0.029 A 
ATOM     67  C   UNL     1      -2.039   7.731  19.284  1.00  0.00     0.049 A 
ATOM     68  H   UNL     1      -2.173   8.440  17.300  1.00  0.00     0.167 HD
ATOM     69  C   UNL     1      -3.482   9.741  19.452  1.00  0.00     0.074 A 
ATOM     70  C   UNL     1      -4.292  10.685  20.193  1.00  0.00     0.031 C 
ATOM     71  C   UNL     1      -2.847   8.678  20.009  1.00  0.00     0.037 A 
BRANCH  58  72
ATOM     72  C   UNL     1       0.295   5.218  15.959  1.00  0.00     0.058 A 
ATOM     73  C   UNL     1       1.654   5.323  15.620  1.00  0.00     0.135 A 
ATOM     74  C   UNL     1      -0.245   3.929  16.100  1.00  0.00     0.135 A 
ATOM     75  F   UNL     1       2.218   6.530  15.456  1.00  0.00    -0.206 F 
ATOM     76  C   UNL     1       2.439   4.195  15.402  1.00  0.00     0.059 A 
ATOM     77  C   UNL     1       0.528   2.787  15.914  1.00  0.00     0.059 A 
ATOM     78  F   UNL     1      -1.538   3.770  16.422  1.00  0.00    -0.206 F 
ATOM     79  C   UNL     1       1.867   2.930  15.551  1.00  0.00     0.060 A 
BRANCH  79  80
ATOM     80  S   UNL     1       2.899   1.475  15.272  1.00  0.00     0.124 S 
ATOM     81  O   UNL     1       3.041   1.491  13.820  1.00  0.00    -0.237 OA
ATOM     82  O   UNL     1       4.104   1.797  16.030  1.00  0.00    -0.237 OA
ATOM     83  O   UNL     1       2.098   0.381  15.811  1.00  0.00    -0.744 OA
ENDBRANCH  79  80
ENDBRANCH  58  72
BRANCH  59  84
ATOM     84  C   UNL     1      -5.494  13.287  17.091  1.00  0.00     0.058 A 
ATOM     85  C   UNL     1      -5.066  14.416  17.804  1.00  0.00     0.135 A 
ATOM     86  C   UNL     1      -6.787  13.310  16.546  1.00  0.00     0.135 A 
ATOM     87  F   UNL     1      -3.842  14.437  18.355  1.00  0.00    -0.206 F 
ATOM     88  C   UNL     1      -5.892  15.521  17.983  1.00  0.00     0.059 A 
ATOM     89  C   UNL     1      -7.622  14.414  16.689  1.00  0.00     0.059 A 
ATOM     90  F   UNL     1      -7.242  12.258  15.847  1.00  0.00    -0.206 F 
ATOM     91  C   UNL     1      -7.168  15.511  17.418  1.00  0.00     0.060 A 
BRANCH  91  92
ATOM     92  S   UNL     1      -8.215  16.971  17.611  1.00  0.00     0.124 S 
ATOM     93  O   UNL     1      -8.608  16.868  19.012  1.00  0.00    -0.237 OA
ATOM     94  O   UNL     1      -7.293  18.054  17.284  1.00  0.00    -0.237 OA
ATOM     95  O   UNL     1      -9.280  16.750  16.638  1.00  0.00    -0.744 OA
ENDBRANCH  91  92
ENDBRANCH  59  84
BRANCH  71  96
ATOM     96  C   UNL     1      -2.977   8.497  21.498  1.00  0.00     0.058 A 
ATOM     97  C   UNL     1      -4.176   8.071  22.090  1.00  0.00     0.135 A 
ATOM     98  C   UNL     1      -1.874   8.717  22.340  1.00  0.00     0.135 A 
ATOM     99  F   UNL     1      -5.263   7.850  21.332  1.00  0.00    -0.206 F 
ATOM    100  C   UNL     1      -4.288   7.902  23.466  1.00  0.00     0.059 A 
ATOM    101  C   UNL     1      -1.955   8.526  23.716  1.00  0.00     0.059 A 
ATOM    102  F   UNL     1      -0.699   9.112  21.826  1.00  0.00    -0.206 F 
ATOM    103  C   UNL     1      -3.171   8.133  24.272  1.00  0.00     0.060 A 
BRANCH 103 104
ATOM    104  S   UNL     1      -3.324   7.895  26.055  1.00  0.00     0.124 S 
ATOM    105  O   UNL     1      -4.086   9.076  26.445  1.00  0.00    -0.237 OA
ATOM    106  O   UNL     1      -4.036   6.624  26.142  1.00  0.00    -0.237 OA
ATOM    107  O   UNL     1      -1.938   7.862  26.514  1.00  0.00    -0.744 OA
ENDBRANCH 103 104
ENDBRANCH  71  96
ENDBRANCH  45  46
ENDBRANCH  38  40
ENDBRANCH  37  38
ENDBRANCH  36  37
ENDBRANCH  35  36
ENDBRANCH  34  35
ENDBRANCH  33  34
ENDBRANCH  32  33
ENDBRANCH   1  32
TORSDOF 27
