REMARK SMILES O=C(OCCOCCOC(=O)c1ccc(-c2c3nc(c(-c4c(F)cc(S(=O)(=O)[O-])cc4F)c4ccc([nH]4)c(-c4c(F)cc(S(=O)(=O)[O-])cc4F)c4nc(c(-c5c(F)cc(S(=O)(=O)[O-])cc5F)c5ccc2[nH]5)C=C4)C=C3)cc1)C1=Cc2cc(Cl)cc(-c3ccc(O)cc3)c2O[C@@H]1C(F)(F)F
REMARK SMILES IDX 7 1 6 2 5 3 4 4 3 5 2 6 1 7 78 8 79 9 95 10 80 11 94 12
REMARK SMILES IDX 81 13 93 14 82 15 85 16 83 17 84 18 96 19 97 20 98 21 99 22
REMARK SMILES IDX 86 23 87 24 92 25 88 26 91 27 89 28 90 29 8 31 9 32 10 33
REMARK SMILES IDX 11 34 12 35 13 36 77 37 14 38 76 39 15 40 16 41 17 42 70 43
REMARK SMILES IDX 18 44 75 45 69 46 71 47 19 48 74 49 68 50 67 51 20 53 54 54
REMARK SMILES IDX 33 55 53 56 34 57 37 58 52 59 72 60 35 61 36 62 51 64 73 65
REMARK SMILES IDX 38 66 21 67 22 68 31 69 23 70 24 71 30 72 32 73 25 74 26 75
REMARK SMILES IDX 27 76 28 77 29 78 55 79 56 80 65 81 57 82 58 83 64 84 66 85
REMARK SMILES IDX 59 86 60 87 61 88 62 89 63 90 39 91 40 92 49 93 41 94 42 95
REMARK SMILES IDX 48 96 50 97 43 98 44 99 45 100 46 101 47 102
REMARK H PARENT 90 30 71 52 37 63
REMARK Flexibility Score: inf
ROOT
ATOM      1  C   UNL     1       2.670  -1.933  -2.399  1.00  0.00     0.202 C 
ENDROOT
BRANCH   1   2
ATOM      2  O   UNL     1       3.762  -0.984  -2.318  1.00  0.00    -0.374 OA
BRANCH   2   3
ATOM      3  C   UNL     1       4.383  -0.040  -1.138  1.00  0.00     0.202 C 
BRANCH   3   4
ATOM      4  C   UNL     1       3.536   0.584   0.767  1.00  0.00     0.261 C 
BRANCH   4   5
ATOM      5  O   UNL     1       2.615   1.853   0.986  1.00  0.00    -0.460 OA
BRANCH   5   6
ATOM      6  C   UNL     1       2.774   2.803   0.057  1.00  0.00     0.338 C 
ATOM      7  O   UNL     1       2.224   3.860  -0.115  1.00  0.00    -0.246 OA
BRANCH   6   8
ATOM      8  C   UNL     1       3.612   1.993  -0.781  1.00  0.00     0.087 C 
ATOM      9  C   UNL     1       4.979   1.987  -0.240  1.00  0.00     0.027 C 
ATOM     10  C   UNL     1       2.464   0.439  -0.917  1.00  0.00     0.316 C 
ATOM     11  C   UNL     1       5.738   0.531   0.508  1.00  0.00     0.019 A 
ATOM     12  O   UNL     1       3.274  -1.129  -0.086  1.00  0.00    -0.475 OA
ATOM     13  C   UNL     1       6.943   0.773   1.114  1.00  0.00     0.032 A 
ATOM     14  C   UNL     1       4.919  -1.009   0.707  1.00  0.00     0.135 A 
ATOM     15  C   UNL     1       7.419  -0.271   1.891  1.00  0.00     0.042 A 
ATOM     16  C   UNL     1       5.538  -2.043   1.453  1.00  0.00     0.026 A 
ATOM     17  Cl  UNL     1       8.923  -0.027   2.716  1.00  0.00    -0.084 Cl
ATOM     18  C   UNL     1       6.758  -1.544   2.055  1.00  0.00     0.033 A 
BRANCH  10  19
ATOM     19  C   UNL     1       1.905   0.775  -2.381  1.00  0.00     0.430 C 
ATOM     20  F   UNL     1       0.875   0.006  -2.783  1.00  0.00    -0.167 F 
ATOM     21  F   UNL     1       1.367   2.037  -2.332  1.00  0.00    -0.167 F 
ATOM     22  F   UNL     1       2.823   0.862  -3.369  1.00  0.00    -0.167 F 
ENDBRANCH  10  19
BRANCH  16  23
ATOM     23  C   UNL     1       5.269  -3.594   1.804  1.00  0.00    -0.014 A 
ATOM     24  C   UNL     1       4.661  -3.646   3.516  1.00  0.00     0.012 A 
ATOM     25  C   UNL     1       5.465  -5.404   0.892  1.00  0.00     0.012 A 
ATOM     26  C   UNL     1       4.286  -5.212   4.261  1.00  0.00     0.047 A 
ATOM     27  C   UNL     1       4.984  -6.902   1.756  1.00  0.00     0.047 A 
ATOM     28  C   UNL     1       4.438  -6.752   3.401  1.00  0.00     0.115 A 
BRANCH  28  29
ATOM     29  O   UNL     1       4.050  -7.887   4.056  1.00  0.00    -0.508 OA
ATOM     30  H   UNL     1       3.751  -7.838   4.942  1.00  0.00     0.293 HD
ENDBRANCH  28  29
ENDBRANCH  16  23
ENDBRANCH   6   8
ENDBRANCH   5   6
ENDBRANCH   4   5
ENDBRANCH   3   4
ENDBRANCH   2   3
ENDBRANCH   1   2
BRANCH   1  31
ATOM     31  C   UNL     1       2.956  -3.292  -3.041  1.00  0.00     0.261 C 
BRANCH  31  32
ATOM     32  O   UNL     1       3.711  -4.097  -2.171  1.00  0.00    -0.460 OA
BRANCH  32  33
ATOM     33  C   UNL     1       4.924  -3.576  -1.925  1.00  0.00     0.338 C 
ATOM     34  O   UNL     1       5.706  -3.065  -2.700  1.00  0.00    -0.246 OA
BRANCH  33  35
ATOM     35  C   UNL     1       5.109  -3.777  -0.497  1.00  0.00     0.060 A 
ATOM     36  C   UNL     1       6.796  -3.854   0.045  1.00  0.00     0.016 A 
ATOM     37  C   UNL     1       3.723  -4.305   0.470  1.00  0.00     0.016 A 
ATOM     38  C   UNL     1       7.263  -4.523   1.596  1.00  0.00     0.010 A 
ATOM     39  C   UNL     1       4.065  -5.032   2.076  1.00  0.00     0.010 A 
ATOM     40  C   UNL     1       5.997  -5.171   2.704  1.00  0.00    -0.014 A 
BRANCH  40  41
ATOM     41  C   UNL     1       6.907  -5.852   3.897  1.00  0.00     0.031 A 
ATOM     42  C   UNL     1       7.504  -7.267   3.751  1.00  0.00     0.074 A 
ATOM     43  C   UNL     1       7.326  -5.191   5.003  1.00  0.00     0.049 A 
ATOM     44  N   UNL     1       7.938  -8.105   4.671  1.00  0.00    -0.248 NA
ATOM     45  C   UNL     1       7.613  -7.817   2.395  1.00  0.00     0.031 C 
ATOM     46  C   UNL     1       7.134  -3.777   5.291  1.00  0.00     0.029 A 
ATOM     47  N   UNL     1       7.970  -5.654   6.139  1.00  0.00    -0.354 N 
ATOM     48  C   UNL     1       8.246  -9.299   4.012  1.00  0.00     0.074 A 
ATOM     49  C   UNL     1       7.886  -9.094   2.626  1.00  0.00     0.031 C 
ATOM     50  C   UNL     1       7.495  -3.514   6.556  1.00  0.00     0.029 A 
ATOM     51  C   UNL     1       7.992  -4.737   7.169  1.00  0.00     0.049 A 
ATOM     52  H   UNL     1       8.373  -6.551   6.204  1.00  0.00     0.167 HD
ATOM     53  C   UNL     1       8.828 -10.439   4.474  1.00  0.00     0.037 A 
ATOM     54  C   UNL     1       8.347  -4.840   8.467  1.00  0.00     0.037 A 
ATOM     55  C   UNL     1       9.401 -10.593   5.793  1.00  0.00     0.049 A 
ATOM     56  C   UNL     1       8.976  -6.102   8.984  1.00  0.00     0.074 A 
ATOM     57  C   UNL     1      10.100 -11.676   6.307  1.00  0.00     0.029 A 
ATOM     58  N   UNL     1       9.407  -9.622   6.781  1.00  0.00    -0.354 N 
ATOM     59  N   UNL     1       9.173  -7.240   8.365  1.00  0.00    -0.248 NA
ATOM     60  C   UNL     1       9.490  -6.072  10.362  1.00  0.00     0.031 C 
ATOM     61  C   UNL     1      10.508 -11.370   7.609  1.00  0.00     0.029 A 
ATOM     62  C   UNL     1      10.102 -10.078   7.893  1.00  0.00     0.049 A 
ATOM     63  H   UNL     1       8.982  -8.737   6.705  1.00  0.00     0.167 HD
ATOM     64  C   UNL     1       9.881  -8.038   9.259  1.00  0.00     0.074 A 
ATOM     65  C   UNL     1      10.085  -7.252  10.455  1.00  0.00     0.031 C 
ATOM     66  C   UNL     1      10.330  -9.306   9.088  1.00  0.00     0.037 A 
BRANCH  53  67
ATOM     67  C   UNL     1       8.937 -11.629   3.539  1.00  0.00     0.058 A 
ATOM     68  C   UNL     1       9.756 -11.618   2.398  1.00  0.00     0.135 A 
ATOM     69  C   UNL     1       8.260 -12.830   3.831  1.00  0.00     0.135 A 
ATOM     70  F   UNL     1      10.437 -10.511   2.065  1.00  0.00    -0.206 F 
ATOM     71  C   UNL     1       9.853 -12.721   1.553  1.00  0.00     0.059 A 
ATOM     72  C   UNL     1       8.380 -13.962   3.025  1.00  0.00     0.059 A 
ATOM     73  F   UNL     1       7.482 -12.920   4.921  1.00  0.00    -0.206 F 
ATOM     74  C   UNL     1       9.161 -13.889   1.874  1.00  0.00     0.060 A 
BRANCH  74  75
ATOM     75  S   UNL     1       9.302 -15.307   0.764  1.00  0.00     0.124 S 
ATOM     76  O   UNL     1       8.512 -14.859  -0.379  1.00  0.00    -0.237 OA
ATOM     77  O   UNL     1      10.742 -15.388   0.544  1.00  0.00    -0.237 OA
ATOM     78  O   UNL     1       8.725 -16.403   1.535  1.00  0.00    -0.744 OA
ENDBRANCH  74  75
ENDBRANCH  53  67
BRANCH  54  79
ATOM     79  C   UNL     1       8.139  -3.682   9.382  1.00  0.00     0.058 A 
ATOM     80  C   UNL     1       9.220  -2.922   9.852  1.00  0.00     0.135 A 
ATOM     81  C   UNL     1       6.851  -3.321   9.811  1.00  0.00     0.135 A 
ATOM     82  F   UNL     1      10.470  -3.233   9.476  1.00  0.00    -0.206 F 
ATOM     83  C   UNL     1       9.038  -1.865  10.737  1.00  0.00     0.059 A 
ATOM     84  C   UNL     1       6.641  -2.251  10.675  1.00  0.00     0.059 A 
ATOM     85  F   UNL     1       5.781  -4.005   9.377  1.00  0.00    -0.206 F 
ATOM     86  C   UNL     1       7.743  -1.536  11.142  1.00  0.00     0.060 A 
BRANCH  86  87
ATOM     87  S   UNL     1       7.522  -0.134  12.260  1.00  0.00     0.124 S 
ATOM     88  O   UNL     1       8.082  -0.655  13.501  1.00  0.00    -0.237 OA
ATOM     89  O   UNL     1       8.299   0.908  11.596  1.00  0.00    -0.237 OA
ATOM     90  O   UNL     1       6.077   0.074  12.257  1.00  0.00    -0.744 OA
ENDBRANCH  86  87
ENDBRANCH  54  79
BRANCH  66  91
ATOM     91  C   UNL     1      11.146  -9.912  10.201  1.00  0.00     0.058 A 
ATOM     92  C   UNL     1      10.581 -10.242  11.444  1.00  0.00     0.135 A 
ATOM     93  C   UNL     1      12.517 -10.166  10.024  1.00  0.00     0.135 A 
ATOM     94  F   UNL     1       9.277 -10.018  11.673  1.00  0.00    -0.206 F 
ATOM     95  C   UNL     1      11.352 -10.755  12.484  1.00  0.00     0.059 A 
ATOM     96  C   UNL     1      13.301 -10.711  11.039  1.00  0.00     0.059 A 
ATOM     97  F   UNL     1      13.113  -9.884   8.855  1.00  0.00    -0.206 F 
ATOM     98  C   UNL     1      12.713 -10.982  12.273  1.00  0.00     0.060 A 
BRANCH  98  99
ATOM     99  S   UNL     1      13.700 -11.642  13.633  1.00  0.00     0.124 S 
ATOM    100  O   UNL     1      13.788 -10.487  14.521  1.00  0.00    -0.237 OA
ATOM    101  O   UNL     1      12.875 -12.747  14.111  1.00  0.00    -0.237 OA
ATOM    102  O   UNL     1      14.950 -12.034  12.989  1.00  0.00    -0.744 OA
ENDBRANCH  98  99
ENDBRANCH  66  91
ENDBRANCH  40  41
ENDBRANCH  33  35
ENDBRANCH  32  33
ENDBRANCH  31  32
ENDBRANCH   1  31
TORSDOF 20
