REMARK SMILES CC[C@H](C)[C@@H](NC(=S)Nc1ccccc1)C(=O)OCCOCCOC(=O)c1ccc(-c2c3nc(c(-c4c(F)cc(S(=O)(=O)[O-])cc4F)c4ccc([nH]4)c(-c4c(F)cc(S(=O)(=O)[O-])cc4F)c4nc(c(-c5c(F)cc(S(=O)(=O)[O-])cc5F)c5ccc2[nH]5)C=C4)C=C3)cc1
REMARK SMILES IDX 20 1 19 2 18 3 16 4 17 5 5 6 3 7 4 8 2 9 1 10 6 11 7 13 8 14
REMARK SMILES IDX 9 15 10 17 11 18 15 19 12 20 14 21 13 22 21 23 22 24 23 25
REMARK SMILES IDX 24 26 25 27 26 28 27 29 28 30 92 31 29 32 91 33 30 34 31 35
REMARK SMILES IDX 32 36 85 37 33 38 90 39 84 40 86 41 34 42 89 43 83 44 82 45
REMARK SMILES IDX 35 47 69 48 48 49 68 50 49 51 52 52 67 53 87 54 50 55 51 56
REMARK SMILES IDX 66 58 88 59 53 60 36 61 37 62 46 63 38 64 39 65 45 66 47 67
REMARK SMILES IDX 40 68 41 69 42 70 43 71 44 72 70 73 71 74 80 75 72 76 73 77
REMARK SMILES IDX 79 78 81 79 74 80 75 81 76 82 77 83 78 84 54 85 55 86 64 87
REMARK SMILES IDX 56 88 57 89 63 90 65 91 58 92 59 93 60 94 61 95 62 96
REMARK H PARENT 6 12 9 16 86 46 52 57
REMARK Flexibility Score: inf
ROOT
ATOM      1  C   UNL     1       2.990   5.745  -2.563  1.00  0.00     0.202 C 
ENDROOT
BRANCH   1   2
ATOM      2  C   UNL     1       2.877   5.946  -1.056  1.00  0.00     0.261 C 
BRANCH   2   3
ATOM      3  O   UNL     1       2.403   4.815  -0.309  1.00  0.00    -0.462 OA
BRANCH   3   4
ATOM      4  C   UNL     1       1.058   4.634  -0.297  1.00  0.00     0.328 C 
ATOM      5  O   UNL     1       0.275   5.091  -1.119  1.00  0.00    -0.250 OA
BRANCH   4   6
ATOM      6  C   UNL     1       0.588   3.684   0.802  1.00  0.00     0.194 C 
BRANCH   6   7
ATOM      7  C   UNL     1       0.923   2.223   0.338  1.00  0.00     0.019 C 
ATOM      8  C   UNL     1       0.530   1.165   1.380  1.00  0.00     0.010 C 
BRANCH   7   9
ATOM      9  C   UNL     1       0.229   1.847  -1.001  1.00  0.00     0.002 C 
ATOM     10  C   UNL     1       1.107   0.964  -1.883  1.00  0.00     0.004 C 
ENDBRANCH   7   9
ENDBRANCH   6   7
BRANCH   6  11
ATOM     11  N   UNL     1       1.206   4.016   2.100  1.00  0.00    -0.349 N 
ATOM     12  H   UNL     1       1.627   3.237   2.531  1.00  0.00     0.163 HD
BRANCH  11  13
ATOM     13  C   UNL     1       1.325   5.140   2.829  1.00  0.00     0.171 C 
ATOM     14  S   UNL     1       2.043   4.969   4.335  1.00  0.00    -0.041 S 
BRANCH  13  15
ATOM     15  N   UNL     1       1.103   6.393   2.393  1.00  0.00    -0.333 N 
ATOM     16  H   UNL     1       1.659   7.059   2.861  1.00  0.00     0.169 HD
BRANCH  15  17
ATOM     17  C   UNL     1       0.268   6.975   1.430  1.00  0.00     0.040 A 
ATOM     18  C   UNL     1       0.758   8.099   0.750  1.00  0.00     0.026 A 
ATOM     19  C   UNL     1      -1.000   6.491   1.121  1.00  0.00     0.026 A 
ATOM     20  C   UNL     1       0.076   8.606  -0.359  1.00  0.00     0.002 A 
ATOM     21  C   UNL     1      -1.704   7.028   0.035  1.00  0.00     0.002 A 
ATOM     22  C   UNL     1      -1.145   8.053  -0.731  1.00  0.00     0.000 A 
ENDBRANCH  15  17
ENDBRANCH  13  15
ENDBRANCH  11  13
ENDBRANCH   6  11
ENDBRANCH   4   6
ENDBRANCH   3   4
ENDBRANCH   2   3
ENDBRANCH   1   2
BRANCH   1  23
ATOM     23  O   UNL     1       1.776   5.795  -3.314  1.00  0.00    -0.374 OA
BRANCH  23  24
ATOM     24  C   UNL     1       1.193   4.516  -3.585  1.00  0.00     0.202 C 
BRANCH  24  25
ATOM     25  C   UNL     1       1.599   3.923  -4.931  1.00  0.00     0.261 C 
BRANCH  25  26
ATOM     26  O   UNL     1       2.995   3.598  -4.880  1.00  0.00    -0.460 OA
BRANCH  26  27
ATOM     27  C   UNL     1       3.794   4.523  -5.462  1.00  0.00     0.338 C 
ATOM     28  O   UNL     1       3.471   5.342  -6.307  1.00  0.00    -0.246 OA
BRANCH  27  29
ATOM     29  C   UNL     1       5.085   4.564  -4.738  1.00  0.00     0.060 A 
ATOM     30  C   UNL     1       5.699   5.818  -4.621  1.00  0.00     0.016 A 
ATOM     31  C   UNL     1       5.643   3.441  -4.112  1.00  0.00     0.016 A 
ATOM     32  C   UNL     1       6.919   5.940  -3.969  1.00  0.00     0.010 A 
ATOM     33  C   UNL     1       6.877   3.557  -3.469  1.00  0.00     0.010 A 
ATOM     34  C   UNL     1       7.545   4.794  -3.467  1.00  0.00    -0.014 A 
BRANCH  34  35
ATOM     35  C   UNL     1       9.015   4.834  -3.311  1.00  0.00     0.031 A 
ATOM     36  C   UNL     1       9.828   4.433  -4.516  1.00  0.00     0.074 A 
ATOM     37  C   UNL     1       9.600   5.289  -2.192  1.00  0.00     0.049 A 
ATOM     38  N   UNL     1      11.123   4.391  -4.671  1.00  0.00    -0.248 NA
ATOM     39  C   UNL     1       9.069   4.026  -5.714  1.00  0.00     0.031 C 
ATOM     40  C   UNL     1       8.899   5.754  -0.996  1.00  0.00     0.029 A 
ATOM     41  N   UNL     1      10.927   5.436  -1.885  1.00  0.00    -0.354 N 
ATOM     42  C   UNL     1      11.328   3.959  -5.977  1.00  0.00     0.074 A 
ATOM     43  C   UNL     1      10.033   3.713  -6.562  1.00  0.00     0.031 C 
ATOM     44  C   UNL     1       9.809   6.124  -0.076  1.00  0.00     0.029 A 
ATOM     45  C   UNL     1      11.151   5.899  -0.612  1.00  0.00     0.049 A 
ATOM     46  H   UNL     1      11.652   5.230  -2.519  1.00  0.00     0.167 HD
ATOM     47  C   UNL     1      12.496   3.796  -6.637  1.00  0.00     0.037 A 
ATOM     48  C   UNL     1      12.313   6.097   0.042  1.00  0.00     0.037 A 
ATOM     49  C   UNL     1      13.778   4.035  -6.038  1.00  0.00     0.049 A 
ATOM     50  C   UNL     1      13.608   5.837  -0.688  1.00  0.00     0.074 A 
ATOM     51  C   UNL     1      15.033   3.886  -6.598  1.00  0.00     0.029 A 
ATOM     52  N   UNL     1      13.965   4.471  -4.734  1.00  0.00    -0.354 N 
ATOM     53  N   UNL     1      13.791   5.432  -1.924  1.00  0.00    -0.248 NA
ATOM     54  C   UNL     1      14.852   6.064   0.059  1.00  0.00     0.031 C 
ATOM     55  C   UNL     1      15.981   4.189  -5.616  1.00  0.00     0.029 A 
ATOM     56  C   UNL     1      15.316   4.578  -4.462  1.00  0.00     0.049 A 
ATOM     57  H   UNL     1      13.242   4.674  -4.097  1.00  0.00     0.167 HD
ATOM     58  C   UNL     1      15.169   5.380  -2.110  1.00  0.00     0.074 A 
ATOM     59  C   UNL     1      15.771   5.806  -0.862  1.00  0.00     0.031 C 
ATOM     60  C   UNL     1      15.878   5.015  -3.208  1.00  0.00     0.037 A 
BRANCH  47  61
ATOM     61  C   UNL     1      12.426   3.308  -8.056  1.00  0.00     0.058 A 
ATOM     62  C   UNL     1      11.953   4.123  -9.098  1.00  0.00     0.135 A 
ATOM     63  C   UNL     1      12.830   2.003  -8.379  1.00  0.00     0.135 A 
ATOM     64  F   UNL     1      11.522   5.368  -8.839  1.00  0.00    -0.206 F 
ATOM     65  C   UNL     1      11.863   3.655 -10.404  1.00  0.00     0.059 A 
ATOM     66  C   UNL     1      12.774   1.522  -9.683  1.00  0.00     0.059 A 
ATOM     67  F   UNL     1      13.274   1.176  -7.419  1.00  0.00    -0.206 F 
ATOM     68  C   UNL     1      12.277   2.352 -10.687  1.00  0.00     0.060 A 
BRANCH  68  69
ATOM     69  S   UNL     1      12.162   1.760 -12.389  1.00  0.00     0.124 S 
ATOM     70  O   UNL     1      10.720   1.587 -12.540  1.00  0.00    -0.237 OA
ATOM     71  O   UNL     1      12.750   2.862 -13.143  1.00  0.00    -0.237 OA
ATOM     72  O   UNL     1      12.943   0.527 -12.373  1.00  0.00    -0.744 OA
ENDBRANCH  68  69
ENDBRANCH  47  61
BRANCH  48  73
ATOM     73  C   UNL     1      12.305   6.544   1.462  1.00  0.00     0.058 A 
ATOM     74  C   UNL     1      12.760   7.817   1.833  1.00  0.00     0.135 A 
ATOM     75  C   UNL     1      11.837   5.698   2.481  1.00  0.00     0.135 A 
ATOM     76  F   UNL     1      13.227   8.660   0.899  1.00  0.00    -0.206 F 
ATOM     77  C   UNL     1      12.764   8.233   3.161  1.00  0.00     0.059 A 
ATOM     78  C   UNL     1      11.807   6.100   3.813  1.00  0.00     0.059 A 
ATOM     79  F   UNL     1      11.383   4.471   2.181  1.00  0.00    -0.206 F 
ATOM     80  C   UNL     1      12.282   7.367   4.145  1.00  0.00     0.060 A 
BRANCH  80  81
ATOM     81  S   UNL     1      12.244   7.934   5.859  1.00  0.00     0.124 S 
ATOM     82  O   UNL     1      13.659   7.903   6.211  1.00  0.00    -0.237 OA
ATOM     83  O   UNL     1      11.647   9.260   5.730  1.00  0.00    -0.237 OA
ATOM     84  O   UNL     1      11.407   6.940   6.523  1.00  0.00    -0.744 OA
ENDBRANCH  80  81
ENDBRANCH  48  73
BRANCH  60  85
ATOM     85  C   UNL     1      17.375   5.091  -3.122  1.00  0.00     0.058 A 
ATOM     86  C   UNL     1      18.120   4.155  -2.389  1.00  0.00     0.135 A 
ATOM     87  C   UNL     1      18.076   6.073  -3.842  1.00  0.00     0.135 A 
ATOM     88  F   UNL     1      17.496   3.198  -1.684  1.00  0.00    -0.206 F 
ATOM     89  C   UNL     1      19.509   4.203  -2.355  1.00  0.00     0.059 A 
ATOM     90  C   UNL     1      19.465   6.122  -3.845  1.00  0.00     0.059 A 
ATOM     91  F   UNL     1      17.409   6.982  -4.572  1.00  0.00    -0.206 F 
ATOM     92  C   UNL     1      20.172   5.189  -3.088  1.00  0.00     0.060 A 
BRANCH  92  93
ATOM     93  S   UNL     1      21.977   5.219  -3.062  1.00  0.00     0.124 S 
ATOM     94  O   UNL     1      22.242   5.753  -1.731  1.00  0.00    -0.237 OA
ATOM     95  O   UNL     1      22.315   3.813  -3.261  1.00  0.00    -0.237 OA
ATOM     96  O   UNL     1      22.317   6.102  -4.174  1.00  0.00    -0.744 OA
ENDBRANCH  92  93
ENDBRANCH  60  85
ENDBRANCH  34  35
ENDBRANCH  27  29
ENDBRANCH  26  27
ENDBRANCH  25  26
ENDBRANCH  24  25
ENDBRANCH  23  24
ENDBRANCH   1  23
TORSDOF 23
