REMARK SMILES CS(=O)(=O)c1ccc(C2=NN(c3ccc(C(=O)OCCOCCOC(=O)c4ccc(-c5c6nc(c(-c7c(F)cc(S(=O)(=O)[O-])cc7F)c7ccc([nH]7)c(-c7c(F)cc(S(=O)(=O)[O-])cc7F)c7nc(c(-c8c(F)cc(S(=O)(=O)[O-])cc8F)c8ccc5[nH]8)C=C7)C=C6)cc4)cc3)[C@H](c3ccc(F)cc3)C2)cc1
REMARK SMILES IDX 21 1 20 2 19 3 18 4 16 5 17 6 15 7 12 8 13 9 94 10 14 11
REMARK SMILES IDX 93 12 11 13 9 14 10 15 103 16 95 17 8 18 5 19 6 20 105 21
REMARK SMILES IDX 7 22 104 23 2 24 1 25 3 26 4 27 96 28 97 29 102 30 98 31
REMARK SMILES IDX 101 32 99 33 100 34 22 35 23 36 24 37 25 38 26 39 27 40
REMARK SMILES IDX 28 41 92 42 29 43 91 44 30 45 31 46 32 47 85 48 33 49 90 50
REMARK SMILES IDX 84 51 86 52 34 53 89 54 83 55 82 56 35 58 69 59 48 60 68 61
REMARK SMILES IDX 49 62 52 63 67 64 87 65 50 66 51 67 66 69 88 70 53 71 36 72
REMARK SMILES IDX 37 73 46 74 38 75 39 76 45 77 47 78 40 79 41 80 42 81 43 82
REMARK SMILES IDX 44 83 70 84 71 85 80 86 72 87 73 88 79 89 81 90 74 91 75 92
REMARK SMILES IDX 76 93 77 94 78 95 54 96 55 97 64 98 56 99 57 100 63 101
REMARK SMILES IDX 65 102 58 103 59 104 60 105 61 106 62 107
REMARK H PARENT 86 57 52 68
REMARK Flexibility Score: inf
ROOT
ATOM      1  O   UNL     1      10.332   8.750   7.136  1.00  0.00    -0.374 OA
ENDROOT
BRANCH   1   2
ATOM      2  C   UNL     1       9.964   9.489   8.303  1.00  0.00     0.202 C 
BRANCH   2   3
ATOM      3  C   UNL     1       8.887  10.558   8.103  1.00  0.00     0.261 C 
BRANCH   3   4
ATOM      4  O   UNL     1       7.630   9.951   7.759  1.00  0.00    -0.460 OA
BRANCH   4   5
ATOM      5  C   UNL     1       7.193  10.183   6.502  1.00  0.00     0.338 C 
ATOM      6  O   UNL     1       7.665  10.975   5.696  1.00  0.00    -0.246 OA
BRANCH   5   7
ATOM      7  C   UNL     1       6.101   9.240   6.151  1.00  0.00     0.060 A 
ATOM      8  C   UNL     1       3.975   7.582   5.354  1.00  0.00     0.060 A 
ATOM      9  C   UNL     1       4.798   8.187   4.398  1.00  0.00     0.029 A 
ATOM     10  C   UNL     1       4.293   7.738   6.711  1.00  0.00     0.029 A 
ATOM     11  C   UNL     1       5.847   9.018   4.791  1.00  0.00     0.018 A 
ATOM     12  C   UNL     1       5.343   8.566   7.115  1.00  0.00     0.018 A 
BRANCH   8  13
ATOM     13  N   UNL     1       2.781   6.944   4.984  1.00  0.00    -0.257 N 
ATOM     14  C   UNL     1       1.746   5.968   3.389  1.00  0.00     0.071 C 
ATOM     15  N   UNL     1       2.838   5.923   4.083  1.00  0.00    -0.176 NA
ATOM     16  C   UNL     1       0.828   7.122   3.671  1.00  0.00     0.091 C 
ATOM     17  C   UNL     1       1.602   7.815   4.801  1.00  0.00     0.144 C 
BRANCH  14  18
ATOM     18  C   UNL     1       1.399   4.938   2.396  1.00  0.00    -0.002 A 
ATOM     19  C   UNL     1       0.737   2.913   0.600  1.00  0.00     0.067 A 
ATOM     20  C   UNL     1       1.250   2.578   1.854  1.00  0.00     0.021 A 
ATOM     21  C   UNL     1       0.566   4.257   0.236  1.00  0.00     0.021 A 
ATOM     22  C   UNL     1       1.593   3.596   2.747  1.00  0.00     0.011 A 
ATOM     23  C   UNL     1       0.887   5.273   1.141  1.00  0.00     0.011 A 
BRANCH  19  24
ATOM     24  S   UNL     1       0.289   1.673  -0.592  1.00  0.00     0.175 S 
ATOM     25  C   UNL     1       0.987   0.139  -0.048  1.00  0.00     0.163 C 
ATOM     26  O   UNL     1       0.956   2.032  -1.830  1.00  0.00    -0.224 OA
ATOM     27  O   UNL     1      -1.155   1.551  -0.529  1.00  0.00    -0.224 OA
ENDBRANCH  19  24
ENDBRANCH  14  18
BRANCH  17  28
ATOM     28  C   UNL     1       0.887   8.036   6.127  1.00  0.00    -0.023 A 
ATOM     29  C   UNL     1      -0.136   7.203   6.606  1.00  0.00     0.009 A 
ATOM     30  C   UNL     1       1.336   9.083   6.963  1.00  0.00     0.009 A 
ATOM     31  C   UNL     1      -0.688   7.411   7.875  1.00  0.00     0.039 A 
ATOM     32  C   UNL     1       0.812   9.265   8.243  1.00  0.00     0.039 A 
ATOM     33  C   UNL     1      -0.200   8.429   8.685  1.00  0.00     0.123 A 
ATOM     34  F   UNL     1      -0.707   8.595   9.914  1.00  0.00    -0.207 F 
ENDBRANCH  17  28
ENDBRANCH   8  13
ENDBRANCH   5   7
ENDBRANCH   4   5
ENDBRANCH   3   4
ENDBRANCH   2   3
ENDBRANCH   1   2
BRANCH   1  35
ATOM     35  C   UNL     1       9.479   7.668   6.760  1.00  0.00     0.202 C 
BRANCH  35  36
ATOM     36  C   UNL     1       9.672   6.352   7.521  1.00  0.00     0.261 C 
BRANCH  36  37
ATOM     37  O   UNL     1       9.306   6.469   8.908  1.00  0.00    -0.460 OA
BRANCH  37  38
ATOM     38  C   UNL     1      10.350   6.467   9.769  1.00  0.00     0.338 C 
ATOM     39  O   UNL     1      11.531   6.303   9.495  1.00  0.00    -0.246 OA
BRANCH  38  40
ATOM     40  C   UNL     1       9.899   6.867  11.116  1.00  0.00     0.060 A 
ATOM     41  C   UNL     1      10.625   7.875  11.764  1.00  0.00     0.016 A 
ATOM     42  C   UNL     1       8.838   6.229  11.763  1.00  0.00     0.016 A 
ATOM     43  C   UNL     1      10.327   8.211  13.082  1.00  0.00     0.010 A 
ATOM     44  C   UNL     1       8.546   6.565  13.090  1.00  0.00     0.010 A 
ATOM     45  C   UNL     1       9.312   7.531  13.767  1.00  0.00    -0.014 A 
BRANCH  45  46
ATOM     46  C   UNL     1       9.154   7.735  15.228  1.00  0.00     0.031 A 
ATOM     47  C   UNL     1       9.741   6.723  16.175  1.00  0.00     0.074 A 
ATOM     48  C   UNL     1       8.528   8.826  15.706  1.00  0.00     0.049 A 
ATOM     49  N   UNL     1       9.710   6.695  17.482  1.00  0.00    -0.248 NA
ATOM     50  C   UNL     1      10.458   5.591  15.566  1.00  0.00     0.031 C 
ATOM     51  C   UNL     1       7.949   9.892  14.889  1.00  0.00     0.029 A 
ATOM     52  N   UNL     1       8.273   9.214  16.997  1.00  0.00    -0.354 N 
ATOM     53  C   UNL     1      10.397   5.545  17.853  1.00  0.00     0.074 A 
ATOM     54  C   UNL     1      10.807   4.885  16.632  1.00  0.00     0.031 C 
ATOM     55  C   UNL     1       7.398  10.811  15.700  1.00  0.00     0.029 A 
ATOM     56  C   UNL     1       7.561  10.386  17.089  1.00  0.00     0.049 A 
ATOM     57  H   UNL     1       8.572   8.702  17.782  1.00  0.00     0.167 HD
ATOM     58  C   UNL     1      10.671   5.086  19.098  1.00  0.00     0.037 A 
ATOM     59  C   UNL     1       7.082  11.031  18.171  1.00  0.00     0.037 A 
ATOM     60  C   UNL     1      10.262   5.746  20.310  1.00  0.00     0.049 A 
ATOM     61  C   UNL     1       7.349  10.472  19.544  1.00  0.00     0.074 A 
ATOM     62  C   UNL     1      10.504   5.369  21.620  1.00  0.00     0.029 A 
ATOM     63  N   UNL     1       9.520   6.918  20.363  1.00  0.00    -0.354 N 
ATOM     64  N   UNL     1       8.019   9.395  19.880  1.00  0.00    -0.248 NA
ATOM     65  C   UNL     1       6.799  11.217  20.685  1.00  0.00     0.031 C 
ATOM     66  C   UNL     1       9.871   6.288  22.464  1.00  0.00     0.029 A 
ATOM     67  C   UNL     1       9.277   7.266  21.682  1.00  0.00     0.049 A 
ATOM     68  H   UNL     1       9.212   7.427  19.579  1.00  0.00     0.167 HD
ATOM     69  C   UNL     1       7.995   9.349  21.271  1.00  0.00     0.074 A 
ATOM     70  C   UNL     1       7.252  10.512  21.713  1.00  0.00     0.031 C 
ATOM     71  C   UNL     1       8.540   8.431  22.106  1.00  0.00     0.037 A 
BRANCH  58  72
ATOM     72  C   UNL     1      11.431   3.793  19.210  1.00  0.00     0.058 A 
ATOM     73  C   UNL     1      12.798   3.711  18.898  1.00  0.00     0.135 A 
ATOM     74  C   UNL     1      10.792   2.628  19.662  1.00  0.00     0.135 A 
ATOM     75  F   UNL     1      13.454   4.790  18.445  1.00  0.00    -0.206 F 
ATOM     76  C   UNL     1      13.497   2.512  19.005  1.00  0.00     0.059 A 
ATOM     77  C   UNL     1      11.477   1.424  19.800  1.00  0.00     0.059 A 
ATOM     78  F   UNL     1       9.486   2.650  19.971  1.00  0.00    -0.206 F 
ATOM     79  C   UNL     1      12.827   1.373  19.455  1.00  0.00     0.060 A 
BRANCH  79  80
ATOM     80  S   UNL     1      13.746  -0.174  19.588  1.00  0.00     0.124 S 
ATOM     81  O   UNL     1      13.890  -0.549  18.185  1.00  0.00    -0.237 OA
ATOM     82  O   UNL     1      14.972   0.246  20.261  1.00  0.00    -0.237 OA
ATOM     83  O   UNL     1      12.864  -1.028  20.377  1.00  0.00    -0.744 OA
ENDBRANCH  79  80
ENDBRANCH  58  72
BRANCH  59  84
ATOM     84  C   UNL     1       6.292  12.280  18.000  1.00  0.00     0.058 A 
ATOM     85  C   UNL     1       6.809  13.524  18.389  1.00  0.00     0.135 A 
ATOM     86  C   UNL     1       5.005  12.252  17.441  1.00  0.00     0.135 A 
ATOM     87  F   UNL     1       8.030  13.601  18.939  1.00  0.00    -0.206 F 
ATOM     88  C   UNL     1       6.074  14.696  18.242  1.00  0.00     0.059 A 
ATOM     89  C   UNL     1       4.260  13.413  17.261  1.00  0.00     0.059 A 
ATOM     90  F   UNL     1       4.469  11.088  17.043  1.00  0.00    -0.206 F 
ATOM     91  C   UNL     1       4.800  14.630  17.674  1.00  0.00     0.060 A 
BRANCH  91  92
ATOM     92  S   UNL     1       3.874  16.163  17.439  1.00  0.00     0.124 S 
ATOM     93  O   UNL     1       3.463  16.470  18.804  1.00  0.00    -0.237 OA
ATOM     94  O   UNL     1       4.884  17.046  16.862  1.00  0.00    -0.237 OA
ATOM     95  O   UNL     1       2.803  15.771  16.529  1.00  0.00    -0.744 OA
ENDBRANCH  91  92
ENDBRANCH  59  84
BRANCH  71  96
ATOM     96  C   UNL     1       8.389   8.662  23.585  1.00  0.00     0.058 A 
ATOM     97  C   UNL     1       7.162   8.475  24.241  1.00  0.00     0.135 A 
ATOM     98  C   UNL     1       9.498   9.030  24.364  1.00  0.00     0.135 A 
ATOM     99  F   UNL     1       6.069   8.127  23.543  1.00  0.00    -0.206 F 
ATOM    100  C   UNL     1       7.034   8.671  25.613  1.00  0.00     0.059 A 
ATOM    101  C   UNL     1       9.399   9.205  25.741  1.00  0.00     0.059 A 
ATOM    102  F   UNL     1      10.698   9.210  23.789  1.00  0.00    -0.206 F 
ATOM    103  C   UNL     1       8.159   9.037  26.354  1.00  0.00     0.060 A 
BRANCH 103 104
ATOM    104  S   UNL     1       7.987   9.263  28.137  1.00  0.00     0.124 S 
ATOM    105  O   UNL     1       7.302  10.550  28.205  1.00  0.00    -0.237 OA
ATOM    106  O   UNL     1       7.193   8.102  28.526  1.00  0.00    -0.237 OA
ATOM    107  O   UNL     1       9.366   9.259  28.615  1.00  0.00    -0.744 OA
ENDBRANCH 103 104
ENDBRANCH  71  96
ENDBRANCH  45  46
ENDBRANCH  38  40
ENDBRANCH  37  38
ENDBRANCH  36  37
ENDBRANCH  35  36
ENDBRANCH   1  35
TORSDOF 21
