REMARK SMILES O=C(OCCOCCOC(=O)[C@H]1CC2=c3ccccc3=N[C@H]2[C@@H](c2ccccc2)[NH2+]1)c1ccc(-c2c3nc(c(-c4c(F)cc(S(=O)(=O)[O-])cc4F)c4ccc([nH]4)c(-c4c(F)cc(S(=O)(=O)[O-])cc4F)c4nc(c(-c5c(F)cc(S(=O)(=O)[O-])cc5F)c5ccc2[nH]5)C=C4)C=C3)cc1
REMARK SMILES IDX 5 1 4 2 3 3 2 4 1 5 31 6 32 7 96 8 33 9 95 10 34 11 35 12
REMARK SMILES IDX 36 13 89 14 37 15 94 16 88 17 90 18 38 19 93 20 87 21 86 22
REMARK SMILES IDX 39 24 73 25 52 26 72 27 53 28 56 29 71 30 91 31 54 32 55 33
REMARK SMILES IDX 70 35 92 36 57 37 40 38 41 39 50 40 42 41 43 42 49 43 51 44
REMARK SMILES IDX 44 45 45 46 46 47 47 48 48 49 74 50 75 51 84 52 76 53 77 54
REMARK SMILES IDX 83 55 85 56 78 57 79 58 80 59 81 60 82 61 58 62 59 63 68 64
REMARK SMILES IDX 60 65 61 66 67 67 69 68 62 69 63 70 64 71 65 72 66 73 6 74
REMARK SMILES IDX 7 75 8 76 9 77 10 78 11 79 12 80 13 81 30 82 14 83 23 84
REMARK SMILES IDX 15 87 22 88 16 89 20 90 21 91 17 92 19 93 18 94 24 95 25 96
REMARK SMILES IDX 29 97 26 98 28 99 27 100
REMARK H PARENT 90 23 56 34 30 85 30 86
REMARK Flexibility Score: inf
ROOT
ATOM      1  C   UNL     1       4.831  -0.725   1.238  1.00  0.00     0.202 C 
ENDROOT
BRANCH   1   2
ATOM      2  C   UNL     1       4.526   0.772   1.188  1.00  0.00     0.261 C 
BRANCH   2   3
ATOM      3  O   UNL     1       3.120   0.996   0.978  1.00  0.00    -0.460 OA
BRANCH   3   4
ATOM      4  C   UNL     1       2.432   1.185  -0.172  1.00  0.00     0.338 C 
ATOM      5  O   UNL     1       1.216   1.362  -0.073  1.00  0.00    -0.246 OA
BRANCH   4   6
ATOM      6  C   UNL     1       3.018   1.190  -1.557  1.00  0.00     0.060 A 
ATOM      7  C   UNL     1       2.173   1.637  -2.593  1.00  0.00     0.016 A 
ATOM      8  C   UNL     1       4.285   0.732  -1.924  1.00  0.00     0.016 A 
ATOM      9  C   UNL     1       2.575   1.601  -3.934  1.00  0.00     0.010 A 
ATOM     10  C   UNL     1       4.689   0.674  -3.255  1.00  0.00     0.010 A 
ATOM     11  C   UNL     1       3.837   1.106  -4.265  1.00  0.00    -0.014 A 
BRANCH  11  12
ATOM     12  C   UNL     1       4.365   1.136  -5.638  1.00  0.00     0.031 A 
ATOM     13  C   UNL     1       4.406  -0.107  -6.470  1.00  0.00     0.074 A 
ATOM     14  C   UNL     1       4.945   2.279  -6.044  1.00  0.00     0.049 A 
ATOM     15  N   UNL     1       4.849  -0.264  -7.689  1.00  0.00    -0.248 NA
ATOM     16  C   UNL     1       3.907  -1.343  -5.845  1.00  0.00     0.031 C 
ATOM     17  C   UNL     1       5.040   3.499  -5.237  1.00  0.00     0.029 A 
ATOM     18  N   UNL     1       5.588   2.595  -7.207  1.00  0.00    -0.354 N 
ATOM     19  C   UNL     1       4.655  -1.605  -7.993  1.00  0.00     0.074 A 
ATOM     20  C   UNL     1       4.114  -2.234  -6.807  1.00  0.00     0.031 C 
ATOM     21  C   UNL     1       5.699   4.435  -5.935  1.00  0.00     0.029 A 
ATOM     22  C   UNL     1       6.068   3.880  -7.232  1.00  0.00     0.049 A 
ATOM     23  H   UNL     1       5.695   1.963  -7.955  1.00  0.00     0.167 HD
ATOM     24  C   UNL     1       4.889  -2.235  -9.169  1.00  0.00     0.037 A 
ATOM     25  C   UNL     1       6.716   4.541  -8.208  1.00  0.00     0.037 A 
ATOM     26  C   UNL     1       5.466  -1.577 -10.316  1.00  0.00     0.049 A 
ATOM     27  C   UNL     1       6.949   3.831  -9.508  1.00  0.00     0.074 A 
ATOM     28  C   UNL     1       5.706  -2.086 -11.579  1.00  0.00     0.029 A 
ATOM     29  N   UNL     1       5.907  -0.258 -10.327  1.00  0.00    -0.354 N 
ATOM     30  N   UNL     1       6.661   2.590  -9.827  1.00  0.00    -0.248 NA
ATOM     31  C   UNL     1       7.568   4.608 -10.585  1.00  0.00     0.031 C 
ATOM     32  C   UNL     1       6.324  -1.088 -12.342  1.00  0.00     0.029 A 
ATOM     33  C   UNL     1       6.431   0.059 -11.569  1.00  0.00     0.049 A 
ATOM     34  H   UNL     1       5.854   0.361  -9.563  1.00  0.00     0.167 HD
ATOM     35  C   UNL     1       7.047   2.440 -11.151  1.00  0.00     0.074 A 
ATOM     36  C   UNL     1       7.577   3.723 -11.574  1.00  0.00     0.031 C 
ATOM     37  C   UNL     1       6.969   1.344 -11.947  1.00  0.00     0.037 A 
BRANCH  24  38
ATOM     38  C   UNL     1       4.496  -3.685  -9.284  1.00  0.00     0.058 A 
ATOM     39  C   UNL     1       3.144  -4.071  -9.291  1.00  0.00     0.135 A 
ATOM     40  C   UNL     1       5.459  -4.694  -9.446  1.00  0.00     0.135 A 
ATOM     41  F   UNL     1       2.178  -3.152  -9.130  1.00  0.00    -0.206 F 
ATOM     42  C   UNL     1       2.763  -5.402  -9.432  1.00  0.00     0.059 A 
ATOM     43  C   UNL     1       5.099  -6.031  -9.614  1.00  0.00     0.059 A 
ATOM     44  F   UNL     1       6.766  -4.388  -9.448  1.00  0.00    -0.206 F 
ATOM     45  C   UNL     1       3.748  -6.376  -9.596  1.00  0.00     0.060 A 
BRANCH  45  46
ATOM     46  S   UNL     1       3.231  -8.094  -9.799  1.00  0.00     0.124 S 
ATOM     47  O   UNL     1       2.747  -8.415  -8.459  1.00  0.00    -0.237 OA
ATOM     48  O   UNL     1       2.206  -7.990 -10.833  1.00  0.00    -0.237 OA
ATOM     49  O   UNL     1       4.457  -8.776 -10.202  1.00  0.00    -0.744 OA
ENDBRANCH  45  46
ENDBRANCH  24  38
BRANCH  25  50
ATOM     50  C   UNL     1       7.067   5.967  -8.002  1.00  0.00     0.058 A 
ATOM     51  C   UNL     1       6.292   6.976  -8.592  1.00  0.00     0.135 A 
ATOM     52  C   UNL     1       8.095   6.354  -7.129  1.00  0.00     0.135 A 
ATOM     53  F   UNL     1       5.293   6.651  -9.427  1.00  0.00    -0.206 F 
ATOM     54  C   UNL     1       6.519   8.320  -8.320  1.00  0.00     0.059 A 
ATOM     55  C   UNL     1       8.330   7.692  -6.827  1.00  0.00     0.059 A 
ATOM     56  F   UNL     1       8.843   5.423  -6.517  1.00  0.00    -0.206 F 
ATOM     57  C   UNL     1       7.534   8.668  -7.427  1.00  0.00     0.060 A 
BRANCH  57  58
ATOM     58  S   UNL     1       7.750  10.412  -7.010  1.00  0.00     0.124 S 
ATOM     59  O   UNL     1       8.299  10.946  -8.251  1.00  0.00    -0.237 OA
ATOM     60  O   UNL     1       6.385  10.819  -6.688  1.00  0.00    -0.237 OA
ATOM     61  O   UNL     1       8.669  10.376  -5.876  1.00  0.00    -0.744 OA
ENDBRANCH  57  58
ENDBRANCH  25  50
BRANCH  37  62
ATOM     62  C   UNL     1       7.477   1.494 -13.351  1.00  0.00     0.058 A 
ATOM     63  C   UNL     1       8.852   1.542 -13.626  1.00  0.00     0.135 A 
ATOM     64  C   UNL     1       6.583   1.544 -14.432  1.00  0.00     0.135 A 
ATOM     65  F   UNL     1       9.744   1.507 -12.623  1.00  0.00    -0.206 F 
ATOM     66  C   UNL     1       9.325   1.654 -14.927  1.00  0.00     0.059 A 
ATOM     67  C   UNL     1       7.035   1.631 -15.743  1.00  0.00     0.059 A 
ATOM     68  F   UNL     1       5.259   1.493 -14.218  1.00  0.00    -0.206 F 
ATOM     69  C   UNL     1       8.408   1.696 -15.980  1.00  0.00     0.060 A 
BRANCH  69  70
ATOM     70  S   UNL     1       9.040   1.811 -17.666  1.00  0.00     0.124 S 
ATOM     71  O   UNL     1       9.500   3.195 -17.713  1.00  0.00    -0.237 OA
ATOM     72  O   UNL     1      10.087   0.794 -17.677  1.00  0.00    -0.237 OA
ATOM     73  O   UNL     1       7.872   1.509 -18.488  1.00  0.00    -0.744 OA
ENDBRANCH  69  70
ENDBRANCH  37  62
ENDBRANCH  11  12
ENDBRANCH   4   6
ENDBRANCH   3   4
ENDBRANCH   2   3
ENDBRANCH   1   2
BRANCH   1  74
ATOM     74  O   UNL     1       4.503  -1.357   0.004  1.00  0.00    -0.374 OA
BRANCH  74  75
ATOM     75  C   UNL     1       3.304  -2.126   0.016  1.00  0.00     0.202 C 
BRANCH  75  76
ATOM     76  C   UNL     1       3.656  -3.596   0.148  1.00  0.00     0.261 C 
BRANCH  76  77
ATOM     77  O   UNL     1       4.213  -3.862   1.444  1.00  0.00    -0.459 OA
BRANCH  77  78
ATOM     78  C   UNL     1       5.575  -3.916   1.563  1.00  0.00     0.365 C 
ATOM     79  O   UNL     1       6.390  -3.490   0.745  1.00  0.00    -0.245 OA
BRANCH  78  80
ATOM     80  C   UNL     1       5.965  -4.665   2.849  1.00  0.00     0.298 C 
ATOM     81  C   UNL     1       6.652  -3.783   3.942  1.00  0.00     0.111 C 
ATOM     82  N   UNL     1       4.795  -5.470   3.256  1.00  0.00    -0.326 N 
ATOM     83  C   UNL     1       5.791  -3.484   5.160  1.00  0.00    -0.024 C 
ATOM     84  C   UNL     1       4.738  -5.657   4.694  1.00  0.00     0.243 C 
ATOM     85  H   UNL     1       4.852  -6.384   2.807  1.00  0.00     0.347 HD
ATOM     86  H   UNL     1       3.954  -4.969   2.970  1.00  0.00     0.347 HD
ATOM     87  C   UNL     1       5.570  -2.244   5.580  1.00  0.00     0.002 A 
ATOM     88  C   UNL     1       4.558  -4.311   5.437  1.00  0.00     0.196 C 
ATOM     89  C   UNL     1       6.396  -1.085   5.658  1.00  0.00     0.010 A 
ATOM     90  C   UNL     1       4.119  -2.188   5.252  1.00  0.00     0.066 A 
ATOM     91  N   UNL     1       3.488  -3.327   5.065  1.00  0.00    -0.270 NA
ATOM     92  C   UNL     1       5.837   0.123   5.515  1.00  0.00     0.001 A 
ATOM     93  C   UNL     1       3.607  -0.805   5.017  1.00  0.00     0.028 A 
ATOM     94  C   UNL     1       4.438   0.249   5.148  1.00  0.00     0.002 A 
BRANCH  84  95
ATOM     95  C   UNL     1       3.948  -6.920   4.950  1.00  0.00     0.012 A 
ATOM     96  C   UNL     1       4.624  -8.130   4.648  1.00  0.00     0.010 A 
ATOM     97  C   UNL     1       2.610  -6.985   5.325  1.00  0.00     0.010 A 
ATOM     98  C   UNL     1       3.995  -9.365   4.725  1.00  0.00     0.001 A 
ATOM     99  C   UNL     1       1.975  -8.235   5.405  1.00  0.00     0.001 A 
ATOM    100  C   UNL     1       2.664  -9.417   5.106  1.00  0.00     0.000 A 
ENDBRANCH  84  95
ENDBRANCH  78  80
ENDBRANCH  77  78
ENDBRANCH  76  77
ENDBRANCH  75  76
ENDBRANCH  74  75
ENDBRANCH   1  74
TORSDOF 18
