REMARK SMILES N#C/C(=C\c1ccc(Oc2ccccc2Cl)c([N+](=O)[O-])c1)C(=O)OCCOCCOC(=O)c1ccc(-c2c3nc(c(-c4c(F)cc(S(=O)(=O)[O-])cc4F)c4ccc([nH]4)c(-c4c(F)cc(S(=O)(=O)[O-])cc4F)c4nc(c(-c5c(F)cc(S(=O)(=O)[O-])cc5F)c5ccc2[nH]5)C=C4)C=C3)cc1
REMARK SMILES IDX 27 1 26 2 25 3 24 4 22 5 23 6 3 7 4 8 2 9 1 10 5 11 6 12
REMARK SMILES IDX 21 13 7 14 17 15 8 16 18 17 19 18 20 19 9 20 10 21 11 22
REMARK SMILES IDX 15 23 12 24 14 25 16 26 13 27 28 28 29 29 30 30 31 31 32 32
REMARK SMILES IDX 33 33 34 34 98 35 35 36 97 37 36 38 37 39 38 40 91 41 39 42
REMARK SMILES IDX 96 43 90 44 92 45 40 46 95 47 89 48 88 49 41 51 75 52 54 53
REMARK SMILES IDX 74 54 55 55 58 56 73 57 93 58 56 59 57 60 72 62 94 63 59 64
REMARK SMILES IDX 42 65 43 66 52 67 44 68 45 69 51 70 53 71 46 72 47 73 48 74
REMARK SMILES IDX 49 75 50 76 76 77 77 78 86 79 78 80 79 81 85 82 87 83 80 84
REMARK SMILES IDX 81 85 82 86 83 87 84 88 60 89 61 90 70 91 62 92 63 93 69 94
REMARK SMILES IDX 71 95 64 96 65 97 66 98 67 99 68 100
REMARK H PARENT 92 50 58 61
REMARK Flexibility Score: inf
ROOT
ATOM      1  O   UNL     1       4.928   3.117   3.082  1.00  0.00    -0.374 OA
ENDROOT
BRANCH   1   2
ATOM      2  C   UNL     1       6.133   2.354   3.101  1.00  0.00     0.202 C 
BRANCH   2   3
ATOM      3  C   UNL     1       6.039   0.855   2.815  1.00  0.00     0.261 C 
BRANCH   3   4
ATOM      4  O   UNL     1       5.575   0.612   1.476  1.00  0.00    -0.459 OA
BRANCH   4   5
ATOM      5  C   UNL     1       4.378  -0.016   1.414  1.00  0.00     0.348 C 
ATOM      6  O   UNL     1       3.774  -0.511   2.355  1.00  0.00    -0.245 OA
BRANCH   5   7
ATOM      7  C   UNL     1       3.782   0.075   0.066  1.00  0.00     0.138 C 
ATOM      8  C   UNL     1       4.482  -0.182  -1.061  1.00  0.00     0.035 C 
BRANCH   7   9
ATOM      9  C   UNL     1       2.262   0.075   0.066  1.00  0.00     0.107 C 
ATOM     10  N   UNL     1       1.001   0.075   0.066  1.00  0.00    -0.192 NA
ENDBRANCH   7   9
BRANCH   8  11
ATOM     11  C   UNL     1       3.828  -0.567  -2.333  1.00  0.00    -0.017 A 
ATOM     12  C   UNL     1       4.217  -1.756  -2.961  1.00  0.00     0.012 A 
ATOM     13  C   UNL     1       2.726   0.121  -2.851  1.00  0.00     0.098 A 
ATOM     14  C   UNL     1       3.483  -2.270  -4.041  1.00  0.00     0.055 A 
ATOM     15  C   UNL     1       1.941  -0.455  -3.869  1.00  0.00     0.312 A 
ATOM     16  C   UNL     1       2.318  -1.640  -4.507  1.00  0.00     0.204 A 
BRANCH  15  17
ATOM     17  N   UNL     1       0.654   0.177  -4.072  1.00  0.00     0.066 N 
ATOM     18  O   UNL     1      -0.351  -0.464  -3.738  1.00  0.00    -0.258 OA
ATOM     19  O   UNL     1       0.659   1.341  -4.497  1.00  0.00    -0.258 OA
ENDBRANCH  15  17
BRANCH  16  20
ATOM     20  O   UNL     1       1.712  -2.339  -5.529  1.00  0.00    -0.449 OA
BRANCH  20  21
ATOM     21  C   UNL     1       0.720  -1.773  -6.287  1.00  0.00     0.146 A 
ATOM     22  C   UNL     1      -0.531  -2.397  -6.218  1.00  0.00     0.049 A 
ATOM     23  C   UNL     1       0.905  -0.678  -7.137  1.00  0.00     0.083 A 
ATOM     24  C   UNL     1      -1.617  -1.870  -6.916  1.00  0.00     0.004 A 
ATOM     25  C   UNL     1      -0.190  -0.140  -7.819  1.00  0.00     0.024 A 
ATOM     26  Cl  UNL     1       2.451   0.051  -7.370  1.00  0.00    -0.080 Cl
ATOM     27  C   UNL     1      -1.452  -0.728  -7.698  1.00  0.00     0.002 A 
ENDBRANCH  20  21
ENDBRANCH  16  20
ENDBRANCH   8  11
ENDBRANCH   5   7
ENDBRANCH   4   5
ENDBRANCH   3   4
ENDBRANCH   2   3
ENDBRANCH   1   2
BRANCH   1  28
ATOM     28  C   UNL     1       4.231   3.296   1.854  1.00  0.00     0.202 C 
BRANCH  28  29
ATOM     29  C   UNL     1       4.865   4.147   0.744  1.00  0.00     0.261 C 
BRANCH  29  30
ATOM     30  O   UNL     1       6.195   3.750   0.381  1.00  0.00    -0.460 OA
BRANCH  30  31
ATOM     31  C   UNL     1       7.158   4.606   0.808  1.00  0.00     0.338 C 
ATOM     32  O   UNL     1       6.993   5.649   1.426  1.00  0.00    -0.246 OA
BRANCH  31  33
ATOM     33  C   UNL     1       8.495   4.030   0.589  1.00  0.00     0.060 A 
ATOM     34  C   UNL     1       9.331   3.896   1.706  1.00  0.00     0.016 A 
ATOM     35  C   UNL     1       8.961   3.723  -0.691  1.00  0.00     0.016 A 
ATOM     36  C   UNL     1      10.653   3.493   1.542  1.00  0.00     0.010 A 
ATOM     37  C   UNL     1      10.295   3.332  -0.854  1.00  0.00     0.010 A 
ATOM     38  C   UNL     1      11.154   3.249   0.257  1.00  0.00    -0.014 A 
BRANCH  38  39
ATOM     39  C   UNL     1      12.612   3.057   0.073  1.00  0.00     0.031 A 
ATOM     40  C   UNL     1      13.454   4.231  -0.349  1.00  0.00     0.074 A 
ATOM     41  C   UNL     1      13.181   1.862   0.313  1.00  0.00     0.049 A 
ATOM     42  N   UNL     1      14.739   4.286  -0.582  1.00  0.00    -0.248 NA
ATOM     43  C   UNL     1      12.752   5.512  -0.531  1.00  0.00     0.031 C 
ATOM     44  C   UNL     1      12.473   0.665   0.765  1.00  0.00     0.029 A 
ATOM     45  N   UNL     1      14.489   1.461   0.208  1.00  0.00    -0.354 N 
ATOM     46  C   UNL     1      15.000   5.602  -0.947  1.00  0.00     0.074 A 
ATOM     47  C   UNL     1      13.737   6.307  -0.926  1.00  0.00     0.031 C 
ATOM     48  C   UNL     1      13.356  -0.342   0.888  1.00  0.00     0.029 A 
ATOM     49  C   UNL     1      14.683   0.133   0.500  1.00  0.00     0.049 A 
ATOM     50  H   UNL     1      15.219   2.068  -0.053  1.00  0.00     0.167 HD
ATOM     51  C   UNL     1      16.187   6.171  -1.264  1.00  0.00     0.037 A 
ATOM     52  C   UNL     1      15.801  -0.617   0.442  1.00  0.00     0.037 A 
ATOM     53  C   UNL     1      17.443   5.467  -1.274  1.00  0.00     0.049 A 
ATOM     54  C   UNL     1      17.100   0.026   0.030  1.00  0.00     0.074 A 
ATOM     55  C   UNL     1      18.705   5.962  -1.550  1.00  0.00     0.029 A 
ATOM     56  N   UNL     1      17.594   4.115  -1.002  1.00  0.00    -0.354 N 
ATOM     57  N   UNL     1      17.337   1.278  -0.284  1.00  0.00    -0.248 NA
ATOM     58  C   UNL     1      18.282  -0.844  -0.035  1.00  0.00     0.031 C 
ATOM     59  C   UNL     1      19.614   4.901  -1.490  1.00  0.00     0.029 A 
ATOM     60  C   UNL     1      18.925   3.753  -1.130  1.00  0.00     0.049 A 
ATOM     61  H   UNL     1      16.864   3.504  -0.755  1.00  0.00     0.167 HD
ATOM     62  C   UNL     1      18.700   1.351  -0.555  1.00  0.00     0.074 A 
ATOM     63  C   UNL     1      19.235   0.019  -0.362  1.00  0.00     0.031 C 
ATOM     64  C   UNL     1      19.442   2.423  -0.926  1.00  0.00     0.037 A 
BRANCH  51  65
ATOM     65  C   UNL     1      16.183   7.622  -1.653  1.00  0.00     0.058 A 
ATOM     66  C   UNL     1      15.999   8.641  -0.706  1.00  0.00     0.135 A 
ATOM     67  C   UNL     1      16.402   7.999  -2.988  1.00  0.00     0.135 A 
ATOM     68  F   UNL     1      15.766   8.335   0.580  1.00  0.00    -0.206 F 
ATOM     69  C   UNL     1      16.012   9.984  -1.072  1.00  0.00     0.059 A 
ATOM     70  C   UNL     1      16.443   9.335  -3.373  1.00  0.00     0.059 A 
ATOM     71  F   UNL     1      16.580   7.062  -3.933  1.00  0.00    -0.206 F 
ATOM     72  C   UNL     1      16.234  10.320  -2.409  1.00  0.00     0.060 A 
BRANCH  72  73
ATOM     73  S   UNL     1      16.257  12.066  -2.868  1.00  0.00     0.124 S 
ATOM     74  O   UNL     1      14.838  12.401  -2.807  1.00  0.00    -0.237 OA
ATOM     75  O   UNL     1      17.092  12.654  -1.826  1.00  0.00    -0.237 OA
ATOM     76  O   UNL     1      16.843  12.058  -4.205  1.00  0.00    -0.744 OA
ENDBRANCH  72  73
ENDBRANCH  51  65
BRANCH  52  77
ATOM     77  C   UNL     1      15.744  -2.065   0.771  1.00  0.00     0.058 A 
ATOM     78  C   UNL     1      16.346  -2.568   1.934  1.00  0.00     0.135 A 
ATOM     79  C   UNL     1      15.093  -2.976  -0.075  1.00  0.00     0.135 A 
ATOM     80  F   UNL     1      16.989  -1.738   2.769  1.00  0.00    -0.206 F 
ATOM     81  C   UNL     1      16.319  -3.925   2.239  1.00  0.00     0.059 A 
ATOM     82  C   UNL     1      15.032  -4.333   0.220  1.00  0.00     0.059 A 
ATOM     83  F   UNL     1      14.492  -2.542  -1.194  1.00  0.00    -0.206 F 
ATOM     84  C   UNL     1      15.658  -4.800   1.375  1.00  0.00     0.060 A 
BRANCH  84  85
ATOM     85  S   UNL     1      15.586  -6.554   1.801  1.00  0.00     0.124 S 
ATOM     86  O   UNL     1      16.940  -6.989   1.481  1.00  0.00    -0.237 OA
ATOM     87  O   UNL     1      15.246  -6.512   3.220  1.00  0.00    -0.237 OA
ATOM     88  O   UNL     1      14.534  -7.066   0.928  1.00  0.00    -0.744 OA
ENDBRANCH  84  85
ENDBRANCH  52  77
BRANCH  64  89
ATOM     89  C   UNL     1      20.919   2.213  -1.115  1.00  0.00     0.058 A 
ATOM     90  C   UNL     1      21.431   1.541  -2.235  1.00  0.00     0.135 A 
ATOM     91  C   UNL     1      21.834   2.740  -0.189  1.00  0.00     0.135 A 
ATOM     92  F   UNL     1      20.597   1.014  -3.145  1.00  0.00    -0.206 F 
ATOM     93  C   UNL     1      22.800   1.379  -2.420  1.00  0.00     0.059 A 
ATOM     94  C   UNL     1      23.208   2.611  -0.367  1.00  0.00     0.059 A 
ATOM     95  F   UNL     1      21.396   3.401   0.894  1.00  0.00    -0.206 F 
ATOM     96  C   UNL     1      23.681   1.919  -1.481  1.00  0.00     0.060 A 
BRANCH  96  97
ATOM     97  S   UNL     1      25.457   1.732  -1.750  1.00  0.00     0.124 S 
ATOM     98  O   UNL     1      25.664   0.336  -1.382  1.00  0.00    -0.237 OA
ATOM     99  O   UNL     1      25.594   2.041  -3.170  1.00  0.00    -0.237 OA
ATOM    100  O   UNL     1      26.042   2.715  -0.842  1.00  0.00    -0.744 OA
ENDBRANCH  96  97
ENDBRANCH  64  89
ENDBRANCH  38  39
ENDBRANCH  31  33
ENDBRANCH  30  31
ENDBRANCH  29  30
ENDBRANCH  28  29
ENDBRANCH   1  28
TORSDOF 22
