REMARK SMILES O=C(OCCOCCOC(=O)c1ccc(-c2c3nc(c(-c4c(F)cc(S(=O)(=O)[O-])cc4F)c4ccc([nH]4)c(-c4c(F)cc(S(=O)(=O)[O-])cc4F)c4nc(c(-c5c(F)cc(S(=O)(=O)[O-])cc5F)c5ccc2[nH]5)C=C4)C=C3)cc1)c1ccc(C#CC#C[C@H]2C[C@@H](O)C2)cc1
REMARK SMILES IDX 5 1 4 2 3 3 2 4 1 5 78 6 79 7 92 8 80 9 91 10 81 11 82 12
REMARK SMILES IDX 83 13 84 14 85 15 86 16 90 17 87 18 88 19 89 20 6 22 7 23
REMARK SMILES IDX 8 24 9 25 10 26 11 27 12 28 13 29 77 30 14 31 76 32 15 33
REMARK SMILES IDX 16 34 17 35 70 36 18 37 75 38 69 39 71 40 19 41 74 42 68 43
REMARK SMILES IDX 67 44 20 46 54 47 33 48 53 49 34 50 37 51 52 52 72 53 35 54
REMARK SMILES IDX 36 55 51 57 73 58 38 59 21 60 22 61 31 62 23 63 24 64 30 65
REMARK SMILES IDX 32 66 25 67 26 68 27 69 28 70 29 71 55 72 56 73 65 74 57 75
REMARK SMILES IDX 58 76 64 77 66 78 59 79 60 80 61 81 62 82 63 83 39 84 40 85
REMARK SMILES IDX 49 86 41 87 42 88 48 89 50 90 43 91 44 92 45 93 46 94 47 95
REMARK H PARENT 89 21 71 45 37 56
REMARK Flexibility Score: inf
ROOT
ATOM      1  C   UNL     1       4.482   0.968   0.865  1.00  0.00     0.202 C 
ENDROOT
BRANCH   1   2
ATOM      2  C   UNL     1       4.200   0.771  -0.624  1.00  0.00     0.261 C 
BRANCH   2   3
ATOM      3  O   UNL     1       2.808   0.494  -0.837  1.00  0.00    -0.460 OA
BRANCH   3   4
ATOM      4  C   UNL     1       2.264  -0.740  -0.936  1.00  0.00     0.338 C 
ATOM      5  O   UNL     1       1.044  -0.883  -0.912  1.00  0.00    -0.246 OA
BRANCH   4   6
ATOM      6  C   UNL     1       3.102  -1.946  -1.159  1.00  0.00     0.060 A 
ATOM      7  C   UNL     1       4.139  -2.352  -0.313  1.00  0.00     0.017 A 
ATOM      8  C   UNL     1       2.719  -2.792  -2.205  1.00  0.00     0.017 A 
ATOM      9  C   UNL     1       4.808  -3.551  -0.519  1.00  0.00     0.018 A 
ATOM     10  C   UNL     1       3.378  -4.008  -2.408  1.00  0.00     0.018 A 
ATOM     11  C   UNL     1       4.419  -4.381  -1.560  1.00  0.00     0.026 A 
BRANCH  11  12
ATOM     12  C   UNL     1       5.090  -5.626  -1.700  1.00  0.00    -0.053 C 
ATOM     13  C   UNL     1       5.729  -6.637  -1.703  1.00  0.00    -0.010 C 
BRANCH  13  14
ATOM     14  C   UNL     1       6.611  -7.873  -1.642  1.00  0.00    -0.015 C 
ATOM     15  C   UNL     1       7.350  -8.813  -1.619  1.00  0.00    -0.085 C 
BRANCH  15  16
ATOM     16  C   UNL     1       8.264  -9.922  -1.654  1.00  0.00     0.070 C 
ATOM     17  C   UNL     1       9.050 -10.218  -0.353  1.00  0.00     0.048 C 
ATOM     18  C   UNL     1       7.629 -11.322  -1.481  1.00  0.00     0.048 C 
ATOM     19  C   UNL     1       8.920 -11.717  -0.724  1.00  0.00     0.116 C 
BRANCH  19  20
ATOM     20  O   UNL     1       8.775 -12.646   0.362  1.00  0.00    -0.393 OA
ATOM     21  H   UNL     1       8.068 -12.344   0.953  1.00  0.00     0.210 HD
ENDBRANCH  19  20
ENDBRANCH  15  16
ENDBRANCH  13  14
ENDBRANCH  11  12
ENDBRANCH   4   6
ENDBRANCH   3   4
ENDBRANCH   2   3
ENDBRANCH   1   2
BRANCH   1  22
ATOM     22  O   UNL     1       4.066  -0.117   1.693  1.00  0.00    -0.374 OA
BRANCH  22  23
ATOM     23  C   UNL     1       2.699  -0.112   2.119  1.00  0.00     0.202 C 
BRANCH  23  24
ATOM     24  C   UNL     1       2.633  -0.163   3.644  1.00  0.00     0.261 C 
BRANCH  24  25
ATOM     25  O   UNL     1       3.182   1.052   4.159  1.00  0.00    -0.460 OA
BRANCH  25  26
ATOM     26  C   UNL     1       4.538   1.079   4.217  1.00  0.00     0.338 C 
ATOM     27  O   UNL     1       5.301   0.130   4.258  1.00  0.00    -0.246 OA
BRANCH  26  28
ATOM     28  C   UNL     1       4.955   2.477   3.996  1.00  0.00     0.060 A 
ATOM     29  C   UNL     1       6.136   2.722   3.282  1.00  0.00     0.016 A 
ATOM     30  C   UNL     1       4.162   3.535   4.451  1.00  0.00     0.016 A 
ATOM     31  C   UNL     1       6.561   4.030   3.076  1.00  0.00     0.010 A 
ATOM     32  C   UNL     1       4.585   4.841   4.245  1.00  0.00     0.010 A 
ATOM     33  C   UNL     1       5.812   5.085   3.610  1.00  0.00    -0.014 A 
BRANCH  33  34
ATOM     34  C   UNL     1       6.406   6.428   3.732  1.00  0.00     0.031 A 
ATOM     35  C   UNL     1       6.932   6.835   5.080  1.00  0.00     0.074 A 
ATOM     36  C   UNL     1       6.445   7.261   2.681  1.00  0.00     0.049 A 
ATOM     37  N   UNL     1       7.406   7.985   5.472  1.00  0.00    -0.248 NA
ATOM     38  C   UNL     1       6.895   5.805   6.134  1.00  0.00     0.031 C 
ATOM     39  C   UNL     1       5.981   6.941   1.333  1.00  0.00     0.029 A 
ATOM     40  N   UNL     1       6.883   8.555   2.595  1.00  0.00    -0.354 N 
ATOM     41  C   UNL     1       7.707   7.823   6.820  1.00  0.00     0.074 A 
ATOM     42  C   UNL     1       7.317   6.482   7.189  1.00  0.00     0.031 C 
ATOM     43  C   UNL     1       6.154   8.019   0.549  1.00  0.00     0.029 A 
ATOM     44  C   UNL     1       6.700   9.111   1.354  1.00  0.00     0.049 A 
ATOM     45  H   UNL     1       7.289   9.039   3.349  1.00  0.00     0.167 HD
ATOM     46  C   UNL     1       8.270   8.716   7.667  1.00  0.00     0.037 A 
ATOM     47  C   UNL     1       6.928  10.369   0.932  1.00  0.00     0.037 A 
ATOM     48  C   UNL     1       8.638  10.050   7.273  1.00  0.00     0.049 A 
ATOM     49  C   UNL     1       7.494  11.368   1.907  1.00  0.00     0.074 A 
ATOM     50  C   UNL     1       9.236  11.037   8.033  1.00  0.00     0.029 A 
ATOM     51  N   UNL     1       8.425  10.587   6.010  1.00  0.00    -0.354 N 
ATOM     52  N   UNL     1       7.809  11.201   3.171  1.00  0.00    -0.248 NA
ATOM     53  C   UNL     1       7.741  12.722   1.399  1.00  0.00     0.031 C 
ATOM     54  C   UNL     1       9.316  12.194   7.252  1.00  0.00     0.029 A 
ATOM     55  C   UNL     1       8.849  11.905   5.978  1.00  0.00     0.049 A 
ATOM     56  H   UNL     1       8.031  10.102   5.249  1.00  0.00     0.167 HD
ATOM     57  C   UNL     1       8.328  12.419   3.599  1.00  0.00     0.074 A 
ATOM     58  C   UNL     1       8.289  13.308   2.455  1.00  0.00     0.031 C 
ATOM     59  C   UNL     1       8.801  12.770   4.822  1.00  0.00     0.037 A 
BRANCH  46  60
ATOM     60  C   UNL     1       8.475   8.286   9.095  1.00  0.00     0.058 A 
ATOM     61  C   UNL     1       9.374   7.266   9.448  1.00  0.00     0.135 A 
ATOM     62  C   UNL     1       7.755   8.904  10.131  1.00  0.00     0.135 A 
ATOM     63  F   UNL     1      10.076   6.623   8.501  1.00  0.00    -0.206 F 
ATOM     64  C   UNL     1       9.520   6.845  10.767  1.00  0.00     0.059 A 
ATOM     65  C   UNL     1       7.914   8.527  11.461  1.00  0.00     0.059 A 
ATOM     66  F   UNL     1       6.877   9.881   9.855  1.00  0.00    -0.206 F 
ATOM     67  C   UNL     1       8.784   7.484  11.767  1.00  0.00     0.060 A 
BRANCH  67  68
ATOM     68  S   UNL     1       8.979   6.920  13.470  1.00  0.00     0.124 S 
ATOM     69  O   UNL     1       8.343   5.607  13.418  1.00  0.00    -0.237 OA
ATOM     70  O   UNL     1      10.429   6.916  13.631  1.00  0.00    -0.237 OA
ATOM     71  O   UNL     1       8.267   7.931  14.247  1.00  0.00    -0.744 OA
ENDBRANCH  67  68
ENDBRANCH  46  60
BRANCH  47  72
ATOM     72  C   UNL     1       6.636  10.738  -0.478  1.00  0.00     0.058 A 
ATOM     73  C   UNL     1       7.673  11.031  -1.375  1.00  0.00     0.135 A 
ATOM     74  C   UNL     1       5.320  10.769  -0.968  1.00  0.00     0.135 A 
ATOM     75  F   UNL     1       8.947  11.022  -0.954  1.00  0.00    -0.206 F 
ATOM     76  C   UNL     1       7.418  11.347  -2.705  1.00  0.00     0.059 A 
ATOM     77  C   UNL     1       5.042  11.052  -2.301  1.00  0.00     0.059 A 
ATOM     78  F   UNL     1       4.292  10.482  -0.153  1.00  0.00    -0.206 F 
ATOM     79  C   UNL     1       6.099  11.344  -3.161  1.00  0.00     0.060 A 
BRANCH  79  80
ATOM     80  S   UNL     1       5.791  11.683  -4.907  1.00  0.00     0.124 S 
ATOM     81  O   UNL     1       6.153  13.092  -5.003  1.00  0.00    -0.237 OA
ATOM     82  O   UNL     1       6.698  10.744  -5.561  1.00  0.00    -0.237 OA
ATOM     83  O   UNL     1       4.371  11.383  -5.063  1.00  0.00    -0.744 OA
ENDBRANCH  79  80
ENDBRANCH  47  72
BRANCH  59  84
ATOM     84  C   UNL     1       9.364  14.158   4.977  1.00  0.00     0.058 A 
ATOM     85  C   UNL     1       8.552  15.302   4.944  1.00  0.00     0.135 A 
ATOM     86  C   UNL     1      10.737  14.337   5.219  1.00  0.00     0.135 A 
ATOM     87  F   UNL     1       7.234  15.191   4.712  1.00  0.00    -0.206 F 
ATOM     88  C   UNL     1       9.085  16.576   5.114  1.00  0.00     0.059 A 
ATOM     89  C   UNL     1      11.285  15.597   5.431  1.00  0.00     0.059 A 
ATOM     90  F   UNL     1      11.559  13.276   5.274  1.00  0.00    -0.206 F 
ATOM     91  C   UNL     1      10.453  16.712   5.363  1.00  0.00     0.060 A 
BRANCH  91  92
ATOM     92  S   UNL     1      11.123  18.368   5.614  1.00  0.00     0.124 S 
ATOM     93  O   UNL     1      11.019  18.934   4.273  1.00  0.00    -0.237 OA
ATOM     94  O   UNL     1      10.213  18.923   6.610  1.00  0.00    -0.237 OA
ATOM     95  O   UNL     1      12.483  18.118   6.085  1.00  0.00    -0.744 OA
ENDBRANCH  91  92
ENDBRANCH  59  84
ENDBRANCH  33  34
ENDBRANCH  26  28
ENDBRANCH  25  26
ENDBRANCH  24  25
ENDBRANCH  23  24
ENDBRANCH  22  23
ENDBRANCH   1  22
TORSDOF 21
