REMARK SMILES CC(C)(C)OC(=O)N1CCC[C@H]1C(=O)N[C@@H](Cc1ccccc1)C(=O)OCCOCCOC(=O)c1ccc(-c2c3nc(c(-c4c(F)cc(S(=O)(=O)[O-])cc4F)c4ccc([nH]4)c(-c4c(F)cc(S(=O)(=O)[O-])cc4F)c4nc(c(-c5c(F)cc(S(=O)(=O)[O-])cc5F)c5ccc2[nH]5)C=C4)C=C3)cc1
REMARK SMILES IDX 28 1 27 2 26 3 24 4 25 5 16 6 15 7 13 8 14 9 12 11 8 12 9 13
REMARK SMILES IDX 10 14 11 15 6 16 7 17 5 18 2 19 1 20 3 21 4 22 17 23 18 24
REMARK SMILES IDX 19 25 23 26 20 27 22 28 21 29 29 30 30 31 31 32 32 33 33 34
REMARK SMILES IDX 34 35 35 36 36 37 100 38 37 39 99 40 38 41 39 42 40 43 93 44
REMARK SMILES IDX 41 45 98 46 92 47 94 48 42 49 97 50 91 51 90 52 43 54 77 55
REMARK SMILES IDX 56 56 76 57 57 58 60 59 75 60 95 61 58 62 59 63 74 65 96 66
REMARK SMILES IDX 61 67 44 68 45 69 54 70 46 71 47 72 53 73 55 74 48 75 49 76
REMARK SMILES IDX 50 77 51 78 52 79 78 80 79 81 88 82 80 83 81 84 87 85 89 86
REMARK SMILES IDX 82 87 83 88 84 89 85 90 86 91 62 92 63 93 72 94 64 95 65 96
REMARK SMILES IDX 71 97 73 98 66 99 67 100 68 101 69 102 70 103
REMARK H PARENT 15 10 94 53 60 64
REMARK Flexibility Score: inf
ROOT
ATOM      1  C   UNL     1      -5.694  -4.005   6.058  1.00  0.00     0.202 C 
ENDROOT
BRANCH   1   2
ATOM      2  C   UNL     1      -5.256  -5.464   6.136  1.00  0.00     0.261 C 
BRANCH   2   3
ATOM      3  O   UNL     1      -3.834  -5.505   6.334  1.00  0.00    -0.462 OA
BRANCH   3   4
ATOM      4  C   UNL     1      -3.156  -6.452   5.646  1.00  0.00     0.329 C 
ATOM      5  O   UNL     1      -3.674  -7.353   4.993  1.00  0.00    -0.250 OA
BRANCH   4   6
ATOM      6  C   UNL     1      -1.640  -6.357   5.866  1.00  0.00     0.196 C 
BRANCH   6   7
ATOM      7  N   UNL     1      -1.025  -5.049   6.151  1.00  0.00    -0.341 N 
ATOM      8  C   UNL     1      -0.170  -4.284   5.410  1.00  0.00     0.243 C 
ATOM      9  O   UNL     1       0.348  -3.312   5.965  1.00  0.00    -0.273 OA
ATOM     10  H   UNL     1      -1.271  -4.662   7.022  1.00  0.00     0.164 HD
BRANCH   8  11
ATOM     11  C   UNL     1       0.160  -4.678   3.957  1.00  0.00     0.178 C 
ATOM     12  N   UNL     1       0.816  -3.592   3.228  1.00  0.00    -0.296 N 
ATOM     13  C   UNL     1       2.188  -3.913   2.899  1.00  0.00     0.124 C 
ATOM     14  C   UNL     1       2.173  -5.427   2.826  1.00  0.00     0.024 C 
ATOM     15  C   UNL     1       1.181  -5.825   3.916  1.00  0.00     0.037 C 
BRANCH  12  16
ATOM     16  C   UNL     1       0.139  -2.457   2.863  1.00  0.00     0.410 C 
ATOM     17  O   UNL     1      -1.013  -2.236   3.213  1.00  0.00    -0.224 OA
BRANCH  16  18
ATOM     18  O   UNL     1       0.875  -1.671   2.039  1.00  0.00    -0.444 OA
BRANCH  18  19
ATOM     19  C   UNL     1       0.409  -0.391   1.528  1.00  0.00     0.106 C 
ATOM     20  C   UNL     1       1.140  -0.213   0.188  1.00  0.00     0.056 C 
ATOM     21  C   UNL     1       0.858   0.703   2.499  1.00  0.00     0.056 C 
ATOM     22  C   UNL     1      -1.099  -0.304   1.262  1.00  0.00     0.056 C 
ENDBRANCH  18  19
ENDBRANCH  16  18
ENDBRANCH  12  16
ENDBRANCH   8  11
ENDBRANCH   6   7
BRANCH   6  23
ATOM     23  C   UNL     1      -1.254  -7.398   6.936  1.00  0.00     0.072 C 
BRANCH  23  24
ATOM     24  C   UNL     1      -1.633  -7.204   8.396  1.00  0.00    -0.045 A 
ATOM     25  C   UNL     1      -2.247  -6.068   8.944  1.00  0.00     0.004 A 
ATOM     26  C   UNL     1      -1.316  -8.255   9.275  1.00  0.00     0.004 A 
ATOM     27  C   UNL     1      -2.511  -5.974  10.315  1.00  0.00     0.000 A 
ATOM     28  C   UNL     1      -1.589  -8.167  10.643  1.00  0.00     0.000 A 
ATOM     29  C   UNL     1      -2.181  -7.022  11.164  1.00  0.00     0.000 A 
ENDBRANCH  23  24
ENDBRANCH   6  23
ENDBRANCH   4   6
ENDBRANCH   3   4
ENDBRANCH   2   3
ENDBRANCH   1   2
BRANCH   1  30
ATOM     30  O   UNL     1      -5.258  -3.306   4.890  1.00  0.00    -0.374 OA
BRANCH  30  31
ATOM     31  C   UNL     1      -3.867  -2.991   4.780  1.00  0.00     0.202 C 
BRANCH  31  32
ATOM     32  C   UNL     1      -3.357  -1.797   5.596  1.00  0.00     0.261 C 
BRANCH  32  33
ATOM     33  O   UNL     1      -3.545  -1.948   7.014  1.00  0.00    -0.460 OA
BRANCH  33  34
ATOM     34  C   UNL     1      -4.564  -1.211   7.520  1.00  0.00     0.338 C 
ATOM     35  O   UNL     1      -5.324  -0.480   6.906  1.00  0.00    -0.246 OA
BRANCH  34  36
ATOM     36  C   UNL     1      -4.758  -1.524   8.948  1.00  0.00     0.060 A 
ATOM     37  C   UNL     1      -6.055  -1.841   9.369  1.00  0.00     0.016 A 
ATOM     38  C   UNL     1      -3.719  -1.404   9.874  1.00  0.00     0.016 A 
ATOM     39  C   UNL     1      -6.331  -1.981  10.727  1.00  0.00     0.010 A 
ATOM     40  C   UNL     1      -3.999  -1.541  11.237  1.00  0.00     0.010 A 
ATOM     41  C   UNL     1      -5.314  -1.790  11.671  1.00  0.00    -0.014 A 
BRANCH  41  42
ATOM     42  C   UNL     1      -5.663  -1.705  13.111  1.00  0.00     0.031 A 
ATOM     43  C   UNL     1      -5.785  -0.350  13.756  1.00  0.00     0.074 A 
ATOM     44  C   UNL     1      -5.914  -2.818  13.821  1.00  0.00     0.049 A 
ATOM     45  N   UNL     1      -6.070  -0.043  14.995  1.00  0.00    -0.248 NA
ATOM     46  C   UNL     1      -5.556   0.814  12.884  1.00  0.00     0.031 C 
ATOM     47  C   UNL     1      -5.881  -4.182  13.293  1.00  0.00     0.029 A 
ATOM     48  N   UNL     1      -6.252  -2.976  15.141  1.00  0.00    -0.354 N 
ATOM     49  C   UNL     1      -6.054   1.346  15.054  1.00  0.00     0.074 A 
ATOM     50  C   UNL     1      -5.695   1.820  13.734  1.00  0.00     0.031 C 
ATOM     51  C   UNL     1      -6.191  -5.038  14.281  1.00  0.00     0.029 A 
ATOM     52  C   UNL     1      -6.412  -4.288  15.516  1.00  0.00     0.049 A 
ATOM     53  H   UNL     1      -6.368  -2.220  15.761  1.00  0.00     0.167 HD
ATOM     54  C   UNL     1      -6.327   2.154  16.108  1.00  0.00     0.037 A 
ATOM     55  C   UNL     1      -6.691  -4.820  16.722  1.00  0.00     0.037 A 
ATOM     56  C   UNL     1      -6.675   1.675  17.421  1.00  0.00     0.049 A 
ATOM     57  C   UNL     1      -6.899  -3.907  17.902  1.00  0.00     0.074 A 
ATOM     58  C   UNL     1      -6.968   2.410  18.556  1.00  0.00     0.029 A 
ATOM     59  N   UNL     1      -6.768   0.337  17.776  1.00  0.00    -0.354 N 
ATOM     60  N   UNL     1      -6.887  -2.596  17.944  1.00  0.00    -0.248 NA
ATOM     61  C   UNL     1      -7.155  -4.548  19.200  1.00  0.00     0.031 C 
ATOM     62  C   UNL     1      -7.193   1.515  19.609  1.00  0.00     0.029 A 
ATOM     63  C   UNL     1      -7.090   0.223  19.118  1.00  0.00     0.049 A 
ATOM     64  H   UNL     1      -6.627  -0.420  17.163  1.00  0.00     0.167 HD
ATOM     65  C   UNL     1      -7.165  -2.254  19.264  1.00  0.00     0.074 A 
ATOM     66  C   UNL     1      -7.344  -3.496  19.987  1.00  0.00     0.031 C 
ATOM     67  C   UNL     1      -7.269  -1.022  19.824  1.00  0.00     0.037 A 
BRANCH  54  68
ATOM     68  C   UNL     1      -6.226   3.638  15.882  1.00  0.00     0.058 A 
ATOM     69  C   UNL     1      -7.160   4.332  15.097  1.00  0.00     0.135 A 
ATOM     70  C   UNL     1      -5.178   4.377  16.456  1.00  0.00     0.135 A 
ATOM     71  F   UNL     1      -8.174   3.673  14.512  1.00  0.00    -0.206 F 
ATOM     72  C   UNL     1      -7.037   5.697  14.853  1.00  0.00     0.059 A 
ATOM     73  C   UNL     1      -5.051   5.748  16.249  1.00  0.00     0.059 A 
ATOM     74  F   UNL     1      -4.258   3.766  17.218  1.00  0.00    -0.206 F 
ATOM     75  C   UNL     1      -5.974   6.394  15.428  1.00  0.00     0.060 A 
BRANCH  75  76
ATOM     76  S   UNL     1      -5.808   8.158  15.080  1.00  0.00     0.124 S 
ATOM     77  O   UNL     1      -5.320   8.138  13.704  1.00  0.00    -0.237 OA
ATOM     78  O   UNL     1      -7.172   8.644  15.261  1.00  0.00    -0.237 OA
ATOM     79  O   UNL     1      -4.847   8.613  16.080  1.00  0.00    -0.744 OA
ENDBRANCH  75  76
ENDBRANCH  54  68
BRANCH  55  80
ATOM     80  C   UNL     1      -6.798  -6.296  16.872  1.00  0.00     0.058 A 
ATOM     81  C   UNL     1      -8.036  -6.908  17.114  1.00  0.00     0.135 A 
ATOM     82  C   UNL     1      -5.669  -7.123  16.761  1.00  0.00     0.135 A 
ATOM     83  F   UNL     1      -9.141  -6.158  17.240  1.00  0.00    -0.206 F 
ATOM     84  C   UNL     1      -8.153  -8.288  17.245  1.00  0.00     0.059 A 
ATOM     85  C   UNL     1      -5.764  -8.507  16.865  1.00  0.00     0.059 A 
ATOM     86  F   UNL     1      -4.462  -6.587  16.520  1.00  0.00    -0.206 F 
ATOM     87  C   UNL     1      -7.011  -9.080  17.114  1.00  0.00     0.060 A 
BRANCH  87  88
ATOM     88  S   UNL     1      -7.184 -10.874  17.223  1.00  0.00     0.124 S 
ATOM     89  O   UNL     1      -7.417 -11.061  18.650  1.00  0.00    -0.237 OA
ATOM     90  O   UNL     1      -8.326 -11.125  16.349  1.00  0.00    -0.237 OA
ATOM     91  O   UNL     1      -5.903 -11.365  16.722  1.00  0.00    -0.744 OA
ENDBRANCH  87  88
ENDBRANCH  55  80
BRANCH  67  92
ATOM     92  C   UNL     1      -7.626  -0.953  21.284  1.00  0.00     0.058 A 
ATOM     93  C   UNL     1      -6.704  -1.285  22.288  1.00  0.00     0.135 A 
ATOM     94  C   UNL     1      -8.893  -0.496  21.684  1.00  0.00     0.135 A 
ATOM     95  F   UNL     1      -5.481  -1.734  21.960  1.00  0.00    -0.206 F 
ATOM     96  C   UNL     1      -7.031  -1.188  23.637  1.00  0.00     0.059 A 
ATOM     97  C   UNL     1      -9.233  -0.366  23.027  1.00  0.00     0.059 A 
ATOM     98  F   UNL     1      -9.810  -0.156  20.765  1.00  0.00    -0.206 F 
ATOM     99  C   UNL     1      -8.298  -0.725  23.997  1.00  0.00     0.060 A 
BRANCH  99 100
ATOM    100  S   UNL     1      -8.698  -0.569  25.751  1.00  0.00     0.124 S 
ATOM    101  O   UNL     1      -8.887  -1.964  26.135  1.00  0.00    -0.237 OA
ATOM    102  O   UNL     1      -7.506   0.080  26.288  1.00  0.00    -0.237 OA
ATOM    103  O   UNL     1      -9.905   0.252  25.753  1.00  0.00    -0.744 OA
ENDBRANCH  99 100
ENDBRANCH  67  92
ENDBRANCH  41  42
ENDBRANCH  34  36
ENDBRANCH  33  34
ENDBRANCH  32  33
ENDBRANCH  31  32
ENDBRANCH  30  31
ENDBRANCH   1  30
TORSDOF 24
