REMARK SMILES O=C1C[C@H](c2cn[nH]c2C(=O)OCCOCCOC(=O)c2ccc(-c3c4nc(c(-c5c(F)cc(S(=O)(=O)[O-])cc5F)c5ccc([nH]5)c(-c5c(F)cc(S(=O)(=O)[O-])cc5F)c5nc(c(-c6c(F)cc(S(=O)(=O)[O-])cc6F)c6ccc3[nH]6)C=C5)C=C4)cc2)c2c(-c3cccs3)n[nH]c2N1
REMARK SMILES IDX 16 1 15 2 14 3 13 4 12 5 10 6 11 7 9 8 5 9 6 10 7 11 8 12
REMARK SMILES IDX 4 14 1 15 2 16 3 17 97 18 96 19 87 21 95 22 88 23 94 24
REMARK SMILES IDX 89 26 90 27 93 28 91 29 92 30 17 31 18 32 19 33 20 34 21 35
REMARK SMILES IDX 22 36 86 37 23 38 85 39 24 40 25 41 26 42 79 43 27 44 84 45
REMARK SMILES IDX 78 46 80 47 28 48 83 49 77 50 76 51 29 53 63 54 42 55 62 56
REMARK SMILES IDX 43 57 46 58 61 59 81 60 44 61 45 62 60 64 82 65 47 66 30 67
REMARK SMILES IDX 31 68 40 69 32 70 33 71 39 72 41 73 34 74 35 75 36 76 37 77
REMARK SMILES IDX 38 78 64 79 65 80 74 81 66 82 67 83 73 84 75 85 68 86 69 87
REMARK SMILES IDX 70 88 71 89 72 90 48 91 49 92 58 93 50 94 51 95 57 96 59 97
REMARK SMILES IDX 52 98 53 99 54 100 55 101 56 102
REMARK H PARENT 8 13 97 20 95 25 80 52 46 63
REMARK Flexibility Score: inf
ROOT
ATOM      1  C   UNL     1       4.965  -1.747  -4.426  1.00  0.00     0.202 C 
ENDROOT
BRANCH   1   2
ATOM      2  O   UNL     1       5.960  -2.721  -4.129  1.00  0.00    -0.374 OA
BRANCH   2   3
ATOM      3  C   UNL     1       6.329  -2.939  -2.763  1.00  0.00     0.202 C 
BRANCH   3   4
ATOM      4  C   UNL     1       7.107  -1.810  -2.099  1.00  0.00     0.261 C 
BRANCH   4   5
ATOM      5  O   UNL     1       6.260  -0.671  -1.844  1.00  0.00    -0.459 OA
BRANCH   5   6
ATOM      6  C   UNL     1       6.626   0.474  -2.470  1.00  0.00     0.356 C 
ATOM      7  O   UNL     1       7.585   0.577  -3.225  1.00  0.00    -0.244 OA
BRANCH   6   8
ATOM      8  C   UNL     1       5.657   1.528  -2.311  1.00  0.00     0.147 A 
ATOM      9  C   UNL     1       4.788   2.027  -1.335  1.00  0.00     0.013 A 
ATOM     10  C   UNL     1       4.247   3.195  -1.962  1.00  0.00     0.140 A 
ATOM     11  N   UNL     1       4.675   3.385  -3.204  1.00  0.00    -0.183 NA
ATOM     12  N   UNL     1       5.518   2.371  -3.388  1.00  0.00    -0.271 N 
ATOM     13  H   UNL     1       6.006   2.235  -4.232  1.00  0.00     0.190 HD
BRANCH   9  14
ATOM     14  C   UNL     1       4.462   1.690   0.114  1.00  0.00     0.069 C 
ATOM     15  O   UNL     1       1.116   0.094   0.138  1.00  0.00    -0.275 OA
ATOM     16  C   UNL     1       2.309   0.247   0.395  1.00  0.00     0.226 C 
ATOM     17  C   UNL     1       2.937   1.630   0.377  1.00  0.00     0.114 C 
ATOM     18  N   UNL     1       3.075  -0.812   0.819  1.00  0.00    -0.311 N 
ATOM     19  C   UNL     1       4.421  -0.658   0.949  1.00  0.00     0.132 A 
ATOM     20  H   UNL     1       2.654  -1.677   1.028  1.00  0.00     0.171 HD
ATOM     21  C   UNL     1       5.116   0.486   0.677  1.00  0.00     0.031 A 
ATOM     22  N   UNL     1       5.327  -1.607   1.305  1.00  0.00    -0.262 N 
ATOM     23  C   UNL     1       6.452   0.167   1.009  1.00  0.00     0.108 A 
ATOM     24  N   UNL     1       6.594  -1.136   1.310  1.00  0.00    -0.173 NA
ATOM     25  H   UNL     1       5.087  -2.534   1.533  1.00  0.00     0.192 HD
BRANCH  23  26
ATOM     26  C   UNL     1       7.599   1.109   0.877  1.00  0.00     0.055 A 
ATOM     27  C   UNL     1       8.714   0.854   0.111  1.00  0.00     0.022 A 
ATOM     28  S   UNL     1       7.625   2.672   1.559  1.00  0.00    -0.142 S 
ATOM     29  C   UNL     1       9.534   2.013  -0.021  1.00  0.00     0.012 A 
ATOM     30  C   UNL     1       9.086   3.054   0.762  1.00  0.00     0.065 A 
ENDBRANCH  23  26
ENDBRANCH   9  14
ENDBRANCH   6   8
ENDBRANCH   5   6
ENDBRANCH   4   5
ENDBRANCH   3   4
ENDBRANCH   2   3
ENDBRANCH   1   2
BRANCH   1  31
ATOM     31  C   UNL     1       3.532  -2.105  -4.090  1.00  0.00     0.261 C 
BRANCH  31  32
ATOM     32  O   UNL     1       3.425  -2.544  -2.753  1.00  0.00    -0.460 OA
BRANCH  32  33
ATOM     33  C   UNL     1       3.279  -3.882  -2.597  1.00  0.00     0.338 C 
ATOM     34  O   UNL     1       3.661  -4.770  -3.324  1.00  0.00    -0.246 OA
BRANCH  33  35
ATOM     35  C   UNL     1       2.436  -4.043  -1.412  1.00  0.00     0.060 A 
ATOM     36  C   UNL     1       2.183  -5.318  -0.910  1.00  0.00     0.016 A 
ATOM     37  C   UNL     1       1.717  -2.921  -0.982  1.00  0.00     0.016 A 
ATOM     38  C   UNL     1       1.031  -5.487  -0.167  1.00  0.00     0.010 A 
ATOM     39  C   UNL     1       0.670  -3.069  -0.135  1.00  0.00     0.010 A 
ATOM     40  C   UNL     1       0.242  -4.359   0.087  1.00  0.00    -0.014 A 
BRANCH  40  41
ATOM     41  C   UNL     1      -1.120  -4.461   0.536  1.00  0.00     0.031 A 
ATOM     42  C   UNL     1      -1.194  -4.804   1.962  1.00  0.00     0.074 A 
ATOM     43  C   UNL     1      -2.137  -4.035  -0.244  1.00  0.00     0.049 A 
ATOM     44  N   UNL     1      -1.383  -5.977   2.463  1.00  0.00    -0.248 NA
ATOM     45  C   UNL     1      -0.692  -3.814   2.932  1.00  0.00     0.031 C 
ATOM     46  C   UNL     1      -2.096  -3.346  -1.543  1.00  0.00     0.029 A 
ATOM     47  N   UNL     1      -3.464  -4.059   0.033  1.00  0.00    -0.354 N 
ATOM     48  C   UNL     1      -1.338  -5.785   3.834  1.00  0.00     0.074 A 
ATOM     49  C   UNL     1      -0.611  -4.561   4.034  1.00  0.00     0.031 C 
ATOM     50  C   UNL     1      -3.313  -2.821  -1.819  1.00  0.00     0.029 A 
ATOM     51  C   UNL     1      -4.250  -3.270  -0.808  1.00  0.00     0.049 A 
ATOM     52  H   UNL     1      -3.843  -4.590   0.770  1.00  0.00     0.167 HD
ATOM     53  C   UNL     1      -2.185  -6.463   4.655  1.00  0.00     0.037 A 
ATOM     54  C   UNL     1      -5.564  -2.992  -0.596  1.00  0.00     0.037 A 
ATOM     55  C   UNL     1      -2.830  -7.539   3.934  1.00  0.00     0.049 A 
ATOM     56  C   UNL     1      -6.056  -4.036   0.358  1.00  0.00     0.074 A 
ATOM     57  C   UNL     1      -2.371  -8.660   3.268  1.00  0.00     0.029 A 
ATOM     58  N   UNL     1      -4.096  -7.299   3.446  1.00  0.00    -0.354 N 
ATOM     59  N   UNL     1      -6.097  -5.313   0.065  1.00  0.00    -0.248 NA
ATOM     60  C   UNL     1      -5.959  -3.732   1.780  1.00  0.00     0.031 C 
ATOM     61  C   UNL     1      -3.176  -8.748   2.094  1.00  0.00     0.029 A 
ATOM     62  C   UNL     1      -4.146  -7.744   2.147  1.00  0.00     0.049 A 
ATOM     63  H   UNL     1      -4.837  -6.881   3.942  1.00  0.00     0.167 HD
ATOM     64  C   UNL     1      -5.627  -5.965   1.202  1.00  0.00     0.074 A 
ATOM     65  C   UNL     1      -5.600  -4.935   2.241  1.00  0.00     0.031 C 
ATOM     66  C   UNL     1      -5.012  -7.185   1.125  1.00  0.00     0.037 A 
BRANCH  53  67
ATOM     67  C   UNL     1      -2.729  -5.927   5.956  1.00  0.00     0.058 A 
ATOM     68  C   UNL     1      -3.482  -6.792   6.773  1.00  0.00     0.135 A 
ATOM     69  C   UNL     1      -2.769  -4.561   6.320  1.00  0.00     0.135 A 
ATOM     70  F   UNL     1      -3.509  -8.113   6.530  1.00  0.00    -0.206 F 
ATOM     71  C   UNL     1      -4.283  -6.326   7.814  1.00  0.00     0.059 A 
ATOM     72  C   UNL     1      -3.516  -4.083   7.387  1.00  0.00     0.059 A 
ATOM     73  F   UNL     1      -2.164  -3.600   5.614  1.00  0.00    -0.206 F 
ATOM     74  C   UNL     1      -4.305  -4.965   8.101  1.00  0.00     0.060 A 
BRANCH  74  75
ATOM     75  S   UNL     1      -5.414  -4.348   9.373  1.00  0.00     0.124 S 
ATOM     76  O   UNL     1      -6.717  -4.593   8.766  1.00  0.00    -0.237 OA
ATOM     77  O   UNL     1      -5.065  -5.194  10.509  1.00  0.00    -0.237 OA
ATOM     78  O   UNL     1      -5.029  -2.945   9.502  1.00  0.00    -0.744 OA
ENDBRANCH  74  75
ENDBRANCH  53  67
BRANCH  54  79
ATOM     79  C   UNL     1      -6.265  -1.696  -0.820  1.00  0.00     0.058 A 
ATOM     80  C   UNL     1      -7.668  -1.600  -0.848  1.00  0.00     0.135 A 
ATOM     81  C   UNL     1      -5.566  -0.473  -0.743  1.00  0.00     0.135 A 
ATOM     82  F   UNL     1      -8.416  -2.712  -0.891  1.00  0.00    -0.206 F 
ATOM     83  C   UNL     1      -8.338  -0.368  -0.775  1.00  0.00     0.059 A 
ATOM     84  C   UNL     1      -6.209   0.764  -0.672  1.00  0.00     0.059 A 
ATOM     85  F   UNL     1      -4.229  -0.451  -0.645  1.00  0.00    -0.206 F 
ATOM     86  C   UNL     1      -7.598   0.810  -0.670  1.00  0.00     0.060 A 
BRANCH  86  87
ATOM     87  S   UNL     1      -8.451   2.390  -0.428  1.00  0.00     0.124 S 
ATOM     88  O   UNL     1      -9.117   2.575  -1.713  1.00  0.00    -0.237 OA
ATOM     89  O   UNL     1      -9.324   2.100   0.705  1.00  0.00    -0.237 OA
ATOM     90  O   UNL     1      -7.364   3.325  -0.150  1.00  0.00    -0.744 OA
ENDBRANCH  86  87
ENDBRANCH  54  79
BRANCH  66  91
ATOM     91  C   UNL     1      -5.061  -7.941  -0.184  1.00  0.00     0.058 A 
ATOM     92  C   UNL     1      -4.403  -7.547  -1.365  1.00  0.00     0.135 A 
ATOM     93  C   UNL     1      -5.626  -9.224  -0.173  1.00  0.00     0.135 A 
ATOM     94  F   UNL     1      -3.754  -6.377  -1.432  1.00  0.00    -0.206 F 
ATOM     95  C   UNL     1      -4.328  -8.382  -2.485  1.00  0.00     0.059 A 
ATOM     96  C   UNL     1      -5.539 -10.084  -1.265  1.00  0.00     0.059 A 
ATOM     97  F   UNL     1      -6.213  -9.687   0.943  1.00  0.00    -0.206 F 
ATOM     98  C   UNL     1      -4.895  -9.654  -2.422  1.00  0.00     0.060 A 
BRANCH  98  99
ATOM     99  S   UNL     1      -4.726 -10.773  -3.831  1.00  0.00     0.124 S 
ATOM    100  O   UNL     1      -5.599 -10.153  -4.822  1.00  0.00    -0.237 OA
ATOM    101  O   UNL     1      -3.296 -10.710  -4.117  1.00  0.00    -0.237 OA
ATOM    102  O   UNL     1      -5.191 -12.055  -3.306  1.00  0.00    -0.744 OA
ENDBRANCH  98  99
ENDBRANCH  66  91
ENDBRANCH  40  41
ENDBRANCH  33  35
ENDBRANCH  32  33
ENDBRANCH  31  32
ENDBRANCH   1  31
TORSDOF 19
