REMARK SMILES C[N@@H+]([C@@H]1CCOC2(CCCC2)C1)C(C)(C)C(=O)OCCOCCOC(=O)c1ccc(-c2c3nc(c(-c4c(F)cc(S(=O)(=O)[O-])cc4F)c4ccc([nH]4)c(-c4c(F)cc(S(=O)(=O)[O-])cc4F)c4nc(c(-c5c(F)cc(S(=O)(=O)[O-])cc5F)c5ccc2[nH]5)C=C4)C=C3)cc1
REMARK SMILES IDX 22 1 21 2 20 3 19 4 18 5 16 6 17 7 13 8 14 9 15 10 2 11 1 12
REMARK SMILES IDX 3 14 4 15 12 16 5 17 7 18 6 19 8 20 11 21 9 22 10 23 23 24
REMARK SMILES IDX 24 25 25 26 26 27 27 28 28 29 92 30 29 31 91 32 30 33 31 34
REMARK SMILES IDX 32 35 85 36 33 37 90 38 84 39 86 40 34 41 89 42 83 43 82 44
REMARK SMILES IDX 35 46 69 47 48 48 68 49 49 50 52 51 67 52 87 53 50 54 51 55
REMARK SMILES IDX 66 57 88 58 53 59 36 60 37 61 46 62 38 63 39 64 45 65 47 66
REMARK SMILES IDX 40 67 41 68 42 69 43 70 44 71 70 72 71 73 80 74 72 75 73 76
REMARK SMILES IDX 79 77 81 78 74 79 75 80 76 81 77 82 78 83 54 84 55 85 64 86
REMARK SMILES IDX 56 87 57 88 63 89 65 90 58 91 59 92 60 93 61 94 62 95
REMARK H PARENT 2 13 86 45 52 56
REMARK Flexibility Score: inf
ROOT
ATOM      1  C   UNL     1       1.988  -5.356  -0.149  1.00  0.00     0.202 C 
ENDROOT
BRANCH   1   2
ATOM      2  O   UNL     1       1.052  -6.367  -0.532  1.00  0.00    -0.374 OA
BRANCH   2   3
ATOM      3  C   UNL     1       0.845  -6.494  -1.943  1.00  0.00     0.202 C 
BRANCH   3   4
ATOM      4  C   UNL     1      -0.131  -5.511  -2.614  1.00  0.00     0.261 C 
BRANCH   4   5
ATOM      5  O   UNL     1       0.303  -4.136  -2.591  1.00  0.00    -0.459 OA
BRANCH   5   6
ATOM      6  C   UNL     1      -0.039  -3.475  -1.444  1.00  0.00     0.367 C 
ATOM      7  O   UNL     1      -0.601  -4.063  -0.534  1.00  0.00    -0.245 OA
BRANCH   6   8
ATOM      8  C   UNL     1       0.475  -2.002  -1.407  1.00  0.00     0.190 C 
ATOM      9  C   UNL     1      -0.033  -1.266  -2.661  1.00  0.00     0.092 C 
ATOM     10  C   UNL     1       2.025  -2.139  -1.531  1.00  0.00     0.092 C 
BRANCH   8  11
ATOM     11  N   UNL     1       0.138  -1.265  -0.097  1.00  0.00    -0.321 N 
ATOM     12  C   UNL     1       0.862   0.012  -0.003  1.00  0.00     0.333 C 
ATOM     13  H   UNL     1       0.471  -1.916   0.615  1.00  0.00     0.349 HD
BRANCH  11  14
ATOM     14  C   UNL     1      -1.314  -1.110   0.277  1.00  0.00     0.189 C 
ATOM     15  C   UNL     1      -1.660   0.016   1.303  1.00  0.00     0.093 C 
ATOM     16  C   UNL     1      -1.997  -2.325   0.942  1.00  0.00     0.100 C 
ATOM     17  C   UNL     1      -1.302  -0.328   2.756  1.00  0.00     0.167 C 
ATOM     18  C   UNL     1      -1.390  -2.694   2.310  1.00  0.00     0.074 C 
ATOM     19  O   UNL     1      -1.767  -1.614   3.193  1.00  0.00    -0.375 OA
ATOM     20  C   UNL     1      -2.018  -4.016   2.828  1.00  0.00     0.036 C 
ATOM     21  C   UNL     1       0.133  -2.930   2.428  1.00  0.00     0.036 C 
ATOM     22  C   UNL     1      -0.865  -5.006   2.987  1.00  0.00     0.003 C 
ATOM     23  C   UNL     1       0.307  -4.125   3.355  1.00  0.00     0.003 C 
ENDBRANCH  11  14
ENDBRANCH   8  11
ENDBRANCH   6   8
ENDBRANCH   5   6
ENDBRANCH   4   5
ENDBRANCH   3   4
ENDBRANCH   2   3
ENDBRANCH   1   2
BRANCH   1  24
ATOM     24  C   UNL     1       3.104  -5.874   0.752  1.00  0.00     0.261 C 
BRANCH  24  25
ATOM     25  O   UNL     1       4.015  -6.609  -0.066  1.00  0.00    -0.460 OA
BRANCH  25  26
ATOM     26  C   UNL     1       3.655  -7.909  -0.214  1.00  0.00     0.338 C 
ATOM     27  O   UNL     1       3.098  -8.610   0.600  1.00  0.00    -0.246 OA
BRANCH  26  28
ATOM     28  C   UNL     1       3.834  -8.257  -1.643  1.00  0.00     0.060 A 
ATOM     29  C   UNL     1       2.928  -9.170  -2.196  1.00  0.00     0.016 A 
ATOM     30  C   UNL     1       4.797  -7.633  -2.446  1.00  0.00     0.016 A 
ATOM     31  C   UNL     1       3.002  -9.490  -3.548  1.00  0.00     0.010 A 
ATOM     32  C   UNL     1       4.878  -7.960  -3.797  1.00  0.00     0.010 A 
ATOM     33  C   UNL     1       4.002  -8.913  -4.340  1.00  0.00    -0.014 A 
BRANCH  33  34
ATOM     34  C   UNL     1       4.287  -9.471  -5.675  1.00  0.00     0.031 A 
ATOM     35  C   UNL     1       5.348 -10.530  -5.768  1.00  0.00     0.074 A 
ATOM     36  C   UNL     1       3.627  -9.043  -6.763  1.00  0.00     0.049 A 
ATOM     37  N   UNL     1       5.836 -11.124  -6.822  1.00  0.00    -0.248 NA
ATOM     38  C   UNL     1       5.940 -10.973  -4.493  1.00  0.00     0.031 C 
ATOM     39  C   UNL     1       2.551  -8.053  -6.766  1.00  0.00     0.029 A 
ATOM     40  N   UNL     1       3.778  -9.383  -8.082  1.00  0.00    -0.354 N 
ATOM     41  C   UNL     1       6.789 -12.012  -6.340  1.00  0.00     0.074 A 
ATOM     42  C   UNL     1       6.838 -11.854  -4.904  1.00  0.00     0.031 C 
ATOM     43  C   UNL     1       2.145  -7.857  -8.033  1.00  0.00     0.029 A 
ATOM     44  C   UNL     1       2.957  -8.679  -8.929  1.00  0.00     0.049 A 
ATOM     45  H   UNL     1       4.414 -10.067  -8.393  1.00  0.00     0.167 HD
ATOM     46  C   UNL     1       7.550 -12.887  -7.036  1.00  0.00     0.037 A 
ATOM     47  C   UNL     1       2.894  -8.688 -10.275  1.00  0.00     0.037 A 
ATOM     48  C   UNL     1       7.506 -13.011  -8.466  1.00  0.00     0.049 A 
ATOM     49  C   UNL     1       3.826  -9.594 -11.039  1.00  0.00     0.074 A 
ATOM     50  C   UNL     1       8.232 -13.858  -9.282  1.00  0.00     0.029 A 
ATOM     51  N   UNL     1       6.695 -12.248  -9.296  1.00  0.00    -0.354 N 
ATOM     52  N   UNL     1       4.713 -10.445 -10.575  1.00  0.00    -0.248 NA
ATOM     53  C   UNL     1       3.760  -9.534 -12.505  1.00  0.00     0.031 C 
ATOM     54  C   UNL     1       7.896 -13.572 -10.609  1.00  0.00     0.029 A 
ATOM     55  C   UNL     1       6.924 -12.582 -10.618  1.00  0.00     0.049 A 
ATOM     56  H   UNL     1       6.052 -11.569  -8.989  1.00  0.00     0.167 HD
ATOM     57  C   UNL     1       5.293 -11.038 -11.691  1.00  0.00     0.074 A 
ATOM     58  C   UNL     1       4.652 -10.453 -12.852  1.00  0.00     0.031 C 
ATOM     59  C   UNL     1       6.266 -11.981 -11.754  1.00  0.00     0.037 A 
BRANCH  46  60
ATOM     60  C   UNL     1       8.508 -13.738  -6.252  1.00  0.00     0.058 A 
ATOM     61  C   UNL     1       8.059 -14.770  -5.412  1.00  0.00     0.135 A 
ATOM     62  C   UNL     1       9.890 -13.507  -6.324  1.00  0.00     0.135 A 
ATOM     63  F   UNL     1       6.745 -15.017  -5.286  1.00  0.00    -0.206 F 
ATOM     64  C   UNL     1       8.944 -15.520  -4.644  1.00  0.00     0.059 A 
ATOM     65  C   UNL     1      10.796 -14.262  -5.586  1.00  0.00     0.059 A 
ATOM     66  F   UNL     1      10.372 -12.526  -7.103  1.00  0.00    -0.206 F 
ATOM     67  C   UNL     1      10.312 -15.254  -4.734  1.00  0.00     0.060 A 
BRANCH  67  68
ATOM     68  S   UNL     1      11.447 -16.221  -3.717  1.00  0.00     0.124 S 
ATOM     69  O   UNL     1      11.198 -15.661  -2.392  1.00  0.00    -0.237 OA
ATOM     70  O   UNL     1      10.972 -17.584  -3.928  1.00  0.00    -0.237 OA
ATOM     71  O   UNL     1      12.756 -15.921  -4.290  1.00  0.00    -0.744 OA
ENDBRANCH  67  68
ENDBRANCH  46  60
BRANCH  47  72
ATOM     72  C   UNL     1       1.928  -7.806 -10.981  1.00  0.00     0.058 A 
ATOM     73  C   UNL     1       0.821  -8.341 -11.656  1.00  0.00     0.135 A 
ATOM     74  C   UNL     1       2.080  -6.410 -10.983  1.00  0.00     0.135 A 
ATOM     75  F   UNL     1       0.638  -9.670 -11.694  1.00  0.00    -0.206 F 
ATOM     76  C   UNL     1      -0.099  -7.527 -12.310  1.00  0.00     0.059 A 
ATOM     77  C   UNL     1       1.162  -5.574 -11.610  1.00  0.00     0.059 A 
ATOM     78  F   UNL     1       3.118  -5.845 -10.346  1.00  0.00    -0.206 F 
ATOM     79  C   UNL     1       0.077  -6.143 -12.276  1.00  0.00     0.060 A 
BRANCH  79  80
ATOM     80  S   UNL     1      -1.159  -5.092 -13.071  1.00  0.00     0.124 S 
ATOM     81  O   UNL     1      -0.880  -5.326 -14.483  1.00  0.00    -0.237 OA
ATOM     82  O   UNL     1      -2.408  -5.653 -12.564  1.00  0.00    -0.237 OA
ATOM     83  O   UNL     1      -0.834  -3.758 -12.575  1.00  0.00    -0.744 OA
ENDBRANCH  79  80
ENDBRANCH  47  72
BRANCH  59  84
ATOM     84  C   UNL     1       6.687 -12.456 -13.116  1.00  0.00     0.058 A 
ATOM     85  C   UNL     1       7.495 -11.668 -13.949  1.00  0.00     0.135 A 
ATOM     86  C   UNL     1       6.353 -13.748 -13.552  1.00  0.00     0.135 A 
ATOM     87  F   UNL     1       7.835 -10.423 -13.581  1.00  0.00    -0.206 F 
ATOM     88  C   UNL     1       7.953 -12.144 -15.173  1.00  0.00     0.059 A 
ATOM     89  C   UNL     1       6.821 -14.254 -14.759  1.00  0.00     0.059 A 
ATOM     90  F   UNL     1       5.590 -14.544 -12.785  1.00  0.00    -0.206 F 
ATOM     91  C   UNL     1       7.617 -13.441 -15.566  1.00  0.00     0.060 A 
BRANCH  91  92
ATOM     92  S   UNL     1       8.273 -14.069 -17.126  1.00  0.00     0.124 S 
ATOM     93  O   UNL     1       7.468 -13.337 -18.099  1.00  0.00    -0.237 OA
ATOM     94  O   UNL     1       9.679 -13.685 -17.050  1.00  0.00    -0.237 OA
ATOM     95  O   UNL     1       8.016 -15.504 -17.051  1.00  0.00    -0.744 OA
ENDBRANCH  91  92
ENDBRANCH  59  84
ENDBRANCH  33  34
ENDBRANCH  26  28
ENDBRANCH  25  26
ENDBRANCH  24  25
ENDBRANCH   1  24
TORSDOF 19
