REMARK SMILES CC1=C(C)C[C@@H](C(=O)OCCOCCOC(=O)c2ccc(-c3c4nc(c(-c5c(F)cc(S(=O)(=O)[O-])cc5F)c5ccc([nH]5)c(-c5c(F)cc(S(=O)(=O)[O-])cc5F)c5nc(c(-c6c(F)cc(S(=O)(=O)[O-])cc6F)c6ccc3[nH]6)C=C5)C=C4)cc2)[C@@H](C(=O)NCC[NH+]2CCOCC2)C1
REMARK SMILES IDX 11 1 10 2 9 3 7 4 8 5 6 6 1 7 2 8 3 9 96 10 4 11 5 12 84 13
REMARK SMILES IDX 85 14 86 15 87 16 88 18 89 19 90 20 91 21 95 22 92 24 94 25
REMARK SMILES IDX 93 26 12 27 13 28 14 29 15 30 16 31 17 32 18 33 19 34 83 35
REMARK SMILES IDX 20 36 82 37 21 38 22 39 23 40 76 41 24 42 81 43 75 44 77 45
REMARK SMILES IDX 25 46 80 47 74 48 73 49 26 51 60 52 39 53 59 54 40 55 43 56
REMARK SMILES IDX 58 57 78 58 41 59 42 60 57 62 79 63 44 64 27 65 28 66 37 67
REMARK SMILES IDX 29 68 30 69 36 70 38 71 31 72 32 73 33 74 34 75 35 76 61 77
REMARK SMILES IDX 62 78 71 79 63 80 64 81 70 82 72 83 65 84 66 85 67 86 68 87
REMARK SMILES IDX 69 88 45 89 46 90 55 91 47 92 48 93 54 94 56 95 49 96 50 97
REMARK SMILES IDX 51 98 52 99 53 100
REMARK H PARENT 87 17 90 23 77 50 43 61
REMARK Flexibility Score: inf
ROOT
ATOM      1  C   UNL     1       2.954  -3.110   5.813  1.00  0.00     0.202 C 
ENDROOT
BRANCH   1   2
ATOM      2  C   UNL     1       3.052  -3.725   4.415  1.00  0.00     0.261 C 
BRANCH   2   3
ATOM      3  O   UNL     1       2.099  -3.134   3.503  1.00  0.00    -0.463 OA
BRANCH   3   4
ATOM      4  C   UNL     1       0.925  -3.784   3.344  1.00  0.00     0.310 C 
ATOM      5  O   UNL     1       0.652  -4.858   3.869  1.00  0.00    -0.252 OA
BRANCH   4   6
ATOM      6  C   UNL     1      -0.013  -3.115   2.348  1.00  0.00     0.116 C 
ATOM      7  C   UNL     1       0.783   0.149  -0.579  1.00  0.00     0.039 C 
ATOM      8  C   UNL     1       0.395  -1.036   0.266  1.00  0.00    -0.074 C 
ATOM      9  C   UNL     1       0.878  -2.278   0.065  1.00  0.00    -0.073 C 
ATOM     10  C   UNL     1      -0.591  -0.753   1.369  1.00  0.00     0.045 C 
ATOM     11  C   UNL     1       1.819  -2.652  -1.050  1.00  0.00     0.039 C 
ATOM     12  C   UNL     1       0.457  -3.441   0.924  1.00  0.00     0.046 C 
ATOM     13  C   UNL     1      -0.521  -1.679   2.592  1.00  0.00     0.097 C 
BRANCH  13  14
ATOM     14  C   UNL     1      -0.050  -0.916   3.826  1.00  0.00     0.224 C 
ATOM     15  O   UNL     1      -0.835  -0.755   4.767  1.00  0.00    -0.275 OA
ATOM     16  N   UNL     1       1.188  -0.383   3.942  1.00  0.00    -0.350 N 
ATOM     17  H   UNL     1       1.396  -0.010   4.829  1.00  0.00     0.163 HD
BRANCH  16  18
ATOM     18  C   UNL     1       2.260  -0.273   2.969  1.00  0.00     0.177 C 
BRANCH  18  19
ATOM     19  C   UNL     1       2.418   1.176   2.468  1.00  0.00     0.283 C 
BRANCH  19  20
ATOM     20  N   UNL     1       3.350   1.907   3.330  1.00  0.00    -0.330 N 
ATOM     21  C   UNL     1       3.177   3.372   3.278  1.00  0.00     0.291 C 
ATOM     22  C   UNL     1       4.756   1.593   2.986  1.00  0.00     0.291 C 
ATOM     23  H   UNL     1       3.133   1.596   4.277  1.00  0.00     0.348 HD
ATOM     24  C   UNL     1       3.768   4.060   2.040  1.00  0.00     0.221 C 
ATOM     25  C   UNL     1       5.291   2.289   1.728  1.00  0.00     0.221 C 
ATOM     26  O   UNL     1       5.135   3.705   1.830  1.00  0.00    -0.370 OA
ENDBRANCH  19  20
ENDBRANCH  18  19
ENDBRANCH  16  18
ENDBRANCH  13  14
ENDBRANCH   4   6
ENDBRANCH   3   4
ENDBRANCH   2   3
ENDBRANCH   1   2
BRANCH   1  27
ATOM     27  O   UNL     1       1.903  -3.633   6.628  1.00  0.00    -0.374 OA
BRANCH  27  28
ATOM     28  C   UNL     1       0.663  -2.929   6.552  1.00  0.00     0.202 C 
BRANCH  28  29
ATOM     29  C   UNL     1       0.552  -1.690   7.454  1.00  0.00     0.261 C 
BRANCH  29  30
ATOM     30  O   UNL     1       1.538  -0.685   7.140  1.00  0.00    -0.460 OA
BRANCH  30  31
ATOM     31  C   UNL     1       2.634  -0.700   7.944  1.00  0.00     0.338 C 
ATOM     32  O   UNL     1       2.815  -1.400   8.922  1.00  0.00    -0.246 OA
BRANCH  31  33
ATOM     33  C   UNL     1       3.697   0.156   7.369  1.00  0.00     0.060 A 
ATOM     34  C   UNL     1       5.004  -0.349   7.329  1.00  0.00     0.016 A 
ATOM     35  C   UNL     1       3.443   1.445   6.916  1.00  0.00     0.016 A 
ATOM     36  C   UNL     1       6.068   0.446   6.878  1.00  0.00     0.010 A 
ATOM     37  C   UNL     1       4.511   2.226   6.456  1.00  0.00     0.010 A 
ATOM     38  C   UNL     1       5.846   1.758   6.448  1.00  0.00    -0.014 A 
BRANCH  38  39
ATOM     39  C   UNL     1       6.972   2.676   6.048  1.00  0.00     0.031 A 
ATOM     40  C   UNL     1       7.117   4.016   6.740  1.00  0.00     0.074 A 
ATOM     41  C   UNL     1       7.828   2.392   5.038  1.00  0.00     0.049 A 
ATOM     42  N   UNL     1       7.952   4.997   6.495  1.00  0.00    -0.248 NA
ATOM     43  C   UNL     1       6.178   4.298   7.837  1.00  0.00     0.031 C 
ATOM     44  C   UNL     1       7.846   1.164   4.240  1.00  0.00     0.029 A 
ATOM     45  N   UNL     1       8.829   3.154   4.471  1.00  0.00    -0.354 N 
ATOM     46  C   UNL     1       7.635   5.999   7.406  1.00  0.00     0.074 A 
ATOM     47  C   UNL     1       6.448   5.564   8.108  1.00  0.00     0.031 C 
ATOM     48  C   UNL     1       8.761   1.279   3.261  1.00  0.00     0.029 A 
ATOM     49  C   UNL     1       9.416   2.581   3.365  1.00  0.00     0.049 A 
ATOM     50  H   UNL     1       9.099   4.032   4.826  1.00  0.00     0.167 HD
ATOM     51  C   UNL     1       8.302   7.142   7.703  1.00  0.00     0.037 A 
ATOM     52  C   UNL     1      10.374   3.034   2.528  1.00  0.00     0.037 A 
ATOM     53  C   UNL     1       9.504   7.576   7.044  1.00  0.00     0.049 A 
ATOM     54  C   UNL     1      11.059   4.347   2.805  1.00  0.00     0.074 A 
ATOM     55  C   UNL     1      10.306   8.663   7.345  1.00  0.00     0.029 A 
ATOM     56  N   UNL     1      10.071   6.954   5.943  1.00  0.00    -0.354 N 
ATOM     57  N   UNL     1      10.829   5.214   3.760  1.00  0.00    -0.248 NA
ATOM     58  C   UNL     1      12.174   4.719   1.917  1.00  0.00     0.031 C 
ATOM     59  C   UNL     1      11.328   8.730   6.392  1.00  0.00     0.029 A 
ATOM     60  C   UNL     1      11.197   7.651   5.533  1.00  0.00     0.049 A 
ATOM     61  H   UNL     1       9.725   6.138   5.514  1.00  0.00     0.167 HD
ATOM     62  C   UNL     1      11.812   6.193   3.633  1.00  0.00     0.074 A 
ATOM     63  C   UNL     1      12.625   5.824   2.495  1.00  0.00     0.031 C 
ATOM     64  C   UNL     1      12.029   7.281   4.413  1.00  0.00     0.037 A 
BRANCH  51  65
ATOM     65  C   UNL     1       7.748   7.978   8.828  1.00  0.00     0.058 A 
ATOM     66  C   UNL     1       7.711   7.495  10.149  1.00  0.00     0.135 A 
ATOM     67  C   UNL     1       7.211   9.251   8.585  1.00  0.00     0.135 A 
ATOM     68  F   UNL     1       8.209   6.282  10.441  1.00  0.00    -0.206 F 
ATOM     69  C   UNL     1       7.083   8.203  11.166  1.00  0.00     0.059 A 
ATOM     70  C   UNL     1       6.617   9.997   9.599  1.00  0.00     0.059 A 
ATOM     71  F   UNL     1       7.236   9.773   7.348  1.00  0.00    -0.206 F 
ATOM     72  C   UNL     1       6.526   9.448  10.877  1.00  0.00     0.060 A 
BRANCH  72  73
ATOM     73  S   UNL     1       5.651  10.322  12.191  1.00  0.00     0.124 S 
ATOM     74  O   UNL     1       4.418   9.544  12.283  1.00  0.00    -0.237 OA
ATOM     75  O   UNL     1       6.567  10.190  13.319  1.00  0.00    -0.237 OA
ATOM     76  O   UNL     1       5.503  11.673  11.660  1.00  0.00    -0.744 OA
ENDBRANCH  72  73
ENDBRANCH  51  65
BRANCH  52  77
ATOM     77  C   UNL     1      10.825   2.187   1.388  1.00  0.00     0.058 A 
ATOM     78  C   UNL     1      12.047   1.500   1.451  1.00  0.00     0.135 A 
ATOM     79  C   UNL     1      10.055   2.043   0.223  1.00  0.00     0.135 A 
ATOM     80  F   UNL     1      12.825   1.619   2.538  1.00  0.00    -0.206 F 
ATOM     81  C   UNL     1      12.492   0.702   0.403  1.00  0.00     0.059 A 
ATOM     82  C   UNL     1      10.473   1.238  -0.835  1.00  0.00     0.059 A 
ATOM     83  F   UNL     1       8.874   2.671   0.114  1.00  0.00    -0.206 F 
ATOM     84  C   UNL     1      11.694   0.570  -0.734  1.00  0.00     0.060 A 
BRANCH  84  85
ATOM     85  S   UNL     1      12.252  -0.535  -2.050  1.00  0.00     0.124 S 
ATOM     86  O   UNL     1      13.426   0.168  -2.553  1.00  0.00    -0.237 OA
ATOM     87  O   UNL     1      12.512  -1.769  -1.315  1.00  0.00    -0.237 OA
ATOM     88  O   UNL     1      11.109  -0.584  -2.957  1.00  0.00    -0.744 OA
ENDBRANCH  84  85
ENDBRANCH  52  77
BRANCH  64  89
ATOM     89  C   UNL     1      13.237   8.134   4.127  1.00  0.00     0.058 A 
ATOM     90  C   UNL     1      13.321   8.960   2.997  1.00  0.00     0.135 A 
ATOM     91  C   UNL     1      14.302   8.176   5.045  1.00  0.00     0.135 A 
ATOM     92  F   UNL     1      12.339   8.956   2.081  1.00  0.00    -0.206 F 
ATOM     93  C   UNL     1      14.420   9.788   2.779  1.00  0.00     0.059 A 
ATOM     94  C   UNL     1      15.395   9.018   4.864  1.00  0.00     0.059 A 
ATOM     95  F   UNL     1      14.274   7.412   6.149  1.00  0.00    -0.206 F 
ATOM     96  C   UNL     1      15.449   9.816   3.723  1.00  0.00     0.060 A 
BRANCH  96  97
ATOM     97  S   UNL     1      16.842  10.934   3.456  1.00  0.00     0.124 S 
ATOM     98  O   UNL     1      17.540  10.279   2.355  1.00  0.00    -0.237 OA
ATOM     99  O   UNL     1      16.174  12.189   3.125  1.00  0.00    -0.237 OA
ATOM    100  O   UNL     1      17.540  10.922   4.738  1.00  0.00    -0.744 OA
ENDBRANCH  96  97
ENDBRANCH  64  89
ENDBRANCH  38  39
ENDBRANCH  31  33
ENDBRANCH  30  31
ENDBRANCH  29  30
ENDBRANCH  28  29
ENDBRANCH  27  28
ENDBRANCH   1  27
TORSDOF 21
