REMARK SMILES NS(=O)(=O)c1ccc(C#Cc2cc(Cl)cc3c2O[C@H](C(F)(F)F)C(C(=O)OCCOCCOC(=O)c2ccc(-c4c5nc(c(-c6c(F)cc(S(=O)(=O)[O-])cc6F)c6ccc([nH]6)c(-c6c(F)cc(S(=O)(=O)[O-])cc6F)c6nc(c(-c7c(F)cc(S(=O)(=O)[O-])cc7F)c7ccc4[nH]7)C=C6)C=C5)cc2)=C3)cc1
REMARK SMILES IDX 29 1 28 2 27 3 25 4 26 5 24 6 11 7 12 8 17 9 13 10 16 11
REMARK SMILES IDX 18 12 14 13 15 14 102 15 19 16 10 17 9 18 8 19 5 20 6 21
REMARK SMILES IDX 104 22 7 23 103 24 2 25 3 26 4 27 1 28 20 31 21 32 22 33
REMARK SMILES IDX 23 34 30 35 31 36 32 37 33 38 34 39 35 40 36 41 37 42 101 43
REMARK SMILES IDX 38 44 100 45 39 46 40 47 41 48 94 49 42 50 99 51 93 52 95 53
REMARK SMILES IDX 43 54 98 55 92 56 91 57 44 59 78 60 57 61 77 62 58 63 61 64
REMARK SMILES IDX 76 65 96 66 59 67 60 68 75 70 97 71 62 72 45 73 46 74 55 75
REMARK SMILES IDX 47 76 48 77 54 78 56 79 49 80 50 81 51 82 52 83 53 84 79 85
REMARK SMILES IDX 80 86 89 87 81 88 82 89 88 90 90 91 83 92 84 93 85 94 86 95
REMARK SMILES IDX 87 96 63 97 64 98 73 99 65 100 66 101 72 102 74 103 67 104
REMARK SMILES IDX 68 105 69 106 70 107 71 108
REMARK H PARENT 1 29 1 30 95 58 61 69
REMARK Flexibility Score: inf
ROOT
ATOM      1  C   UNL     1       0.557   2.126 -16.129  1.00  0.00     0.202 C 
ENDROOT
BRANCH   1   2
ATOM      2  C   UNL     1       1.821   1.887 -15.298  1.00  0.00     0.261 C 
BRANCH   2   3
ATOM      3  O   UNL     1       1.647   2.220 -13.914  1.00  0.00    -0.460 OA
BRANCH   3   4
ATOM      4  C   UNL     1       2.269   3.361 -13.538  1.00  0.00     0.338 C 
ATOM      5  O   UNL     1       2.976   4.074 -14.233  1.00  0.00    -0.246 OA
BRANCH   4   6
ATOM      6  C   UNL     1       1.857   3.732 -12.170  1.00  0.00     0.087 C 
ATOM      7  C   UNL     1       1.310   5.014  -8.239  1.00  0.00     0.069 A 
ATOM      8  C   UNL     1       1.265   6.387  -7.971  1.00  0.00     0.041 A 
ATOM      9  C   UNL     1       1.374   4.559  -9.566  1.00  0.00     0.143 A 
ATOM     10  C   UNL     1       1.273   7.300  -9.021  1.00  0.00     0.043 A 
ATOM     11  C   UNL     1       1.425   5.488 -10.610  1.00  0.00     0.020 A 
ATOM     12  O   UNL     1       1.369   3.207  -9.785  1.00  0.00    -0.474 OA
ATOM     13  Cl  UNL     1       1.224   8.988  -8.690  1.00  0.00    -0.084 Cl
ATOM     14  C   UNL     1       1.352   6.859 -10.338  1.00  0.00     0.032 A 
ATOM     15  C   UNL     1       1.651   5.040 -11.970  1.00  0.00     0.027 C 
ATOM     16  C   UNL     1       1.743   2.690 -11.094  1.00  0.00     0.316 C 
BRANCH   7  17
ATOM     17  C   UNL     1       1.336   4.106  -7.133  1.00  0.00    -0.058 C 
ATOM     18  C   UNL     1       1.352   3.352  -6.195  1.00  0.00    -0.062 C 
BRANCH  18  19
ATOM     19  C   UNL     1       1.302   2.438  -5.098  1.00  0.00     0.025 A 
ATOM     20  C   UNL     1       0.965   0.620  -3.014  1.00  0.00     0.082 A 
ATOM     21  C   UNL     1       0.820   1.988  -2.766  1.00  0.00     0.023 A 
ATOM     22  C   UNL     1       1.330   0.159  -4.282  1.00  0.00     0.023 A 
ATOM     23  C   UNL     1       0.993   2.898  -3.813  1.00  0.00     0.018 A 
ATOM     24  C   UNL     1       1.497   1.073  -5.325  1.00  0.00     0.018 A 
BRANCH  20  25
ATOM     25  S   UNL     1       0.628  -0.553  -1.736  1.00  0.00     0.238 S 
ATOM     26  O   UNL     1       1.349  -1.774  -2.002  1.00  0.00    -0.207 OA
ATOM     27  O   UNL     1      -0.787  -0.522  -1.450  1.00  0.00    -0.207 OA
BRANCH  25  28
ATOM     28  N   UNL     1       1.381   0.102  -0.381  1.00  0.00    -0.225 NA
ATOM     29  H   UNL     1       1.239  -0.514   0.419  1.00  0.00     0.137 HD
ATOM     30  H   UNL     1       0.981   1.019  -0.179  1.00  0.00     0.137 HD
ENDBRANCH  25  28
ENDBRANCH  20  25
ENDBRANCH  18  19
ENDBRANCH   7  17
BRANCH  16  31
ATOM     31  C   UNL     1       3.025   1.860 -10.935  1.00  0.00     0.430 C 
ATOM     32  F   UNL     1       2.916   0.983  -9.910  1.00  0.00    -0.167 F 
ATOM     33  F   UNL     1       3.296   1.137 -12.045  1.00  0.00    -0.167 F 
ATOM     34  F   UNL     1       4.097   2.647 -10.688  1.00  0.00    -0.167 F 
ENDBRANCH  16  31
ENDBRANCH   4   6
ENDBRANCH   3   4
ENDBRANCH   2   3
ENDBRANCH   1   2
BRANCH   1  35
ATOM     35  O   UNL     1      -0.068   3.405 -16.082  1.00  0.00    -0.374 OA
BRANCH  35  36
ATOM     36  C   UNL     1      -0.756   3.797 -14.898  1.00  0.00     0.202 C 
BRANCH  36  37
ATOM     37  C   UNL     1      -2.038   3.062 -14.479  1.00  0.00     0.261 C 
BRANCH  37  38
ATOM     38  O   UNL     1      -1.861   1.654 -14.269  1.00  0.00    -0.460 OA
BRANCH  38  39
ATOM     39  C   UNL     1      -2.394   0.869 -15.242  1.00  0.00     0.338 C 
ATOM     40  O   UNL     1      -2.994   1.235 -16.237  1.00  0.00    -0.246 OA
BRANCH  39  41
ATOM     41  C   UNL     1      -1.960  -0.525 -15.028  1.00  0.00     0.060 A 
ATOM     42  C   UNL     1      -2.273  -1.200 -13.850  1.00  0.00     0.016 A 
ATOM     43  C   UNL     1      -1.261  -1.170 -16.058  1.00  0.00     0.016 A 
ATOM     44  C   UNL     1      -1.901  -2.539 -13.715  1.00  0.00     0.010 A 
ATOM     45  C   UNL     1      -0.892  -2.507 -15.920  1.00  0.00     0.010 A 
ATOM     46  C   UNL     1      -1.228  -3.210 -14.755  1.00  0.00    -0.014 A 
BRANCH  46  47
ATOM     47  C   UNL     1      -1.001  -4.675 -14.670  1.00  0.00     0.031 A 
ATOM     48  C   UNL     1       0.372  -5.251 -14.483  1.00  0.00     0.074 A 
ATOM     49  C   UNL     1      -2.068  -5.492 -14.773  1.00  0.00     0.049 A 
ATOM     50  N   UNL     1       0.719  -6.501 -14.314  1.00  0.00    -0.248 NA
ATOM     51  C   UNL     1       1.501  -4.308 -14.493  1.00  0.00     0.031 C 
ATOM     52  C   UNL     1      -3.445  -5.046 -15.001  1.00  0.00     0.029 A 
ATOM     53  N   UNL     1      -2.172  -6.858 -14.685  1.00  0.00    -0.354 N 
ATOM     54  C   UNL     1       2.101  -6.498 -14.171  1.00  0.00     0.074 A 
ATOM     55  C   UNL     1       2.535  -5.125 -14.334  1.00  0.00     0.031 C 
ATOM     56  C   UNL     1      -4.259  -6.111 -14.987  1.00  0.00     0.029 A 
ATOM     57  C   UNL     1      -3.463  -7.320 -14.793  1.00  0.00     0.049 A 
ATOM     58  H   UNL     1      -1.397  -7.450 -14.558  1.00  0.00     0.167 HD
ATOM     59  C   UNL     1       2.924  -7.542 -13.906  1.00  0.00     0.037 A 
ATOM     60  C   UNL     1      -3.955  -8.573 -14.739  1.00  0.00     0.037 A 
ATOM     61  C   UNL     1       2.479  -8.907 -13.764  1.00  0.00     0.049 A 
ATOM     62  C   UNL     1      -3.012  -9.720 -14.498  1.00  0.00     0.074 A 
ATOM     63  C   UNL     1       3.236 -10.028 -13.466  1.00  0.00     0.029 A 
ATOM     64  N   UNL     1       1.171  -9.342 -13.921  1.00  0.00    -0.354 N 
ATOM     65  N   UNL     1      -1.716  -9.691 -14.292  1.00  0.00    -0.248 NA
ATOM     66  C   UNL     1      -3.593 -11.069 -14.477  1.00  0.00     0.031 C 
ATOM     67  C   UNL     1       2.399 -11.146 -13.507  1.00  0.00     0.029 A 
ATOM     68  C   UNL     1       1.106 -10.718 -13.759  1.00  0.00     0.049 A 
ATOM     69  H   UNL     1       0.402  -8.760 -14.119  1.00  0.00     0.167 HD
ATOM     70  C   UNL     1      -1.333 -11.012 -14.090  1.00  0.00     0.074 A 
ATOM     71  C   UNL     1      -2.535 -11.814 -14.185  1.00  0.00     0.031 C 
ATOM     72  C   UNL     1      -0.096 -11.512 -13.848  1.00  0.00     0.037 A 
BRANCH  59  73
ATOM     73  C   UNL     1       4.394  -7.260 -13.736  1.00  0.00     0.058 A 
ATOM     74  C   UNL     1       4.881  -6.561 -12.620  1.00  0.00     0.135 A 
ATOM     75  C   UNL     1       5.334  -7.767 -14.649  1.00  0.00     0.135 A 
ATOM     76  F   UNL     1       4.028  -6.046 -11.719  1.00  0.00    -0.206 F 
ATOM     77  C   UNL     1       6.243  -6.358 -12.425  1.00  0.00     0.059 A 
ATOM     78  C   UNL     1       6.703  -7.603 -14.457  1.00  0.00     0.059 A 
ATOM     79  F   UNL     1       4.926  -8.447 -15.732  1.00  0.00    -0.206 F 
ATOM     80  C   UNL     1       7.147  -6.888 -13.346  1.00  0.00     0.060 A 
BRANCH  80  81
ATOM     81  S   UNL     1       8.911  -6.623 -13.066  1.00  0.00     0.124 S 
ATOM     82  O   UNL     1       9.019  -5.177 -13.239  1.00  0.00    -0.237 OA
ATOM     83  O   UNL     1       9.083  -7.112 -11.702  1.00  0.00    -0.237 OA
ATOM     84  O   UNL     1       9.548  -7.426 -14.105  1.00  0.00    -0.744 OA
ENDBRANCH  80  81
ENDBRANCH  59  73
BRANCH  60  85
ATOM     85  C   UNL     1      -5.418  -8.798 -14.886  1.00  0.00     0.058 A 
ATOM     86  C   UNL     1      -6.193  -9.245 -13.806  1.00  0.00     0.135 A 
ATOM     87  C   UNL     1      -6.078  -8.540 -16.099  1.00  0.00     0.135 A 
ATOM     88  F   UNL     1      -5.610  -9.512 -12.627  1.00  0.00    -0.206 F 
ATOM     89  C   UNL     1      -7.565  -9.440 -13.923  1.00  0.00     0.059 A 
ATOM     90  C   UNL     1      -7.454  -8.697 -16.232  1.00  0.00     0.059 A 
ATOM     91  F   UNL     1      -5.386  -8.096 -17.160  1.00  0.00    -0.206 F 
ATOM     92  C   UNL     1      -8.188  -9.155 -15.140  1.00  0.00     0.060 A 
BRANCH  92  93
ATOM     93  S   UNL     1      -9.977  -9.363 -15.262  1.00  0.00     0.124 S 
ATOM     94  O   UNL     1     -10.115 -10.809 -15.135  1.00  0.00    -0.237 OA
ATOM     95  O   UNL     1     -10.451  -8.574 -14.129  1.00  0.00    -0.237 OA
ATOM     96  O   UNL     1     -10.292  -8.813 -16.577  1.00  0.00    -0.744 OA
ENDBRANCH  92  93
ENDBRANCH  60  85
BRANCH  72  97
ATOM     97  C   UNL     1       0.038 -12.998 -13.641  1.00  0.00     0.058 A 
ATOM     98  C   UNL     1      -0.106 -13.907 -14.700  1.00  0.00     0.135 A 
ATOM     99  C   UNL     1       0.409 -13.511 -12.386  1.00  0.00     0.135 A 
ATOM    100  F   UNL     1      -0.468 -13.475 -15.918  1.00  0.00    -0.206 F 
ATOM    101  C   UNL     1       0.105 -15.271 -14.521  1.00  0.00     0.059 A 
ATOM    102  C   UNL     1       0.658 -14.866 -12.193  1.00  0.00     0.059 A 
ATOM    103  F   UNL     1       0.569 -12.686 -11.339  1.00  0.00    -0.206 F 
ATOM    104  C   UNL     1       0.498 -15.740 -13.266  1.00  0.00     0.060 A 
BRANCH 104 105
ATOM    105  S   UNL     1       0.826 -17.504 -13.071  1.00  0.00     0.124 S 
ATOM    106  O   UNL     1      -0.506 -18.074 -13.241  1.00  0.00    -0.237 OA
ATOM    107  O   UNL     1       1.770 -17.764 -14.153  1.00  0.00    -0.237 OA
ATOM    108  O   UNL     1       1.381 -17.602 -11.724  1.00  0.00    -0.744 OA
ENDBRANCH 104 105
ENDBRANCH  72  97
ENDBRANCH  46  47
ENDBRANCH  39  41
ENDBRANCH  38  39
ENDBRANCH  37  38
ENDBRANCH  36  37
ENDBRANCH  35  36
ENDBRANCH   1  35
TORSDOF 22
