REMARK SMILES COC(=O)c1ccc([C@H]2Nc3c(C(=O)OCCOCCOC(=O)c4ccc(-c5c6nc(c(-c7c(F)cc(S(=O)(=O)[O-])cc7F)c7ccc([nH]7)c(-c7c(F)cc(S(=O)(=O)[O-])cc7F)c7nc(c(-c8c(F)cc(S(=O)(=O)[O-])cc8F)c8ccc5[nH]8)C=C7)C=C6)cc4)cccc3[C@H]3[C@H]4CC[C@H](C4)[C@H]32)cc1
REMARK SMILES IDX 18 1 17 2 16 3 15 4 13 5 14 6 12 7 9 8 10 9 100 10 11 11
REMARK SMILES IDX 94 13 98 14 93 15 95 16 97 17 99 18 90 19 92 20 96 21 91 22
REMARK SMILES IDX 8 23 5 24 6 25 102 26 7 27 101 28 3 29 4 30 2 31 1 32 19 33
REMARK SMILES IDX 20 34 21 35 22 36 23 37 24 38 25 39 89 40 26 41 88 42 27 43
REMARK SMILES IDX 28 44 29 45 82 46 30 47 87 48 81 49 83 50 31 51 86 52 80 53
REMARK SMILES IDX 79 54 32 56 66 57 45 58 65 59 46 60 49 61 64 62 84 63 47 64
REMARK SMILES IDX 48 65 63 67 85 68 50 69 33 70 34 71 43 72 35 73 36 74 42 75
REMARK SMILES IDX 44 76 37 77 38 78 39 79 40 80 41 81 67 82 68 83 77 84 69 85
REMARK SMILES IDX 70 86 76 87 78 88 71 89 72 90 73 91 74 92 75 93 51 94 52 95
REMARK SMILES IDX 61 96 53 97 54 98 60 99 62 100 55 101 56 102 57 103 58 104
REMARK SMILES IDX 59 105
REMARK H PARENT 10 12 83 55 49 66
REMARK Flexibility Score: inf
ROOT
ATOM      1  O   UNL     1       1.649  -0.776 -10.787  1.00  0.00    -0.374 OA
ENDROOT
BRANCH   1   2
ATOM      2  C   UNL     1       0.751  -1.753 -11.318  1.00  0.00     0.202 C 
BRANCH   2   3
ATOM      3  C   UNL     1      -0.448  -2.136 -10.440  1.00  0.00     0.261 C 
BRANCH   3   4
ATOM      4  O   UNL     1      -1.400  -1.061 -10.361  1.00  0.00    -0.460 OA
BRANCH   4   5
ATOM      5  C   UNL     1      -1.555  -0.472  -9.143  1.00  0.00     0.340 C 
ATOM      6  O   UNL     1      -1.036  -0.826  -8.099  1.00  0.00    -0.246 OA
BRANCH   5   7
ATOM      7  C   UNL     1      -2.344   0.769  -9.365  1.00  0.00     0.083 A 
ATOM      8  C   UNL     1      -1.137   3.051  -6.874  1.00  0.00     0.113 C 
ATOM      9  N   UNL     1      -0.822   2.151  -8.003  1.00  0.00    -0.377 N 
ATOM     10  C   UNL     1      -1.163   4.472  -7.544  1.00  0.00     0.027 C 
ATOM     11  C   UNL     1      -1.899   2.019  -8.902  1.00  0.00     0.053 A 
ATOM     12  H   UNL     1       0.043   1.696  -8.114  1.00  0.00     0.161 HD
ATOM     13  C   UNL     1      -1.933   4.515  -8.900  1.00  0.00     0.030 C 
ATOM     14  C   UNL     1      -1.496   5.856  -6.905  1.00  0.00    -0.005 C 
ATOM     15  C   UNL     1      -2.602   3.208  -9.253  1.00  0.00    -0.020 A 
ATOM     16  C   UNL     1      -2.619   5.908  -8.863  1.00  0.00    -0.003 C 
ATOM     17  C   UNL     1      -2.944   6.125  -6.479  1.00  0.00     0.004 C 
ATOM     18  C   UNL     1      -1.506   6.732  -8.185  1.00  0.00     0.008 C 
ATOM     19  C   UNL     1      -3.572   0.686 -10.027  1.00  0.00     0.018 A 
ATOM     20  C   UNL     1      -3.814   3.106  -9.934  1.00  0.00     0.006 A 
ATOM     21  C   UNL     1      -3.729   6.052  -7.809  1.00  0.00     0.004 C 
ATOM     22  C   UNL     1      -4.315   1.845 -10.277  1.00  0.00     0.001 A 
BRANCH   8  23
ATOM     23  C   UNL     1      -2.338   2.411  -6.151  1.00  0.00    -0.025 A 
ATOM     24  C   UNL     1      -4.732   1.081  -5.375  1.00  0.00     0.060 A 
ATOM     25  C   UNL     1      -3.503   0.420  -5.292  1.00  0.00     0.016 A 
ATOM     26  C   UNL     1      -4.754   2.407  -5.774  1.00  0.00     0.016 A 
ATOM     27  C   UNL     1      -2.312   1.089  -5.663  1.00  0.00     0.007 A 
ATOM     28  C   UNL     1      -3.584   3.011  -6.189  1.00  0.00     0.007 A 
BRANCH  24  29
ATOM     29  C   UNL     1      -6.034   0.409  -5.123  1.00  0.00     0.337 C 
ATOM     30  O   UNL     1      -6.214  -0.523  -4.370  1.00  0.00    -0.246 OA
BRANCH  29  31
ATOM     31  O   UNL     1      -6.971   1.051  -5.876  1.00  0.00    -0.465 OA
ATOM     32  C   UNL     1      -8.330   0.674  -5.681  1.00  0.00     0.282 C 
ENDBRANCH  29  31
ENDBRANCH  24  29
ENDBRANCH   8  23
ENDBRANCH   5   7
ENDBRANCH   4   5
ENDBRANCH   3   4
ENDBRANCH   2   3
ENDBRANCH   1   2
BRANCH   1  33
ATOM     33  C   UNL     1       1.221   0.582 -10.829  1.00  0.00     0.202 C 
BRANCH  33  34
ATOM     34  C   UNL     1       1.397   1.333 -12.155  1.00  0.00     0.261 C 
BRANCH  34  35
ATOM     35  O   UNL     1       0.682   0.728 -13.243  1.00  0.00    -0.460 OA
BRANCH  35  36
ATOM     36  C   UNL     1       1.459   0.013 -14.095  1.00  0.00     0.338 C 
ATOM     37  O   UNL     1       2.671  -0.115 -14.058  1.00  0.00    -0.246 OA
BRANCH  36  38
ATOM     38  C   UNL     1       0.604  -0.752 -15.022  1.00  0.00     0.060 A 
ATOM     39  C   UNL     1       0.789  -2.138 -15.087  1.00  0.00     0.016 A 
ATOM     40  C   UNL     1      -0.318  -0.117 -15.857  1.00  0.00     0.016 A 
ATOM     41  C   UNL     1       0.073  -2.894 -16.015  1.00  0.00     0.010 A 
ATOM     42  C   UNL     1      -1.029  -0.878 -16.791  1.00  0.00     0.010 A 
ATOM     43  C   UNL     1      -0.819  -2.265 -16.892  1.00  0.00    -0.014 A 
BRANCH  43  44
ATOM     44  C   UNL     1      -1.465  -3.039 -17.983  1.00  0.00     0.031 A 
ATOM     45  C   UNL     1      -0.962  -2.882 -19.392  1.00  0.00     0.074 A 
ATOM     46  C   UNL     1      -2.498  -3.860 -17.717  1.00  0.00     0.049 A 
ATOM     47  N   UNL     1      -1.438  -3.385 -20.501  1.00  0.00    -0.248 NA
ATOM     48  C   UNL     1       0.232  -2.041 -19.579  1.00  0.00     0.031 C 
ATOM     49  C   UNL     1      -3.055  -4.112 -16.388  1.00  0.00     0.029 A 
ATOM     50  N   UNL     1      -3.279  -4.615 -18.557  1.00  0.00    -0.354 N 
ATOM     51  C   UNL     1      -0.622  -2.904 -21.518  1.00  0.00     0.074 A 
ATOM     52  C   UNL     1       0.375  -2.060 -20.897  1.00  0.00     0.031 C 
ATOM     53  C   UNL     1      -4.105  -4.943 -16.506  1.00  0.00     0.029 A 
ATOM     54  C   UNL     1      -4.320  -5.248 -17.919  1.00  0.00     0.049 A 
ATOM     55  H   UNL     1      -3.110  -4.696 -19.523  1.00  0.00     0.167 HD
ATOM     56  C   UNL     1      -0.702  -3.146 -22.848  1.00  0.00     0.037 A 
ATOM     57  C   UNL     1      -5.350  -5.959 -18.420  1.00  0.00     0.037 A 
ATOM     58  C   UNL     1      -1.687  -4.005 -23.454  1.00  0.00     0.049 A 
ATOM     59  C   UNL     1      -5.439  -6.175 -19.911  1.00  0.00     0.074 A 
ATOM     60  C   UNL     1      -1.810  -4.361 -24.786  1.00  0.00     0.029 A 
ATOM     61  N   UNL     1      -2.723  -4.629 -22.777  1.00  0.00    -0.354 N 
ATOM     62  N   UNL     1      -4.628  -5.760 -20.855  1.00  0.00    -0.248 NA
ATOM     63  C   UNL     1      -6.581  -6.957 -20.405  1.00  0.00     0.031 C 
ATOM     64  C   UNL     1      -2.960  -5.143 -24.925  1.00  0.00     0.029 A 
ATOM     65  C   UNL     1      -3.514  -5.334 -23.670  1.00  0.00     0.049 A 
ATOM     66  H   UNL     1      -2.875  -4.579 -21.805  1.00  0.00     0.167 HD
ATOM     67  C   UNL     1      -5.146  -6.255 -22.049  1.00  0.00     0.074 A 
ATOM     68  C   UNL     1      -6.330  -7.014 -21.705  1.00  0.00     0.031 C 
ATOM     69  C   UNL     1      -4.685  -6.096 -23.314  1.00  0.00     0.037 A 
BRANCH  56  70
ATOM     70  C   UNL     1       0.274  -2.453 -23.759  1.00  0.00     0.058 A 
ATOM     71  C   UNL     1       1.626  -2.821 -23.824  1.00  0.00     0.135 A 
ATOM     72  C   UNL     1      -0.178  -1.464 -24.649  1.00  0.00     0.135 A 
ATOM     73  F   UNL     1       2.116  -3.748 -22.985  1.00  0.00    -0.206 F 
ATOM     74  C   UNL     1       2.497  -2.231 -24.735  1.00  0.00     0.059 A 
ATOM     75  C   UNL     1       0.668  -0.880 -25.587  1.00  0.00     0.059 A 
ATOM     76  F   UNL     1      -1.461  -1.070 -24.626  1.00  0.00    -0.206 F 
ATOM     77  C   UNL     1       2.006  -1.268 -25.620  1.00  0.00     0.060 A 
BRANCH  77  78
ATOM     78  S   UNL     1       3.137  -0.550 -26.829  1.00  0.00     0.124 S 
ATOM     79  O   UNL     1       3.996   0.267 -25.977  1.00  0.00    -0.237 OA
ATOM     80  O   UNL     1       3.762  -1.733 -27.411  1.00  0.00    -0.237 OA
ATOM     81  O   UNL     1       2.254   0.193 -27.724  1.00  0.00    -0.744 OA
ENDBRANCH  77  78
ENDBRANCH  56  70
BRANCH  57  82
ATOM     82  C   UNL     1      -6.412  -6.483 -17.517  1.00  0.00     0.058 A 
ATOM     83  C   UNL     1      -6.606  -7.861 -17.340  1.00  0.00     0.135 A 
ATOM     84  C   UNL     1      -7.282  -5.612 -16.843  1.00  0.00     0.135 A 
ATOM     85  F   UNL     1      -5.808  -8.737 -17.970  1.00  0.00    -0.206 F 
ATOM     86  C   UNL     1      -7.643  -8.357 -16.555  1.00  0.00     0.059 A 
ATOM     87  C   UNL     1      -8.305  -6.083 -16.026  1.00  0.00     0.059 A 
ATOM     88  F   UNL     1      -7.135  -4.283 -16.966  1.00  0.00    -0.206 F 
ATOM     89  C   UNL     1      -8.489  -7.459 -15.905  1.00  0.00     0.060 A 
BRANCH  89  90
ATOM     90  S   UNL     1      -9.826  -8.111 -14.881  1.00  0.00     0.124 S 
ATOM     91  O   UNL     1     -10.748  -8.617 -15.891  1.00  0.00    -0.237 OA
ATOM     92  O   UNL     1      -9.136  -9.119 -14.082  1.00  0.00    -0.237 OA
ATOM     93  O   UNL     1     -10.283  -6.939 -14.140  1.00  0.00    -0.744 OA
ENDBRANCH  89  90
ENDBRANCH  57  82
BRANCH  69  94
ATOM     94  C   UNL     1      -5.433  -6.788 -24.423  1.00  0.00     0.058 A 
ATOM     95  C   UNL     1      -6.704  -6.364 -24.839  1.00  0.00     0.135 A 
ATOM     96  C   UNL     1      -4.842  -7.859 -25.116  1.00  0.00     0.135 A 
ATOM     97  F   UNL     1      -7.318  -5.350 -24.209  1.00  0.00    -0.206 F 
ATOM     98  C   UNL     1      -7.375  -6.992 -25.884  1.00  0.00     0.059 A 
ATOM     99  C   UNL     1      -5.479  -8.480 -26.186  1.00  0.00     0.059 A 
ATOM    100  F   UNL     1      -3.622  -8.299 -24.768  1.00  0.00    -0.206 F 
ATOM    101  C   UNL     1      -6.752  -8.047 -26.554  1.00  0.00     0.060 A 
BRANCH 101 102
ATOM    102  S   UNL     1      -7.620  -8.831 -27.930  1.00  0.00     0.124 S 
ATOM    103  O   UNL     1      -8.669  -9.569 -27.234  1.00  0.00    -0.237 OA
ATOM    104  O   UNL     1      -8.064  -7.683 -28.713  1.00  0.00    -0.237 OA
ATOM    105  O   UNL     1      -6.589  -9.651 -28.560  1.00  0.00    -0.744 OA
ENDBRANCH 101 102
ENDBRANCH  69  94
ENDBRANCH  43  44
ENDBRANCH  36  38
ENDBRANCH  35  36
ENDBRANCH  34  35
ENDBRANCH  33  34
ENDBRANCH   1  33
TORSDOF 20
