REMARK SMILES C[C@@H](C(=O)OCCOCCOC(=O)c1ccc(-c2c3nc(c(-c4c(F)cc(S(=O)(=O)[O-])cc4F)c4ccc([nH]4)c(-c4c(F)cc(S(=O)(=O)[O-])cc4F)c4nc(c(-c5c(F)cc(S(=O)(=O)[O-])cc5F)c5ccc2[nH]5)C=C4)C=C3)cc1)c1ccc(-c2cccc(OC(=O)NCCCc3ccccc3)c2)c(F)c1
REMARK SMILES IDX 6 1 5 2 3 3 4 4 2 5 1 6 80 7 81 8 105 9 82 10 103 11 83 12
REMARK SMILES IDX 104 13 84 14 85 15 102 16 86 17 88 18 87 19 89 20 90 21
REMARK SMILES IDX 91 22 92 23 93 25 94 26 95 27 96 28 97 29 101 30 98 31
REMARK SMILES IDX 100 32 99 33 7 34 8 35 9 36 10 37 11 38 12 39 13 40 14 41
REMARK SMILES IDX 15 42 79 43 16 44 78 45 17 46 18 47 19 48 72 49 20 50 77 51
REMARK SMILES IDX 71 52 73 53 21 54 76 55 70 56 69 57 22 59 56 60 35 61 55 62
REMARK SMILES IDX 36 63 39 64 54 65 74 66 37 67 38 68 53 70 75 71 40 72 23 73
REMARK SMILES IDX 24 74 33 75 25 76 26 77 32 78 34 79 27 80 28 81 29 82 30 83
REMARK SMILES IDX 31 84 57 85 58 86 67 87 59 88 60 89 66 90 68 91 61 92 62 93
REMARK SMILES IDX 63 94 64 95 65 96 41 97 42 98 51 99 43 100 44 101 50 102
REMARK SMILES IDX 52 103 45 104 46 105 47 106 48 107 49 108
REMARK H PARENT 92 24 73 58 39 69
REMARK Flexibility Score: inf
ROOT
ATOM      1  C   UNL     1       2.295  -2.280  -3.638  1.00  0.00     0.261 C 
ENDROOT
BRANCH   1   2
ATOM      2  O   UNL     1       1.961  -1.241  -2.698  1.00  0.00    -0.463 OA
BRANCH   2   3
ATOM      3  C   UNL     1       0.899  -0.460  -3.028  1.00  0.00     0.313 C 
ATOM      4  O   UNL     1       0.342  -0.479  -4.121  1.00  0.00    -0.252 OA
BRANCH   3   5
ATOM      5  C   UNL     1       0.437   0.437  -1.871  1.00  0.00     0.126 C 
ATOM      6  C   UNL     1       1.089   0.166  -0.509  1.00  0.00     0.025 C 
BRANCH   5   7
ATOM      7  C   UNL     1      -1.082   0.404  -1.731  1.00  0.00    -0.031 A 
ATOM      8  C   UNL     1      -1.818   1.587  -1.599  1.00  0.00     0.005 A 
ATOM      9  C   UNL     1      -1.780  -0.810  -1.740  1.00  0.00     0.044 A 
ATOM     10  C   UNL     1      -3.216   1.551  -1.496  1.00  0.00     0.012 A 
ATOM     11  C   UNL     1      -3.162  -0.842  -1.626  1.00  0.00     0.131 A 
ATOM     12  C   UNL     1      -3.910   0.332  -1.504  1.00  0.00     0.018 A 
ATOM     13  F   UNL     1      -3.768  -2.040  -1.640  1.00  0.00    -0.206 F 
BRANCH  12  14
ATOM     14  C   UNL     1      -5.365   0.267  -1.347  1.00  0.00    -0.012 A 
ATOM     15  C   UNL     1      -6.238   0.891  -2.249  1.00  0.00     0.009 A 
ATOM     16  C   UNL     1      -5.909  -0.469  -0.282  1.00  0.00     0.056 A 
ATOM     17  C   UNL     1      -7.622   0.779  -2.093  1.00  0.00     0.004 A 
ATOM     18  C   UNL     1      -7.284  -0.575  -0.125  1.00  0.00     0.133 A 
ATOM     19  C   UNL     1      -8.146   0.046  -1.029  1.00  0.00     0.047 A 
BRANCH  18  20
ATOM     20  O   UNL     1      -7.907  -1.312   0.908  1.00  0.00    -0.410 OA
BRANCH  20  21
ATOM     21  C   UNL     1      -7.265  -1.952   1.965  1.00  0.00     0.412 C 
ATOM     22  O   UNL     1      -6.059  -1.962   2.199  1.00  0.00    -0.224 OA
ATOM     23  N   UNL     1      -8.128  -2.597   2.801  1.00  0.00    -0.321 N 
ATOM     24  H   UNL     1      -7.736  -3.155   3.512  1.00  0.00     0.167 HD
BRANCH  23  25
ATOM     25  C   UNL     1      -9.566  -2.528   2.730  1.00  0.00     0.120 C 
BRANCH  25  26
ATOM     26  C   UNL     1     -10.281  -3.771   3.256  1.00  0.00     0.026 C 
BRANCH  26  27
ATOM     27  C   UNL     1      -9.742  -4.439   4.528  1.00  0.00     0.037 C 
BRANCH  27  28
ATOM     28  C   UNL     1      -9.891  -3.769   5.875  1.00  0.00    -0.048 A 
ATOM     29  C   UNL     1     -10.096  -2.400   6.067  1.00  0.00     0.004 A 
ATOM     30  C   UNL     1      -9.743  -4.576   7.018  1.00  0.00     0.004 A 
ATOM     31  C   UNL     1     -10.139  -1.851   7.354  1.00  0.00     0.000 A 
ATOM     32  C   UNL     1      -9.798  -4.033   8.303  1.00  0.00     0.000 A 
ATOM     33  C   UNL     1      -9.990  -2.667   8.471  1.00  0.00     0.000 A 
ENDBRANCH  27  28
ENDBRANCH  26  27
ENDBRANCH  25  26
ENDBRANCH  23  25
ENDBRANCH  20  21
ENDBRANCH  18  20
ENDBRANCH  12  14
ENDBRANCH   5   7
ENDBRANCH   3   5
ENDBRANCH   2   3
ENDBRANCH   1   2
BRANCH   1  34
ATOM     34  C   UNL     1       2.363  -3.640  -2.938  1.00  0.00     0.202 C 
BRANCH  34  35
ATOM     35  O   UNL     1       1.134  -4.179  -2.443  1.00  0.00    -0.374 OA
BRANCH  35  36
ATOM     36  C   UNL     1       0.588  -3.583  -1.270  1.00  0.00     0.202 C 
BRANCH  36  37
ATOM     37  C   UNL     1       1.153  -4.001   0.090  1.00  0.00     0.261 C 
BRANCH  37  38
ATOM     38  O   UNL     1       2.558  -3.744   0.197  1.00  0.00    -0.460 OA
BRANCH  38  39
ATOM     39  C   UNL     1       3.326  -4.847   0.030  1.00  0.00     0.338 C 
ATOM     40  O   UNL     1       2.947  -6.000  -0.091  1.00  0.00    -0.246 OA
BRANCH  39  41
ATOM     41  C   UNL     1       4.724  -4.442  -0.194  1.00  0.00     0.060 A 
ATOM     42  C   UNL     1       5.362  -4.965  -1.325  1.00  0.00     0.016 A 
ATOM     43  C   UNL     1       5.408  -3.614   0.698  1.00  0.00     0.016 A 
ATOM     44  C   UNL     1       6.711  -4.713  -1.538  1.00  0.00     0.010 A 
ATOM     45  C   UNL     1       6.767  -3.370   0.488  1.00  0.00     0.010 A 
ATOM     46  C   UNL     1       7.430  -3.955  -0.607  1.00  0.00    -0.014 A 
BRANCH  46  47
ATOM     47  C   UNL     1       8.907  -3.924  -0.694  1.00  0.00     0.031 A 
ATOM     48  C   UNL     1       9.701  -4.816   0.221  1.00  0.00     0.074 A 
ATOM     49  C   UNL     1       9.522  -3.151  -1.605  1.00  0.00     0.049 A 
ATOM     50  N   UNL     1      10.996  -4.941   0.337  1.00  0.00    -0.248 NA
ATOM     51  C   UNL     1       8.929  -5.683   1.128  1.00  0.00     0.031 C 
ATOM     52  C   UNL     1       8.846  -2.287  -2.572  1.00  0.00     0.029 A 
ATOM     53  N   UNL     1      10.855  -2.968  -1.864  1.00  0.00    -0.354 N 
ATOM     54  C   UNL     1      11.196  -5.886   1.337  1.00  0.00     0.074 A 
ATOM     55  C   UNL     1       9.890  -6.282   1.815  1.00  0.00     0.031 C 
ATOM     56  C   UNL     1       9.772  -1.660  -3.318  1.00  0.00     0.029 A 
ATOM     57  C   UNL     1      11.102  -2.050  -2.856  1.00  0.00     0.049 A 
ATOM     58  H   UNL     1      11.569  -3.449  -1.385  1.00  0.00     0.167 HD
ATOM     59  C   UNL     1      12.365  -6.383   1.805  1.00  0.00     0.037 A 
ATOM     60  C   UNL     1      12.271  -1.566  -3.320  1.00  0.00     0.037 A 
ATOM     61  C   UNL     1      13.657  -5.983   1.313  1.00  0.00     0.049 A 
ATOM     62  C   UNL     1      13.559  -2.085  -2.735  1.00  0.00     0.074 A 
ATOM     63  C   UNL     1      14.904  -6.441   1.700  1.00  0.00     0.029 A 
ATOM     64  N   UNL     1      13.870  -5.024   0.332  1.00  0.00    -0.354 N 
ATOM     65  N   UNL     1      13.737  -2.995  -1.806  1.00  0.00    -0.248 NA
ATOM     66  C   UNL     1      14.806  -1.513  -3.262  1.00  0.00     0.031 C 
ATOM     67  C   UNL     1      15.871  -5.714   0.998  1.00  0.00     0.029 A 
ATOM     68  C   UNL     1      15.228  -4.851   0.125  1.00  0.00     0.049 A 
ATOM     69  H   UNL     1      13.159  -4.537  -0.145  1.00  0.00     0.167 HD
ATOM     70  C   UNL     1      15.114  -3.128  -1.661  1.00  0.00     0.074 A 
ATOM     71  C   UNL     1      15.721  -2.212  -2.604  1.00  0.00     0.031 C 
ATOM     72  C   UNL     1      15.814  -3.938  -0.826  1.00  0.00     0.037 A 
BRANCH  59  73
ATOM     73  C   UNL     1      12.303  -7.382   2.929  1.00  0.00     0.058 A 
ATOM     74  C   UNL     1      11.819  -8.687   2.741  1.00  0.00     0.135 A 
ATOM     75  C   UNL     1      12.767  -7.036   4.208  1.00  0.00     0.135 A 
ATOM     76  F   UNL     1      11.344  -9.067   1.544  1.00  0.00    -0.206 F 
ATOM     77  C   UNL     1      11.777  -9.605   3.786  1.00  0.00     0.059 A 
ATOM     78  C   UNL     1      12.762  -7.947   5.261  1.00  0.00     0.059 A 
ATOM     79  F   UNL     1      13.235  -5.801   4.447  1.00  0.00    -0.206 F 
ATOM     80  C   UNL     1      12.253  -9.226   5.043  1.00  0.00     0.060 A 
BRANCH  80  81
ATOM     81  S   UNL     1      12.201 -10.431   6.386  1.00  0.00     0.124 S 
ATOM     82  O   UNL     1      10.768 -10.508   6.653  1.00  0.00    -0.237 OA
ATOM     83  O   UNL     1      12.794 -11.612   5.766  1.00  0.00    -0.237 OA
ATOM     84  O   UNL     1      13.001  -9.808   7.435  1.00  0.00    -0.744 OA
ENDBRANCH  80  81
ENDBRANCH  59  73
BRANCH  60  85
ATOM     85  C   UNL     1      12.276  -0.530  -4.387  1.00  0.00     0.058 A 
ATOM     86  C   UNL     1      12.759  -0.814  -5.672  1.00  0.00     0.135 A 
ATOM     87  C   UNL     1      11.793   0.766  -4.143  1.00  0.00     0.135 A 
ATOM     88  F   UNL     1      13.241  -2.035  -5.953  1.00  0.00    -0.206 F 
ATOM     89  C   UNL     1      12.778   0.151  -6.674  1.00  0.00     0.059 A 
ATOM     90  C   UNL     1      11.774   1.740  -5.136  1.00  0.00     0.059 A 
ATOM     91  F   UNL     1      11.308   1.087  -2.933  1.00  0.00    -0.206 F 
ATOM     92  C   UNL     1      12.279   1.425  -6.397  1.00  0.00     0.060 A 
BRANCH  92  93
ATOM     93  S   UNL     1      12.265   2.656  -7.718  1.00  0.00     0.124 S 
ATOM     94  O   UNL     1      13.685   2.959  -7.853  1.00  0.00    -0.237 OA
ATOM     95  O   UNL     1      11.663   1.912  -8.820  1.00  0.00    -0.237 OA
ATOM     96  O   UNL     1      11.439   3.727  -7.170  1.00  0.00    -0.744 OA
ENDBRANCH  92  93
ENDBRANCH  60  85
BRANCH  72  97
ATOM     97  C   UNL     1      17.315  -3.903  -0.922  1.00  0.00     0.058 A 
ATOM     98  C   UNL     1      18.063  -2.805  -0.468  1.00  0.00     0.135 A 
ATOM     99  C   UNL     1      18.018  -5.011  -1.425  1.00  0.00     0.135 A 
ATOM    100  F   UNL     1      17.442  -1.718   0.017  1.00  0.00    -0.206 F 
ATOM    101  C   UNL     1      19.453  -2.796  -0.534  1.00  0.00     0.059 A 
ATOM    102  C   UNL     1      19.408  -5.036  -1.469  1.00  0.00     0.059 A 
ATOM    103  F   UNL     1      17.354  -6.092  -1.861  1.00  0.00    -0.206 F 
ATOM    104  C   UNL     1      20.116  -3.918  -1.033  1.00  0.00     0.060 A 
BRANCH 104 105
ATOM    105  S   UNL     1      21.921  -3.905  -1.081  1.00  0.00     0.124 S 
ATOM    106  O   UNL     1      22.179  -2.969  -2.171  1.00  0.00    -0.237 OA
ATOM    107  O   UNL     1      22.265  -3.432   0.256  1.00  0.00    -0.237 OA
ATOM    108  O   UNL     1      22.265  -5.297  -1.355  1.00  0.00    -0.744 OA
ENDBRANCH 104 105
ENDBRANCH  72  97
ENDBRANCH  46  47
ENDBRANCH  39  41
ENDBRANCH  38  39
ENDBRANCH  37  38
ENDBRANCH  36  37
ENDBRANCH  35  36
ENDBRANCH  34  35
ENDBRANCH   1  34
TORSDOF 25
