REMARK SMILES C[C@H](CNC(=O)c1ccc(Br)nc1)C(=O)OCCOCCOC(=O)c1ccc(-c2c3nc(c(-c4c(F)cc(S(=O)(=O)[O-])cc4F)c4ccc([nH]4)c(-c4c(F)cc(S(=O)(=O)[O-])cc4F)c4nc(c(-c5c(F)cc(S(=O)(=O)[O-])cc5F)c5ccc2[nH]5)C=C4)C=C3)cc1
REMARK SMILES IDX 19 1 18 2 17 3 16 4 14 5 15 6 2 7 1 8 3 9 4 10 5 11 6 13
REMARK SMILES IDX 7 14 8 15 13 16 9 17 12 18 10 19 11 20 20 21 21 22 22 23
REMARK SMILES IDX 23 24 24 25 25 26 26 27 90 28 27 29 89 30 28 31 29 32 30 33
REMARK SMILES IDX 83 34 31 35 88 36 82 37 84 38 32 39 87 40 81 41 80 42 33 44
REMARK SMILES IDX 67 45 46 46 66 47 47 48 50 49 65 50 85 51 48 52 49 53 64 55
REMARK SMILES IDX 86 56 51 57 34 58 35 59 44 60 36 61 37 62 43 63 45 64 38 65
REMARK SMILES IDX 39 66 40 67 41 68 42 69 68 70 69 71 78 72 70 73 71 74 77 75
REMARK SMILES IDX 79 76 72 77 73 78 74 79 75 80 76 81 52 82 53 83 62 84 54 85
REMARK SMILES IDX 55 86 61 87 63 88 56 89 57 90 58 91 59 92 60 93
REMARK H PARENT 4 12 84 43 50 54
REMARK Flexibility Score: inf
ROOT
ATOM      1  O   UNL     1      -3.291   0.973   1.439  1.00  0.00    -0.374 OA
ENDROOT
BRANCH   1   2
ATOM      2  C   UNL     1      -3.678   0.767   0.083  1.00  0.00     0.202 C 
BRANCH   2   3
ATOM      3  C   UNL     1      -2.924   1.565  -0.984  1.00  0.00     0.261 C 
BRANCH   3   4
ATOM      4  O   UNL     1      -1.510   1.289  -1.010  1.00  0.00    -0.463 OA
BRANCH   4   5
ATOM      5  C   UNL     1      -0.721   2.287  -0.531  1.00  0.00     0.310 C 
ATOM      6  O   UNL     1      -1.129   3.337  -0.047  1.00  0.00    -0.252 OA
BRANCH   5   7
ATOM      7  C   UNL     1       0.754   2.012  -0.720  1.00  0.00     0.115 C 
ATOM      8  C   UNL     1       1.137   2.389  -2.150  1.00  0.00     0.022 C 
BRANCH   7   9
ATOM      9  C   UNL     1       1.192   0.587  -0.352  1.00  0.00     0.131 C 
BRANCH   9  10
ATOM     10  N   UNL     1       2.641   0.557  -0.154  1.00  0.00    -0.351 N 
ATOM     11  C   UNL     1       3.323   0.581   1.037  1.00  0.00     0.252 C 
ATOM     12  H   UNL     1       3.191   0.515  -0.969  1.00  0.00     0.163 HD
ATOM     13  O   UNL     1       4.397   1.169   1.122  1.00  0.00    -0.269 OA
BRANCH  11  14
ATOM     14  C   UNL     1       2.820  -0.162   2.204  1.00  0.00     0.058 A 
ATOM     15  C   UNL     1       2.388  -1.484   2.098  1.00  0.00     0.018 A 
ATOM     16  C   UNL     1       2.965   0.382   3.473  1.00  0.00     0.126 A 
ATOM     17  C   UNL     1       2.120  -2.206   3.262  1.00  0.00     0.037 A 
ATOM     18  N   UNL     1       2.683  -0.289   4.618  1.00  0.00    -0.249 NA
ATOM     19  C   UNL     1       2.284  -1.575   4.489  1.00  0.00     0.106 A 
ATOM     20  Br  UNL     1       1.980  -2.564   6.077  1.00  0.00    -0.029 Br
ENDBRANCH  11  14
ENDBRANCH   9  10
ENDBRANCH   7   9
ENDBRANCH   5   7
ENDBRANCH   4   5
ENDBRANCH   3   4
ENDBRANCH   2   3
ENDBRANCH   1   2
BRANCH   1  21
ATOM     21  C   UNL     1      -2.108   0.317   1.890  1.00  0.00     0.202 C 
BRANCH  21  22
ATOM     22  C   UNL     1      -2.203  -1.194   2.138  1.00  0.00     0.261 C 
BRANCH  22  23
ATOM     23  O   UNL     1      -2.349  -1.941   0.915  1.00  0.00    -0.460 OA
BRANCH  23  24
ATOM     24  C   UNL     1      -3.549  -2.555   0.763  1.00  0.00     0.338 C 
ATOM     25  O   UNL     1      -4.471  -2.579   1.569  1.00  0.00    -0.246 OA
BRANCH  24  26
ATOM     26  C   UNL     1      -3.692  -3.059  -0.615  1.00  0.00     0.060 A 
ATOM     27  C   UNL     1      -4.830  -2.675  -1.339  1.00  0.00     0.016 A 
ATOM     28  C   UNL     1      -2.772  -3.954  -1.162  1.00  0.00     0.016 A 
ATOM     29  C   UNL     1      -5.077  -3.219  -2.598  1.00  0.00     0.010 A 
ATOM     30  C   UNL     1      -3.028  -4.508  -2.420  1.00  0.00     0.010 A 
ATOM     31  C   UNL     1      -4.196  -4.169  -3.128  1.00  0.00    -0.014 A 
BRANCH  31  32
ATOM     32  C   UNL     1      -4.557  -4.930  -4.348  1.00  0.00     0.031 A 
ATOM     33  C   UNL     1      -5.103  -6.322  -4.196  1.00  0.00     0.074 A 
ATOM     34  C   UNL     1      -4.362  -4.408  -5.571  1.00  0.00     0.049 A 
ATOM     35  N   UNL     1      -5.343  -7.223  -5.111  1.00  0.00    -0.248 NA
ATOM     36  C   UNL     1      -5.407  -6.756  -2.824  1.00  0.00     0.031 C 
ATOM     37  C   UNL     1      -3.873  -3.058  -5.842  1.00  0.00     0.029 A 
ATOM     38  N   UNL     1      -4.522  -4.968  -6.813  1.00  0.00    -0.354 N 
ATOM     39  C   UNL     1      -5.800  -8.343  -4.425  1.00  0.00     0.074 A 
ATOM     40  C   UNL     1      -5.791  -8.009  -3.017  1.00  0.00     0.031 C 
ATOM     41  C   UNL     1      -3.732  -2.908  -7.170  1.00  0.00     0.029 A 
ATOM     42  C   UNL     1      -4.084  -4.162  -7.835  1.00  0.00     0.049 A 
ATOM     43  H   UNL     1      -4.913  -5.861  -6.957  1.00  0.00     0.167 HD
ATOM     44  C   UNL     1      -6.187  -9.540  -4.926  1.00  0.00     0.037 A 
ATOM     45  C   UNL     1      -3.939  -4.421  -9.150  1.00  0.00     0.037 A 
ATOM     46  C   UNL     1      -6.193  -9.861  -6.329  1.00  0.00     0.049 A 
ATOM     47  C   UNL     1      -4.332  -5.770  -9.688  1.00  0.00     0.074 A 
ATOM     48  C   UNL     1      -6.600 -11.032  -6.942  1.00  0.00     0.029 A 
ATOM     49  N   UNL     1      -5.758  -9.011  -7.336  1.00  0.00    -0.354 N 
ATOM     50  N   UNL     1      -4.789  -6.814  -9.036  1.00  0.00    -0.248 NA
ATOM     51  C   UNL     1      -4.196  -5.980 -11.136  1.00  0.00     0.031 C 
ATOM     52  C   UNL     1      -6.364 -10.909  -8.316  1.00  0.00     0.029 A 
ATOM     53  C   UNL     1      -5.860  -9.641  -8.565  1.00  0.00     0.049 A 
ATOM     54  H   UNL     1      -5.425  -8.095  -7.197  1.00  0.00     0.167 HD
ATOM     55  C   UNL     1      -5.017  -7.795  -9.995  1.00  0.00     0.074 A 
ATOM     56  C   UNL     1      -4.648  -7.220 -11.273  1.00  0.00     0.031 C 
ATOM     57  C   UNL     1      -5.495  -9.053  -9.831  1.00  0.00     0.037 A 
BRANCH  44  58
ATOM     58  C   UNL     1      -6.584 -10.602  -3.938  1.00  0.00     0.058 A 
ATOM     59  C   UNL     1      -7.772 -10.522  -3.195  1.00  0.00     0.135 A 
ATOM     60  C   UNL     1      -5.749 -11.711  -3.720  1.00  0.00     0.135 A 
ATOM     61  F   UNL     1      -8.599  -9.476  -3.352  1.00  0.00    -0.206 F 
ATOM     62  C   UNL     1      -8.095 -11.477  -2.235  1.00  0.00     0.059 A 
ATOM     63  C   UNL     1      -6.066 -12.692  -2.786  1.00  0.00     0.059 A 
ATOM     64  F   UNL     1      -4.601 -11.838  -4.405  1.00  0.00    -0.206 F 
ATOM     65  C   UNL     1      -7.229 -12.552  -2.030  1.00  0.00     0.060 A 
BRANCH  65  66
ATOM     66  S   UNL     1      -7.632 -13.759  -0.750  1.00  0.00     0.124 S 
ATOM     67  O   UNL     1      -7.293 -13.018   0.461  1.00  0.00    -0.237 OA
ATOM     68  O   UNL     1      -9.056 -13.990  -0.973  1.00  0.00    -0.237 OA
ATOM     69  O   UNL     1      -6.760 -14.887  -1.060  1.00  0.00    -0.744 OA
ENDBRANCH  65  66
ENDBRANCH  44  58
BRANCH  45  70
ATOM     70  C   UNL     1      -3.366  -3.373 -10.033  1.00  0.00     0.058 A 
ATOM     71  C   UNL     1      -4.171  -2.657 -10.929  1.00  0.00     0.135 A 
ATOM     72  C   UNL     1      -2.009  -3.019  -9.943  1.00  0.00     0.135 A 
ATOM     73  F   UNL     1      -5.470  -2.967 -11.059  1.00  0.00    -0.206 F 
ATOM     74  C   UNL     1      -3.657  -1.615 -11.695  1.00  0.00     0.059 A 
ATOM     75  C   UNL     1      -1.477  -1.969 -10.682  1.00  0.00     0.059 A 
ATOM     76  F   UNL     1      -1.201  -3.669  -9.091  1.00  0.00    -0.206 F 
ATOM     77  C   UNL     1      -2.311  -1.270 -11.554  1.00  0.00     0.060 A 
BRANCH  77  78
ATOM     78  S   UNL     1      -1.681   0.156 -12.467  1.00  0.00     0.124 S 
ATOM     79  O   UNL     1      -1.608  -0.372 -13.824  1.00  0.00    -0.237 OA
ATOM     80  O   UNL     1      -2.717   1.155 -12.224  1.00  0.00    -0.237 OA
ATOM     81  O   UNL     1      -0.399   0.426 -11.822  1.00  0.00    -0.744 OA
ENDBRANCH  77  78
ENDBRANCH  45  70
BRANCH  57  82
ATOM     82  C   UNL     1      -5.689  -9.897 -11.061  1.00  0.00     0.058 A 
ATOM     83  C   UNL     1      -4.607 -10.494 -11.726  1.00  0.00     0.135 A 
ATOM     84  C   UNL     1      -6.984 -10.190 -11.520  1.00  0.00     0.135 A 
ATOM     85  F   UNL     1      -3.349 -10.241 -11.332  1.00  0.00    -0.206 F 
ATOM     86  C   UNL     1      -4.803 -11.350 -12.806  1.00  0.00     0.059 A 
ATOM     87  C   UNL     1      -7.204 -11.060 -12.582  1.00  0.00     0.059 A 
ATOM     88  F   UNL     1      -8.053  -9.650 -10.913  1.00  0.00    -0.206 F 
ATOM     89  C   UNL     1      -6.106 -11.633 -13.222  1.00  0.00     0.060 A 
BRANCH  89  90
ATOM     90  S   UNL     1      -6.349 -12.799 -14.580  1.00  0.00     0.124 S 
ATOM     91  O   UNL     1      -5.952 -11.996 -15.731  1.00  0.00    -0.237 OA
ATOM     92  O   UNL     1      -5.444 -13.887 -14.223  1.00  0.00    -0.237 OA
ATOM     93  O   UNL     1      -7.770 -13.122 -14.499  1.00  0.00    -0.744 OA
ENDBRANCH  89  90
ENDBRANCH  57  82
ENDBRANCH  31  32
ENDBRANCH  24  26
ENDBRANCH  23  24
ENDBRANCH  22  23
ENDBRANCH  21  22
ENDBRANCH   1  21
TORSDOF 20
