REMARK SMILES Cc1cccc(NC(=O)C[C@@H]2CCCCO2)c1C(=O)OCCOCCOC(=O)c1ccc(-c2c3nc(c(-c4c(F)cc(S(=O)(=O)[O-])cc4F)c4ccc([nH]4)c(-c4c(F)cc(S(=O)(=O)[O-])cc4F)c4nc(c(-c5c(F)cc(S(=O)(=O)[O-])cc5F)c5ccc2[nH]5)C=C4)C=C3)cc1
REMARK SMILES IDX 23 1 22 2 21 3 20 4 18 5 19 6 17 7 1 8 2 9 3 10 4 11 6 12
REMARK SMILES IDX 5 13 7 14 8 15 9 17 10 18 11 19 12 20 16 21 13 22 15 23
REMARK SMILES IDX 14 24 24 25 25 26 26 27 27 28 28 29 29 30 30 31 94 32 31 33
REMARK SMILES IDX 93 34 32 35 33 36 34 37 87 38 35 39 92 40 86 41 88 42 36 43
REMARK SMILES IDX 91 44 85 45 84 46 37 48 71 49 50 50 70 51 51 52 54 53 69 54
REMARK SMILES IDX 89 55 52 56 53 57 68 59 90 60 55 61 38 62 39 63 48 64 40 65
REMARK SMILES IDX 41 66 47 67 49 68 42 69 43 70 44 71 45 72 46 73 72 74 73 75
REMARK SMILES IDX 82 76 74 77 75 78 81 79 83 80 76 81 77 82 78 83 79 84 80 85
REMARK SMILES IDX 56 86 57 87 66 88 58 89 59 90 65 91 67 92 60 93 61 94 62 95
REMARK SMILES IDX 63 96 64 97
REMARK H PARENT 7 16 88 47 54 58
REMARK Flexibility Score: inf
ROOT
ATOM      1  O   UNL     1       1.152   3.295  -2.299  1.00  0.00    -0.374 OA
ENDROOT
BRANCH   1   2
ATOM      2  C   UNL     1       2.315   2.526  -2.561  1.00  0.00     0.202 C 
BRANCH   2   3
ATOM      3  C   UNL     1       2.896   2.304  -1.208  1.00  0.00     0.261 C 
BRANCH   3   4
ATOM      4  O   UNL     1       2.050   1.431  -0.431  1.00  0.00    -0.460 OA
BRANCH   4   5
ATOM      5  C   UNL     1       0.884   1.795   0.135  1.00  0.00     0.340 C 
ATOM      6  O   UNL     1       0.416   2.912   0.216  1.00  0.00    -0.246 OA
BRANCH   5   7
ATOM      7  C   UNL     1       0.228   0.586   0.731  1.00  0.00     0.086 A 
ATOM      8  C   UNL     1       2.132  -1.058   0.041  1.00  0.00     0.045 C 
ATOM      9  C   UNL     1       0.840  -0.703   0.743  1.00  0.00    -0.034 A 
ATOM     10  C   UNL     1       0.154  -1.770   1.338  1.00  0.00     0.004 A 
ATOM     11  C   UNL     1      -1.088  -1.581   1.931  1.00  0.00     0.002 A 
ATOM     12  C   UNL     1      -1.110   0.735   1.204  1.00  0.00     0.056 A 
ATOM     13  C   UNL     1      -1.713  -0.336   1.869  1.00  0.00     0.027 A 
BRANCH  12  14
ATOM     14  N   UNL     1      -1.838   1.911   0.876  1.00  0.00    -0.325 N 
ATOM     15  C   UNL     1      -3.076   2.095   0.312  1.00  0.00     0.227 C 
ATOM     16  H   UNL     1      -1.367   2.748   1.094  1.00  0.00     0.169 HD
ATOM     17  O   UNL     1      -3.396   3.230  -0.060  1.00  0.00    -0.275 OA
BRANCH  15  18
ATOM     18  C   UNL     1      -4.055   0.963   0.107  1.00  0.00     0.132 C 
BRANCH  18  19
ATOM     19  C   UNL     1      -4.232   0.426  -1.327  1.00  0.00     0.127 C 
ATOM     20  C   UNL     1      -4.878  -0.969  -1.317  1.00  0.00     0.033 C 
ATOM     21  O   UNL     1      -3.083   0.378  -2.172  1.00  0.00    -0.378 OA
ATOM     22  C   UNL     1      -3.905  -2.021  -0.793  1.00  0.00     0.005 C 
ATOM     23  C   UNL     1      -2.087  -0.571  -1.829  1.00  0.00     0.160 C 
ATOM     24  C   UNL     1      -2.599  -1.981  -1.573  1.00  0.00     0.029 C 
ENDBRANCH  18  19
ENDBRANCH  15  18
ENDBRANCH  12  14
ENDBRANCH   5   7
ENDBRANCH   4   5
ENDBRANCH   3   4
ENDBRANCH   2   3
ENDBRANCH   1   2
BRANCH   1  25
ATOM     25  C   UNL     1       0.259   3.464  -3.367  1.00  0.00     0.202 C 
BRANCH  25  26
ATOM     26  C   UNL     1       0.921   4.210  -4.523  1.00  0.00     0.261 C 
BRANCH  26  27
ATOM     27  O   UNL     1       1.203   5.582  -4.159  1.00  0.00    -0.460 OA
BRANCH  27  28
ATOM     28  C   UNL     1       2.485   5.864  -3.772  1.00  0.00     0.338 C 
ATOM     29  O   UNL     1       3.409   6.009  -4.553  1.00  0.00    -0.246 OA
BRANCH  28  30
ATOM     30  C   UNL     1       2.577   6.019  -2.288  1.00  0.00     0.060 A 
ATOM     31  C   UNL     1       3.803   5.902  -1.602  1.00  0.00     0.016 A 
ATOM     32  C   UNL     1       1.392   6.083  -1.564  1.00  0.00     0.016 A 
ATOM     33  C   UNL     1       3.825   5.701  -0.206  1.00  0.00     0.010 A 
ATOM     34  C   UNL     1       1.414   5.786  -0.218  1.00  0.00     0.010 A 
ATOM     35  C   UNL     1       2.618   5.565   0.475  1.00  0.00    -0.014 A 
BRANCH  35  36
ATOM     36  C   UNL     1       2.409   5.123   1.863  1.00  0.00     0.031 A 
ATOM     37  C   UNL     1       1.628   6.023   2.752  1.00  0.00     0.074 A 
ATOM     38  C   UNL     1       2.567   3.818   2.208  1.00  0.00     0.049 A 
ATOM     39  N   UNL     1       1.298   5.729   3.957  1.00  0.00    -0.248 NA
ATOM     40  C   UNL     1       1.165   7.360   2.369  1.00  0.00     0.031 C 
ATOM     41  C   UNL     1       1.814   3.050   3.206  1.00  0.00     0.029 A 
ATOM     42  N   UNL     1       3.447   2.863   1.695  1.00  0.00    -0.354 N 
ATOM     43  C   UNL     1       0.351   6.628   4.381  1.00  0.00     0.074 A 
ATOM     44  C   UNL     1       0.390   7.687   3.409  1.00  0.00     0.031 C 
ATOM     45  C   UNL     1       2.400   1.856   3.404  1.00  0.00     0.029 A 
ATOM     46  C   UNL     1       3.636   1.849   2.642  1.00  0.00     0.049 A 
ATOM     47  H   UNL     1       3.869   2.897   0.806  1.00  0.00     0.167 HD
ATOM     48  C   UNL     1      -0.413   6.283   5.456  1.00  0.00     0.037 A 
ATOM     49  C   UNL     1       4.888   1.577   3.102  1.00  0.00     0.037 A 
ATOM     50  C   UNL     1       0.153   5.087   6.100  1.00  0.00     0.049 A 
ATOM     51  C   UNL     1       4.937   2.007   4.540  1.00  0.00     0.074 A 
ATOM     52  C   UNL     1      -0.228   3.759   6.166  1.00  0.00     0.029 A 
ATOM     53  N   UNL     1       1.482   5.132   6.532  1.00  0.00    -0.354 N 
ATOM     54  N   UNL     1       4.108   2.895   5.024  1.00  0.00    -0.248 NA
ATOM     55  C   UNL     1       5.767   1.396   5.571  1.00  0.00     0.031 C 
ATOM     56  C   UNL     1       0.930   2.997   6.521  1.00  0.00     0.029 A 
ATOM     57  C   UNL     1       2.000   3.864   6.714  1.00  0.00     0.049 A 
ATOM     58  H   UNL     1       1.985   5.964   6.687  1.00  0.00     0.167 HD
ATOM     59  C   UNL     1       4.200   2.915   6.377  1.00  0.00     0.074 A 
ATOM     60  C   UNL     1       5.287   1.997   6.676  1.00  0.00     0.031 C 
ATOM     61  C   UNL     1       3.382   3.676   7.156  1.00  0.00     0.037 A 
BRANCH  48  62
ATOM     62  C   UNL     1      -1.728   6.925   5.867  1.00  0.00     0.058 A 
ATOM     63  C   UNL     1      -2.371   6.518   7.057  1.00  0.00     0.135 A 
ATOM     64  C   UNL     1      -2.458   7.870   5.110  1.00  0.00     0.135 A 
ATOM     65  F   UNL     1      -1.820   5.597   7.862  1.00  0.00    -0.206 F 
ATOM     66  C   UNL     1      -3.615   7.015   7.467  1.00  0.00     0.059 A 
ATOM     67  C   UNL     1      -3.681   8.414   5.521  1.00  0.00     0.059 A 
ATOM     68  F   UNL     1      -2.059   8.280   3.901  1.00  0.00    -0.206 F 
ATOM     69  C   UNL     1      -4.261   7.973   6.698  1.00  0.00     0.060 A 
BRANCH  69  70
ATOM     70  S   UNL     1      -5.856   8.616   7.239  1.00  0.00     0.124 S 
ATOM     71  O   UNL     1      -6.710   7.436   7.136  1.00  0.00    -0.237 OA
ATOM     72  O   UNL     1      -5.564   9.071   8.594  1.00  0.00    -0.237 OA
ATOM     73  O   UNL     1      -6.144   9.677   6.278  1.00  0.00    -0.744 OA
ENDBRANCH  69  70
ENDBRANCH  48  62
BRANCH  49  74
ATOM     74  C   UNL     1       5.914   1.648   2.009  1.00  0.00     0.058 A 
ATOM     75  C   UNL     1       5.931   0.562   1.102  1.00  0.00     0.135 A 
ATOM     76  C   UNL     1       6.398   2.875   1.522  1.00  0.00     0.135 A 
ATOM     77  F   UNL     1       5.472  -0.639   1.494  1.00  0.00    -0.206 F 
ATOM     78  C   UNL     1       6.247   0.717  -0.251  1.00  0.00     0.059 A 
ATOM     79  C   UNL     1       6.696   3.058   0.161  1.00  0.00     0.059 A 
ATOM     80  F   UNL     1       6.414   3.954   2.318  1.00  0.00    -0.206 F 
ATOM     81  C   UNL     1       6.564   1.987  -0.728  1.00  0.00     0.060 A 
BRANCH  81  82
ATOM     82  S   UNL     1       6.493   2.285  -2.527  1.00  0.00     0.124 S 
ATOM     83  O   UNL     1       7.832   1.905  -2.954  1.00  0.00    -0.237 OA
ATOM     84  O   UNL     1       5.418   1.395  -2.963  1.00  0.00    -0.237 OA
ATOM     85  O   UNL     1       6.168   3.705  -2.604  1.00  0.00    -0.744 OA
ENDBRANCH  81  82
ENDBRANCH  49  74
BRANCH  61  86
ATOM     86  C   UNL     1       3.863   4.255   8.454  1.00  0.00     0.058 A 
ATOM     87  C   UNL     1       5.229   4.445   8.737  1.00  0.00     0.135 A 
ATOM     88  C   UNL     1       2.958   4.803   9.388  1.00  0.00     0.135 A 
ATOM     89  F   UNL     1       6.188   4.114   7.859  1.00  0.00    -0.206 F 
ATOM     90  C   UNL     1       5.670   5.014   9.922  1.00  0.00     0.059 A 
ATOM     91  C   UNL     1       3.379   5.447  10.544  1.00  0.00     0.059 A 
ATOM     92  F   UNL     1       1.631   4.747   9.202  1.00  0.00    -0.206 F 
ATOM     93  C   UNL     1       4.736   5.499  10.827  1.00  0.00     0.060 A 
BRANCH  93  94
ATOM     94  S   UNL     1       5.315   6.195  12.375  1.00  0.00     0.124 S 
ATOM     95  O   UNL     1       5.513   4.987  13.170  1.00  0.00    -0.237 OA
ATOM     96  O   UNL     1       6.533   6.894  11.976  1.00  0.00    -0.237 OA
ATOM     97  O   UNL     1       4.212   7.055  12.792  1.00  0.00    -0.744 OA
ENDBRANCH  93  94
ENDBRANCH  61  86
ENDBRANCH  35  36
ENDBRANCH  28  30
ENDBRANCH  27  28
ENDBRANCH  26  27
ENDBRANCH  25  26
ENDBRANCH   1  25
TORSDOF 20
