REMARK SMILES C[C@H](Oc1cc2oc(=O)cc(-c3ccccc3)c2cc1Cl)C(=O)OCCOCCOC(=O)c1ccc(-c2c3nc(c(-c4c(F)cc(S(=O)(=O)[O-])cc4F)c4ccc([nH]4)c(-c4c(F)cc(S(=O)(=O)[O-])cc4F)c4nc(c(-c5c(F)cc(S(=O)(=O)[O-])cc5F)c5ccc2[nH]5)C=C4)C=C3)cc1
REMARK SMILES IDX 27 1 26 2 25 3 24 4 22 5 23 6 2 7 1 8 3 9 4 10 5 11 20 12
REMARK SMILES IDX 6 13 19 14 21 15 7 16 18 17 8 18 11 19 9 20 10 21 12 22
REMARK SMILES IDX 13 23 17 24 14 25 16 26 15 27 28 28 29 29 30 30 31 31 32 32
REMARK SMILES IDX 33 33 34 34 98 35 35 36 97 37 36 38 37 39 38 40 91 41 39 42
REMARK SMILES IDX 96 43 90 44 92 45 40 46 95 47 89 48 88 49 41 51 75 52 54 53
REMARK SMILES IDX 74 54 55 55 58 56 73 57 93 58 56 59 57 60 72 62 94 63 59 64
REMARK SMILES IDX 42 65 43 66 52 67 44 68 45 69 51 70 53 71 46 72 47 73 48 74
REMARK SMILES IDX 49 75 50 76 76 77 77 78 86 79 78 80 79 81 85 82 87 83 80 84
REMARK SMILES IDX 81 85 82 86 83 87 84 88 60 89 61 90 70 91 62 92 63 93 69 94
REMARK SMILES IDX 71 95 64 96 65 97 66 98 67 99 68 100
REMARK H PARENT 92 50 58 61
REMARK Flexibility Score: inf
ROOT
ATOM      1  O   UNL     1      -3.066   1.693  -0.770  1.00  0.00    -0.374 OA
ENDROOT
BRANCH   1   2
ATOM      2  C   UNL     1      -3.567   0.361  -0.867  1.00  0.00     0.202 C 
BRANCH   2   3
ATOM      3  C   UNL     1      -2.965  -0.484  -1.988  1.00  0.00     0.261 C 
BRANCH   3   4
ATOM      4  O   UNL     1      -1.579  -0.774  -1.744  1.00  0.00    -0.461 OA
BRANCH   4   5
ATOM      5  C   UNL     1      -0.679  -0.164  -2.566  1.00  0.00     0.347 C 
ATOM      6  O   UNL     1      -0.958   0.603  -3.481  1.00  0.00    -0.248 OA
BRANCH   5   7
ATOM      7  C   UNL     1       0.750  -0.614  -2.260  1.00  0.00     0.279 C 
ATOM      8  C   UNL     1       0.854  -2.053  -2.775  1.00  0.00     0.066 C 
BRANCH   7   9
ATOM      9  O   UNL     1       1.049  -0.474  -0.864  1.00  0.00    -0.477 OA
BRANCH   9  10
ATOM     10  C   UNL     1       2.320  -0.760  -0.429  1.00  0.00     0.142 A 
ATOM     11  C   UNL     1       3.403  -0.943  -1.283  1.00  0.00     0.096 A 
ATOM     12  C   UNL     1       2.530  -0.935   0.949  1.00  0.00     0.084 A 
ATOM     13  C   UNL     1       4.594  -1.476  -0.789  1.00  0.00     0.142 A 
ATOM     14  C   UNL     1       3.766  -1.395   1.444  1.00  0.00     0.037 A 
ATOM     15  Cl  UNL     1       1.266  -0.632   2.090  1.00  0.00    -0.080 Cl
ATOM     16  O   UNL     1       5.544  -1.819  -1.766  1.00  0.00    -0.423 OA
ATOM     17  C   UNL     1       4.801  -1.732   0.565  1.00  0.00     0.027 A 
ATOM     18  C   UNL     1       6.623  -2.611  -1.435  1.00  0.00     0.336 A 
ATOM     19  C   UNL     1       6.066  -2.370   0.976  1.00  0.00    -0.000 A 
ATOM     20  O   UNL     1       7.375  -3.079  -2.280  1.00  0.00    -0.246 OA
ATOM     21  C   UNL     1       6.873  -2.818  -0.004  1.00  0.00     0.103 A 
BRANCH  19  22
ATOM     22  C   UNL     1       6.546  -2.633   2.352  1.00  0.00    -0.017 A 
ATOM     23  C   UNL     1       7.761  -2.075   2.784  1.00  0.00     0.009 A 
ATOM     24  C   UNL     1       5.839  -3.470   3.223  1.00  0.00     0.009 A 
ATOM     25  C   UNL     1       8.263  -2.357   4.055  1.00  0.00     0.001 A 
ATOM     26  C   UNL     1       6.336  -3.739   4.502  1.00  0.00     0.001 A 
ATOM     27  C   UNL     1       7.549  -3.188   4.914  1.00  0.00     0.000 A 
ENDBRANCH  19  22
ENDBRANCH   9  10
ENDBRANCH   7   9
ENDBRANCH   5   7
ENDBRANCH   4   5
ENDBRANCH   3   4
ENDBRANCH   2   3
ENDBRANCH   1   2
BRANCH   1  28
ATOM     28  C   UNL     1      -1.817   1.866  -0.098  1.00  0.00     0.202 C 
BRANCH  28  29
ATOM     29  C   UNL     1      -1.872   1.849   1.433  1.00  0.00     0.261 C 
BRANCH  29  30
ATOM     30  O   UNL     1      -2.161   0.536   1.944  1.00  0.00    -0.460 OA
BRANCH  30  31
ATOM     31  C   UNL     1      -3.379   0.404   2.513  1.00  0.00     0.338 C 
ATOM     32  O   UNL     1      -4.211   1.292   2.683  1.00  0.00    -0.246 OA
BRANCH  31  33
ATOM     33  C   UNL     1      -3.686  -1.014   2.778  1.00  0.00     0.060 A 
ATOM     34  C   UNL     1      -4.959  -1.469   2.412  1.00  0.00     0.016 A 
ATOM     35  C   UNL     1      -2.804  -1.853   3.465  1.00  0.00     0.016 A 
ATOM     36  C   UNL     1      -5.391  -2.729   2.813  1.00  0.00     0.010 A 
ATOM     37  C   UNL     1      -3.243  -3.120   3.872  1.00  0.00     0.010 A 
ATOM     38  C   UNL     1      -4.558  -3.537   3.598  1.00  0.00    -0.014 A 
BRANCH  38  39
ATOM     39  C   UNL     1      -5.156  -4.702   4.297  1.00  0.00     0.031 A 
ATOM     40  C   UNL     1      -5.593  -4.536   5.730  1.00  0.00     0.074 A 
ATOM     41  C   UNL     1      -5.383  -5.859   3.651  1.00  0.00     0.049 A 
ATOM     42  N   UNL     1      -6.196  -5.387   6.519  1.00  0.00    -0.248 NA
ATOM     43  C   UNL     1      -5.312  -3.233   6.355  1.00  0.00     0.031 C 
ATOM     44  C   UNL     1      -5.042  -6.130   2.255  1.00  0.00     0.029 A 
ATOM     45  N   UNL     1      -5.970  -7.021   4.086  1.00  0.00    -0.354 N 
ATOM     46  C   UNL     1      -6.360  -4.727   7.732  1.00  0.00     0.074 A 
ATOM     47  C   UNL     1      -5.766  -3.417   7.586  1.00  0.00     0.031 C 
ATOM     48  C   UNL     1      -5.432  -7.379   1.946  1.00  0.00     0.029 A 
ATOM     49  C   UNL     1      -6.035  -8.000   3.124  1.00  0.00     0.049 A 
ATOM     50  H   UNL     1      -6.312  -7.141   5.001  1.00  0.00     0.167 HD
ATOM     51  C   UNL     1      -6.962  -5.167   8.864  1.00  0.00     0.037 A 
ATOM     52  C   UNL     1      -6.527  -9.253   3.190  1.00  0.00     0.037 A 
ATOM     53  C   UNL     1      -7.564  -6.466   9.004  1.00  0.00     0.049 A 
ATOM     54  C   UNL     1      -7.162  -9.733   4.469  1.00  0.00     0.074 A 
ATOM     55  C   UNL     1      -8.216  -7.000  10.102  1.00  0.00     0.029 A 
ATOM     56  N   UNL     1      -7.586  -7.438   8.015  1.00  0.00    -0.354 N 
ATOM     57  N   UNL     1      -7.333  -9.089   5.599  1.00  0.00    -0.248 NA
ATOM     58  C   UNL     1      -7.683 -11.108   4.476  1.00  0.00     0.031 C 
ATOM     59  C   UNL     1      -8.598  -8.310   9.790  1.00  0.00     0.029 A 
ATOM     60  C   UNL     1      -8.225  -8.575   8.482  1.00  0.00     0.049 A 
ATOM     61  H   UNL     1      -7.203  -7.335   7.114  1.00  0.00     0.167 HD
ATOM     62  C   UNL     1      -8.015  -9.966   6.438  1.00  0.00     0.074 A 
ATOM     63  C   UNL     1      -8.225 -11.185   5.684  1.00  0.00     0.031 C 
ATOM     64  C   UNL     1      -8.438  -9.775   7.713  1.00  0.00     0.037 A 
BRANCH  51  65
ATOM     65  C   UNL     1      -6.968  -4.240  10.047  1.00  0.00     0.058 A 
ATOM     66  C   UNL     1      -7.778  -3.094  10.088  1.00  0.00     0.135 A 
ATOM     67  C   UNL     1      -6.153  -4.505  11.159  1.00  0.00     0.135 A 
ATOM     68  F   UNL     1      -8.562  -2.783   9.044  1.00  0.00    -0.206 F 
ATOM     69  C   UNL     1      -7.755  -2.225  11.175  1.00  0.00     0.059 A 
ATOM     70  C   UNL     1      -6.132  -3.665  12.268  1.00  0.00     0.059 A 
ATOM     71  F   UNL     1      -5.357  -5.586  11.171  1.00  0.00    -0.206 F 
ATOM     72  C   UNL     1      -6.924  -2.517  12.258  1.00  0.00     0.060 A 
BRANCH  72  73
ATOM     73  S   UNL     1      -6.889  -1.376  13.657  1.00  0.00     0.124 S 
ATOM     74  O   UNL     1      -6.092  -0.279  13.117  1.00  0.00    -0.237 OA
ATOM     75  O   UNL     1      -8.305  -1.088  13.864  1.00  0.00    -0.237 OA
ATOM     76  O   UNL     1      -6.251  -2.155  14.714  1.00  0.00    -0.744 OA
ENDBRANCH  72  73
ENDBRANCH  51  65
BRANCH  52  77
ATOM     77  C   UNL     1      -6.462 -10.139   1.997  1.00  0.00     0.058 A 
ATOM     78  C   UNL     1      -7.619 -10.475   1.280  1.00  0.00     0.135 A 
ATOM     79  C   UNL     1      -5.239 -10.663   1.550  1.00  0.00     0.135 A 
ATOM     80  F   UNL     1      -8.812 -10.006   1.676  1.00  0.00    -0.206 F 
ATOM     81  C   UNL     1      -7.571 -11.309   0.169  1.00  0.00     0.059 A 
ATOM     82  C   UNL     1      -5.163 -11.482   0.428  1.00  0.00     0.059 A 
ATOM     83  F   UNL     1      -4.102 -10.363   2.196  1.00  0.00    -0.206 F 
ATOM     84  C   UNL     1      -6.336 -11.807  -0.252  1.00  0.00     0.060 A 
BRANCH  84  85
ATOM     85  S   UNL     1      -6.276 -12.845  -1.728  1.00  0.00     0.124 S 
ATOM     86  O   UNL     1      -6.815 -14.102  -1.226  1.00  0.00    -0.237 OA
ATOM     87  O   UNL     1      -7.128 -12.109  -2.657  1.00  0.00    -0.237 OA
ATOM     88  O   UNL     1      -4.856 -12.857  -2.070  1.00  0.00    -0.744 OA
ENDBRANCH  84  85
ENDBRANCH  52  77
BRANCH  64  89
ATOM     89  C   UNL     1      -9.218 -10.888   8.357  1.00  0.00     0.058 A 
ATOM     90  C   UNL     1      -8.604 -12.075   8.785  1.00  0.00     0.135 A 
ATOM     91  C   UNL     1     -10.598 -10.747   8.579  1.00  0.00     0.135 A 
ATOM     92  F   UNL     1      -7.288 -12.261   8.594  1.00  0.00    -0.206 F 
ATOM     93  C   UNL     1      -9.335 -13.096   9.383  1.00  0.00     0.059 A 
ATOM     94  C   UNL     1     -11.344 -11.744   9.198  1.00  0.00     0.059 A 
ATOM     95  F   UNL     1     -11.232  -9.626   8.201  1.00  0.00    -0.206 F 
ATOM     96  C   UNL     1     -10.707 -12.923   9.582  1.00  0.00     0.060 A 
BRANCH  96  97
ATOM     97  S   UNL     1     -11.646 -14.248  10.371  1.00  0.00     0.124 S 
ATOM     98  O   UNL     1     -11.789 -15.199   9.273  1.00  0.00    -0.237 OA
ATOM     99  O   UNL     1     -10.761 -14.661  11.455  1.00  0.00    -0.237 OA
ATOM    100  O   UNL     1     -12.877 -13.585  10.793  1.00  0.00    -0.744 OA
ENDBRANCH  96  97
ENDBRANCH  64  89
ENDBRANCH  38  39
ENDBRANCH  31  33
ENDBRANCH  30  31
ENDBRANCH  29  30
ENDBRANCH  28  29
ENDBRANCH   1  28
TORSDOF 20
