REMARK SMILES NS(=O)(=O)c1ccc(-c2cc(Cl)cc3c2O[C@@H](C(F)(F)F)C(C(=O)OCCOCCOC(=O)c2ccc(-c4c5nc(c(-c6c(F)cc(S(=O)(=O)[O-])cc6F)c6ccc([nH]6)c(-c6c(F)cc(S(=O)(=O)[O-])cc6F)c6nc(c(-c7c(F)cc(S(=O)(=O)[O-])cc7F)c7ccc4[nH]7)C=C6)C=C5)cc2)=C3)cc1
REMARK SMILES IDX 28 1 27 2 26 3 25 4 23 5 24 6 22 7 9 8 10 9 15 10 11 11
REMARK SMILES IDX 14 12 16 13 12 14 13 15 100 16 17 17 8 18 5 19 6 20 102 21
REMARK SMILES IDX 7 22 101 23 2 24 3 25 4 26 1 27 18 30 19 31 20 32 21 33
REMARK SMILES IDX 29 34 30 35 31 36 32 37 33 38 34 39 35 40 99 41 36 42 98 43
REMARK SMILES IDX 37 44 38 45 39 46 92 47 40 48 97 49 91 50 93 51 41 52 96 53
REMARK SMILES IDX 90 54 89 55 42 57 76 58 55 59 75 60 56 61 59 62 74 63 94 64
REMARK SMILES IDX 57 65 58 66 73 68 95 69 60 70 43 71 44 72 53 73 45 74 46 75
REMARK SMILES IDX 52 76 54 77 47 78 48 79 49 80 50 81 51 82 77 83 78 84 87 85
REMARK SMILES IDX 79 86 80 87 86 88 88 89 81 90 82 91 83 92 84 93 85 94 61 95
REMARK SMILES IDX 62 96 71 97 63 98 64 99 70 100 72 101 65 102 66 103 67 104
REMARK SMILES IDX 68 105 69 106
REMARK H PARENT 1 28 1 29 93 56 59 67
REMARK Flexibility Score: inf
ROOT
ATOM      1  O   UNL     1       3.774   5.574 -10.312  1.00  0.00    -0.374 OA
ENDROOT
BRANCH   1   2
ATOM      2  C   UNL     1       3.651   6.801 -11.019  1.00  0.00     0.202 C 
BRANCH   2   3
ATOM      3  C   UNL     1       3.171   8.044 -10.254  1.00  0.00     0.261 C 
BRANCH   3   4
ATOM      4  O   UNL     1       3.331   7.936  -8.829  1.00  0.00    -0.460 OA
BRANCH   4   5
ATOM      5  C   UNL     1       2.308   8.406  -8.090  1.00  0.00     0.338 C 
ATOM      6  O   UNL     1       1.335   9.006  -8.529  1.00  0.00    -0.246 OA
BRANCH   5   7
ATOM      7  C   UNL     1       2.372   7.973  -6.675  1.00  0.00     0.087 C 
ATOM      8  C   UNL     1       2.894   3.914  -5.941  1.00  0.00     0.026 A 
ATOM      9  C   UNL     1       2.491   3.284  -7.140  1.00  0.00     0.033 A 
ATOM     10  C   UNL     1       2.713   5.313  -5.918  1.00  0.00     0.135 A 
ATOM     11  C   UNL     1       1.618   3.923  -8.022  1.00  0.00     0.042 A 
ATOM     12  C   UNL     1       1.636   5.864  -6.629  1.00  0.00     0.019 A 
ATOM     13  O   UNL     1       3.833   6.153  -5.725  1.00  0.00    -0.475 OA
ATOM     14  Cl  UNL     1       1.079   3.100  -9.430  1.00  0.00    -0.084 Cl
ATOM     15  C   UNL     1       1.107   5.176  -7.713  1.00  0.00     0.032 A 
ATOM     16  C   UNL     1       1.268   7.271  -6.368  1.00  0.00     0.027 C 
ATOM     17  C   UNL     1       3.591   7.618  -5.850  1.00  0.00     0.316 C 
BRANCH   8  18
ATOM     18  C   UNL     1       2.672   3.033  -4.725  1.00  0.00    -0.015 A 
ATOM     19  C   UNL     1       1.605   1.107  -2.908  1.00  0.00     0.082 A 
ATOM     20  C   UNL     1       2.605   0.742  -3.809  1.00  0.00     0.022 A 
ATOM     21  C   UNL     1       1.169   2.431  -2.859  1.00  0.00     0.022 A 
ATOM     22  C   UNL     1       3.141   1.700  -4.690  1.00  0.00     0.010 A 
ATOM     23  C   UNL     1       1.707   3.381  -3.751  1.00  0.00     0.010 A 
BRANCH  19  24
ATOM     24  S   UNL     1       0.793  -0.130  -1.928  1.00  0.00     0.238 S 
ATOM     25  O   UNL     1       1.322  -1.436  -2.261  1.00  0.00    -0.207 OA
ATOM     26  O   UNL     1      -0.623   0.140  -1.900  1.00  0.00    -0.207 OA
BRANCH  24  27
ATOM     27  N   UNL     1       1.353   0.188  -0.377  1.00  0.00    -0.225 NA
ATOM     28  H   UNL     1       0.941  -0.478   0.276  1.00  0.00     0.137 HD
ATOM     29  H   UNL     1       1.090   1.135  -0.108  1.00  0.00     0.137 HD
ENDBRANCH  24  27
ENDBRANCH  19  24
ENDBRANCH   8  18
BRANCH  17  30
ATOM     30  C   UNL     1       4.828   8.515  -6.082  1.00  0.00     0.430 C 
ATOM     31  F   UNL     1       4.587   9.744  -5.546  1.00  0.00    -0.167 F 
ATOM     32  F   UNL     1       5.923   8.034  -5.450  1.00  0.00    -0.167 F 
ATOM     33  F   UNL     1       5.162   8.711  -7.369  1.00  0.00    -0.167 F 
ENDBRANCH  17  30
ENDBRANCH   5   7
ENDBRANCH   4   5
ENDBRANCH   3   4
ENDBRANCH   2   3
ENDBRANCH   1   2
BRANCH   1  34
ATOM     34  C   UNL     1       4.765   5.479  -9.291  1.00  0.00     0.202 C 
BRANCH  34  35
ATOM     35  C   UNL     1       6.242   5.570  -9.686  1.00  0.00     0.261 C 
BRANCH  35  36
ATOM     36  O   UNL     1       6.606   6.840 -10.246  1.00  0.00    -0.460 OA
BRANCH  36  37
ATOM     37  C   UNL     1       6.963   6.801 -11.554  1.00  0.00     0.338 C 
ATOM     38  O   UNL     1       6.975   5.831 -12.292  1.00  0.00    -0.246 OA
BRANCH  37  39
ATOM     39  C   UNL     1       7.202   8.171 -12.029  1.00  0.00     0.060 A 
ATOM     40  C   UNL     1       6.412   8.669 -13.074  1.00  0.00     0.016 A 
ATOM     41  C   UNL     1       8.263   8.914 -11.512  1.00  0.00     0.016 A 
ATOM     42  C   UNL     1       6.706   9.911 -13.633  1.00  0.00     0.010 A 
ATOM     43  C   UNL     1       8.560  10.151 -12.080  1.00  0.00     0.010 A 
ATOM     44  C   UNL     1       7.806  10.639 -13.163  1.00  0.00    -0.014 A 
BRANCH  44  45
ATOM     45  C   UNL     1       8.296  11.830 -13.893  1.00  0.00     0.031 A 
ATOM     46  C   UNL     1       9.512  11.680 -14.764  1.00  0.00     0.074 A 
ATOM     47  C   UNL     1       7.699  13.025 -13.744  1.00  0.00     0.049 A 
ATOM     48  N   UNL     1      10.237  12.598 -15.343  1.00  0.00    -0.248 NA
ATOM     49  C   UNL     1       9.980  10.303 -15.001  1.00  0.00     0.031 C 
ATOM     50  C   UNL     1       6.485  13.274 -12.967  1.00  0.00     0.029 A 
ATOM     51  N   UNL     1       8.054  14.261 -14.220  1.00  0.00    -0.354 N 
ATOM     52  C   UNL     1      11.257  11.916 -15.997  1.00  0.00     0.074 A 
ATOM     53  C   UNL     1      11.074  10.509 -15.719  1.00  0.00     0.031 C 
ATOM     54  C   UNL     1       6.210  14.589 -12.999  1.00  0.00     0.029 A 
ATOM     55  C   UNL     1       7.254  15.278 -13.756  1.00  0.00     0.049 A 
ATOM     56  H   UNL     1       8.810  14.407 -14.834  1.00  0.00     0.167 HD
ATOM     57  C   UNL     1      12.251  12.422 -16.764  1.00  0.00     0.037 A 
ATOM     58  C   UNL     1       7.378  16.613 -13.896  1.00  0.00     0.037 A 
ATOM     59  C   UNL     1      12.418  13.827 -17.027  1.00  0.00     0.049 A 
ATOM     60  C   UNL     1       8.542  17.161 -14.684  1.00  0.00     0.074 A 
ATOM     61  C   UNL     1      13.392  14.452 -17.784  1.00  0.00     0.029 A 
ATOM     62  N   UNL     1      11.587  14.826 -16.539  1.00  0.00    -0.354 N 
ATOM     63  N   UNL     1       9.507  16.510 -15.292  1.00  0.00    -0.248 NA
ATOM     64  C   UNL     1       8.638  18.622 -14.805  1.00  0.00     0.031 C 
ATOM     65  C   UNL     1      13.180  15.832 -17.714  1.00  0.00     0.029 A 
ATOM     66  C   UNL     1      12.034  16.063 -16.968  1.00  0.00     0.049 A 
ATOM     67  H   UNL     1      10.797  14.677 -15.971  1.00  0.00     0.167 HD
ATOM     68  C   UNL     1      10.291  17.480 -15.909  1.00  0.00     0.074 A 
ATOM     69  C   UNL     1       9.694  18.761 -15.595  1.00  0.00     0.031 C 
ATOM     70  C   UNL     1      11.400  17.325 -16.674  1.00  0.00     0.037 A 
BRANCH  57  71
ATOM     71  C   UNL     1      13.243  11.457 -17.352  1.00  0.00     0.058 A 
ATOM     72  C   UNL     1      12.889  10.564 -18.376  1.00  0.00     0.135 A 
ATOM     73  C   UNL     1      14.578  11.451 -16.914  1.00  0.00     0.135 A 
ATOM     74  F   UNL     1      11.622  10.512 -18.819  1.00  0.00    -0.206 F 
ATOM     75  C   UNL     1      13.814   9.685 -18.928  1.00  0.00     0.059 A 
ATOM     76  C   UNL     1      15.528  10.602 -17.473  1.00  0.00     0.059 A 
ATOM     77  F   UNL     1      14.972  12.280 -15.934  1.00  0.00    -0.206 F 
ATOM     78  C   UNL     1      15.133   9.713 -18.472  1.00  0.00     0.060 A 
BRANCH  78  79
ATOM     79  S   UNL     1      16.324   8.576 -19.211  1.00  0.00     0.124 S 
ATOM     80  O   UNL     1      15.875   7.295 -18.675  1.00  0.00    -0.237 OA
ATOM     81  O   UNL     1      16.101   8.778 -20.639  1.00  0.00    -0.237 OA
ATOM     82  O   UNL     1      17.608   9.051 -18.706  1.00  0.00    -0.744 OA
ENDBRANCH  78  79
ENDBRANCH  57  71
BRANCH  58  83
ATOM     83  C   UNL     1       6.385  17.529 -13.271  1.00  0.00     0.058 A 
ATOM     84  C   UNL     1       5.524  18.304 -14.062  1.00  0.00     0.135 A 
ATOM     85  C   UNL     1       6.287  17.664 -11.877  1.00  0.00     0.135 A 
ATOM     86  F   UNL     1       5.583  18.218 -15.400  1.00  0.00    -0.206 F 
ATOM     87  C   UNL     1       4.620  19.199 -13.497  1.00  0.00     0.059 A 
ATOM     88  C   UNL     1       5.370  18.530 -11.287  1.00  0.00     0.059 A 
ATOM     89  F   UNL     1       7.078  16.937 -11.073  1.00  0.00    -0.206 F 
ATOM     90  C   UNL     1       4.551  19.305 -12.107  1.00  0.00     0.060 A 
BRANCH  90  91
ATOM     91  S   UNL     1       3.360  20.454 -11.386  1.00  0.00     0.124 S 
ATOM     92  O   UNL     1       3.958  21.742 -11.716  1.00  0.00    -0.237 OA
ATOM     93  O   UNL     1       2.136  20.115 -12.105  1.00  0.00    -0.237 OA
ATOM     94  O   UNL     1       3.365  20.099  -9.970  1.00  0.00    -0.744 OA
ENDBRANCH  90  91
ENDBRANCH  58  83
BRANCH  70  95
ATOM     95  C   UNL     1      12.000  18.554 -17.302  1.00  0.00     0.058 A 
ATOM     96  C   UNL     1      12.719  19.499 -16.557  1.00  0.00     0.135 A 
ATOM     97  C   UNL     1      11.928  18.733 -18.695  1.00  0.00     0.135 A 
ATOM     98  F   UNL     1      12.813  19.380 -15.223  1.00  0.00    -0.206 F 
ATOM     99  C   UNL     1      13.339  20.585 -17.169  1.00  0.00     0.059 A 
ATOM    100  C   UNL     1      12.565  19.793 -19.330  1.00  0.00     0.059 A 
ATOM    101  F   UNL     1      11.259  17.851 -19.456  1.00  0.00    -0.206 F 
ATOM    102  C   UNL     1      13.264  20.717 -18.557  1.00  0.00     0.060 A 
BRANCH 102 103
ATOM    103  S   UNL     1      14.131  22.092 -19.343  1.00  0.00     0.124 S 
ATOM    104  O   UNL     1      13.305  23.227 -18.946  1.00  0.00    -0.237 OA
ATOM    105  O   UNL     1      15.451  22.021 -18.725  1.00  0.00    -0.237 OA
ATOM    106  O   UNL     1      14.091  21.754 -20.763  1.00  0.00    -0.744 OA
ENDBRANCH 102 103
ENDBRANCH  70  95
ENDBRANCH  44  45
ENDBRANCH  37  39
ENDBRANCH  36  37
ENDBRANCH  35  36
ENDBRANCH  34  35
ENDBRANCH   1  34
TORSDOF 21
