REMARK SMILES CCC[NH2+][C@]1(C(=O)OCCOCCOC(=O)c2ccc(-c3c4nc(c(-c5c(F)cc(S(=O)(=O)[O-])cc5F)c5ccc([nH]5)c(-c5c(F)cc(S(=O)(=O)[O-])cc5F)c5nc(c(-c6c(F)cc(S(=O)(=O)[O-])cc6F)c6ccc3[nH]6)C=C5)C=C4)cc2)CCC[C@@H]([N@@H+](C)[C@@H](C)C2CC2)C1
REMARK SMILES IDX 11 1 10 2 9 3 8 4 6 5 7 6 5 7 83 8 94 9 84 10 86 11 85 12
REMARK SMILES IDX 4 13 3 16 2 17 1 18 87 19 88 20 89 22 90 23 91 24 92 25
REMARK SMILES IDX 93 26 12 27 13 28 14 29 15 30 16 31 17 32 18 33 82 34 19 35
REMARK SMILES IDX 81 36 20 37 21 38 22 39 75 40 23 41 80 42 74 43 76 44 24 45
REMARK SMILES IDX 79 46 73 47 72 48 25 50 59 51 38 52 58 53 39 54 42 55 57 56
REMARK SMILES IDX 77 57 40 58 41 59 56 61 78 62 43 63 26 64 27 65 36 66 28 67
REMARK SMILES IDX 29 68 35 69 37 70 30 71 31 72 32 73 33 74 34 75 60 76 61 77
REMARK SMILES IDX 70 78 62 79 63 80 69 81 71 82 64 83 65 84 66 85 67 86 68 87
REMARK SMILES IDX 44 88 45 89 54 90 46 91 47 92 53 93 55 94 48 95 49 96 50 97
REMARK SMILES IDX 51 98 52 99
REMARK H PARENT 4 14 4 15 87 21 76 49 42 60
REMARK Flexibility Score: inf
ROOT
ATOM      1  O   UNL     1      -0.720   0.689   0.656  1.00  0.00    -0.374 OA
ENDROOT
BRANCH   1   2
ATOM      2  C   UNL     1      -1.568   0.696  -0.486  1.00  0.00     0.202 C 
BRANCH   2   3
ATOM      3  C   UNL     1      -1.915   2.047  -1.115  1.00  0.00     0.261 C 
BRANCH   3   4
ATOM      4  O   UNL     1      -0.773   2.846  -1.454  1.00  0.00    -0.459 OA
BRANCH   4   5
ATOM      5  C   UNL     1      -0.506   3.833  -0.555  1.00  0.00     0.368 C 
ATOM      6  O   UNL     1      -1.146   3.988   0.485  1.00  0.00    -0.245 OA
BRANCH   5   7
ATOM      7  C   UNL     1       0.663   4.793  -0.966  1.00  0.00     0.200 C 
ATOM      8  C   UNL     1      -0.025   6.168  -1.131  1.00  0.00     0.081 C 
ATOM      9  C   UNL     1       1.613   4.769   0.254  1.00  0.00     0.146 C 
ATOM     10  C   UNL     1       0.893   7.368  -0.967  1.00  0.00     0.013 C 
ATOM     11  C   UNL     1       2.476   6.002   0.525  1.00  0.00     0.190 C 
ATOM     12  C   UNL     1       1.675   7.309   0.348  1.00  0.00     0.065 C 
BRANCH   7  13
ATOM     13  N   UNL     1       1.298   4.353  -2.245  1.00  0.00    -0.332 N 
ATOM     14  H   UNL     1       1.330   3.334  -2.233  1.00  0.00     0.347 HD
ATOM     15  H   UNL     1       0.719   4.770  -2.974  1.00  0.00     0.347 HD
BRANCH  13  16
ATOM     16  C   UNL     1       2.646   4.825  -2.540  1.00  0.00     0.261 C 
BRANCH  16  17
ATOM     17  C   UNL     1       3.047   4.724  -4.016  1.00  0.00     0.058 C 
ATOM     18  C   UNL     1       2.285   5.699  -4.904  1.00  0.00     0.010 C 
ENDBRANCH  16  17
ENDBRANCH  13  16
ENDBRANCH   7  13
BRANCH  11  19
ATOM     19  N   UNL     1       3.311   5.840   1.752  1.00  0.00    -0.332 N 
ATOM     20  C   UNL     1       4.394   6.839   1.752  1.00  0.00     0.333 C 
ATOM     21  H   UNL     1       3.619   4.875   1.630  1.00  0.00     0.348 HD
BRANCH  19  22
ATOM     22  C   UNL     1       2.712   5.738   3.103  1.00  0.00     0.184 C 
ATOM     23  C   UNL     1       1.751   6.871   3.493  1.00  0.00     0.075 C 
BRANCH  22  24
ATOM     24  C   UNL     1       2.124   4.410   3.560  1.00  0.00     0.047 C 
ATOM     25  C   UNL     1       2.089   3.078   2.847  1.00  0.00     0.010 C 
ATOM     26  C   UNL     1       3.058   3.280   3.959  1.00  0.00     0.010 C 
ENDBRANCH  22  24
ENDBRANCH  19  22
ENDBRANCH  11  19
ENDBRANCH   5   7
ENDBRANCH   4   5
ENDBRANCH   3   4
ENDBRANCH   2   3
ENDBRANCH   1   2
BRANCH   1  27
ATOM     27  C   UNL     1       0.687   0.758   0.416  1.00  0.00     0.202 C 
BRANCH  27  28
ATOM     28  C   UNL     1       1.370  -0.506  -0.122  1.00  0.00     0.261 C 
BRANCH  28  29
ATOM     29  O   UNL     1       1.038  -0.755  -1.497  1.00  0.00    -0.460 OA
BRANCH  29  30
ATOM     30  C   UNL     1       0.259  -1.838  -1.716  1.00  0.00     0.338 C 
ATOM     31  O   UNL     1      -0.113  -2.665  -0.890  1.00  0.00    -0.246 OA
BRANCH  30  32
ATOM     32  C   UNL     1      -0.283  -1.772  -3.082  1.00  0.00     0.060 A 
ATOM     33  C   UNL     1      -1.676  -1.828  -3.237  1.00  0.00     0.016 A 
ATOM     34  C   UNL     1       0.557  -1.697  -4.193  1.00  0.00     0.016 A 
ATOM     35  C   UNL     1      -2.233  -1.855  -4.511  1.00  0.00     0.010 A 
ATOM     36  C   UNL     1      -0.002  -1.740  -5.471  1.00  0.00     0.010 A 
ATOM     37  C   UNL     1      -1.395  -1.857  -5.633  1.00  0.00    -0.014 A 
BRANCH  37  38
ATOM     38  C   UNL     1      -1.960  -2.160  -6.967  1.00  0.00     0.031 A 
ATOM     39  C   UNL     1      -1.826  -3.560  -7.498  1.00  0.00     0.074 A 
ATOM     40  C   UNL     1      -2.589  -1.210  -7.681  1.00  0.00     0.049 A 
ATOM     41  N   UNL     1      -2.175  -4.043  -8.661  1.00  0.00    -0.248 NA
ATOM     42  C   UNL     1      -1.210  -4.548  -6.596  1.00  0.00     0.031 C 
ATOM     43  C   UNL     1      -2.812   0.167  -7.244  1.00  0.00     0.029 A 
ATOM     44  N   UNL     1      -3.145  -1.262  -8.934  1.00  0.00    -0.354 N 
ATOM     45  C   UNL     1      -1.811  -5.384  -8.637  1.00  0.00     0.074 A 
ATOM     46  C   UNL     1      -1.189  -5.633  -7.355  1.00  0.00     0.031 C 
ATOM     47  C   UNL     1      -3.445   0.837  -8.223  1.00  0.00     0.029 A 
ATOM     48  C   UNL     1      -3.639  -0.055  -9.366  1.00  0.00     0.049 A 
ATOM     49  H   UNL     1      -3.186  -2.085  -9.472  1.00  0.00     0.167 HD
ATOM     50  C   UNL     1      -1.988  -6.323  -9.596  1.00  0.00     0.037 A 
ATOM     51  C   UNL     1      -4.161   0.293 -10.558  1.00  0.00     0.037 A 
ATOM     52  C   UNL     1      -2.610  -6.061 -10.867  1.00  0.00     0.049 A 
ATOM     53  C   UNL     1      -4.291  -0.754 -11.635  1.00  0.00     0.074 A 
ATOM     54  C   UNL     1      -2.853  -6.944 -11.904  1.00  0.00     0.029 A 
ATOM     55  N   UNL     1      -3.083  -4.822 -11.276  1.00  0.00    -0.354 N 
ATOM     56  N   UNL     1      -3.958  -2.024 -11.596  1.00  0.00    -0.248 NA
ATOM     57  C   UNL     1      -4.868  -0.325 -12.915  1.00  0.00     0.031 C 
ATOM     58  C   UNL     1      -3.426  -6.228 -12.960  1.00  0.00     0.029 A 
ATOM     59  C   UNL     1      -3.595  -4.911 -12.559  1.00  0.00     0.049 A 
ATOM     60  H   UNL     1      -3.058  -4.001 -10.733  1.00  0.00     0.167 HD
ATOM     61  C   UNL     1      -4.315  -2.550 -12.833  1.00  0.00     0.074 A 
ATOM     62  C   UNL     1      -4.895  -1.463 -13.595  1.00  0.00     0.031 C 
ATOM     63  C   UNL     1      -4.179  -3.818 -13.297  1.00  0.00     0.037 A 
BRANCH  50  64
ATOM     64  C   UNL     1      -1.474  -7.708  -9.317  1.00  0.00     0.058 A 
ATOM     65  C   UNL     1      -2.090  -8.553  -8.380  1.00  0.00     0.135 A 
ATOM     66  C   UNL     1      -0.365  -8.209 -10.018  1.00  0.00     0.135 A 
ATOM     67  F   UNL     1      -3.142  -8.119  -7.666  1.00  0.00    -0.206 F 
ATOM     68  C   UNL     1      -1.610  -9.835  -8.129  1.00  0.00     0.059 A 
ATOM     69  C   UNL     1       0.116  -9.497  -9.804  1.00  0.00     0.059 A 
ATOM     70  F   UNL     1       0.266  -7.442 -10.921  1.00  0.00    -0.206 F 
ATOM     71  C   UNL     1      -0.506 -10.298  -8.848  1.00  0.00     0.060 A 
BRANCH  71  72
ATOM     72  S   UNL     1       0.101 -11.966  -8.517  1.00  0.00     0.124 S 
ATOM     73  O   UNL     1       0.718 -11.797  -7.205  1.00  0.00    -0.237 OA
ATOM     74  O   UNL     1      -1.127 -12.755  -8.543  1.00  0.00    -0.237 OA
ATOM     75  O   UNL     1       1.026 -12.216  -9.617  1.00  0.00    -0.744 OA
ENDBRANCH  71  72
ENDBRANCH  50  64
BRANCH  51  76
ATOM     76  C   UNL     1      -4.589   1.696 -10.801  1.00  0.00     0.058 A 
ATOM     77  C   UNL     1      -5.944   2.027 -10.948  1.00  0.00     0.135 A 
ATOM     78  C   UNL     1      -3.650   2.737 -10.887  1.00  0.00     0.135 A 
ATOM     79  F   UNL     1      -6.879   1.067 -10.885  1.00  0.00    -0.206 F 
ATOM     80  C   UNL     1      -6.354   3.336 -11.184  1.00  0.00     0.059 A 
ATOM     81  C   UNL     1      -4.037   4.057 -11.096  1.00  0.00     0.059 A 
ATOM     82  F   UNL     1      -2.342   2.476 -10.743  1.00  0.00    -0.206 F 
ATOM     83  C   UNL     1      -5.392   4.345 -11.253  1.00  0.00     0.060 A 
BRANCH  83  84
ATOM     84  S   UNL     1      -5.938   6.047 -11.508  1.00  0.00     0.124 S 
ATOM     85  O   UNL     1      -6.339   6.020 -12.910  1.00  0.00    -0.237 OA
ATOM     86  O   UNL     1      -7.020   6.170 -10.536  1.00  0.00    -0.237 OA
ATOM     87  O   UNL     1      -4.744   6.831 -11.207  1.00  0.00    -0.744 OA
ENDBRANCH  83  84
ENDBRANCH  51  76
BRANCH  63  88
ATOM     88  C   UNL     1      -4.704  -4.114 -14.675  1.00  0.00     0.058 A 
ATOM     89  C   UNL     1      -4.053  -3.658 -15.831  1.00  0.00     0.135 A 
ATOM     90  C   UNL     1      -5.844  -4.920 -14.839  1.00  0.00     0.135 A 
ATOM     91  F   UNL     1      -2.963  -2.881 -15.730  1.00  0.00    -0.206 F 
ATOM     92  C   UNL     1      -4.525  -3.970 -17.102  1.00  0.00     0.059 A 
ATOM     93  C   UNL     1      -6.317  -5.269 -16.100  1.00  0.00     0.059 A 
ATOM     94  F   UNL     1      -6.498  -5.393 -13.767  1.00  0.00    -0.206 F 
ATOM     95  C   UNL     1      -5.657  -4.779 -17.226  1.00  0.00     0.060 A 
BRANCH  95  96
ATOM     96  S   UNL     1      -6.238  -5.207 -18.881  1.00  0.00     0.124 S 
ATOM     97  O   UNL     1      -6.829  -3.947 -19.319  1.00  0.00    -0.237 OA
ATOM     98  O   UNL     1      -5.003  -5.597 -19.554  1.00  0.00    -0.237 OA
ATOM     99  O   UNL     1      -7.183  -6.293 -18.639  1.00  0.00    -0.744 OA
ENDBRANCH  95  96
ENDBRANCH  63  88
ENDBRANCH  37  38
ENDBRANCH  30  32
ENDBRANCH  29  30
ENDBRANCH  28  29
ENDBRANCH  27  28
ENDBRANCH   1  27
TORSDOF 23
