REMARK SMILES Cc1cccc(-c2ccc(Cl)c(C(=O)OCCOCCOC(=O)c3ccc(-c4c5nc(c(-c6c(F)cc(S(=O)(=O)[O-])cc6F)c6ccc([nH]6)c(-c6c(F)cc(S(=O)(=O)[O-])cc6F)c6nc(c(-c7c(F)cc(S(=O)(=O)[O-])cc7F)c7ccc4[nH]7)C=C6)C=C5)cc3)c2)c1
REMARK SMILES IDX 19 1 18 2 17 3 16 4 15 5 13 6 14 7 12 8 7 9 8 10 90 11 9 12
REMARK SMILES IDX 10 13 11 14 6 15 1 16 2 17 3 18 91 19 4 20 5 21 20 22 21 23
REMARK SMILES IDX 22 24 23 25 24 26 25 27 89 28 26 29 88 30 27 31 28 32 29 33
REMARK SMILES IDX 82 34 30 35 87 36 81 37 83 38 31 39 86 40 80 41 79 42 32 44
REMARK SMILES IDX 66 45 45 46 65 47 46 48 49 49 64 50 84 51 47 52 48 53 63 55
REMARK SMILES IDX 85 56 50 57 33 58 34 59 43 60 35 61 36 62 42 63 44 64 37 65
REMARK SMILES IDX 38 66 39 67 40 68 41 69 67 70 68 71 77 72 69 73 70 74 76 75
REMARK SMILES IDX 78 76 71 77 72 78 73 79 74 80 75 81 51 82 52 83 61 84 53 85
REMARK SMILES IDX 54 86 60 87 62 88 55 89 56 90 57 91 58 92 59 93
REMARK H PARENT 83 43 49 54
REMARK Flexibility Score: inf
ROOT
ATOM      1  C   UNL     1      -6.726   2.509   1.337  1.00  0.00     0.202 C 
ENDROOT
BRANCH   1   2
ATOM      2  O   UNL     1      -6.185   3.763   1.671  1.00  0.00    -0.374 OA
BRANCH   2   3
ATOM      3  C   UNL     1      -6.579   4.867   0.869  1.00  0.00     0.202 C 
BRANCH   3   4
ATOM      4  C   UNL     1      -5.701   6.008   1.291  1.00  0.00     0.261 C 
BRANCH   4   5
ATOM      5  O   UNL     1      -4.334   5.792   0.901  1.00  0.00    -0.460 OA
BRANCH   5   6
ATOM      6  C   UNL     1      -3.579   4.794   1.404  1.00  0.00     0.339 C 
ATOM      7  O   UNL     1      -3.673   4.238   2.473  1.00  0.00    -0.246 OA
BRANCH   6   8
ATOM      8  C   UNL     1      -2.697   4.309   0.320  1.00  0.00     0.079 A 
ATOM      9  C   UNL     1      -1.465   2.366  -0.489  1.00  0.00    -0.017 A 
ATOM     10  C   UNL     1      -1.290   3.020  -1.714  1.00  0.00     0.010 A 
ATOM     11  C   UNL     1      -2.182   3.014   0.519  1.00  0.00     0.026 A 
ATOM     12  C   UNL     1      -1.767   4.313  -1.909  1.00  0.00     0.022 A 
ATOM     13  C   UNL     1      -2.447   4.977  -0.889  1.00  0.00     0.055 A 
ATOM     14  Cl  UNL     1      -2.879   6.615  -1.254  1.00  0.00    -0.083 Cl
BRANCH   9  15
ATOM     15  C   UNL     1      -0.848   1.064  -0.264  1.00  0.00    -0.018 A 
ATOM     16  C   UNL     1       2.696  -0.289   0.040  1.00  0.00     0.044 C 
ATOM     17  C   UNL     1       1.200  -0.239  -0.021  1.00  0.00    -0.051 A 
ATOM     18  C   UNL     1       0.434  -1.407   0.055  1.00  0.00     0.003 A 
ATOM     19  C   UNL     1       0.550   0.986  -0.178  1.00  0.00     0.012 A 
ATOM     20  C   UNL     1      -0.960  -1.343  -0.003  1.00  0.00     0.001 A 
ATOM     21  C   UNL     1      -1.600  -0.112  -0.156  1.00  0.00     0.009 A 
ENDBRANCH   9  15
ENDBRANCH   6   8
ENDBRANCH   5   6
ENDBRANCH   4   5
ENDBRANCH   3   4
ENDBRANCH   2   3
ENDBRANCH   1   2
BRANCH   1  22
ATOM     22  C   UNL     1      -8.256   2.494   1.393  1.00  0.00     0.261 C 
BRANCH  22  23
ATOM     23  O   UNL     1      -8.745   2.595   2.751  1.00  0.00    -0.460 OA
BRANCH  23  24
ATOM     24  C   UNL     1      -9.119   3.843   3.175  1.00  0.00     0.338 C 
ATOM     25  O   UNL     1     -10.178   4.366   2.881  1.00  0.00    -0.246 OA
BRANCH  24  26
ATOM     26  C   UNL     1      -8.061   4.441   4.043  1.00  0.00     0.060 A 
ATOM     27  C   UNL     1      -7.989   5.825   4.288  1.00  0.00     0.016 A 
ATOM     28  C   UNL     1      -7.002   3.623   4.412  1.00  0.00     0.016 A 
ATOM     29  C   UNL     1      -6.793   6.403   4.763  1.00  0.00     0.010 A 
ATOM     30  C   UNL     1      -5.796   4.210   4.715  1.00  0.00     0.010 A 
ATOM     31  C   UNL     1      -5.667   5.597   4.902  1.00  0.00    -0.014 A 
BRANCH  31  32
ATOM     32  C   UNL     1      -4.290   6.010   5.202  1.00  0.00     0.031 A 
ATOM     33  C   UNL     1      -3.656   5.422   6.415  1.00  0.00     0.074 A 
ATOM     34  C   UNL     1      -3.498   6.611   4.277  1.00  0.00     0.049 A 
ATOM     35  N   UNL     1      -2.531   5.813   6.902  1.00  0.00    -0.248 NA
ATOM     36  C   UNL     1      -4.266   4.371   7.234  1.00  0.00     0.031 C 
ATOM     37  C   UNL     1      -2.052   6.428   4.120  1.00  0.00     0.029 A 
ATOM     38  N   UNL     1      -3.815   7.466   3.221  1.00  0.00    -0.354 N 
ATOM     39  C   UNL     1      -2.111   4.864   7.809  1.00  0.00     0.074 A 
ATOM     40  C   UNL     1      -3.285   4.087   8.092  1.00  0.00     0.031 C 
ATOM     41  C   UNL     1      -1.577   7.282   3.197  1.00  0.00     0.029 A 
ATOM     42  C   UNL     1      -2.667   8.158   2.810  1.00  0.00     0.049 A 
ATOM     43  H   UNL     1      -4.710   7.569   2.825  1.00  0.00     0.167 HD
ATOM     44  C   UNL     1      -0.776   4.770   8.075  1.00  0.00     0.037 A 
ATOM     45  C   UNL     1      -2.649   9.518   2.730  1.00  0.00     0.037 A 
ATOM     46  C   UNL     1      -0.047   5.786   7.304  1.00  0.00     0.049 A 
ATOM     47  C   UNL     1      -1.691  10.037   3.762  1.00  0.00     0.074 A 
ATOM     48  C   UNL     1       0.731   5.713   6.161  1.00  0.00     0.029 A 
ATOM     49  N   UNL     1      -0.316   7.135   7.513  1.00  0.00    -0.354 N 
ATOM     50  N   UNL     1      -1.334   9.314   4.786  1.00  0.00    -0.248 NA
ATOM     51  C   UNL     1      -0.999  11.320   3.723  1.00  0.00     0.031 C 
ATOM     52  C   UNL     1       0.918   7.034   5.678  1.00  0.00     0.029 A 
ATOM     53  C   UNL     1       0.267   7.910   6.532  1.00  0.00     0.049 A 
ATOM     54  H   UNL     1      -0.851   7.488   8.260  1.00  0.00     0.167 HD
ATOM     55  C   UNL     1      -0.375   9.957   5.499  1.00  0.00     0.074 A 
ATOM     56  C   UNL     1      -0.219  11.229   4.817  1.00  0.00     0.031 C 
ATOM     57  C   UNL     1       0.197   9.366   6.585  1.00  0.00     0.037 A 
BRANCH  44  58
ATOM     58  C   UNL     1      -0.053   3.651   8.813  1.00  0.00     0.058 A 
ATOM     59  C   UNL     1       1.362   3.605   8.800  1.00  0.00     0.135 A 
ATOM     60  C   UNL     1      -0.648   2.586   9.523  1.00  0.00     0.135 A 
ATOM     61  F   UNL     1       2.092   4.569   8.223  1.00  0.00    -0.206 F 
ATOM     62  C   UNL     1       2.108   2.577   9.381  1.00  0.00     0.059 A 
ATOM     63  C   UNL     1       0.076   1.541  10.108  1.00  0.00     0.059 A 
ATOM     64  F   UNL     1      -1.963   2.499   9.724  1.00  0.00    -0.206 F 
ATOM     65  C   UNL     1       1.457   1.541  10.029  1.00  0.00     0.060 A 
BRANCH  65  66
ATOM     66  S   UNL     1       2.432   0.236  10.792  1.00  0.00     0.124 S 
ATOM     67  O   UNL     1       3.126  -0.336   9.643  1.00  0.00    -0.237 OA
ATOM     68  O   UNL     1       3.262   0.983  11.730  1.00  0.00    -0.237 OA
ATOM     69  O   UNL     1       1.426  -0.629  11.403  1.00  0.00    -0.744 OA
ENDBRANCH  65  66
ENDBRANCH  44  58
BRANCH  45  70
ATOM     70  C   UNL     1      -3.970  10.076   2.301  1.00  0.00     0.058 A 
ATOM     71  C   UNL     1      -4.290   9.965   0.929  1.00  0.00     0.135 A 
ATOM     72  C   UNL     1      -5.047  10.134   3.200  1.00  0.00     0.135 A 
ATOM     73  F   UNL     1      -3.305   9.932   0.016  1.00  0.00    -0.206 F 
ATOM     74  C   UNL     1      -5.596   9.735   0.486  1.00  0.00     0.059 A 
ATOM     75  C   UNL     1      -6.359   9.879   2.780  1.00  0.00     0.059 A 
ATOM     76  F   UNL     1      -4.817  10.252   4.516  1.00  0.00    -0.206 F 
ATOM     77  C   UNL     1      -6.617   9.627   1.429  1.00  0.00     0.060 A 
BRANCH  77  78
ATOM     78  S   UNL     1      -8.218   8.919   0.924  1.00  0.00     0.124 S 
ATOM     79  O   UNL     1      -8.918  10.086   0.405  1.00  0.00    -0.237 OA
ATOM     80  O   UNL     1      -7.844   7.919  -0.074  1.00  0.00    -0.237 OA
ATOM     81  O   UNL     1      -8.732   8.362   2.171  1.00  0.00    -0.744 OA
ENDBRANCH  77  78
ENDBRANCH  45  70
BRANCH  57  82
ATOM     82  C   UNL     1       0.833  10.107   7.726  1.00  0.00     0.058 A 
ATOM     83  C   UNL     1       0.597  11.466   7.989  1.00  0.00     0.135 A 
ATOM     84  C   UNL     1       1.590   9.418   8.706  1.00  0.00     0.135 A 
ATOM     85  F   UNL     1      -0.226  12.202   7.229  1.00  0.00    -0.206 F 
ATOM     86  C   UNL     1       1.166  12.122   9.074  1.00  0.00     0.059 A 
ATOM     87  C   UNL     1       2.104  10.038   9.836  1.00  0.00     0.059 A 
ATOM     88  F   UNL     1       1.848   8.106   8.616  1.00  0.00    -0.206 F 
ATOM     89  C   UNL     1       1.929  11.402   9.985  1.00  0.00     0.060 A 
BRANCH  89  90
ATOM     90  S   UNL     1       2.686  12.267  11.362  1.00  0.00     0.124 S 
ATOM     91  O   UNL     1       3.844  12.875  10.713  1.00  0.00    -0.237 OA
ATOM     92  O   UNL     1       1.633  13.192  11.771  1.00  0.00    -0.237 OA
ATOM     93  O   UNL     1       2.981  11.202  12.314  1.00  0.00    -0.744 OA
ENDBRANCH  89  90
ENDBRANCH  57  82
ENDBRANCH  31  32
ENDBRANCH  24  26
ENDBRANCH  23  24
ENDBRANCH  22  23
ENDBRANCH   1  22
TORSDOF 18
