REMARK SMILES NS(=O)(=O)c1ccc(/N=C/c2ccc(O)c(C(=O)OCCOCCOC(=O)c3ccc(-c4c5nc(c(-c6c(F)cc(S(=O)(=O)[O-])cc6F)c6ccc([nH]6)c(-c6c(F)cc(S(=O)(=O)[O-])cc6F)c6nc(c(-c7c(F)cc(S(=O)(=O)[O-])cc7F)c7ccc4[nH]7)C=C6)C=C5)cc3)c2)cc1
REMARK SMILES IDX 21 1 20 2 19 3 17 4 18 5 16 6 11 7 12 8 94 9 13 10 14 11
REMARK SMILES IDX 10 12 9 13 8 14 5 15 6 16 96 17 7 18 95 19 2 20 3 21 4 22
REMARK SMILES IDX 1 23 15 26 22 28 23 29 24 30 25 31 26 32 27 33 28 34 29 35
REMARK SMILES IDX 93 36 30 37 92 38 31 39 32 40 33 41 86 42 34 43 91 44 85 45
REMARK SMILES IDX 87 46 35 47 90 48 84 49 83 50 36 52 70 53 49 54 69 55 50 56
REMARK SMILES IDX 53 57 68 58 88 59 51 60 52 61 67 63 89 64 54 65 37 66 38 67
REMARK SMILES IDX 47 68 39 69 40 70 46 71 48 72 41 73 42 74 43 75 44 76 45 77
REMARK SMILES IDX 71 78 72 79 81 80 73 81 74 82 80 83 82 84 75 85 76 86 77 87
REMARK SMILES IDX 78 88 79 89 55 90 56 91 65 92 57 93 58 94 64 95 66 96 59 97
REMARK SMILES IDX 60 98 61 99 62 100 63 101
REMARK H PARENT 1 24 1 25 15 27 87 51 53 62
REMARK Flexibility Score: inf
ROOT
ATOM      1  C   UNL     1       7.114   9.553   6.138  1.00  0.00     0.202 C 
ENDROOT
BRANCH   1   2
ATOM      2  C   UNL     1       6.012   8.827   6.917  1.00  0.00     0.261 C 
BRANCH   2   3
ATOM      3  O   UNL     1       4.851   8.611   6.093  1.00  0.00    -0.460 OA
BRANCH   3   4
ATOM      4  C   UNL     1       3.788   9.394   6.384  1.00  0.00     0.342 C 
ATOM      5  O   UNL     1       3.667  10.151   7.338  1.00  0.00    -0.246 OA
BRANCH   4   6
ATOM      6  C   UNL     1       2.837   9.438   5.250  1.00  0.00     0.102 A 
ATOM      7  C   UNL     1       1.696   8.453   3.360  1.00  0.00    -0.006 A 
ATOM      8  C   UNL     1       1.077   9.679   3.086  1.00  0.00     0.013 A 
ATOM      9  C   UNL     1       2.594   8.329   4.430  1.00  0.00     0.029 A 
ATOM     10  C   UNL     1       1.337  10.785   3.893  1.00  0.00     0.048 A 
ATOM     11  C   UNL     1       2.200  10.661   4.976  1.00  0.00     0.130 A 
BRANCH   7  12
ATOM     12  C   UNL     1       1.341   7.300   2.506  1.00  0.00     0.119 C 
ATOM     13  N   UNL     1       1.897   6.142   2.649  1.00  0.00    -0.256 NA
BRANCH  13  14
ATOM     14  C   UNL     1       1.493   5.067   1.836  1.00  0.00     0.063 A 
ATOM     15  C   UNL     1       0.795   2.799   0.326  1.00  0.00     0.082 A 
ATOM     16  C   UNL     1       1.186   2.651   1.656  1.00  0.00     0.024 A 
ATOM     17  C   UNL     1       0.759   4.065  -0.262  1.00  0.00     0.024 A 
ATOM     18  C   UNL     1       1.532   3.785   2.400  1.00  0.00     0.030 A 
ATOM     19  C   UNL     1       1.115   5.190   0.491  1.00  0.00     0.030 A 
BRANCH  15  20
ATOM     20  S   UNL     1       0.401   1.391  -0.670  1.00  0.00     0.238 S 
ATOM     21  O   UNL     1       1.015   1.565  -1.971  1.00  0.00    -0.207 OA
ATOM     22  O   UNL     1      -1.001   1.102  -0.510  1.00  0.00    -0.207 OA
BRANCH  20  23
ATOM     23  N   UNL     1       1.233   0.125   0.048  1.00  0.00    -0.225 NA
ATOM     24  H   UNL     1       1.057  -0.735  -0.472  1.00  0.00     0.137 HD
ATOM     25  H   UNL     1       0.915   0.011   1.010  1.00  0.00     0.137 HD
ENDBRANCH  20  23
ENDBRANCH  15  20
ENDBRANCH  13  14
ENDBRANCH   7  12
BRANCH  11  26
ATOM     26  O   UNL     1       2.398  11.796   5.718  1.00  0.00    -0.507 OA
ATOM     27  H   UNL     1       1.949  12.587   5.493  1.00  0.00     0.293 HD
ENDBRANCH  11  26
ENDBRANCH   4   6
ENDBRANCH   3   4
ENDBRANCH   2   3
ENDBRANCH   1   2
BRANCH   1  28
ATOM     28  O   UNL     1       6.815  10.899   5.760  1.00  0.00    -0.374 OA
BRANCH  28  29
ATOM     29  C   UNL     1       6.073  11.077   4.551  1.00  0.00     0.202 C 
BRANCH  29  30
ATOM     30  C   UNL     1       6.872  11.013   3.245  1.00  0.00     0.261 C 
BRANCH  30  31
ATOM     31  O   UNL     1       7.379   9.689   3.001  1.00  0.00    -0.460 OA
BRANCH  31  32
ATOM     32  C   UNL     1       8.715   9.563   3.184  1.00  0.00     0.338 C 
ATOM     33  O   UNL     1       9.507  10.458   3.428  1.00  0.00    -0.246 OA
BRANCH  32  34
ATOM     34  C   UNL     1       9.100   8.137   3.225  1.00  0.00     0.060 A 
ATOM     35  C   UNL     1       9.991   7.754   4.234  1.00  0.00     0.016 A 
ATOM     36  C   UNL     1       8.682   7.216   2.260  1.00  0.00     0.016 A 
ATOM     37  C   UNL     1      10.543   6.477   4.229  1.00  0.00     0.010 A 
ATOM     38  C   UNL     1       9.239   5.931   2.256  1.00  0.00     0.010 A 
ATOM     39  C   UNL     1      10.216   5.578   3.206  1.00  0.00    -0.014 A 
BRANCH  39  40
ATOM     40  C   UNL     1      11.058   4.369   3.031  1.00  0.00     0.031 A 
ATOM     41  C   UNL     1      12.154   4.396   1.996  1.00  0.00     0.074 A 
ATOM     42  C   UNL     1      10.915   3.302   3.838  1.00  0.00     0.049 A 
ATOM     43  N   UNL     1      13.051   3.487   1.712  1.00  0.00    -0.248 NA
ATOM     44  C   UNL     1      12.252   5.614   1.174  1.00  0.00     0.031 C 
ATOM     45  C   UNL     1       9.918   3.174   4.899  1.00  0.00     0.029 A 
ATOM     46  N   UNL     1      11.621   2.127   3.895  1.00  0.00    -0.354 N 
ATOM     47  C   UNL     1      13.818   4.022   0.682  1.00  0.00     0.074 A 
ATOM     48  C   UNL     1      13.256   5.316   0.363  1.00  0.00     0.031 C 
ATOM     49  C   UNL     1      10.080   1.986   5.508  1.00  0.00     0.029 A 
ATOM     50  C   UNL     1      11.179   1.264   4.868  1.00  0.00     0.049 A 
ATOM     51  H   UNL     1      12.374   1.922   3.295  1.00  0.00     0.167 HD
ATOM     52  C   UNL     1      14.903   3.493   0.069  1.00  0.00     0.037 A 
ATOM     53  C   UNL     1      11.611   0.032   5.201  1.00  0.00     0.037 A 
ATOM     54  C   UNL     1      15.463   2.207   0.390  1.00  0.00     0.049 A 
ATOM     55  C   UNL     1      12.793  -0.557   4.474  1.00  0.00     0.074 A 
ATOM     56  C   UNL     1      16.559   1.578  -0.174  1.00  0.00     0.029 A 
ATOM     57  N   UNL     1      14.969   1.351   1.364  1.00  0.00    -0.354 N 
ATOM     58  N   UNL     1      13.515  -0.034   3.511  1.00  0.00    -0.248 NA
ATOM     59  C   UNL     1      13.227  -1.898   4.889  1.00  0.00     0.031 C 
ATOM     60  C   UNL     1      16.704   0.325   0.433  1.00  0.00     0.029 A 
ATOM     61  C   UNL     1      15.730   0.195   1.409  1.00  0.00     0.049 A 
ATOM     62  H   UNL     1      14.191   1.538   1.938  1.00  0.00     0.167 HD
ATOM     63  C   UNL     1      14.511  -0.966   3.232  1.00  0.00     0.074 A 
ATOM     64  C   UNL     1      14.300  -2.082   4.132  1.00  0.00     0.031 C 
ATOM     65  C   UNL     1      15.514  -0.901   2.320  1.00  0.00     0.037 A 
BRANCH  52  66
ATOM     66  C   UNL     1      15.541   4.302  -1.028  1.00  0.00     0.058 A 
ATOM     67  C   UNL     1      16.270   5.471  -0.755  1.00  0.00     0.135 A 
ATOM     68  C   UNL     1      15.434   3.896  -2.368  1.00  0.00     0.135 A 
ATOM     69  F   UNL     1      16.388   5.915   0.506  1.00  0.00    -0.206 F 
ATOM     70  C   UNL     1      16.843   6.225  -1.774  1.00  0.00     0.059 A 
ATOM     71  C   UNL     1      16.021   4.620  -3.400  1.00  0.00     0.059 A 
ATOM     72  F   UNL     1      14.746   2.788  -2.685  1.00  0.00    -0.206 F 
ATOM     73  C   UNL     1      16.710   5.793  -3.095  1.00  0.00     0.060 A 
BRANCH  73  74
ATOM     74  S   UNL     1      17.453   6.785  -4.408  1.00  0.00     0.124 S 
ATOM     75  O   UNL     1      16.538   7.921  -4.467  1.00  0.00    -0.237 OA
ATOM     76  O   UNL     1      18.781   7.068  -3.874  1.00  0.00    -0.237 OA
ATOM     77  O   UNL     1      17.423   5.894  -5.565  1.00  0.00    -0.744 OA
ENDBRANCH  73  74
ENDBRANCH  52  66
BRANCH  53  78
ATOM     78  C   UNL     1      10.933  -0.726   6.287  1.00  0.00     0.058 A 
ATOM     79  C   UNL     1      11.568  -0.963   7.514  1.00  0.00     0.135 A 
ATOM     80  C   UNL     1       9.634  -1.229   6.114  1.00  0.00     0.135 A 
ATOM     81  F   UNL     1      12.814  -0.510   7.723  1.00  0.00    -0.206 F 
ATOM     82  C   UNL     1      10.948  -1.687   8.528  1.00  0.00     0.059 A 
ATOM     83  C   UNL     1       8.984  -1.934   7.122  1.00  0.00     0.059 A 
ATOM     84  F   UNL     1       8.978  -1.019   4.962  1.00  0.00    -0.206 F 
ATOM     85  C   UNL     1       9.654  -2.167   8.322  1.00  0.00     0.060 A 
BRANCH  85  86
ATOM     86  S   UNL     1       8.838  -3.066   9.659  1.00  0.00     0.124 S 
ATOM     87  O   UNL     1       9.532  -4.347   9.619  1.00  0.00    -0.237 OA
ATOM     88  O   UNL     1       9.122  -2.220  10.815  1.00  0.00    -0.237 OA
ATOM     89  O   UNL     1       7.439  -3.091   9.241  1.00  0.00    -0.744 OA
ENDBRANCH  85  86
ENDBRANCH  53  78
BRANCH  65  90
ATOM     90  C   UNL     1      16.492  -2.044   2.285  1.00  0.00     0.058 A 
ATOM     91  C   UNL     1      16.145  -3.304   1.776  1.00  0.00     0.135 A 
ATOM     92  C   UNL     1      17.808  -1.860   2.740  1.00  0.00     0.135 A 
ATOM     93  F   UNL     1      14.899  -3.534   1.331  1.00  0.00    -0.206 F 
ATOM     94  C   UNL     1      17.058  -4.354   1.752  1.00  0.00     0.059 A 
ATOM     95  C   UNL     1      18.746  -2.888   2.699  1.00  0.00     0.059 A 
ATOM     96  F   UNL     1      18.198  -0.670   3.223  1.00  0.00    -0.206 F 
ATOM     97  C   UNL     1      18.355  -4.137   2.220  1.00  0.00     0.060 A 
BRANCH  97  98
ATOM     98  S   UNL     1      19.535  -5.503   2.176  1.00  0.00     0.124 S 
ATOM     99  O   UNL     1      19.087  -6.312   3.305  1.00  0.00    -0.237 OA
ATOM    100  O   UNL     1      19.304  -6.077   0.854  1.00  0.00    -0.237 OA
ATOM    101  O   UNL     1      20.826  -4.843   2.349  1.00  0.00    -0.744 OA
ENDBRANCH  97  98
ENDBRANCH  65  90
ENDBRANCH  39  40
ENDBRANCH  32  34
ENDBRANCH  31  32
ENDBRANCH  30  31
ENDBRANCH  29  30
ENDBRANCH  28  29
ENDBRANCH   1  28
TORSDOF 22
