REMARK SMILES COc1cc([C@H]2[NH2+]CCC3=c4ccccc4=N[C@H]32)ccc1OCC(=O)OCCOCCOC(=O)c1ccc(-c2c3nc(c(-c4c(F)cc(S(=O)(=O)[O-])cc4F)c4ccc([nH]4)c(-c4c(F)cc(S(=O)(=O)[O-])cc4F)c4nc(c(-c5c(F)cc(S(=O)(=O)[O-])cc5F)c5ccc2[nH]5)C=C4)C=C3)cc1
REMARK SMILES IDX 29 1 28 2 27 3 26 4 24 5 25 6 23 7 22 8 21 9 3 10 4 11 5 12
REMARK SMILES IDX 20 13 19 14 2 15 1 16 6 17 7 18 18 19 8 20 10 23 17 24 9 25
REMARK SMILES IDX 11 26 16 27 12 28 15 29 13 30 14 31 30 32 31 33 32 34 33 35
REMARK SMILES IDX 34 36 35 37 36 38 100 39 37 40 99 41 38 42 39 43 40 44 93 45
REMARK SMILES IDX 41 46 98 47 92 48 94 49 42 50 97 51 91 52 90 53 43 55 77 56
REMARK SMILES IDX 56 57 76 58 57 59 60 60 75 61 95 62 58 63 59 64 74 66 96 67
REMARK SMILES IDX 61 68 44 69 45 70 54 71 46 72 47 73 53 74 55 75 48 76 49 77
REMARK SMILES IDX 50 78 51 79 52 80 78 81 79 82 88 83 80 84 81 85 87 86 89 87
REMARK SMILES IDX 82 88 83 89 84 90 85 91 86 92 62 93 63 94 72 95 64 96 65 97
REMARK SMILES IDX 71 98 73 99 66 100 67 101 68 102 69 103 70 104
REMARK H PARENT 7 21 7 22 94 54 60 65
REMARK Flexibility Score: inf
ROOT
ATOM      1  O   UNL     1       1.291   9.872  -4.545  1.00  0.00    -0.374 OA
ENDROOT
BRANCH   1   2
ATOM      2  C   UNL     1       1.120  10.552  -5.792  1.00  0.00     0.202 C 
BRANCH   2   3
ATOM      3  C   UNL     1       2.389  10.640  -6.647  1.00  0.00     0.261 C 
BRANCH   3   4
ATOM      4  O   UNL     1       2.818   9.348  -7.130  1.00  0.00    -0.461 OA
BRANCH   4   5
ATOM      5  C   UNL     1       4.166   9.181  -7.211  1.00  0.00     0.344 C 
ATOM      6  O   UNL     1       4.985  10.068  -6.984  1.00  0.00    -0.248 OA
BRANCH   5   7
ATOM      7  C   UNL     1       4.607   7.763  -7.596  1.00  0.00     0.352 C 
BRANCH   7   8
ATOM      8  O   UNL     1       3.685   6.778  -7.990  1.00  0.00    -0.478 OA
BRANCH   8   9
ATOM      9  C   UNL     1       2.915   6.076  -7.116  1.00  0.00     0.162 A 
ATOM     10  C   UNL     1       3.174   5.598  -5.827  1.00  0.00     0.161 A 
ATOM     11  C   UNL     1       2.231   4.740  -5.186  1.00  0.00     0.060 A 
ATOM     12  C   UNL     1       1.004   4.378  -5.801  1.00  0.00     0.016 A 
ATOM     13  C   UNL     1       1.703   5.732  -7.706  1.00  0.00     0.051 A 
ATOM     14  C   UNL     1       0.758   4.947  -7.049  1.00  0.00     0.014 A 
BRANCH  10  15
ATOM     15  O   UNL     1       4.396   5.760  -5.224  1.00  0.00    -0.493 OA
ATOM     16  C   UNL     1       4.467   6.925  -4.403  1.00  0.00     0.278 C 
ENDBRANCH  10  15
BRANCH  12  17
ATOM     17  C   UNL     1       0.003   3.403  -5.130  1.00  0.00     0.243 C 
ATOM     18  N   UNL     1      -0.816   4.088  -4.088  1.00  0.00    -0.338 N 
ATOM     19  C   UNL     1      -0.932   2.480  -6.031  1.00  0.00     0.196 C 
ATOM     20  C   UNL     1      -1.992   4.799  -4.628  1.00  0.00     0.265 C 
ATOM     21  H   UNL     1      -0.223   4.765  -3.607  1.00  0.00     0.346 HD
ATOM     22  H   UNL     1      -1.167   3.364  -3.462  1.00  0.00     0.346 HD
ATOM     23  C   UNL     1      -2.151   3.227  -6.502  1.00  0.00    -0.025 C 
ATOM     24  N   UNL     1      -0.267   1.994  -7.274  1.00  0.00    -0.270 NA
ATOM     25  C   UNL     1      -2.944   3.926  -5.456  1.00  0.00     0.095 C 
ATOM     26  C   UNL     1      -2.189   3.298  -7.827  1.00  0.00     0.001 A 
ATOM     27  C   UNL     1      -0.997   2.517  -8.217  1.00  0.00     0.066 A 
ATOM     28  C   UNL     1      -2.930   4.074  -8.768  1.00  0.00     0.010 A 
ATOM     29  C   UNL     1      -0.673   2.504  -9.659  1.00  0.00     0.028 A 
ATOM     30  C   UNL     1      -2.513   4.093 -10.045  1.00  0.00     0.001 A 
ATOM     31  C   UNL     1      -1.383   3.289 -10.488  1.00  0.00     0.002 A 
ENDBRANCH  12  17
ENDBRANCH   8   9
ENDBRANCH   7   8
ENDBRANCH   5   7
ENDBRANCH   4   5
ENDBRANCH   3   4
ENDBRANCH   2   3
ENDBRANCH   1   2
BRANCH   1  32
ATOM     32  C   UNL     1       1.349   8.450  -4.625  1.00  0.00     0.202 C 
BRANCH  32  33
ATOM     33  C   UNL     1       0.002   7.759  -4.739  1.00  0.00     0.261 C 
BRANCH  33  34
ATOM     34  O   UNL     1      -0.608   8.052  -6.002  1.00  0.00    -0.460 OA
BRANCH  34  35
ATOM     35  C   UNL     1      -1.873   8.500  -5.900  1.00  0.00     0.338 C 
ATOM     36  O   UNL     1      -2.596   8.463  -4.910  1.00  0.00    -0.246 OA
BRANCH  35  37
ATOM     37  C   UNL     1      -2.238   9.231  -7.115  1.00  0.00     0.060 A 
ATOM     38  C   UNL     1      -2.644  10.557  -6.942  1.00  0.00     0.016 A 
ATOM     39  C   UNL     1      -2.301   8.608  -8.366  1.00  0.00     0.016 A 
ATOM     40  C   UNL     1      -3.237  11.232  -7.995  1.00  0.00     0.010 A 
ATOM     41  C   UNL     1      -2.900   9.291  -9.428  1.00  0.00     0.010 A 
ATOM     42  C   UNL     1      -3.436  10.573  -9.217  1.00  0.00    -0.014 A 
BRANCH  42  43
ATOM     43  C   UNL     1      -4.436  11.155 -10.140  1.00  0.00     0.031 A 
ATOM     44  C   UNL     1      -5.845  10.619 -10.082  1.00  0.00     0.074 A 
ATOM     45  C   UNL     1      -4.126  12.233 -10.879  1.00  0.00     0.049 A 
ATOM     46  N   UNL     1      -6.918  11.038 -10.697  1.00  0.00    -0.248 NA
ATOM     47  C   UNL     1      -6.078   9.460  -9.199  1.00  0.00     0.031 C 
ATOM     48  C   UNL     1      -2.802  12.852 -10.952  1.00  0.00     0.029 A 
ATOM     49  N   UNL     1      -4.909  13.019 -11.682  1.00  0.00    -0.354 N 
ATOM     50  C   UNL     1      -7.950  10.210 -10.265  1.00  0.00     0.074 A 
ATOM     51  C   UNL     1      -7.370   9.230  -9.377  1.00  0.00     0.031 C 
ATOM     52  C   UNL     1      -2.869  13.934 -11.747  1.00  0.00     0.029 A 
ATOM     53  C   UNL     1      -4.232  14.071 -12.251  1.00  0.00     0.049 A 
ATOM     54  H   UNL     1      -5.866  12.846 -11.837  1.00  0.00     0.167 HD
ATOM     55  C   UNL     1      -9.268  10.279 -10.563  1.00  0.00     0.037 A 
ATOM     56  C   UNL     1      -4.675  15.033 -13.083  1.00  0.00     0.037 A 
ATOM     57  C   UNL     1      -9.829  11.267 -11.445  1.00  0.00     0.049 A 
ATOM     58  C   UNL     1      -6.138  15.048 -13.445  1.00  0.00     0.074 A 
ATOM     59  C   UNL     1     -11.141  11.415 -11.856  1.00  0.00     0.029 A 
ATOM     60  N   UNL     1      -9.103  12.288 -12.042  1.00  0.00    -0.354 N 
ATOM     61  N   UNL     1      -7.097  14.245 -13.044  1.00  0.00    -0.248 NA
ATOM     62  C   UNL     1      -6.583  16.106 -14.361  1.00  0.00     0.031 C 
ATOM     63  C   UNL     1     -11.202  12.508 -12.728  1.00  0.00     0.029 A 
ATOM     64  C   UNL     1      -9.937  13.067 -12.823  1.00  0.00     0.049 A 
ATOM     65  H   UNL     1      -8.136  12.435 -11.928  1.00  0.00     0.167 HD
ATOM     66  C   UNL     1      -8.262  14.718 -13.638  1.00  0.00     0.074 A 
ATOM     67  C   UNL     1      -7.889  15.890 -14.405  1.00  0.00     0.031 C 
ATOM     68  C   UNL     1      -9.527  14.232 -13.565  1.00  0.00     0.037 A 
BRANCH  55  69
ATOM     69  C   UNL     1     -10.185   9.264  -9.937  1.00  0.00     0.058 A 
ATOM     70  C   UNL     1     -10.518   9.317  -8.573  1.00  0.00     0.135 A 
ATOM     71  C   UNL     1     -10.769   8.250 -10.713  1.00  0.00     0.135 A 
ATOM     72  F   UNL     1      -9.967  10.247  -7.778  1.00  0.00    -0.206 F 
ATOM     73  C   UNL     1     -11.390   8.396  -8.000  1.00  0.00     0.059 A 
ATOM     74  C   UNL     1     -11.662   7.333 -10.166  1.00  0.00     0.059 A 
ATOM     75  F   UNL     1     -10.475   8.146 -12.018  1.00  0.00    -0.206 F 
ATOM     76  C   UNL     1     -11.962   7.410  -8.807  1.00  0.00     0.060 A 
BRANCH  76  77
ATOM     77  S   UNL     1     -13.116   6.242  -8.055  1.00  0.00     0.124 S 
ATOM     78  O   UNL     1     -12.217   5.422  -7.249  1.00  0.00    -0.237 OA
ATOM     79  O   UNL     1     -14.009   7.123  -7.309  1.00  0.00    -0.237 OA
ATOM     80  O   UNL     1     -13.717   5.571  -9.203  1.00  0.00    -0.744 OA
ENDBRANCH  76  77
ENDBRANCH  55  69
BRANCH  56  81
ATOM     81  C   UNL     1      -3.736  16.045 -13.639  1.00  0.00     0.058 A 
ATOM     82  C   UNL     1      -3.846  17.406 -13.316  1.00  0.00     0.135 A 
ATOM     83  C   UNL     1      -2.728  15.671 -14.542  1.00  0.00     0.135 A 
ATOM     84  F   UNL     1      -4.793  17.817 -12.459  1.00  0.00    -0.206 F 
ATOM     85  C   UNL     1      -3.021  18.364 -13.899  1.00  0.00     0.059 A 
ATOM     86  C   UNL     1      -1.872  16.605 -15.114  1.00  0.00     0.059 A 
ATOM     87  F   UNL     1      -2.565  14.380 -14.872  1.00  0.00    -0.206 F 
ATOM     88  C   UNL     1      -2.041  17.953 -14.804  1.00  0.00     0.060 A 
BRANCH  88  89
ATOM     89  S   UNL     1      -0.976  19.199 -15.562  1.00  0.00     0.124 S 
ATOM     90  O   UNL     1      -1.877  19.795 -16.541  1.00  0.00    -0.237 OA
ATOM     91  O   UNL     1      -0.623  20.039 -14.422  1.00  0.00    -0.237 OA
ATOM     92  O   UNL     1       0.122  18.409 -16.112  1.00  0.00    -0.744 OA
ENDBRANCH  88  89
ENDBRANCH  56  81
BRANCH  68  93
ATOM     93  C   UNL     1     -10.589  14.995 -14.306  1.00  0.00     0.058 A 
ATOM     94  C   UNL     1     -10.664  14.977 -15.707  1.00  0.00     0.135 A 
ATOM     95  C   UNL     1     -11.546  15.742 -13.602  1.00  0.00     0.135 A 
ATOM     96  F   UNL     1      -9.771  14.277 -16.423  1.00  0.00    -0.206 F 
ATOM     97  C   UNL     1     -11.624  15.716 -16.388  1.00  0.00     0.059 A 
ATOM     98  C   UNL     1     -12.534  16.464 -14.262  1.00  0.00     0.059 A 
ATOM     99  F   UNL     1     -11.527  15.775 -12.260  1.00  0.00    -0.206 F 
ATOM    100  C   UNL     1     -12.550  16.462 -15.656  1.00  0.00     0.060 A 
BRANCH 100 101
ATOM    101  S   UNL     1     -13.784  17.427 -16.550  1.00  0.00     0.124 S 
ATOM    102  O   UNL     1     -12.992  18.565 -17.005  1.00  0.00    -0.237 OA
ATOM    103  O   UNL     1     -14.216  16.498 -17.590  1.00  0.00    -0.237 OA
ATOM    104  O   UNL     1     -14.785  17.725 -15.530  1.00  0.00    -0.744 OA
ENDBRANCH 100 101
ENDBRANCH  68  93
ENDBRANCH  42  43
ENDBRANCH  35  37
ENDBRANCH  34  35
ENDBRANCH  33  34
ENDBRANCH  32  33
ENDBRANCH   1  32
TORSDOF 21
