REMARK SMILES C#Cc1cccc(NS(=O)(=O)c2ccc(F)c(C(=O)OCCOCCOC(=O)c3ccc(-c4c5nc(c(-c6c(F)cc(S(=O)(=O)[O-])cc6F)c6ccc([nH]6)c(-c6c(F)cc(S(=O)(=O)[O-])cc6F)c6nc(c(-c7c(F)cc(S(=O)(=O)[O-])cc7F)c7ccc4[nH]7)C=C6)C=C5)cc3)c2)c1
REMARK SMILES IDX 22 1 21 2 20 3 18 4 19 5 17 6 12 7 13 8 95 9 14 10 15 11
REMARK SMILES IDX 16 12 9 13 10 14 11 15 8 16 7 18 3 19 4 20 96 21 5 22 6 23
REMARK SMILES IDX 2 24 1 25 23 26 24 27 25 28 26 29 27 30 28 31 29 32 30 33
REMARK SMILES IDX 94 34 31 35 93 36 32 37 33 38 34 39 87 40 35 41 92 42 86 43
REMARK SMILES IDX 88 44 36 45 91 46 85 47 84 48 37 50 71 51 50 52 70 53 51 54
REMARK SMILES IDX 54 55 69 56 89 57 52 58 53 59 68 61 90 62 55 63 38 64 39 65
REMARK SMILES IDX 48 66 40 67 41 68 47 69 49 70 42 71 43 72 44 73 45 74 46 75
REMARK SMILES IDX 72 76 73 77 82 78 74 79 75 80 81 81 83 82 76 83 77 84 78 85
REMARK SMILES IDX 79 86 80 87 56 88 57 89 66 90 58 91 59 92 65 93 67 94 60 95
REMARK SMILES IDX 61 96 62 97 63 98 64 99
REMARK H PARENT 8 17 88 49 54 60
REMARK Flexibility Score: inf
ROOT
ATOM      1  C   UNL     1      10.449   1.862   1.375  1.00  0.00     0.202 C 
ENDROOT
BRANCH   1   2
ATOM      2  C   UNL     1       9.928   2.174  -0.029  1.00  0.00     0.261 C 
BRANCH   2   3
ATOM      3  O   UNL     1       8.502   2.081  -0.115  1.00  0.00    -0.460 OA
BRANCH   3   4
ATOM      4  C   UNL     1       8.056   0.934  -0.671  1.00  0.00     0.341 C 
ATOM      5  O   UNL     1       8.736   0.011  -1.093  1.00  0.00    -0.246 OA
BRANCH   4   6
ATOM      6  C   UNL     1       6.590   0.835  -0.615  1.00  0.00     0.097 A 
ATOM      7  C   UNL     1       4.653  -0.626  -0.602  1.00  0.00     0.088 A 
ATOM      8  C   UNL     1       3.862   0.450  -0.999  1.00  0.00     0.025 A 
ATOM      9  C   UNL     1       6.032  -0.444  -0.463  1.00  0.00     0.041 A 
ATOM     10  C   UNL     1       4.396   1.743  -0.987  1.00  0.00     0.041 A 
ATOM     11  C   UNL     1       5.756   1.935  -0.771  1.00  0.00     0.137 A 
ATOM     12  F   UNL     1       6.226   3.188  -0.750  1.00  0.00    -0.206 F 
BRANCH   7  13
ATOM     13  S   UNL     1       3.996  -2.187  -0.038  1.00  0.00     0.261 S 
ATOM     14  O   UNL     1       4.416  -2.331   1.339  1.00  0.00    -0.201 OA
ATOM     15  O   UNL     1       4.367  -3.165  -1.040  1.00  0.00    -0.201 OA
BRANCH  13  16
ATOM     16  N   UNL     1       2.326  -2.164  -0.067  1.00  0.00    -0.280 N 
ATOM     17  H   UNL     1       1.894  -2.950  -0.472  1.00  0.00     0.180 HD
BRANCH  16  18
ATOM     18  C   UNL     1       1.449  -1.154   0.417  1.00  0.00     0.050 A 
ATOM     19  C   UNL     1      -0.724  -0.127   0.123  1.00  0.00     0.026 A 
ATOM     20  C   UNL     1      -0.214   1.076   0.606  1.00  0.00     0.017 A 
ATOM     21  C   UNL     1       0.115  -1.236   0.001  1.00  0.00     0.044 A 
ATOM     22  C   UNL     1       1.070   1.114   1.144  1.00  0.00     0.003 A 
ATOM     23  C   UNL     1       1.869  -0.033   1.131  1.00  0.00     0.027 A 
BRANCH  19  24
ATOM     24  C   UNL     1      -2.112  -0.212  -0.198  1.00  0.00    -0.070 C 
ATOM     25  C   UNL     1      -3.307  -0.245  -0.346  1.00  0.00     0.010 C 
ENDBRANCH  19  24
ENDBRANCH  16  18
ENDBRANCH  13  16
ENDBRANCH   7  13
ENDBRANCH   4   6
ENDBRANCH   3   4
ENDBRANCH   2   3
ENDBRANCH   1   2
BRANCH   1  26
ATOM     26  O   UNL     1      10.121   0.606   1.963  1.00  0.00    -0.374 OA
BRANCH  26  27
ATOM     27  C   UNL     1       8.804   0.420   2.478  1.00  0.00     0.202 C 
BRANCH  27  28
ATOM     28  C   UNL     1       8.392   1.156   3.760  1.00  0.00     0.261 C 
BRANCH  28  29
ATOM     29  O   UNL     1       8.438   2.587   3.646  1.00  0.00    -0.460 OA
BRANCH  29  30
ATOM     30  C   UNL     1       9.499   3.162   4.266  1.00  0.00     0.338 C 
ATOM     31  O   UNL     1      10.368   2.601   4.911  1.00  0.00    -0.246 OA
BRANCH  30  32
ATOM     32  C   UNL     1       9.584   4.585   3.891  1.00  0.00     0.060 A 
ATOM     33  C   UNL     1      10.752   5.031   3.259  1.00  0.00     0.016 A 
ATOM     34  C   UNL     1       8.571   5.482   4.229  1.00  0.00     0.016 A 
ATOM     35  C   UNL     1      10.930   6.386   2.997  1.00  0.00     0.010 A 
ATOM     36  C   UNL     1       8.755   6.844   3.974  1.00  0.00     0.010 A 
ATOM     37  C   UNL     1       9.948   7.306   3.386  1.00  0.00    -0.014 A 
BRANCH  37  38
ATOM     38  C   UNL     1      10.217   8.762   3.286  1.00  0.00     0.031 A 
ATOM     39  C   UNL     1      10.517   9.542   4.537  1.00  0.00     0.074 A 
ATOM     40  C   UNL     1      10.212   9.374   2.088  1.00  0.00     0.049 A 
ATOM     41  N   UNL     1      10.716  10.825   4.683  1.00  0.00    -0.248 NA
ATOM     42  C   UNL     1      10.598   8.775   5.791  1.00  0.00     0.031 C 
ATOM     43  C   UNL     1       9.979   8.712   0.805  1.00  0.00     0.029 A 
ATOM     44  N   UNL     1      10.404  10.692   1.756  1.00  0.00    -0.354 N 
ATOM     45  C   UNL     1      10.939  11.023   6.041  1.00  0.00     0.074 A 
ATOM     46  C   UNL     1      10.812   9.732   6.682  1.00  0.00     0.031 C 
ATOM     47  C   UNL     1      10.041   9.628  -0.176  1.00  0.00     0.029 A 
ATOM     48  C   UNL     1      10.272  10.946   0.412  1.00  0.00     0.049 A 
ATOM     49  H   UNL     1      10.616  11.389   2.418  1.00  0.00     0.167 HD
ATOM     50  C   UNL     1      11.237  12.174   6.688  1.00  0.00     0.037 A 
ATOM     51  C   UNL     1      10.308  12.111  -0.266  1.00  0.00     0.037 A 
ATOM     52  C   UNL     1      11.366  13.452   6.035  1.00  0.00     0.049 A 
ATOM     53  C   UNL     1      10.558  13.392   0.488  1.00  0.00     0.074 A 
ATOM     54  C   UNL     1      11.680  14.675   6.601  1.00  0.00     0.029 A 
ATOM     55  N   UNL     1      11.184  13.676   4.678  1.00  0.00    -0.354 N 
ATOM     56  N   UNL     1      10.780  13.565   1.770  1.00  0.00    -0.248 NA
ATOM     57  C   UNL     1      10.563  14.637  -0.294  1.00  0.00     0.031 C 
ATOM     58  C   UNL     1      11.621  15.648   5.601  1.00  0.00     0.029 A 
ATOM     59  C   UNL     1      11.346  15.023   4.395  1.00  0.00     0.049 A 
ATOM     60  H   UNL     1      10.972  12.981   4.014  1.00  0.00     0.167 HD
ATOM     61  C   UNL     1      10.979  14.931   1.943  1.00  0.00     0.074 A 
ATOM     62  C   UNL     1      10.864  15.537   0.633  1.00  0.00     0.031 C 
ATOM     63  C   UNL     1      11.236  15.618   3.084  1.00  0.00     0.037 A 
BRANCH  50  64
ATOM     64  C   UNL     1      11.433  12.121   8.180  1.00  0.00     0.058 A 
ATOM     65  C   UNL     1      10.530  12.769   9.039  1.00  0.00     0.135 A 
ATOM     66  C   UNL     1      12.553  11.500   8.758  1.00  0.00     0.135 A 
ATOM     67  F   UNL     1       9.439  13.373   8.544  1.00  0.00    -0.206 F 
ATOM     68  C   UNL     1      10.742  12.824  10.413  1.00  0.00     0.059 A 
ATOM     69  C   UNL     1      12.768  11.515  10.134  1.00  0.00     0.059 A 
ATOM     70  F   UNL     1      13.438  10.849   7.987  1.00  0.00    -0.206 F 
ATOM     71  C   UNL     1      11.864  12.194  10.951  1.00  0.00     0.060 A 
BRANCH  71  72
ATOM     72  S   UNL     1      12.110  12.259  12.738  1.00  0.00     0.124 S 
ATOM     73  O   UNL     1      12.363  13.679  12.957  1.00  0.00    -0.237 OA
ATOM     74  O   UNL     1      10.835  11.754  13.238  1.00  0.00    -0.237 OA
ATOM     75  O   UNL     1      13.253  11.376  12.956  1.00  0.00    -0.744 OA
ENDBRANCH  71  72
ENDBRANCH  50  64
BRANCH  51  76
ATOM     76  C   UNL     1      10.107  12.112  -1.740  1.00  0.00     0.058 A 
ATOM     77  C   UNL     1       8.873  11.756  -2.308  1.00  0.00     0.135 A 
ATOM     78  C   UNL     1      11.156  12.437  -2.614  1.00  0.00     0.135 A 
ATOM     79  F   UNL     1       7.836  11.431  -1.520  1.00  0.00    -0.206 F 
ATOM     80  C   UNL     1       8.697  11.687  -3.686  1.00  0.00     0.059 A 
ATOM     81  C   UNL     1      10.995  12.407  -3.996  1.00  0.00     0.059 A 
ATOM     82  F   UNL     1      12.350  12.800  -2.120  1.00  0.00    -0.206 F 
ATOM     83  C   UNL     1       9.765  12.012  -4.522  1.00  0.00     0.060 A 
BRANCH  83  84
ATOM     84  S   UNL     1       9.518  11.895  -6.306  1.00  0.00     0.124 S 
ATOM     85  O   UNL     1       9.322  10.460  -6.481  1.00  0.00    -0.237 OA
ATOM     86  O   UNL     1       8.335  12.727  -6.503  1.00  0.00    -0.237 OA
ATOM     87  O   UNL     1      10.759  12.430  -6.856  1.00  0.00    -0.744 OA
ENDBRANCH  83  84
ENDBRANCH  51  76
BRANCH  63  88
ATOM     88  C   UNL     1      11.441  17.107   2.984  1.00  0.00     0.058 A 
ATOM     89  C   UNL     1      12.698  17.671   3.262  1.00  0.00     0.135 A 
ATOM     90  C   UNL     1      10.380  17.984   2.707  1.00  0.00     0.135 A 
ATOM     91  F   UNL     1      13.748  16.882   3.541  1.00  0.00    -0.206 F 
ATOM     92  C   UNL     1      12.889  19.048   3.296  1.00  0.00     0.059 A 
ATOM     93  C   UNL     1      10.557  19.365   2.701  1.00  0.00     0.059 A 
ATOM     94  F   UNL     1       9.160  17.499   2.425  1.00  0.00    -0.206 F 
ATOM     95  C   UNL     1      11.811  19.888   3.015  1.00  0.00     0.060 A 
BRANCH  95  96
ATOM     96  S   UNL     1      12.081  21.672   3.058  1.00  0.00     0.124 S 
ATOM     97  O   UNL     1      12.339  21.904   4.475  1.00  0.00    -0.237 OA
ATOM     98  O   UNL     1      13.228  21.830   2.169  1.00  0.00    -0.237 OA
ATOM     99  O   UNL     1      10.824  22.219   2.552  1.00  0.00    -0.744 OA
ENDBRANCH  95  96
ENDBRANCH  63  88
ENDBRANCH  37  38
ENDBRANCH  30  32
ENDBRANCH  29  30
ENDBRANCH  28  29
ENDBRANCH  27  28
ENDBRANCH  26  27
ENDBRANCH   1  26
TORSDOF 21
