REMARK SMILES CC[C@@H](CNC(=O)NCc1c(C)noc1C)C(=O)OCCOCCOC(=O)c1ccc(-c2c3nc(c(-c4c(F)cc(S(=O)(=O)[O-])cc4F)c4ccc([nH]4)c(-c4c(F)cc(S(=O)(=O)[O-])cc4F)c4nc(c(-c5c(F)cc(S(=O)(=O)[O-])cc5F)c5ccc2[nH]5)C=C4)C=C3)cc1
REMARK SMILES IDX 21 1 20 2 19 3 17 4 18 5 3 6 2 7 1 8 4 9 5 10 6 11 7 13 8 14
REMARK SMILES IDX 9 16 10 17 11 18 15 19 12 20 13 21 14 22 16 23 22 24 23 25
REMARK SMILES IDX 24 26 25 27 26 28 27 29 28 30 29 31 93 32 30 33 92 34 31 35
REMARK SMILES IDX 32 36 33 37 86 38 34 39 91 40 85 41 87 42 35 43 90 44 84 45
REMARK SMILES IDX 83 46 36 48 70 49 49 50 69 51 50 52 53 53 68 54 88 55 51 56
REMARK SMILES IDX 52 57 67 59 89 60 54 61 37 62 38 63 47 64 39 65 40 66 46 67
REMARK SMILES IDX 48 68 41 69 42 70 43 71 44 72 45 73 71 74 72 75 81 76 73 77
REMARK SMILES IDX 74 78 80 79 82 80 75 81 76 82 77 83 78 84 79 85 55 86 56 87
REMARK SMILES IDX 65 88 57 89 58 90 64 91 66 92 59 93 60 94 61 95 62 96 63 97
REMARK H PARENT 5 12 8 15 87 47 53 58
REMARK Flexibility Score: inf
ROOT
ATOM      1  C   UNL     1      -0.395   3.341   5.107  1.00  0.00     0.202 C 
ENDROOT
BRANCH   1   2
ATOM      2  C   UNL     1      -0.442   3.956   3.706  1.00  0.00     0.261 C 
BRANCH   2   3
ATOM      3  O   UNL     1      -0.260   2.978   2.669  1.00  0.00    -0.463 OA
BRANCH   3   4
ATOM      4  C   UNL     1       0.897   3.065   1.963  1.00  0.00     0.310 C 
ATOM      5  O   UNL     1       1.798   3.869   2.179  1.00  0.00    -0.252 OA
BRANCH   4   6
ATOM      6  C   UNL     1       0.967   2.067   0.825  1.00  0.00     0.118 C 
BRANCH   6   7
ATOM      7  C   UNL     1       0.352   0.696   1.150  1.00  0.00     0.014 C 
ATOM      8  C   UNL     1       0.781  -0.379   0.157  1.00  0.00     0.005 C 
ENDBRANCH   6   7
BRANCH   6   9
ATOM      9  C   UNL     1       0.430   2.701  -0.456  1.00  0.00     0.133 C 
BRANCH   9  10
ATOM     10  N   UNL     1      -0.924   3.195  -0.359  1.00  0.00    -0.337 N 
ATOM     11  C   UNL     1      -1.476   4.401  -0.201  1.00  0.00     0.315 C 
ATOM     12  H   UNL     1      -1.594   2.477  -0.425  1.00  0.00     0.165 HD
ATOM     13  O   UNL     1      -2.706   4.456  -0.170  1.00  0.00    -0.249 OA
ATOM     14  N   UNL     1      -0.804   5.543  -0.068  1.00  0.00    -0.334 N 
ATOM     15  H   UNL     1      -1.410   6.318  -0.029  1.00  0.00     0.165 HD
BRANCH  14  16
ATOM     16  C   UNL     1       0.581   5.947   0.035  1.00  0.00     0.159 C 
BRANCH  16  17
ATOM     17  C   UNL     1       0.958   6.738  -1.162  1.00  0.00     0.037 A 
ATOM     18  C   UNL     1       1.583   6.312  -2.370  1.00  0.00     0.086 A 
ATOM     19  C   UNL     1       0.816   8.099  -1.343  1.00  0.00     0.138 A 
ATOM     20  C   UNL     1       2.003   4.953  -2.781  1.00  0.00     0.071 C 
ATOM     21  N   UNL     1       1.804   7.339  -3.198  1.00  0.00    -0.085 NA
ATOM     22  O   UNL     1       1.315   8.455  -2.553  1.00  0.00    -0.361 OA
ATOM     23  C   UNL     1       0.269   9.189  -0.514  1.00  0.00     0.091 C 
ENDBRANCH  16  17
ENDBRANCH  14  16
ENDBRANCH   9  10
ENDBRANCH   6   9
ENDBRANCH   4   6
ENDBRANCH   3   4
ENDBRANCH   2   3
ENDBRANCH   1   2
BRANCH   1  24
ATOM     24  O   UNL     1       0.846   2.775   5.525  1.00  0.00    -0.374 OA
BRANCH  24  25
ATOM     25  C   UNL     1       1.246   1.538   4.941  1.00  0.00     0.202 C 
BRANCH  25  26
ATOM     26  C   UNL     1       0.484   0.275   5.364  1.00  0.00     0.261 C 
BRANCH  26  27
ATOM     27  O   UNL     1      -0.908   0.307   5.001  1.00  0.00    -0.460 OA
BRANCH  27  28
ATOM     28  C   UNL     1      -1.758   0.328   6.058  1.00  0.00     0.338 C 
ATOM     29  O   UNL     1      -1.456   0.262   7.242  1.00  0.00    -0.246 OA
BRANCH  28  30
ATOM     30  C   UNL     1      -3.137   0.614   5.623  1.00  0.00     0.060 A 
ATOM     31  C   UNL     1      -3.801   1.673   6.256  1.00  0.00     0.016 A 
ATOM     32  C   UNL     1      -3.811  -0.200   4.710  1.00  0.00     0.016 A 
ATOM     33  C   UNL     1      -5.158   1.885   6.026  1.00  0.00     0.010 A 
ATOM     34  C   UNL     1      -5.177   0.010   4.485  1.00  0.00     0.010 A 
ATOM     35  C   UNL     1      -5.865   1.026   5.174  1.00  0.00    -0.014 A 
BRANCH  35  36
ATOM     36  C   UNL     1      -7.347   1.105   5.136  1.00  0.00     0.031 A 
ATOM     37  C   UNL     1      -8.152   0.136   5.962  1.00  0.00     0.074 A 
ATOM     38  C   UNL     1      -7.968   2.058   4.419  1.00  0.00     0.049 A 
ATOM     39  N   UNL     1      -9.449   0.022   6.077  1.00  0.00    -0.248 NA
ATOM     40  C   UNL     1      -7.389  -0.832   6.767  1.00  0.00     0.031 C 
ATOM     41  C   UNL     1      -7.299   3.075   3.609  1.00  0.00     0.029 A 
ATOM     42  N   UNL     1      -9.305   2.322   4.255  1.00  0.00    -0.354 N 
ATOM     43  C   UNL     1      -9.661  -1.028   6.963  1.00  0.00     0.074 A 
ATOM     44  C   UNL     1      -8.358  -1.538   7.332  1.00  0.00     0.031 C 
ATOM     45  C   UNL     1      -8.230   3.848   3.025  1.00  0.00     0.029 A 
ATOM     46  C   UNL     1      -9.559   3.365   3.398  1.00  0.00     0.049 A 
ATOM     47  H   UNL     1     -10.014   1.813   4.709  1.00  0.00     0.167 HD
ATOM     48  C   UNL     1     -10.833  -1.516   7.435  1.00  0.00     0.037 A 
ATOM     49  C   UNL     1     -10.729   3.861   2.950  1.00  0.00     0.037 A 
ATOM     50  C   UNL     1     -12.128  -1.008   7.065  1.00  0.00     0.049 A 
ATOM     51  C   UNL     1     -12.022   3.266   3.443  1.00  0.00     0.074 A 
ATOM     52  C   UNL     1     -13.375  -1.431   7.494  1.00  0.00     0.029 A 
ATOM     53  N   UNL     1     -12.345   0.033   6.174  1.00  0.00    -0.354 N 
ATOM     54  N   UNL     1     -12.207   2.283   4.293  1.00  0.00    -0.248 NA
ATOM     55  C   UNL     1     -13.267   3.848   2.920  1.00  0.00     0.031 C 
ATOM     56  C   UNL     1     -14.346  -0.672   6.832  1.00  0.00     0.029 A 
ATOM     57  C   UNL     1     -13.704   0.254   6.025  1.00  0.00     0.049 A 
ATOM     58  H   UNL     1     -11.637   0.540   5.716  1.00  0.00     0.167 HD
ATOM     59  C   UNL     1     -13.585   2.144   4.422  1.00  0.00     0.074 A 
ATOM     60  C   UNL     1     -14.187   3.150   3.572  1.00  0.00     0.031 C 
ATOM     61  C   UNL     1     -14.289   1.264   5.177  1.00  0.00     0.037 A 
BRANCH  48  62
ATOM     62  C   UNL     1     -10.767  -2.677   8.389  1.00  0.00     0.058 A 
ATOM     63  C   UNL     1     -10.333  -2.518   9.714  1.00  0.00     0.135 A 
ATOM     64  C   UNL     1     -11.162  -3.960   7.979  1.00  0.00     0.135 A 
ATOM     65  F   UNL     1      -9.927  -1.315  10.153  1.00  0.00    -0.206 F 
ATOM     66  C   UNL     1     -10.267  -3.595  10.592  1.00  0.00     0.059 A 
ATOM     67  C   UNL     1     -11.128  -5.048   8.846  1.00  0.00     0.059 A 
ATOM     68  F   UNL     1     -11.584  -4.168   6.721  1.00  0.00    -0.206 F 
ATOM     69  C   UNL     1     -10.663  -4.858  10.147  1.00  0.00     0.060 A 
BRANCH  69  70
ATOM     70  S   UNL     1     -10.566  -6.249  11.294  1.00  0.00     0.124 S 
ATOM     71  O   UNL     1      -9.128  -6.494  11.333  1.00  0.00    -0.237 OA
ATOM     72  O   UNL     1     -11.147  -5.692  12.512  1.00  0.00    -0.237 OA
ATOM     73  O   UNL     1     -11.362  -7.284  10.641  1.00  0.00    -0.744 OA
ENDBRANCH  69  70
ENDBRANCH  48  62
BRANCH  49  74
ATOM     74  C   UNL     1     -10.731   4.979   1.970  1.00  0.00     0.058 A 
ATOM     75  C   UNL     1     -11.144   6.268   2.335  1.00  0.00     0.135 A 
ATOM     76  C   UNL     1     -10.309   4.778   0.646  1.00  0.00     0.135 A 
ATOM     77  F   UNL     1     -11.568   6.506   3.586  1.00  0.00    -0.206 F 
ATOM     78  C   UNL     1     -11.148   7.317   1.422  1.00  0.00     0.059 A 
ATOM     79  C   UNL     1     -10.281   5.816  -0.279  1.00  0.00     0.059 A 
ATOM     80  F   UNL     1      -9.898   3.563   0.248  1.00  0.00    -0.206 F 
ATOM     81  C   UNL     1     -10.711   7.082   0.117  1.00  0.00     0.060 A 
BRANCH  81  82
ATOM     82  S   UNL     1     -10.671   8.463  -1.047  1.00  0.00     0.124 S 
ATOM     83  O   UNL     1     -12.087   8.633  -1.350  1.00  0.00    -0.237 OA
ATOM     84  O   UNL     1     -10.058   9.520  -0.248  1.00  0.00    -0.237 OA
ATOM     85  O   UNL     1      -9.847   7.957  -2.140  1.00  0.00    -0.744 OA
ENDBRANCH  81  82
ENDBRANCH  49  74
BRANCH  61  86
ATOM     86  C   UNL     1     -15.789   1.364   5.143  1.00  0.00     0.058 A 
ATOM     87  C   UNL     1     -16.532   0.923   4.038  1.00  0.00     0.135 A 
ATOM     88  C   UNL     1     -16.494   1.856   6.254  1.00  0.00     0.135 A 
ATOM     89  F   UNL     1     -15.907   0.448   2.949  1.00  0.00    -0.206 F 
ATOM     90  C   UNL     1     -17.922   0.985   4.026  1.00  0.00     0.059 A 
ATOM     91  C   UNL     1     -17.884   1.905   6.273  1.00  0.00     0.059 A 
ATOM     92  F   UNL     1     -15.831   2.280   7.342  1.00  0.00    -0.206 F 
ATOM     93  C   UNL     1     -18.590   1.477   5.149  1.00  0.00     0.060 A 
BRANCH  93  94
ATOM     94  S   UNL     1     -20.395   1.521   5.137  1.00  0.00     0.124 S 
ATOM     95  O   UNL     1     -20.655   2.669   4.275  1.00  0.00    -0.237 OA
ATOM     96  O   UNL     1     -20.737   0.217   4.576  1.00  0.00    -0.237 OA
ATOM     97  O   UNL     1     -20.740   1.700   6.544  1.00  0.00    -0.744 OA
ENDBRANCH  93  94
ENDBRANCH  61  86
ENDBRANCH  35  36
ENDBRANCH  28  30
ENDBRANCH  27  28
ENDBRANCH  26  27
ENDBRANCH  25  26
ENDBRANCH  24  25
ENDBRANCH   1  24
TORSDOF 22
