REMARK SMILES Cc1cc(C(=O)N[C@H](C(=O)OCCOCCOC(=O)c2ccc(-c3c4nc(c(-c5c(F)cc(S(=O)(=O)[O-])cc5F)c5ccc([nH]5)c(-c5c(F)cc(S(=O)(=O)[O-])cc5F)c5nc(c(-c6c(F)cc(S(=O)(=O)[O-])cc6F)c6ccc3[nH]6)C=C5)C=C4)cc2)c2c(C)n[nH]c2C)c2ccc(C)c(C)c2n1
REMARK SMILES IDX 15 1 14 2 13 3 12 4 11 5 9 6 10 7 8 8 7 9 5 10 6 11 4 13
REMARK SMILES IDX 1 14 2 15 3 16 101 17 100 18 93 19 98 20 94 21 96 22 99 23
REMARK SMILES IDX 95 24 97 25 86 26 87 27 91 28 88 29 89 30 90 31 92 32 16 34
REMARK SMILES IDX 17 35 18 36 19 37 20 38 21 39 85 40 22 41 84 42 23 43 24 44
REMARK SMILES IDX 25 45 78 46 26 47 83 48 77 49 79 50 27 51 82 52 76 53 75 54
REMARK SMILES IDX 28 56 62 57 41 58 61 59 42 60 45 61 60 62 80 63 43 64 44 65
REMARK SMILES IDX 59 67 81 68 46 69 29 70 30 71 39 72 31 73 32 74 38 75 40 76
REMARK SMILES IDX 33 77 34 78 35 79 36 80 37 81 63 82 64 83 73 84 65 85 66 86
REMARK SMILES IDX 72 87 74 88 67 89 68 90 69 91 70 92 71 93 47 94 48 95 57 96
REMARK SMILES IDX 49 97 50 98 56 99 58 100 51 101 52 102 53 103 54 104 55 105
REMARK H PARENT 7 12 90 33 79 55 45 66
REMARK Flexibility Score: inf
ROOT
ATOM      1  C   UNL     1       0.529   3.600   6.049  1.00  0.00     0.202 C 
ENDROOT
BRANCH   1   2
ATOM      2  O   UNL     1      -0.556   3.409   6.959  1.00  0.00    -0.374 OA
BRANCH   2   3
ATOM      3  C   UNL     1      -1.302   2.198   6.830  1.00  0.00     0.202 C 
BRANCH   3   4
ATOM      4  C   UNL     1      -2.329   2.188   5.696  1.00  0.00     0.261 C 
BRANCH   4   5
ATOM      5  O   UNL     1      -1.657   2.189   4.425  1.00  0.00    -0.461 OA
BRANCH   5   6
ATOM      6  C   UNL     1      -1.923   3.241   3.599  1.00  0.00     0.333 C 
ATOM      7  O   UNL     1      -2.776   4.099   3.799  1.00  0.00    -0.249 OA
BRANCH   6   8
ATOM      8  C   UNL     1      -0.996   3.207   2.369  1.00  0.00     0.227 C 
BRANCH   8   9
ATOM      9  N   UNL     1      -1.807   3.583   1.216  1.00  0.00    -0.335 N 
ATOM     10  C   UNL     1      -1.781   3.408  -0.136  1.00  0.00     0.252 C 
ATOM     11  O   UNL     1      -2.583   4.132  -0.727  1.00  0.00    -0.269 OA
ATOM     12  H   UNL     1      -2.591   4.111   1.491  1.00  0.00     0.165 HD
BRANCH  10  13
ATOM     13  C   UNL     1      -0.907   2.436  -0.889  1.00  0.00     0.051 A 
ATOM     14  C   UNL     1       2.108   0.215  -0.303  1.00  0.00     0.067 C 
ATOM     15  C   UNL     1       0.951   0.908  -0.957  1.00  0.00     0.039 A 
ATOM     16  C   UNL     1       0.188   1.833  -0.273  1.00  0.00     0.038 A 
ATOM     17  N   UNL     1       0.727   0.621  -2.245  1.00  0.00    -0.253 NA
ATOM     18  C   UNL     1      -0.288   1.207  -2.899  1.00  0.00     0.074 A 
ATOM     19  C   UNL     1      -1.165   2.120  -2.265  1.00  0.00     0.013 A 
ATOM     20  C   UNL     1      -0.449   0.883  -4.259  1.00  0.00    -0.022 A 
ATOM     21  C   UNL     1      -2.220   2.641  -3.058  1.00  0.00     0.011 A 
ATOM     22  C   UNL     1      -1.474   1.465  -5.031  1.00  0.00    -0.046 A 
ATOM     23  C   UNL     1       0.523  -0.107  -4.863  1.00  0.00     0.047 C 
ATOM     24  C   UNL     1      -2.365   2.331  -4.408  1.00  0.00     0.004 A 
ATOM     25  C   UNL     1      -1.651   1.174  -6.493  1.00  0.00     0.044 C 
ENDBRANCH  10  13
ENDBRANCH   8   9
BRANCH   8  26
ATOM     26  C   UNL     1       0.142   4.203   2.480  1.00  0.00     0.029 A 
ATOM     27  C   UNL     1       0.056   5.637   2.535  1.00  0.00     0.065 A 
ATOM     28  C   UNL     1       1.513   3.963   2.545  1.00  0.00     0.038 A 
ATOM     29  C   UNL     1      -1.143   6.517   2.506  1.00  0.00     0.069 C 
ATOM     30  N   UNL     1       1.262   6.208   2.618  1.00  0.00    -0.180 NA
ATOM     31  N   UNL     1       2.117   5.189   2.582  1.00  0.00    -0.282 N 
ATOM     32  C   UNL     1       2.344   2.735   2.558  1.00  0.00     0.066 C 
ATOM     33  H   UNL     1       3.095   5.307   2.582  1.00  0.00     0.190 HD
ENDBRANCH   8  26
ENDBRANCH   6   8
ENDBRANCH   5   6
ENDBRANCH   4   5
ENDBRANCH   3   4
ENDBRANCH   2   3
ENDBRANCH   1   2
BRANCH   1  34
ATOM     34  C   UNL     1       1.816   2.840   6.380  1.00  0.00     0.261 C 
BRANCH  34  35
ATOM     35  O   UNL     1       1.682   1.436   6.080  1.00  0.00    -0.460 OA
BRANCH  35  36
ATOM     36  C   UNL     1       1.767   0.620   7.156  1.00  0.00     0.338 C 
ATOM     37  O   UNL     1       2.035   0.941   8.305  1.00  0.00    -0.246 OA
BRANCH  36  38
ATOM     38  C   UNL     1       1.306  -0.735   6.810  1.00  0.00     0.060 A 
ATOM     39  C   UNL     1       0.201  -1.236   7.510  1.00  0.00     0.016 A 
ATOM     40  C   UNL     1       2.018  -1.548   5.925  1.00  0.00     0.016 A 
ATOM     41  C   UNL     1      -0.161  -2.572   7.376  1.00  0.00     0.010 A 
ATOM     42  C   UNL     1       1.665  -2.897   5.807  1.00  0.00     0.010 A 
ATOM     43  C   UNL     1       0.606  -3.422   6.569  1.00  0.00    -0.014 A 
BRANCH  43  44
ATOM     44  C   UNL     1       0.424  -4.887   6.709  1.00  0.00     0.031 A 
ATOM     45  C   UNL     1       1.282  -5.621   7.706  1.00  0.00     0.074 A 
ATOM     46  C   UNL     1      -0.522  -5.540   6.013  1.00  0.00     0.049 A 
ATOM     47  N   UNL     1       1.289  -6.891   8.015  1.00  0.00    -0.248 NA
ATOM     48  C   UNL     1       2.255  -4.813   8.462  1.00  0.00     0.031 C 
ATOM     49  C   UNL     1      -1.442  -4.927   5.056  1.00  0.00     0.029 A 
ATOM     50  N   UNL     1      -0.865  -6.869   6.008  1.00  0.00    -0.354 N 
ATOM     51  C   UNL     1       2.258  -7.034   9.002  1.00  0.00     0.074 A 
ATOM     52  C   UNL     1       2.838  -5.728   9.223  1.00  0.00     0.031 C 
ATOM     53  C   UNL     1      -2.237  -5.883   4.544  1.00  0.00     0.029 A 
ATOM     54  C   UNL     1      -1.869  -7.176   5.121  1.00  0.00     0.049 A 
ATOM     55  H   UNL     1      -0.433  -7.539   6.586  1.00  0.00     0.167 HD
ATOM     56  C   UNL     1       2.622  -8.152   9.671  1.00  0.00     0.037 A 
ATOM     57  C   UNL     1      -2.413  -8.367   4.801  1.00  0.00     0.037 A 
ATOM     58  C   UNL     1       2.043  -9.449   9.449  1.00  0.00     0.049 A 
ATOM     59  C   UNL     1      -1.936  -9.611   5.506  1.00  0.00     0.074 A 
ATOM     60  C   UNL     1       2.333 -10.640  10.091  1.00  0.00     0.029 A 
ATOM     61  N   UNL     1       1.063  -9.727   8.509  1.00  0.00    -0.354 N 
ATOM     62  N   UNL     1      -1.037  -9.727   6.454  1.00  0.00    -0.248 NA
ATOM     63  C   UNL     1      -2.547 -10.885   5.099  1.00  0.00     0.031 C 
ATOM     64  C   UNL     1       1.561 -11.649   9.506  1.00  0.00     0.029 A 
ATOM     65  C   UNL     1       0.757 -11.077   8.533  1.00  0.00     0.049 A 
ATOM     66  H   UNL     1       0.646  -9.064   7.913  1.00  0.00     0.167 HD
ATOM     67  C   UNL     1      -0.988 -11.081   6.770  1.00  0.00     0.074 A 
ATOM     68  C   UNL     1      -1.956 -11.743   5.921  1.00  0.00     0.031 C 
ATOM     69  C   UNL     1      -0.212 -11.719   7.681  1.00  0.00     0.037 A 
BRANCH  56  70
ATOM     70  C   UNL     1       3.707  -8.031  10.702  1.00  0.00     0.058 A 
ATOM     71  C   UNL     1       3.465  -7.453  11.958  1.00  0.00     0.135 A 
ATOM     72  C   UNL     1       4.982  -8.564  10.457  1.00  0.00     0.135 A 
ATOM     73  F   UNL     1       2.269  -6.910  12.233  1.00  0.00    -0.206 F 
ATOM     74  C   UNL     1       4.453  -7.405  12.936  1.00  0.00     0.059 A 
ATOM     75  C   UNL     1       5.979  -8.546  11.428  1.00  0.00     0.059 A 
ATOM     76  F   UNL     1       5.266  -9.118   9.268  1.00  0.00    -0.206 F 
ATOM     77  C   UNL     1       5.705  -7.961  12.664  1.00  0.00     0.060 A 
BRANCH  77  78
ATOM     78  S   UNL     1       6.962  -7.927  13.960  1.00  0.00     0.124 S 
ATOM     79  O   UNL     1       7.298  -6.507  14.003  1.00  0.00    -0.237 OA
ATOM     80  O   UNL     1       6.231  -8.441  15.114  1.00  0.00    -0.237 OA
ATOM     81  O   UNL     1       8.009  -8.802  13.442  1.00  0.00    -0.744 OA
ENDBRANCH  77  78
ENDBRANCH  56  70
BRANCH  57  82
ATOM     82  C   UNL     1      -3.458  -8.445   3.746  1.00  0.00     0.058 A 
ATOM     83  C   UNL     1      -4.790  -8.745   4.061  1.00  0.00     0.135 A 
ATOM     84  C   UNL     1      -3.138  -8.222   2.397  1.00  0.00     0.135 A 
ATOM     85  F   UNL     1      -5.142  -8.978   5.335  1.00  0.00    -0.206 F 
ATOM     86  C   UNL     1      -5.770  -8.830   3.077  1.00  0.00     0.059 A 
ATOM     87  C   UNL     1      -4.104  -8.279   1.397  1.00  0.00     0.059 A 
ATOM     88  F   UNL     1      -1.878  -7.924   2.045  1.00  0.00    -0.206 F 
ATOM     89  C   UNL     1      -5.416  -8.592   1.747  1.00  0.00     0.060 A 
BRANCH  89  90
ATOM     90  S   UNL     1      -6.705  -8.658   0.483  1.00  0.00     0.124 S 
ATOM     91  O   UNL     1      -6.965 -10.090   0.402  1.00  0.00    -0.237 OA
ATOM     92  O   UNL     1      -7.761  -7.849   1.083  1.00  0.00    -0.237 OA
ATOM     93  O   UNL     1      -6.059  -8.066  -0.685  1.00  0.00    -0.744 OA
ENDBRANCH  89  90
ENDBRANCH  57  82
BRANCH  69  94
ATOM     94  C   UNL     1      -0.378 -13.206   7.823  1.00  0.00     0.058 A 
ATOM     95  C   UNL     1       0.136 -14.094   6.867  1.00  0.00     0.135 A 
ATOM     96  C   UNL     1      -0.981 -13.750   8.969  1.00  0.00     0.135 A 
ATOM     97  F   UNL     1       0.718 -13.625   5.752  1.00  0.00    -0.206 F 
ATOM     98  C   UNL     1       0.049 -15.472   7.036  1.00  0.00     0.059 A 
ATOM     99  C   UNL     1      -1.058 -15.124   9.171  1.00  0.00     0.059 A 
ATOM    100  F   UNL     1      -1.478 -12.942   9.919  1.00  0.00    -0.206 F 
ATOM    101  C   UNL     1      -0.545 -15.978   8.195  1.00  0.00     0.060 A 
BRANCH 101 102
ATOM    102  S   UNL     1      -0.605 -17.767   8.424  1.00  0.00     0.124 S 
ATOM    103  O   UNL     1      -1.631 -18.153   7.461  1.00  0.00    -0.237 OA
ATOM    104  O   UNL     1       0.759 -18.170   8.093  1.00  0.00    -0.237 OA
ATOM    105  O   UNL     1      -0.973 -17.919   9.829  1.00  0.00    -0.744 OA
ENDBRANCH 101 102
ENDBRANCH  69  94
ENDBRANCH  43  44
ENDBRANCH  36  38
ENDBRANCH  35  36
ENDBRANCH  34  35
ENDBRANCH   1  34
TORSDOF 20
