REMARK SMILES O=C(OCCOCCOC(=O)[C@]1(NC(=O)c2nc(C3CC3)n[nH]2)CCSC1)c1ccc(-c2c3nc(c(-c4c(F)cc(S(=O)(=O)[O-])cc4F)c4ccc([nH]4)c(-c4c(F)cc(S(=O)(=O)[O-])cc4F)c4nc(c(-c5c(F)cc(S(=O)(=O)[O-])cc5F)c5ccc2[nH]5)C=C4)C=C3)cc1
REMARK SMILES IDX 6 1 5 2 4 3 3 4 2 5 1 6 28 7 29 8 93 9 30 10 92 11 31 12
REMARK SMILES IDX 32 13 33 14 86 15 34 16 91 17 85 18 87 19 35 20 90 21 84 22
REMARK SMILES IDX 83 23 36 25 70 26 49 27 69 28 50 29 53 30 68 31 88 32 51 33
REMARK SMILES IDX 52 34 67 36 89 37 54 38 37 39 38 40 47 41 39 42 40 43 46 44
REMARK SMILES IDX 48 45 41 46 42 47 43 48 44 49 45 50 71 51 72 52 81 53 73 54
REMARK SMILES IDX 74 55 80 56 82 57 75 58 76 59 77 60 78 61 79 62 55 63 56 64
REMARK SMILES IDX 65 65 57 66 58 67 64 68 66 69 59 70 60 71 61 72 62 73 63 74
REMARK SMILES IDX 7 75 8 76 9 77 10 78 11 79 12 80 24 81 27 82 25 83 26 84
REMARK SMILES IDX 13 85 14 86 15 88 16 89 17 90 23 91 18 92 22 93 19 95 20 96
REMARK SMILES IDX 21 97
REMARK H PARENT 87 24 53 35 13 87 23 94
REMARK Flexibility Score: inf
ROOT
ATOM      1  O   UNL     1       3.633   0.527  -0.386  1.00  0.00    -0.374 OA
ENDROOT
BRANCH   1   2
ATOM      2  C   UNL     1       4.391  -0.552  -0.933  1.00  0.00     0.202 C 
BRANCH   2   3
ATOM      3  C   UNL     1       4.274  -1.841  -0.121  1.00  0.00     0.261 C 
BRANCH   3   4
ATOM      4  O   UNL     1       2.907  -2.086   0.247  1.00  0.00    -0.460 OA
BRANCH   4   5
ATOM      5  C   UNL     1       2.243  -1.522   1.290  1.00  0.00     0.338 C 
ATOM      6  O   UNL     1       1.022  -1.660   1.349  1.00  0.00    -0.246 OA
BRANCH   5   7
ATOM      7  C   UNL     1       2.924  -0.786   2.402  1.00  0.00     0.060 A 
ATOM      8  C   UNL     1       4.112  -0.063   2.280  1.00  0.00     0.016 A 
ATOM      9  C   UNL     1       2.291  -0.793   3.658  1.00  0.00     0.016 A 
ATOM     10  C   UNL     1       4.696   0.573   3.348  1.00  0.00     0.010 A 
ATOM     11  C   UNL     1       2.875  -0.155   4.758  1.00  0.00     0.010 A 
ATOM     12  C   UNL     1       4.098   0.500   4.595  1.00  0.00    -0.014 A 
BRANCH  12  13
ATOM     13  C   UNL     1       4.963   0.923   5.699  1.00  0.00     0.031 A 
ATOM     14  C   UNL     1       5.770  -0.146   6.368  1.00  0.00     0.074 A 
ATOM     15  C   UNL     1       5.234   2.232   5.840  1.00  0.00     0.049 A 
ATOM     16  N   UNL     1       6.647  -0.043   7.323  1.00  0.00    -0.248 NA
ATOM     17  C   UNL     1       5.594  -1.521   5.858  1.00  0.00     0.031 C 
ATOM     18  C   UNL     1       4.656   3.304   5.019  1.00  0.00     0.029 A 
ATOM     19  N   UNL     1       6.115   2.877   6.657  1.00  0.00    -0.354 N 
ATOM     20  C   UNL     1       7.091  -1.337   7.562  1.00  0.00     0.074 A 
ATOM     21  C   UNL     1       6.418  -2.209   6.630  1.00  0.00     0.031 C 
ATOM     22  C   UNL     1       5.228   4.470   5.357  1.00  0.00     0.029 A 
ATOM     23  C   UNL     1       6.139   4.239   6.471  1.00  0.00     0.049 A 
ATOM     24  H   UNL     1       6.680   2.413   7.317  1.00  0.00     0.167 HD
ATOM     25  C   UNL     1       7.962  -1.747   8.509  1.00  0.00     0.037 A 
ATOM     26  C   UNL     1       6.799   5.180   7.168  1.00  0.00     0.037 A 
ATOM     27  C   UNL     1       8.588  -0.829   9.418  1.00  0.00     0.049 A 
ATOM     28  C   UNL     1       7.651   4.702   8.314  1.00  0.00     0.074 A 
ATOM     29  C   UNL     1       9.372  -1.093  10.522  1.00  0.00     0.029 A 
ATOM     30  N   UNL     1       8.486   0.555   9.313  1.00  0.00    -0.354 N 
ATOM     31  N   UNL     1       7.949   3.467   8.657  1.00  0.00    -0.248 NA
ATOM     32  C   UNL     1       8.223   5.727   9.190  1.00  0.00     0.031 C 
ATOM     33  C   UNL     1       9.700   0.132  11.115  1.00  0.00     0.029 A 
ATOM     34  C   UNL     1       9.173   1.162  10.345  1.00  0.00     0.049 A 
ATOM     35  H   UNL     1       7.995   1.032   8.605  1.00  0.00     0.167 HD
ATOM     36  C   UNL     1       8.751   3.567   9.786  1.00  0.00     0.074 A 
ATOM     37  C   UNL     1       8.910   4.986  10.049  1.00  0.00     0.031 C 
ATOM     38  C   UNL     1       9.299   2.586  10.547  1.00  0.00     0.037 A 
BRANCH  25  39
ATOM     39  C   UNL     1       8.140  -3.229   8.673  1.00  0.00     0.058 A 
ATOM     40  C   UNL     1       8.851  -4.014   7.752  1.00  0.00     0.135 A 
ATOM     41  C   UNL     1       7.505  -3.887   9.739  1.00  0.00     0.135 A 
ATOM     42  F   UNL     1       9.439  -3.444   6.688  1.00  0.00    -0.206 F 
ATOM     43  C   UNL     1       8.900  -5.403   7.865  1.00  0.00     0.059 A 
ATOM     44  C   UNL     1       7.559  -5.270   9.884  1.00  0.00     0.059 A 
ATOM     45  F   UNL     1       6.790  -3.188  10.634  1.00  0.00    -0.206 F 
ATOM     46  C   UNL     1       8.243  -6.021   8.931  1.00  0.00     0.060 A 
BRANCH  46  47
ATOM     47  S   UNL     1       8.277  -7.823   9.046  1.00  0.00     0.124 S 
ATOM     48  O   UNL     1       7.375  -8.202   7.962  1.00  0.00    -0.237 OA
ATOM     49  O   UNL     1       9.688  -8.124   8.830  1.00  0.00    -0.237 OA
ATOM     50  O   UNL     1       7.782  -8.087  10.394  1.00  0.00    -0.744 OA
ENDBRANCH  46  47
ENDBRANCH  25  39
BRANCH  26  51
ATOM     51  C   UNL     1       6.608   6.627   6.872  1.00  0.00     0.058 A 
ATOM     52  C   UNL     1       7.676   7.444   6.474  1.00  0.00     0.135 A 
ATOM     53  C   UNL     1       5.344   7.232   6.997  1.00  0.00     0.135 A 
ATOM     54  F   UNL     1       8.905   6.923   6.345  1.00  0.00    -0.206 F 
ATOM     55  C   UNL     1       7.505   8.806   6.232  1.00  0.00     0.059 A 
ATOM     56  C   UNL     1       5.142   8.582   6.730  1.00  0.00     0.059 A 
ATOM     57  F   UNL     1       4.280   6.503   7.370  1.00  0.00    -0.206 F 
ATOM     58  C   UNL     1       6.233   9.366   6.365  1.00  0.00     0.060 A 
BRANCH  58  59
ATOM     59  S   UNL     1       6.017  11.130   6.045  1.00  0.00     0.124 S 
ATOM     60  O   UNL     1       6.646  11.720   7.221  1.00  0.00    -0.237 OA
ATOM     61  O   UNL     1       6.730  11.304   4.784  1.00  0.00    -0.237 OA
ATOM     62  O   UNL     1       4.567  11.282   5.963  1.00  0.00    -0.744 OA
ENDBRANCH  58  59
ENDBRANCH  26  51
BRANCH  38  63
ATOM     63  C   UNL     1      10.141   3.027  11.705  1.00  0.00     0.058 A 
ATOM     64  C   UNL     1       9.567   3.556  12.870  1.00  0.00     0.135 A 
ATOM     65  C   UNL     1      11.533   2.853  11.667  1.00  0.00     0.135 A 
ATOM     66  F   UNL     1       8.240   3.746  12.946  1.00  0.00    -0.206 F 
ATOM     67  C   UNL     1      10.352   3.920  13.956  1.00  0.00     0.059 A 
ATOM     68  C   UNL     1      12.332   3.181  12.753  1.00  0.00     0.059 A 
ATOM     69  F   UNL     1      12.121   2.336  10.576  1.00  0.00    -0.206 F 
ATOM     70  C   UNL     1      11.733   3.724  13.889  1.00  0.00     0.060 A 
BRANCH  70  71
ATOM     71  S   UNL     1      12.737   4.157  15.322  1.00  0.00     0.124 S 
ATOM     72  O   UNL     1      12.755   5.614  15.237  1.00  0.00    -0.237 OA
ATOM     73  O   UNL     1      11.964   3.595  16.426  1.00  0.00    -0.237 OA
ATOM     74  O   UNL     1      14.011   3.496  15.057  1.00  0.00    -0.744 OA
ENDBRANCH  70  71
ENDBRANCH  38  63
ENDBRANCH  12  13
ENDBRANCH   5   7
ENDBRANCH   4   5
ENDBRANCH   3   4
ENDBRANCH   2   3
ENDBRANCH   1   2
BRANCH   1  75
ATOM     75  C   UNL     1       2.334   0.740  -0.920  1.00  0.00     0.202 C 
BRANCH  75  76
ATOM     76  C   UNL     1       2.296   2.072  -1.656  1.00  0.00     0.261 C 
BRANCH  76  77
ATOM     77  O   UNL     1       2.965   2.001  -2.928  1.00  0.00    -0.461 OA
BRANCH  77  78
ATOM     78  C   UNL     1       4.330   2.034  -2.893  1.00  0.00     0.332 C 
ATOM     79  O   UNL     1       5.018   2.094  -1.890  1.00  0.00    -0.249 OA
BRANCH  78  80
ATOM     80  C   UNL     1       4.915   2.054  -4.309  1.00  0.00     0.148 C 
ATOM     81  C   UNL     1       4.205   1.006  -5.208  1.00  0.00     0.052 C 
ATOM     82  C   UNL     1       6.379   1.576  -4.260  1.00  0.00     0.110 C 
ATOM     83  C   UNL     1       4.608  -0.392  -4.776  1.00  0.00     0.072 C 
ATOM     84  S   UNL     1       6.348  -0.255  -4.313  1.00  0.00    -0.159 SA
BRANCH  80  85
ATOM     85  N   UNL     1       4.788   3.377  -4.978  1.00  0.00    -0.333 N 
ATOM     86  C   UNL     1       4.485   4.652  -4.552  1.00  0.00     0.289 C 
ATOM     87  H   UNL     1       4.959   3.331  -5.947  1.00  0.00     0.165 HD
ATOM     88  O   UNL     1       4.290   5.473  -5.451  1.00  0.00    -0.266 OA
BRANCH  86  89
ATOM     89  C   UNL     1       4.254   4.982  -3.170  1.00  0.00     0.214 A 
ATOM     90  N   UNL     1       5.038   4.777  -2.129  1.00  0.00    -0.207 NA
ATOM     91  N   UNL     1       3.128   5.619  -2.739  1.00  0.00    -0.255 N 
ATOM     92  C   UNL     1       4.250   5.147  -1.057  1.00  0.00     0.154 A 
ATOM     93  N   UNL     1       3.054   5.643  -1.402  1.00  0.00    -0.158 NA
ATOM     94  H   UNL     1       2.452   6.013  -3.337  1.00  0.00     0.192 HD
BRANCH  92  95
ATOM     95  C   UNL     1       4.584   4.884   0.409  1.00  0.00     0.060 C 
ATOM     96  C   UNL     1       5.641   3.847   0.738  1.00  0.00     0.012 C 
ATOM     97  C   UNL     1       5.915   5.287   0.998  1.00  0.00     0.012 C 
ENDBRANCH  92  95
ENDBRANCH  86  89
ENDBRANCH  80  85
ENDBRANCH  78  80
ENDBRANCH  77  78
ENDBRANCH  76  77
ENDBRANCH  75  76
ENDBRANCH   1  75
TORSDOF 20
