REMARK SMILES C[N@H+]1CCCN(C(=O)N[C@@H]2CCCCC[C@@H]2C(=O)OCCOCCOC(=O)c2ccc(-c3c4nc(c(-c5c(F)cc(S(=O)(=O)[O-])cc5F)c5ccc([nH]5)c(-c5c(F)cc(S(=O)(=O)[O-])cc5F)c5nc(c(-c6c(F)cc(S(=O)(=O)[O-])cc6F)c6ccc3[nH]6)C=C5)C=C4)cc2)CC1
REMARK SMILES IDX 20 1 19 2 17 3 18 4 16 5 10 7 9 8 7 9 8 10 6 12 94 13 95 14
REMARK SMILES IDX 2 15 1 16 3 18 5 20 4 21 11 23 12 24 13 25 14 26 15 27 21 29
REMARK SMILES IDX 22 30 23 31 24 32 25 33 26 34 27 35 28 36 29 37 93 38 30 39
REMARK SMILES IDX 92 40 31 41 32 42 33 43 86 44 34 45 91 46 85 47 87 48 35 49
REMARK SMILES IDX 90 50 84 51 83 52 36 54 70 55 49 56 69 57 50 58 53 59 68 60
REMARK SMILES IDX 88 61 51 62 52 63 67 65 89 66 54 67 37 68 38 69 47 70 39 71
REMARK SMILES IDX 40 72 46 73 48 74 41 75 42 76 43 77 44 78 45 79 71 80 72 81
REMARK SMILES IDX 81 82 73 83 74 84 80 85 82 86 75 87 76 88 77 89 78 90 79 91
REMARK SMILES IDX 55 92 56 93 65 94 57 95 58 96 64 97 66 98 59 99 60 100
REMARK SMILES IDX 61 101 62 102 63 103
REMARK H PARENT 9 11 2 17 87 53 53 64
REMARK Flexibility Score: 180.00
ROOT
ATOM      1  C   UNL     1      -3.381  -6.874   2.375  1.00  0.00     0.261 C 
ENDROOT
BRANCH   1   2
ATOM      2  O   UNL     1      -2.467  -6.267   3.301  1.00  0.00    -0.463 OA
BRANCH   2   3
ATOM      3  C   UNL     1      -1.218  -6.021   2.794  1.00  0.00     0.311 C 
ATOM      4  O   UNL     1      -0.956  -6.000   1.600  1.00  0.00    -0.252 OA
BRANCH   3   5
ATOM      5  C   UNL     1      -0.195  -5.857   3.916  1.00  0.00     0.121 CG1
ATOM      6  G   UNL     1       1.005  -6.797   3.660  1.00  0.00     0.000 G1
BRANCH   5   7
ATOM      7  C   UNL     1       0.130  -4.390   4.311  1.00  0.00     0.098 C 
BRANCH   7   8
ATOM      8  N   UNL     1      -1.123  -3.592   4.445  1.00  0.00    -0.334 N 
ATOM      9  C   UNL     1      -1.430  -2.274   4.581  1.00  0.00     0.317 C 
ATOM     10  O   UNL     1      -2.092  -1.991   5.583  1.00  0.00    -0.249 OA
ATOM     11  H   UNL     1      -1.927  -4.160   4.432  1.00  0.00     0.165 HD
BRANCH   9  12
ATOM     12  N   UNL     1      -1.226  -1.371   3.555  1.00  0.00    -0.319 N 
BRANCH  12  13
ATOM     13  C   UNL     1      -0.514  -1.677   2.324  1.00  0.00     0.182 C 
BRANCH  13  14
ATOM     14  C   UNL     1      -0.713  -0.816   1.077  1.00  0.00     0.283 C 
BRANCH  14  15
ATOM     15  N   UNL     1       0.018   0.455   1.203  1.00  0.00    -0.336 N 
ATOM     16  C   UNL     1       0.497   0.908  -0.099  1.00  0.00     0.332 C 
ATOM     17  H   UNL     1       0.840   0.298   1.786  1.00  0.00     0.347 HD
BRANCH  15  18
ATOM     18  C   UNL     1      -0.787   1.465   1.887  1.00  0.00     0.263 CG0
ATOM     19  G   UNL     1      -1.003   1.151   3.371  1.00  0.00     0.000 G0
ENDBRANCH  15  18
ENDBRANCH  14  15
ENDBRANCH  13  14
ENDBRANCH  12  13
BRANCH  12  20
ATOM     20  C   UNL     1      -1.888  -0.062   3.651  1.00  0.00     0.127 C 
BRANCH  20  21
ATOM     21  C   UNL     1      -1.003   1.151   3.371  1.00  0.00     0.083 CG0
ATOM     22  G   UNL     1      -0.787   1.465   1.887  1.00  0.00     0.000 G0
ENDBRANCH  20  21
ENDBRANCH  12  20
ENDBRANCH   9  12
ENDBRANCH   7   8
BRANCH   7  23
ATOM     23  C   UNL     1       1.268  -3.720   3.550  1.00  0.00     0.026 C 
BRANCH  23  24
ATOM     24  C   UNL     1       2.631  -4.392   3.594  1.00  0.00     0.002 C 
BRANCH  24  25
ATOM     25  C   UNL     1       2.811  -5.359   2.436  1.00  0.00     0.000 C 
BRANCH  25  26
ATOM     26  C   UNL     1       1.865  -6.553   2.413  1.00  0.00     0.001 C 
BRANCH  26  27
ATOM     27  C   UNL     1       1.005  -6.797   3.660  1.00  0.00     0.017 CG1
ATOM     28  G   UNL     1      -0.195  -5.857   3.916  1.00  0.00     0.000 G1
ENDBRANCH  26  27
ENDBRANCH  25  26
ENDBRANCH  24  25
ENDBRANCH  23  24
ENDBRANCH   7  23
ENDBRANCH   5   7
ENDBRANCH   3   5
ENDBRANCH   2   3
ENDBRANCH   1   2
BRANCH   1  29
ATOM     29  C   UNL     1      -4.274  -5.955   1.525  1.00  0.00     0.202 C 
BRANCH  29  30
ATOM     30  O   UNL     1      -3.719  -4.790   0.931  1.00  0.00    -0.374 OA
BRANCH  30  31
ATOM     31  C   UNL     1      -3.349  -3.723   1.800  1.00  0.00     0.202 C 
BRANCH  31  32
ATOM     32  C   UNL     1      -4.454  -3.043   2.605  1.00  0.00     0.261 C 
BRANCH  32  33
ATOM     33  O   UNL     1      -5.050  -3.950   3.541  1.00  0.00    -0.460 OA
BRANCH  33  34
ATOM     34  C   UNL     1      -6.399  -3.857   3.586  1.00  0.00     0.338 C 
ATOM     35  O   UNL     1      -7.102  -3.014   3.057  1.00  0.00    -0.246 OA
BRANCH  34  36
ATOM     36  C   UNL     1      -6.950  -5.068   4.206  1.00  0.00     0.060 A 
ATOM     37  C   UNL     1      -7.716  -5.908   3.391  1.00  0.00     0.016 A 
ATOM     38  C   UNL     1      -6.824  -5.306   5.575  1.00  0.00     0.016 A 
ATOM     39  C   UNL     1      -8.428  -6.956   3.960  1.00  0.00     0.010 A 
ATOM     40  C   UNL     1      -7.547  -6.356   6.147  1.00  0.00     0.010 A 
ATOM     41  C   UNL     1      -8.390  -7.148   5.347  1.00  0.00    -0.014 A 
BRANCH  41  42
ATOM     42  C   UNL     1      -9.389  -8.052   5.959  1.00  0.00     0.031 A 
ATOM     43  C   UNL     1     -10.664  -7.458   6.494  1.00  0.00     0.074 A 
ATOM     44  C   UNL     1      -9.198  -9.382   5.952  1.00  0.00     0.049 A 
ATOM     45  N   UNL     1     -11.708  -8.057   7.004  1.00  0.00    -0.248 NA
ATOM     46  C   UNL     1     -10.780  -5.992   6.437  1.00  0.00     0.031 C 
ATOM     47  C   UNL     1      -8.022 -10.060   5.409  1.00  0.00     0.029 A 
ATOM     48  N   UNL     1      -9.999 -10.399   6.400  1.00  0.00    -0.354 N 
ATOM     49  C   UNL     1     -12.607  -7.045   7.320  1.00  0.00     0.074 A 
ATOM     50  C   UNL     1     -11.970  -5.791   6.982  1.00  0.00     0.031 C 
ATOM     51  C   UNL     1      -8.184 -11.387   5.545  1.00  0.00     0.029 A 
ATOM     52  C   UNL     1      -9.462 -11.648   6.204  1.00  0.00     0.049 A 
ATOM     53  H   UNL     1     -10.876 -10.249   6.822  1.00  0.00     0.167 HD
ATOM     54  C   UNL     1     -13.856  -7.152   7.832  1.00  0.00     0.037 A 
ATOM     55  C   UNL     1      -9.951 -12.861   6.525  1.00  0.00     0.037 A 
ATOM     56  C   UNL     1     -14.471  -8.405   8.181  1.00  0.00     0.049 A 
ATOM     57  C   UNL     1     -11.307 -12.952   7.173  1.00  0.00     0.074 A 
ATOM     58  C   UNL     1     -15.724  -8.633   8.721  1.00  0.00     0.029 A 
ATOM     59  N   UNL     1     -13.868  -9.647   8.032  1.00  0.00    -0.354 N 
ATOM     60  N   UNL     1     -12.150 -11.989   7.460  1.00  0.00    -0.248 NA
ATOM     61  C   UNL     1     -11.778 -14.294   7.538  1.00  0.00     0.031 C 
ATOM     62  C   UNL     1     -15.862 -10.009   8.936  1.00  0.00     0.029 A 
ATOM     63  C   UNL     1     -14.713 -10.644   8.489  1.00  0.00     0.049 A 
ATOM     64  H   UNL     1     -12.970  -9.796   7.656  1.00  0.00     0.167 HD
ATOM     65  C   UNL     1     -13.263 -12.609   8.018  1.00  0.00     0.074 A 
ATOM     66  C   UNL     1     -12.986 -14.032   8.021  1.00  0.00     0.031 C 
ATOM     67  C   UNL     1     -14.411 -12.054   8.482  1.00  0.00     0.037 A 
BRANCH  54  68
ATOM     68  C   UNL     1     -14.611  -5.873   8.070  1.00  0.00     0.058 A 
ATOM     69  C   UNL     1     -15.109  -5.102   7.006  1.00  0.00     0.135 A 
ATOM     70  C   UNL     1     -14.819  -5.399   9.374  1.00  0.00     0.135 A 
ATOM     71  F   UNL     1     -14.922  -5.499   5.738  1.00  0.00    -0.206 F 
ATOM     72  C   UNL     1     -15.748  -3.885   7.226  1.00  0.00     0.059 A 
ATOM     73  C   UNL     1     -15.478  -4.197   9.619  1.00  0.00     0.059 A 
ATOM     74  F   UNL     1     -14.364  -6.095  10.428  1.00  0.00    -0.206 F 
ATOM     75  C   UNL     1     -15.919  -3.436   8.537  1.00  0.00     0.060 A 
BRANCH  75  76
ATOM     76  S   UNL     1     -16.715  -1.839   8.809  1.00  0.00     0.124 S 
ATOM     77  O   UNL     1     -15.646  -0.915   8.441  1.00  0.00    -0.237 OA
ATOM     78  O   UNL     1     -17.849  -1.891   7.891  1.00  0.00    -0.237 OA
ATOM     79  O   UNL     1     -17.059  -1.868  10.227  1.00  0.00    -0.744 OA
ENDBRANCH  75  76
ENDBRANCH  54  68
BRANCH  55  80
ATOM     80  C   UNL     1      -9.159 -14.080   6.219  1.00  0.00     0.058 A 
ATOM     81  C   UNL     1      -9.551 -14.961   5.202  1.00  0.00     0.135 A 
ATOM     82  C   UNL     1      -7.975 -14.370   6.915  1.00  0.00     0.135 A 
ATOM     83  F   UNL     1     -10.680 -14.732   4.514  1.00  0.00    -0.206 F 
ATOM     84  C   UNL     1      -8.800 -16.088   4.884  1.00  0.00     0.059 A 
ATOM     85  C   UNL     1      -7.195 -15.478   6.602  1.00  0.00     0.059 A 
ATOM     86  F   UNL     1      -7.551 -13.551   7.891  1.00  0.00    -0.206 F 
ATOM     87  C   UNL     1      -7.618 -16.334   5.586  1.00  0.00     0.060 A 
BRANCH  87  88
ATOM     88  S   UNL     1      -6.611 -17.758   5.117  1.00  0.00     0.124 S 
ATOM     89  O   UNL     1      -7.395 -18.864   5.654  1.00  0.00    -0.237 OA
ATOM     90  O   UNL     1      -6.578 -17.644   3.662  1.00  0.00    -0.237 OA
ATOM     91  O   UNL     1      -5.338 -17.503   5.786  1.00  0.00    -0.744 OA
ENDBRANCH  87  88
ENDBRANCH  55  80
BRANCH  67  92
ATOM     92  C   UNL     1     -15.461 -12.992   9.009  1.00  0.00     0.058 A 
ATOM     93  C   UNL     1     -15.325 -13.624  10.254  1.00  0.00     0.135 A 
ATOM     94  C   UNL     1     -16.639 -13.221   8.279  1.00  0.00     0.135 A 
ATOM     95  F   UNL     1     -14.215 -13.442  10.987  1.00  0.00    -0.206 F 
ATOM     96  C   UNL     1     -16.312 -14.470  10.748  1.00  0.00     0.059 A 
ATOM     97  C   UNL     1     -17.649 -14.044   8.765  1.00  0.00     0.059 A 
ATOM     98  F   UNL     1     -16.821 -12.630   7.087  1.00  0.00    -0.206 F 
ATOM     99  C   UNL     1     -17.471 -14.674   9.996  1.00  0.00     0.060 A 
BRANCH  99 100
ATOM    100  S   UNL     1     -18.758 -15.750  10.661  1.00  0.00     0.124 S 
ATOM    101  O   UNL     1     -18.184 -17.072  10.431  1.00  0.00    -0.237 OA
ATOM    102  O   UNL     1     -18.833 -15.326  12.056  1.00  0.00    -0.237 OA
ATOM    103  O   UNL     1     -19.927 -15.422   9.850  1.00  0.00    -0.744 OA
ENDBRANCH  99 100
ENDBRANCH  67  92
ENDBRANCH  41  42
ENDBRANCH  34  36
ENDBRANCH  33  34
ENDBRANCH  32  33
ENDBRANCH  31  32
ENDBRANCH  30  31
ENDBRANCH  29  30
ENDBRANCH   1  29
TORSDOF 19
