REMARK SMILES CC1(C)CCC[C@@H]1Nc1nc2c(cc1C(=O)OCCOCCOC(=O)c1ccc(-c3c4nc(c(-c5c(F)cc(S(=O)(=O)[O-])cc5F)c5ccc([nH]5)c(-c5c(F)cc(S(=O)(=O)[O-])cc5F)c5nc(c(-c6c(F)cc(S(=O)(=O)[O-])cc6F)c6ccc3[nH]6)C=C5)C=C4)cc1)CCC2
REMARK SMILES IDX 21 1 20 2 19 3 18 4 17 5 15 6 16 7 14 8 9 9 10 10 11 11
REMARK SMILES IDX 13 12 12 13 94 14 92 15 93 16 8 17 7 19 1 20 2 21 3 22 4 23
REMARK SMILES IDX 5 24 6 25 22 26 23 27 24 28 25 29 26 30 27 31 91 32 28 33
REMARK SMILES IDX 90 34 29 35 30 36 31 37 84 38 32 39 89 40 83 41 85 42 33 43
REMARK SMILES IDX 88 44 82 45 81 46 34 48 68 49 47 50 67 51 48 52 51 53 66 54
REMARK SMILES IDX 86 55 49 56 50 57 65 59 87 60 52 61 35 62 36 63 45 64 37 65
REMARK SMILES IDX 38 66 44 67 46 68 39 69 40 70 41 71 42 72 43 73 69 74 70 75
REMARK SMILES IDX 79 76 71 77 72 78 78 79 80 80 73 81 74 82 75 83 76 84 77 85
REMARK SMILES IDX 53 86 54 87 63 88 55 89 56 90 62 91 64 92 57 93 58 94 59 95
REMARK SMILES IDX 60 96 61 97
REMARK H PARENT 8 18 85 47 51 58
REMARK Flexibility Score: inf
ROOT
ATOM      1  C   UNL     1       1.271   5.421   3.219  1.00  0.00     0.202 C 
ENDROOT
BRANCH   1   2
ATOM      2  O   UNL     1       1.020   4.775   4.468  1.00  0.00    -0.374 OA
BRANCH   2   3
ATOM      3  C   UNL     1       0.973   3.348   4.472  1.00  0.00     0.202 C 
BRANCH   3   4
ATOM      4  C   UNL     1      -0.248   2.716   3.803  1.00  0.00     0.261 C 
BRANCH   4   5
ATOM      5  O   UNL     1      -0.323   3.084   2.417  1.00  0.00    -0.460 OA
BRANCH   5   6
ATOM      6  C   UNL     1      -1.566   3.355   1.957  1.00  0.00     0.341 C 
ATOM      7  O   UNL     1      -2.613   3.237   2.578  1.00  0.00    -0.246 OA
BRANCH   6   8
ATOM      8  C   UNL     1      -1.509   4.018   0.645  1.00  0.00     0.102 A 
ATOM      9  C   UNL     1      -0.916   3.487  -0.509  1.00  0.00     0.141 A 
ATOM     10  N   UNL     1      -0.965   4.154  -1.693  1.00  0.00    -0.235 NA
ATOM     11  C   UNL     1      -1.611   5.328  -1.720  1.00  0.00     0.046 A 
ATOM     12  C   UNL     1      -2.147   5.273   0.588  1.00  0.00     0.025 A 
ATOM     13  C   UNL     1      -2.189   5.932  -0.621  1.00  0.00    -0.025 A 
ATOM     14  C   UNL     1      -1.919   6.087  -2.977  1.00  0.00     0.057 C 
ATOM     15  C   UNL     1      -2.864   7.208  -0.989  1.00  0.00     0.038 C 
ATOM     16  C   UNL     1      -2.315   7.454  -2.405  1.00  0.00     0.011 C 
BRANCH   9  17
ATOM     17  N   UNL     1      -0.260   2.301  -0.662  1.00  0.00    -0.366 N 
ATOM     18  H   UNL     1       0.487   2.297  -1.303  1.00  0.00     0.162 HD
BRANCH  17  19
ATOM     19  C   UNL     1      -0.531   1.051   0.006  1.00  0.00     0.086 C 
ATOM     20  C   UNL     1       1.818   0.204   0.401  1.00  0.00     0.013 C 
ATOM     21  C   UNL     1       0.506  -0.039  -0.345  1.00  0.00    -0.015 C 
ATOM     22  C   UNL     1       0.815  -0.180  -1.848  1.00  0.00     0.013 C 
ATOM     23  C   UNL     1      -0.231  -1.292   0.160  1.00  0.00     0.008 C 
ATOM     24  C   UNL     1      -1.693  -1.070  -0.236  1.00  0.00     0.003 C 
ATOM     25  C   UNL     1      -1.870   0.441  -0.403  1.00  0.00     0.025 C 
ENDBRANCH  17  19
ENDBRANCH   9  17
ENDBRANCH   6   8
ENDBRANCH   5   6
ENDBRANCH   4   5
ENDBRANCH   3   4
ENDBRANCH   2   3
ENDBRANCH   1   2
BRANCH   1  26
ATOM     26  C   UNL     1       2.689   5.306   2.641  1.00  0.00     0.261 C 
BRANCH  26  27
ATOM     27  O   UNL     1       3.067   3.963   2.289  1.00  0.00    -0.460 OA
BRANCH  27  28
ATOM     28  C   UNL     1       4.080   3.444   3.025  1.00  0.00     0.338 C 
ATOM     29  O   UNL     1       4.678   3.982   3.946  1.00  0.00    -0.246 OA
BRANCH  28  30
ATOM     30  C   UNL     1       4.320   2.041   2.651  1.00  0.00     0.060 A 
ATOM     31  C   UNL     1       4.036   1.039   3.588  1.00  0.00     0.016 A 
ATOM     32  C   UNL     1       4.959   1.732   1.450  1.00  0.00     0.016 A 
ATOM     33  C   UNL     1       4.421  -0.279   3.339  1.00  0.00     0.010 A 
ATOM     34  C   UNL     1       5.356   0.413   1.208  1.00  0.00     0.010 A 
ATOM     35  C   UNL     1       5.120  -0.591   2.166  1.00  0.00    -0.014 A 
BRANCH  35  36
ATOM     36  C   UNL     1       5.774  -1.915   2.018  1.00  0.00     0.031 A 
ATOM     37  C   UNL     1       7.225  -2.040   2.396  1.00  0.00     0.074 A 
ATOM     38  C   UNL     1       5.101  -2.984   1.560  1.00  0.00     0.049 A 
ATOM     39  N   UNL     1       8.019  -3.075   2.300  1.00  0.00    -0.248 NA
ATOM     40  C   UNL     1       7.861  -0.844   2.973  1.00  0.00     0.031 C 
ATOM     41  C   UNL     1       3.677  -3.013   1.236  1.00  0.00     0.029 A 
ATOM     42  N   UNL     1       5.534  -4.253   1.267  1.00  0.00    -0.354 N 
ATOM     43  C   UNL     1       9.237  -2.664   2.827  1.00  0.00     0.074 A 
ATOM     44  C   UNL     1       9.095  -1.272   3.195  1.00  0.00     0.031 C 
ATOM     45  C   UNL     1       3.364  -4.218   0.730  1.00  0.00     0.029 A 
ATOM     46  C   UNL     1       4.566  -5.048   0.701  1.00  0.00     0.049 A 
ATOM     47  H   UNL     1       6.451  -4.564   1.446  1.00  0.00     0.167 HD
ATOM     48  C   UNL     1      10.365  -3.389   3.009  1.00  0.00     0.037 A 
ATOM     49  C   UNL     1       4.644  -6.298   0.205  1.00  0.00     0.037 A 
ATOM     50  C   UNL     1      10.509  -4.767   2.621  1.00  0.00     0.049 A 
ATOM     51  C   UNL     1       5.948  -7.045   0.293  1.00  0.00     0.074 A 
ATOM     52  C   UNL     1      11.610  -5.591   2.767  1.00  0.00     0.029 A 
ATOM     53  N   UNL     1       9.525  -5.520   1.998  1.00  0.00    -0.354 N 
ATOM     54  N   UNL     1       7.086  -6.654   0.816  1.00  0.00    -0.248 NA
ATOM     55  C   UNL     1       5.976  -8.405  -0.262  1.00  0.00     0.031 C 
ATOM     56  C   UNL     1      11.307  -6.830   2.191  1.00  0.00     0.029 A 
ATOM     57  C   UNL     1      10.002  -6.791   1.726  1.00  0.00     0.049 A 
ATOM     58  H   UNL     1       8.620  -5.198   1.780  1.00  0.00     0.167 HD
ATOM     59  C   UNL     1       7.956  -7.730   0.682  1.00  0.00     0.074 A 
ATOM     60  C   UNL     1       7.213  -8.789   0.030  1.00  0.00     0.031 C 
ATOM     61  C   UNL     1       9.250  -7.834   1.073  1.00  0.00     0.037 A 
BRANCH  48  62
ATOM     62  C   UNL     1      11.533  -2.701   3.655  1.00  0.00     0.058 A 
ATOM     63  C   UNL     1      11.536  -2.405   5.028  1.00  0.00     0.135 A 
ATOM     64  C   UNL     1      12.672  -2.365   2.909  1.00  0.00     0.135 A 
ATOM     65  F   UNL     1      10.462  -2.686   5.783  1.00  0.00    -0.206 F 
ATOM     66  C   UNL     1      12.623  -1.785   5.635  1.00  0.00     0.059 A 
ATOM     67  C   UNL     1      13.780  -1.765   3.499  1.00  0.00     0.059 A 
ATOM     68  F   UNL     1      12.716  -2.621   1.591  1.00  0.00    -0.206 F 
ATOM     69  C   UNL     1      13.742  -1.470   4.862  1.00  0.00     0.060 A 
BRANCH  69  70
ATOM     70  S   UNL     1      15.149  -0.680   5.670  1.00  0.00     0.124 S 
ATOM     71  O   UNL     1      14.620   0.654   5.937  1.00  0.00    -0.237 OA
ATOM     72  O   UNL     1      15.352  -1.527   6.840  1.00  0.00    -0.237 OA
ATOM     73  O   UNL     1      16.202  -0.746   4.661  1.00  0.00    -0.744 OA
ENDBRANCH  69  70
ENDBRANCH  48  62
BRANCH  49  74
ATOM     74  C   UNL     1       3.445  -6.926  -0.409  1.00  0.00     0.058 A 
ATOM     75  C   UNL     1       2.757  -7.958   0.244  1.00  0.00     0.135 A 
ATOM     76  C   UNL     1       2.956  -6.496  -1.653  1.00  0.00     0.135 A 
ATOM     77  F   UNL     1       3.193  -8.409   1.429  1.00  0.00    -0.206 F 
ATOM     78  C   UNL     1       1.628  -8.548  -0.316  1.00  0.00     0.059 A 
ATOM     79  C   UNL     1       1.817  -7.057  -2.224  1.00  0.00     0.059 A 
ATOM     80  F   UNL     1       3.575  -5.505  -2.313  1.00  0.00    -0.206 F 
ATOM     81  C   UNL     1       1.163  -8.086  -1.549  1.00  0.00     0.060 A 
BRANCH  81  82
ATOM     82  S   UNL     1      -0.338  -8.822  -2.235  1.00  0.00     0.124 S 
ATOM     83  O   UNL     1       0.126 -10.158  -2.592  1.00  0.00    -0.237 OA
ATOM     84  O   UNL     1      -1.257  -8.746  -1.103  1.00  0.00    -0.237 OA
ATOM     85  O   UNL     1      -0.661  -7.944  -3.356  1.00  0.00    -0.744 OA
ENDBRANCH  81  82
ENDBRANCH  49  74
BRANCH  61  86
ATOM     86  C   UNL     1       9.948  -9.141   0.825  1.00  0.00     0.058 A 
ATOM     87  C   UNL     1      10.366  -9.516  -0.461  1.00  0.00     0.135 A 
ATOM     88  C   UNL     1      10.265  -9.995   1.894  1.00  0.00     0.135 A 
ATOM     89  F   UNL     1      10.082  -8.739  -1.518  1.00  0.00    -0.206 F 
ATOM     90  C   UNL     1      11.063 -10.700  -0.680  1.00  0.00     0.059 A 
ATOM     91  C   UNL     1      10.982 -11.171   1.702  1.00  0.00     0.059 A 
ATOM     92  F   UNL     1       9.896  -9.676   3.145  1.00  0.00    -0.206 F 
ATOM     93  C   UNL     1      11.371 -11.519   0.409  1.00  0.00     0.060 A 
BRANCH  93  94
ATOM     94  S   UNL     1      12.315 -13.029   0.114  1.00  0.00     0.124 S 
ATOM     95  O   UNL     1      11.320 -13.877  -0.534  1.00  0.00    -0.237 OA
ATOM     96  O   UNL     1      13.399 -12.556  -0.743  1.00  0.00    -0.237 OA
ATOM     97  O   UNL     1      12.719 -13.445   1.453  1.00  0.00    -0.744 OA
ENDBRANCH  93  94
ENDBRANCH  61  86
ENDBRANCH  35  36
ENDBRANCH  28  30
ENDBRANCH  27  28
ENDBRANCH  26  27
ENDBRANCH   1  26
TORSDOF 19
