REMARK SMILES O=C(OCCOCCOC(=O)[C@H]1CC[C@H](CNC(=O)c2ccccc2O)O1)c1ccc(-c2c3nc(c(-c4c(F)cc(S(=O)(=O)[O-])cc4F)c4ccc([nH]4)c(-c4c(F)cc(S(=O)(=O)[O-])cc4F)c4nc(c(-c5c(F)cc(S(=O)(=O)[O-])cc5F)c5ccc2[nH]5)C=C4)C=C3)cc1
REMARK SMILES IDX 7 1 6 2 5 3 4 4 3 5 2 6 1 7 28 8 29 9 93 10 30 11 92 12
REMARK SMILES IDX 31 13 32 14 33 15 86 16 34 17 91 18 85 19 87 20 35 21 90 22
REMARK SMILES IDX 84 23 83 24 36 26 70 27 49 28 69 29 50 30 53 31 68 32 88 33
REMARK SMILES IDX 51 34 52 35 67 37 89 38 54 39 37 40 38 41 47 42 39 43 40 44
REMARK SMILES IDX 46 45 48 46 41 47 42 48 43 49 44 50 45 51 71 52 72 53 81 54
REMARK SMILES IDX 73 55 74 56 80 57 82 58 75 59 76 60 77 61 78 62 79 63 55 64
REMARK SMILES IDX 56 65 65 66 57 67 58 68 64 69 66 70 59 71 60 72 61 73 62 74
REMARK SMILES IDX 63 75 8 76 9 77 10 78 11 79 12 80 13 81 27 82 14 83 15 84
REMARK SMILES IDX 16 85 17 86 18 87 19 89 20 90 21 91 25 92 22 93 24 94 23 95
REMARK SMILES IDX 26 96
REMARK H PARENT 87 25 53 36 17 88 26 97
REMARK Flexibility Score: inf
ROOT
ATOM      1  C   UNL     1       7.871   3.930  -3.498  1.00  0.00     0.202 C 
ENDROOT
BRANCH   1   2
ATOM      2  O   UNL     1       7.506   2.742  -2.783  1.00  0.00    -0.374 OA
BRANCH   2   3
ATOM      3  C   UNL     1       6.456   2.869  -1.820  1.00  0.00     0.202 C 
BRANCH   3   4
ATOM      4  C   UNL     1       6.894   3.282  -0.412  1.00  0.00     0.261 C 
BRANCH   4   5
ATOM      5  O   UNL     1       7.492   4.587  -0.443  1.00  0.00    -0.460 OA
BRANCH   5   6
ATOM      6  C   UNL     1       8.795   4.892  -0.644  1.00  0.00     0.338 C 
ATOM      7  O   UNL     1       9.098   6.061  -0.876  1.00  0.00    -0.246 OA
BRANCH   6   8
ATOM      8  C   UNL     1       9.890   3.883  -0.559  1.00  0.00     0.060 A 
ATOM      9  C   UNL     1       9.769   2.539  -0.916  1.00  0.00     0.016 A 
ATOM     10  C   UNL     1      11.153   4.350  -0.161  1.00  0.00     0.016 A 
ATOM     11  C   UNL     1      10.828   1.663  -0.820  1.00  0.00     0.010 A 
ATOM     12  C   UNL     1      12.245   3.482  -0.096  1.00  0.00     0.010 A 
ATOM     13  C   UNL     1      12.068   2.131  -0.409  1.00  0.00    -0.014 A 
BRANCH  13  14
ATOM     14  C   UNL     1      13.104   1.116  -0.193  1.00  0.00     0.031 A 
ATOM     15  C   UNL     1      13.369   0.685   1.213  1.00  0.00     0.074 A 
ATOM     16  C   UNL     1      13.618   0.478  -1.259  1.00  0.00     0.049 A 
ATOM     17  N   UNL     1      14.223  -0.190   1.659  1.00  0.00    -0.248 NA
ATOM     18  C   UNL     1      12.542   1.313   2.261  1.00  0.00     0.031 C 
ATOM     19  C   UNL     1      13.259   0.749  -2.656  1.00  0.00     0.029 A 
ATOM     20  N   UNL     1      14.508  -0.554  -1.339  1.00  0.00    -0.354 N 
ATOM     21  C   UNL     1      14.062  -0.196   3.038  1.00  0.00     0.074 A 
ATOM     22  C   UNL     1      13.030   0.761   3.360  1.00  0.00     0.031 C 
ATOM     23  C   UNL     1      13.908  -0.116  -3.452  1.00  0.00     0.029 A 
ATOM     24  C   UNL     1      14.783  -0.941  -2.629  1.00  0.00     0.049 A 
ATOM     25  H   UNL     1      14.913  -0.981  -0.550  1.00  0.00     0.167 HD
ATOM     26  C   UNL     1      14.737  -0.937   3.944  1.00  0.00     0.037 A 
ATOM     27  C   UNL     1      15.678  -1.837  -3.080  1.00  0.00     0.037 A 
ATOM     28  C   UNL     1      15.759  -1.875   3.567  1.00  0.00     0.049 A 
ATOM     29  C   UNL     1      16.500  -2.564  -2.049  1.00  0.00     0.074 A 
ATOM     30  C   UNL     1      16.581  -2.633   4.375  1.00  0.00     0.029 A 
ATOM     31  N   UNL     1      16.094  -2.177   2.250  1.00  0.00    -0.354 N 
ATOM     32  N   UNL     1      16.417  -2.500  -0.739  1.00  0.00    -0.248 NA
ATOM     33  C   UNL     1      17.543  -3.465  -2.546  1.00  0.00     0.031 C 
ATOM     34  C   UNL     1      17.448  -3.356   3.547  1.00  0.00     0.029 A 
ATOM     35  C   UNL     1      17.125  -3.096   2.222  1.00  0.00     0.049 A 
ATOM     36  H   UNL     1      15.659  -1.792   1.455  1.00  0.00     0.167 HD
ATOM     37  C   UNL     1      17.384  -3.368  -0.252  1.00  0.00     0.074 A 
ATOM     38  C   UNL     1      18.027  -3.956  -1.414  1.00  0.00     0.031 C 
ATOM     39  C   UNL     1      17.720  -3.655   1.031  1.00  0.00     0.037 A 
BRANCH  26  40
ATOM     40  C   UNL     1      14.448  -0.678   5.395  1.00  0.00     0.058 A 
ATOM     41  C   UNL     1      13.238  -1.054   6.000  1.00  0.00     0.135 A 
ATOM     42  C   UNL     1      15.385   0.010   6.183  1.00  0.00     0.135 A 
ATOM     43  F   UNL     1      12.288  -1.678   5.284  1.00  0.00    -0.206 F 
ATOM     44  C   UNL     1      12.955  -0.732   7.325  1.00  0.00     0.059 A 
ATOM     45  C   UNL     1      15.136   0.319   7.517  1.00  0.00     0.059 A 
ATOM     46  F   UNL     1      16.550   0.411   5.651  1.00  0.00    -0.206 F 
ATOM     47  C   UNL     1      13.910  -0.042   8.074  1.00  0.00     0.060 A 
BRANCH  47  48
ATOM     48  S   UNL     1      13.523   0.388   9.784  1.00  0.00     0.124 S 
ATOM     49  O   UNL     1      12.528   1.441   9.603  1.00  0.00    -0.237 OA
ATOM     50  O   UNL     1      13.019  -0.875  10.315  1.00  0.00    -0.237 OA
ATOM     51  O   UNL     1      14.807   0.824  10.325  1.00  0.00    -0.744 OA
ENDBRANCH  47  48
ENDBRANCH  26  40
BRANCH  27  52
ATOM     52  C   UNL     1      15.881  -2.038  -4.541  1.00  0.00     0.058 A 
ATOM     53  C   UNL     1      15.608  -3.266  -5.159  1.00  0.00     0.135 A 
ATOM     54  C   UNL     1      16.357  -0.995  -5.355  1.00  0.00     0.135 A 
ATOM     55  F   UNL     1      15.155  -4.298  -4.430  1.00  0.00    -0.206 F 
ATOM     56  C   UNL     1      15.818  -3.461  -6.522  1.00  0.00     0.059 A 
ATOM     57  C   UNL     1      16.546  -1.156  -6.724  1.00  0.00     0.059 A 
ATOM     58  F   UNL     1      16.627   0.207  -4.822  1.00  0.00    -0.206 F 
ATOM     59  C   UNL     1      16.288  -2.399  -7.297  1.00  0.00     0.060 A 
BRANCH  59  60
ATOM     60  S   UNL     1      16.543  -2.656  -9.066  1.00  0.00     0.124 S 
ATOM     61  O   UNL     1      17.720  -3.517  -9.070  1.00  0.00    -0.237 OA
ATOM     62  O   UNL     1      15.289  -3.285  -9.469  1.00  0.00    -0.237 OA
ATOM     63  O   UNL     1      16.750  -1.304  -9.577  1.00  0.00    -0.744 OA
ENDBRANCH  59  60
ENDBRANCH  27  52
BRANCH  39  64
ATOM     64  C   UNL     1      18.797  -4.680   1.231  1.00  0.00     0.058 A 
ATOM     65  C   UNL     1      20.145  -4.394   0.969  1.00  0.00     0.135 A 
ATOM     66  C   UNL     1      18.475  -5.944   1.750  1.00  0.00     0.135 A 
ATOM     67  F   UNL     1      20.498  -3.200   0.466  1.00  0.00    -0.206 F 
ATOM     68  C   UNL     1      21.138  -5.338   1.192  1.00  0.00     0.059 A 
ATOM     69  C   UNL     1      19.455  -6.891   2.012  1.00  0.00     0.059 A 
ATOM     70  F   UNL     1      17.199  -6.257   2.028  1.00  0.00    -0.206 F 
ATOM     71  C   UNL     1      20.783  -6.583   1.718  1.00  0.00     0.060 A 
BRANCH  71  72
ATOM     72  S   UNL     1      22.086  -7.786   2.042  1.00  0.00     0.124 S 
ATOM     73  O   UNL     1      22.425  -8.221   0.691  1.00  0.00    -0.237 OA
ATOM     74  O   UNL     1      23.095  -6.977   2.721  1.00  0.00    -0.237 OA
ATOM     75  O   UNL     1      21.426  -8.785   2.877  1.00  0.00    -0.744 OA
ENDBRANCH  71  72
ENDBRANCH  39  64
ENDBRANCH  13  14
ENDBRANCH   6   8
ENDBRANCH   5   6
ENDBRANCH   4   5
ENDBRANCH   3   4
ENDBRANCH   2   3
ENDBRANCH   1   2
BRANCH   1  76
ATOM     76  C   UNL     1       7.665   3.722  -4.998  1.00  0.00     0.261 C 
BRANCH  76  77
ATOM     77  O   UNL     1       6.289   3.378  -5.190  1.00  0.00    -0.461 OA
BRANCH  77  78
ATOM     78  C   UNL     1       6.062   2.034  -5.117  1.00  0.00     0.335 C 
ATOM     79  O   UNL     1       6.871   1.161  -5.409  1.00  0.00    -0.249 OA
BRANCH  78  80
ATOM     80  C   UNL     1       4.674   1.788  -4.531  1.00  0.00     0.228 C 
ATOM     81  C   UNL     1       3.570   2.277  -5.436  1.00  0.00     0.047 C 
ATOM     82  O   UNL     1       4.435   0.391  -4.357  1.00  0.00    -0.361 OA
ATOM     83  C   UNL     1       3.478   1.132  -6.410  1.00  0.00     0.037 C 
ATOM     84  C   UNL     1       3.758  -0.088  -5.535  1.00  0.00     0.138 C 
BRANCH  84  85
ATOM     85  C   UNL     1       2.508  -0.808  -5.041  1.00  0.00     0.148 C 
BRANCH  85  86
ATOM     86  N   UNL     1       1.695  -1.338  -6.116  1.00  0.00    -0.349 N 
ATOM     87  C   UNL     1       1.293  -2.628  -6.333  1.00  0.00     0.255 C 
ATOM     88  H   UNL     1       1.389  -0.680  -6.782  1.00  0.00     0.163 HD
ATOM     89  O   UNL     1       0.699  -2.905  -7.373  1.00  0.00    -0.269 OA
BRANCH  87  90
ATOM     90  C   UNL     1       1.626  -3.700  -5.372  1.00  0.00     0.081 A 
ATOM     91  C   UNL     1       2.256  -4.838  -5.891  1.00  0.00     0.018 A 
ATOM     92  C   UNL     1       1.312  -3.644  -4.008  1.00  0.00     0.128 A 
ATOM     93  C   UNL     1       2.596  -5.897  -5.050  1.00  0.00     0.001 A 
ATOM     94  C   UNL     1       1.661  -4.701  -3.165  1.00  0.00     0.047 A 
ATOM     95  C   UNL     1       2.302  -5.825  -3.688  1.00  0.00     0.004 A 
BRANCH  92  96
ATOM     96  O   UNL     1       0.658  -2.564  -3.481  1.00  0.00    -0.507 OA
ATOM     97  H   UNL     1       0.417  -1.847  -4.033  1.00  0.00     0.293 HD
ENDBRANCH  92  96
ENDBRANCH  87  90
ENDBRANCH  85  86
ENDBRANCH  84  85
ENDBRANCH  78  80
ENDBRANCH  77  78
ENDBRANCH  76  77
ENDBRANCH   1  76
TORSDOF 21
