REMARK SMILES C[C@H]1[C@@H](C(=O)OCCOCCOC(=O)c2ccc(-c3c4nc(c(-c5c(F)cc(S(=O)(=O)[O-])cc5F)c5ccc([nH]5)c(-c5c(F)cc(S(=O)(=O)[O-])cc5F)c5nc(c(-c6c(F)cc(S(=O)(=O)[O-])cc6F)c6ccc3[nH]6)C=C5)C=C4)cc2)CCN1C(=O)c1cc2cc(F)ccc2s1
REMARK SMILES IDX 10 1 9 2 8 3 7 4 6 5 4 6 5 7 3 8 1 9 2 10 83 11 81 12 82 13
REMARK SMILES IDX 84 14 85 15 86 16 87 17 95 18 88 19 94 20 89 21 93 22 90 23
REMARK SMILES IDX 92 24 91 25 11 26 12 27 13 28 14 29 15 30 16 31 80 32 17 33
REMARK SMILES IDX 79 34 18 35 19 36 20 37 73 38 21 39 78 40 72 41 74 42 22 43
REMARK SMILES IDX 77 44 71 45 70 46 23 48 57 49 36 50 56 51 37 52 40 53 55 54
REMARK SMILES IDX 75 55 38 56 39 57 54 59 76 60 41 61 24 62 25 63 34 64 26 65
REMARK SMILES IDX 27 66 33 67 35 68 28 69 29 70 30 71 31 72 32 73 58 74 59 75
REMARK SMILES IDX 68 76 60 77 61 78 67 79 69 80 62 81 63 82 64 83 65 84 66 85
REMARK SMILES IDX 42 86 43 87 52 88 44 89 45 90 51 91 53 92 46 93 47 94 48 95
REMARK SMILES IDX 49 96 50 97
REMARK H PARENT 74 47 40 58
REMARK Flexibility Score: inf
ROOT
ATOM      1  C   UNL     1      -0.625   1.098  -3.332  1.00  0.00     0.202 C 
ENDROOT
BRANCH   1   2
ATOM      2  O   UNL     1      -0.056   2.202  -4.031  1.00  0.00    -0.374 OA
BRANCH   2   3
ATOM      3  C   UNL     1       1.296   2.543  -3.707  1.00  0.00     0.202 C 
BRANCH   3   4
ATOM      4  C   UNL     1       1.473   3.215  -2.344  1.00  0.00     0.261 C 
BRANCH   4   5
ATOM      5  O   UNL     1       1.334   2.227  -1.302  1.00  0.00    -0.463 OA
BRANCH   5   6
ATOM      6  C   UNL     1       0.694   2.623  -0.185  1.00  0.00     0.311 C 
ATOM      7  O   UNL     1       0.332   3.776   0.029  1.00  0.00    -0.252 OA
BRANCH   6   8
ATOM      8  C   UNL     1       0.340   1.499   0.771  1.00  0.00     0.123 C 
ATOM      9  C   UNL     1       2.128  -0.173  -0.213  1.00  0.00     0.032 C 
ATOM     10  C   UNL     1       0.972   0.084   0.740  1.00  0.00     0.096 C 
ATOM     11  N   UNL     1      -0.158  -0.834   0.550  1.00  0.00    -0.334 N 
ATOM     12  C   UNL     1      -1.181   1.273   0.716  1.00  0.00     0.039 C 
ATOM     13  C   UNL     1      -1.363  -0.130   0.189  1.00  0.00     0.121 C 
BRANCH  11  14
ATOM     14  C   UNL     1      -0.287  -2.056   1.193  1.00  0.00     0.264 C 
ATOM     15  O   UNL     1      -1.329  -2.345   1.783  1.00  0.00    -0.268 OA
BRANCH  14  16
ATOM     16  C   UNL     1       0.761  -3.044   1.062  1.00  0.00     0.093 A 
ATOM     17  C   UNL     1       1.262  -3.838   2.076  1.00  0.00     0.034 A 
ATOM     18  S   UNL     1       0.939  -3.849  -0.443  1.00  0.00    -0.130 S 
ATOM     19  C   UNL     1       1.026  -5.219   1.734  1.00  0.00    -0.004 A 
ATOM     20  C   UNL     1       0.765  -5.368   0.366  1.00  0.00     0.035 A 
ATOM     21  C   UNL     1       0.889  -6.350   2.570  1.00  0.00     0.048 A 
ATOM     22  C   UNL     1       0.368  -6.598  -0.189  1.00  0.00     0.022 A 
ATOM     23  C   UNL     1       0.410  -7.542   2.031  1.00  0.00     0.123 A 
ATOM     24  C   UNL     1       0.146  -7.671   0.677  1.00  0.00     0.041 A 
ATOM     25  F   UNL     1       0.152  -8.570   2.851  1.00  0.00    -0.207 F 
ENDBRANCH  14  16
ENDBRANCH  11  14
ENDBRANCH   6   8
ENDBRANCH   5   6
ENDBRANCH   4   5
ENDBRANCH   3   4
ENDBRANCH   2   3
ENDBRANCH   1   2
BRANCH   1  26
ATOM     26  C   UNL     1      -0.323  -0.289  -3.909  1.00  0.00     0.261 C 
BRANCH  26  27
ATOM     27  O   UNL     1       1.081  -0.590  -3.885  1.00  0.00    -0.460 OA
BRANCH  27  28
ATOM     28  C   UNL     1       1.682  -0.523  -5.099  1.00  0.00     0.338 C 
ATOM     29  O   UNL     1       1.139  -0.316  -6.171  1.00  0.00    -0.246 OA
BRANCH  28  30
ATOM     30  C   UNL     1       3.151  -0.582  -4.958  1.00  0.00     0.060 A 
ATOM     31  C   UNL     1       3.894   0.304  -5.747  1.00  0.00     0.016 A 
ATOM     32  C   UNL     1       3.797  -1.525  -4.152  1.00  0.00     0.016 A 
ATOM     33  C   UNL     1       5.279   0.196  -5.801  1.00  0.00     0.010 A 
ATOM     34  C   UNL     1       5.194  -1.634  -4.209  1.00  0.00     0.010 A 
ATOM     35  C   UNL     1       5.933  -0.808  -5.074  1.00  0.00    -0.014 A 
BRANCH  35  36
ATOM     36  C   UNL     1       7.357  -1.085  -5.388  1.00  0.00     0.031 A 
ATOM     37  C   UNL     1       7.685  -2.189  -6.358  1.00  0.00     0.074 A 
ATOM     38  C   UNL     1       8.335  -0.301  -4.899  1.00  0.00     0.049 A 
ATOM     39  N   UNL     1       8.840  -2.530  -6.867  1.00  0.00    -0.248 NA
ATOM     40  C   UNL     1       6.557  -3.015  -6.822  1.00  0.00     0.031 C 
ATOM     41  C   UNL     1       8.140   0.812  -3.971  1.00  0.00     0.029 A 
ATOM     42  N   UNL     1       9.686  -0.313  -5.132  1.00  0.00    -0.354 N 
ATOM     43  C   UNL     1       8.579  -3.601  -7.715  1.00  0.00     0.074 A 
ATOM     44  C   UNL     1       7.163  -3.880  -7.621  1.00  0.00     0.031 C 
ATOM     45  C   UNL     1       9.332   1.381  -3.717  1.00  0.00     0.029 A 
ATOM     46  C   UNL     1      10.371   0.669  -4.458  1.00  0.00     0.049 A 
ATOM     47  H   UNL     1      10.125  -0.965  -5.725  1.00  0.00     0.167 HD
ATOM     48  C   UNL     1       9.437  -4.280  -8.513  1.00  0.00     0.037 A 
ATOM     49  C   UNL     1      11.687   0.963  -4.447  1.00  0.00     0.037 A 
ATOM     50  C   UNL     1      10.846  -4.002  -8.607  1.00  0.00     0.049 A 
ATOM     51  C   UNL     1      12.627   0.175  -5.320  1.00  0.00     0.074 A 
ATOM     52  C   UNL     1      11.799  -4.628  -9.392  1.00  0.00     0.029 A 
ATOM     53  N   UNL     1      11.506  -3.017  -7.887  1.00  0.00    -0.354 N 
ATOM     54  N   UNL     1      12.360  -0.814  -6.140  1.00  0.00    -0.248 NA
ATOM     55  C   UNL     1      14.047   0.553  -5.277  1.00  0.00     0.031 C 
ATOM     56  C   UNL     1      13.041  -4.042  -9.121  1.00  0.00     0.029 A 
ATOM     57  C   UNL     1      12.855  -3.026  -8.198  1.00  0.00     0.049 A 
ATOM     58  H   UNL     1      11.078  -2.401  -7.250  1.00  0.00     0.167 HD
ATOM     59  C   UNL     1      13.572  -1.160  -6.728  1.00  0.00     0.074 A 
ATOM     60  C   UNL     1      14.571  -0.267  -6.179  1.00  0.00     0.031 C 
ATOM     61  C   UNL     1      13.835  -2.127  -7.642  1.00  0.00     0.037 A 
BRANCH  48  62
ATOM     62  C   UNL     1       8.871  -5.402  -9.337  1.00  0.00     0.058 A 
ATOM     63  C   UNL     1       8.070  -5.156 -10.464  1.00  0.00     0.135 A 
ATOM     64  C   UNL     1       9.142  -6.739  -9.005  1.00  0.00     0.135 A 
ATOM     65  F   UNL     1       7.765  -3.896 -10.813  1.00  0.00    -0.206 F 
ATOM     66  C   UNL     1       7.536  -6.197 -11.217  1.00  0.00     0.059 A 
ATOM     67  C   UNL     1       8.637  -7.795  -9.757  1.00  0.00     0.059 A 
ATOM     68  F   UNL     1       9.899  -7.029  -7.934  1.00  0.00    -0.206 F 
ATOM     69  C   UNL     1       7.822  -7.513 -10.853  1.00  0.00     0.060 A 
BRANCH  69  70
ATOM     70  S   UNL     1       7.117  -8.856 -11.834  1.00  0.00     0.124 S 
ATOM     71  O   UNL     1       5.729  -8.847 -11.383  1.00  0.00    -0.237 OA
ATOM     72  O   UNL     1       7.342  -8.398 -13.201  1.00  0.00    -0.237 OA
ATOM     73  O   UNL     1       7.902 -10.018 -11.430  1.00  0.00    -0.744 OA
ENDBRANCH  69  70
ENDBRANCH  48  62
BRANCH  49  74
ATOM     74  C   UNL     1      12.191   2.067  -3.589  1.00  0.00     0.058 A 
ATOM     75  C   UNL     1      12.640   3.274  -4.144  1.00  0.00     0.135 A 
ATOM     76  C   UNL     1      12.228   1.934  -2.193  1.00  0.00     0.135 A 
ATOM     77  F   UNL     1      12.633   3.443  -5.475  1.00  0.00    -0.206 F 
ATOM     78  C   UNL     1      13.121   4.308  -3.347  1.00  0.00     0.059 A 
ATOM     79  C   UNL     1      12.683   2.962  -1.373  1.00  0.00     0.059 A 
ATOM     80  F   UNL     1      11.798   0.803  -1.613  1.00  0.00    -0.206 F 
ATOM     81  C   UNL     1      13.136   4.142  -1.961  1.00  0.00     0.060 A 
BRANCH  81  82
ATOM     82  S   UNL     1      13.707   5.509  -0.927  1.00  0.00     0.124 S 
ATOM     83  O   UNL     1      15.152   5.422  -1.097  1.00  0.00    -0.237 OA
ATOM     84  O   UNL     1      13.057   6.659  -1.549  1.00  0.00    -0.237 OA
ATOM     85  O   UNL     1      13.202   5.157   0.398  1.00  0.00    -0.744 OA
ENDBRANCH  81  82
ENDBRANCH  49  74
BRANCH  61  86
ATOM     86  C   UNL     1      15.254  -2.250  -8.124  1.00  0.00     0.058 A 
ATOM     87  C   UNL     1      16.261  -2.801  -7.316  1.00  0.00     0.135 A 
ATOM     88  C   UNL     1      15.602  -1.839  -9.421  1.00  0.00     0.135 A 
ATOM     89  F   UNL     1      15.979  -3.207  -6.068  1.00  0.00    -0.206 F 
ATOM     90  C   UNL     1      17.573  -2.910  -7.766  1.00  0.00     0.059 A 
ATOM     91  C   UNL     1      16.903  -1.960  -9.899  1.00  0.00     0.059 A 
ATOM     92  F   UNL     1      14.673  -1.318 -10.238  1.00  0.00    -0.206 F 
ATOM     93  C   UNL     1      17.886  -2.481  -9.057  1.00  0.00     0.060 A 
BRANCH  93  94
ATOM     94  S   UNL     1      19.589  -2.633  -9.636  1.00  0.00     0.124 S 
ATOM     95  O   UNL     1      20.223  -1.494  -8.979  1.00  0.00    -0.237 OA
ATOM     96  O   UNL     1      19.977  -3.948  -9.137  1.00  0.00    -0.237 OA
ATOM     97  O   UNL     1      19.463  -2.533 -11.087  1.00  0.00    -0.744 OA
ENDBRANCH  93  94
ENDBRANCH  61  86
ENDBRANCH  35  36
ENDBRANCH  28  30
ENDBRANCH  27  28
ENDBRANCH  26  27
ENDBRANCH   1  26
TORSDOF 19
