REMARK SMILES Cc1ccccc1OCC(=O)N1C[C@H](O)C[C@H]1C(=O)OCCOCCOC(=O)c1ccc(-c2c3nc(c(-c4c(F)cc(S(=O)(=O)[O-])cc4F)c4ccc([nH]4)c(-c4c(F)cc(S(=O)(=O)[O-])cc4F)c4nc(c(-c5c(F)cc(S(=O)(=O)[O-])cc5F)c5ccc2[nH]5)C=C4)C=C3)cc1
REMARK SMILES IDX 22 1 21 2 20 3 18 4 19 5 17 6 12 7 13 8 14 9 16 10 10 11
REMARK SMILES IDX 11 12 9 13 8 14 7 15 1 16 2 17 3 18 4 19 6 20 5 21 15 22
REMARK SMILES IDX 23 24 24 25 25 26 26 27 27 28 28 29 29 30 30 31 94 32 31 33
REMARK SMILES IDX 93 34 32 35 33 36 34 37 87 38 35 39 92 40 86 41 88 42 36 43
REMARK SMILES IDX 91 44 85 45 84 46 37 48 71 49 50 50 70 51 51 52 54 53 69 54
REMARK SMILES IDX 89 55 52 56 53 57 68 59 90 60 55 61 38 62 39 63 48 64 40 65
REMARK SMILES IDX 41 66 47 67 49 68 42 69 43 70 44 71 45 72 46 73 72 74 73 75
REMARK SMILES IDX 82 76 74 77 75 78 81 79 83 80 76 81 77 82 78 83 79 84 80 85
REMARK SMILES IDX 56 86 57 87 66 88 58 89 59 90 65 91 67 92 60 93 61 94 62 95
REMARK SMILES IDX 63 96 64 97
REMARK H PARENT 15 23 88 47 54 58
REMARK Flexibility Score: inf
ROOT
ATOM      1  C   UNL     1       3.867  -0.591   1.982  1.00  0.00     0.202 C 
ENDROOT
BRANCH   1   2
ATOM      2  C   UNL     1       3.137  -0.596   3.297  1.00  0.00     0.261 C 
BRANCH   2   3
ATOM      3  O   UNL     1       2.635   0.712   3.617  1.00  0.00    -0.462 OA
BRANCH   3   4
ATOM      4  C   UNL     1       3.523   1.697   3.936  1.00  0.00     0.329 C 
ATOM      5  O   UNL     1       4.599   1.560   4.485  1.00  0.00    -0.250 OA
BRANCH   4   6
ATOM      6  C   UNL     1       2.905   3.057   3.651  1.00  0.00     0.198 C 
ATOM      7  N   UNL     1       1.932   3.045   2.540  1.00  0.00    -0.323 N 
ATOM      8  C   UNL     1       0.602   3.384   3.002  1.00  0.00     0.152 C 
ATOM      9  C   UNL     1       0.868   4.167   4.294  1.00  0.00     0.136 C 
ATOM     10  C   UNL     1       2.117   3.518   4.881  1.00  0.00     0.070 C 
BRANCH   7  11
ATOM     11  C   UNL     1       2.374   2.749   1.278  1.00  0.00     0.261 C 
ATOM     12  O   UNL     1       3.543   2.392   1.115  1.00  0.00    -0.271 OA
BRANCH  11  13
ATOM     13  C   UNL     1       1.562   3.059   0.014  1.00  0.00     0.329 C 
BRANCH  13  14
ATOM     14  O   UNL     1       0.346   2.570  -0.461  1.00  0.00    -0.484 OA
BRANCH  14  15
ATOM     15  C   UNL     1      -0.054   1.288  -0.271  1.00  0.00     0.122 A 
ATOM     16  C   UNL     1       2.014  -0.085  -1.032  1.00  0.00     0.048 C 
ATOM     17  C   UNL     1       0.641   0.086  -0.449  1.00  0.00    -0.009 A 
ATOM     18  C   UNL     1      -0.053  -1.123  -0.206  1.00  0.00     0.007 A 
ATOM     19  C   UNL     1      -1.410  -1.142   0.116  1.00  0.00     0.001 A 
ATOM     20  C   UNL     1      -1.428   1.249   0.020  1.00  0.00     0.047 A 
ATOM     21  C   UNL     1      -2.108   0.050   0.204  1.00  0.00     0.004 A 
ENDBRANCH  14  15
ENDBRANCH  13  14
ENDBRANCH  11  13
ENDBRANCH   7  11
BRANCH   9  22
ATOM     22  O   UNL     1       1.129   5.541   3.997  1.00  0.00    -0.391 OA
ATOM     23  H   UNL     1       1.883   5.602   3.390  1.00  0.00     0.211 HD
ENDBRANCH   9  22
ENDBRANCH   4   6
ENDBRANCH   3   4
ENDBRANCH   2   3
ENDBRANCH   1   2
BRANCH   1  24
ATOM     24  O   UNL     1       5.103   0.077   2.205  1.00  0.00    -0.374 OA
BRANCH  24  25
ATOM     25  C   UNL     1       5.856   0.509   1.092  1.00  0.00     0.202 C 
BRANCH  25  26
ATOM     26  C   UNL     1       6.009  -0.522  -0.022  1.00  0.00     0.261 C 
BRANCH  26  27
ATOM     27  O   UNL     1       6.978  -1.561   0.267  1.00  0.00    -0.460 OA
BRANCH  27  28
ATOM     28  C   UNL     1       6.554  -2.691   0.910  1.00  0.00     0.338 C 
ATOM     29  O   UNL     1       6.252  -3.720   0.323  1.00  0.00    -0.246 OA
BRANCH  28  30
ATOM     30  C   UNL     1       6.637  -2.557   2.392  1.00  0.00     0.060 A 
ATOM     31  C   UNL     1       5.870  -3.356   3.258  1.00  0.00     0.016 A 
ATOM     32  C   UNL     1       7.336  -1.475   2.902  1.00  0.00     0.016 A 
ATOM     33  C   UNL     1       5.660  -2.957   4.593  1.00  0.00     0.010 A 
ATOM     34  C   UNL     1       6.976  -0.994   4.141  1.00  0.00     0.010 A 
ATOM     35  C   UNL     1       6.142  -1.722   5.011  1.00  0.00    -0.014 A 
BRANCH  35  36
ATOM     36  C   UNL     1       5.939  -1.043   6.301  1.00  0.00     0.031 A 
ATOM     37  C   UNL     1       7.193  -0.695   7.034  1.00  0.00     0.074 A 
ATOM     38  C   UNL     1       4.772  -0.426   6.633  1.00  0.00     0.049 A 
ATOM     39  N   UNL     1       7.233   0.026   8.094  1.00  0.00    -0.248 NA
ATOM     40  C   UNL     1       8.537  -1.121   6.616  1.00  0.00     0.031 C 
ATOM     41  C   UNL     1       4.606   0.791   7.442  1.00  0.00     0.029 A 
ATOM     42  N   UNL     1       3.441  -0.748   6.323  1.00  0.00    -0.354 N 
ATOM     43  C   UNL     1       8.526   0.458   8.263  1.00  0.00     0.074 A 
ATOM     44  C   UNL     1       9.319  -0.356   7.385  1.00  0.00     0.031 C 
ATOM     45  C   UNL     1       3.319   0.927   7.808  1.00  0.00     0.029 A 
ATOM     46  C   UNL     1       2.636  -0.278   7.378  1.00  0.00     0.049 A 
ATOM     47  H   UNL     1       3.128  -1.216   5.516  1.00  0.00     0.167 HD
ATOM     48  C   UNL     1       8.726   1.548   9.049  1.00  0.00     0.037 A 
ATOM     49  C   UNL     1       1.940  -1.150   8.158  1.00  0.00     0.037 A 
ATOM     50  C   UNL     1       7.519   1.818   9.838  1.00  0.00     0.049 A 
ATOM     51  C   UNL     1       2.470  -1.076   9.566  1.00  0.00     0.074 A 
ATOM     52  C   UNL     1       6.542   2.794   9.808  1.00  0.00     0.029 A 
ATOM     53  N   UNL     1       7.016   0.784  10.631  1.00  0.00    -0.354 N 
ATOM     54  N   UNL     1       3.658  -0.607   9.843  1.00  0.00    -0.248 NA
ATOM     55  C   UNL     1       1.708  -1.393  10.768  1.00  0.00     0.031 C 
ATOM     56  C   UNL     1       5.393   2.267  10.477  1.00  0.00     0.029 A 
ATOM     57  C   UNL     1       5.691   0.998  10.954  1.00  0.00     0.049 A 
ATOM     58  H   UNL     1       7.539   0.003  10.923  1.00  0.00     0.167 HD
ATOM     59  C   UNL     1       3.818  -0.502  11.188  1.00  0.00     0.074 A 
ATOM     60  C   UNL     1       2.579  -1.033  11.731  1.00  0.00     0.031 C 
ATOM     61  C   UNL     1       4.951   0.014  11.748  1.00  0.00     0.037 A 
BRANCH  48  62
ATOM     62  C   UNL     1       9.948   2.437   9.021  1.00  0.00     0.058 A 
ATOM     63  C   UNL     1      10.122   3.426  10.011  1.00  0.00     0.135 A 
ATOM     64  C   UNL     1      10.923   2.452   7.995  1.00  0.00     0.135 A 
ATOM     65  F   UNL     1       9.246   3.553  11.019  1.00  0.00    -0.206 F 
ATOM     66  C   UNL     1      11.181   4.340   9.998  1.00  0.00     0.059 A 
ATOM     67  C   UNL     1      12.017   3.325   7.986  1.00  0.00     0.059 A 
ATOM     68  F   UNL     1      10.832   1.664   6.916  1.00  0.00    -0.206 F 
ATOM     69  C   UNL     1      12.132   4.277   8.986  1.00  0.00     0.060 A 
BRANCH  69  70
ATOM     70  S   UNL     1      13.496   5.457   8.983  1.00  0.00     0.124 S 
ATOM     71  O   UNL     1      12.808   6.713   8.701  1.00  0.00    -0.237 OA
ATOM     72  O   UNL     1      14.033   5.315  10.332  1.00  0.00    -0.237 OA
ATOM     73  O   UNL     1      14.367   4.970   7.916  1.00  0.00    -0.744 OA
ENDBRANCH  69  70
ENDBRANCH  48  62
BRANCH  49  74
ATOM     74  C   UNL     1       1.461  -2.326   7.358  1.00  0.00     0.058 A 
ATOM     75  C   UNL     1       0.445  -2.065   6.407  1.00  0.00     0.135 A 
ATOM     76  C   UNL     1       2.305  -3.416   7.092  1.00  0.00     0.135 A 
ATOM     77  F   UNL     1      -0.406  -1.043   6.606  1.00  0.00    -0.206 F 
ATOM     78  C   UNL     1       0.386  -2.724   5.174  1.00  0.00     0.059 A 
ATOM     79  C   UNL     1       2.260  -4.090   5.862  1.00  0.00     0.059 A 
ATOM     80  F   UNL     1       3.291  -3.726   7.946  1.00  0.00    -0.206 F 
ATOM     81  C   UNL     1       1.339  -3.697   4.886  1.00  0.00     0.060 A 
BRANCH  81  82
ATOM     82  S   UNL     1       1.496  -4.302   3.175  1.00  0.00     0.124 S 
ATOM     83  O   UNL     1       0.418  -5.279   3.098  1.00  0.00    -0.237 OA
ATOM     84  O   UNL     1       1.301  -3.098   2.372  1.00  0.00    -0.237 OA
ATOM     85  O   UNL     1       2.852  -4.840   3.139  1.00  0.00    -0.744 OA
ENDBRANCH  81  82
ENDBRANCH  49  74
BRANCH  61  86
ATOM     86  C   UNL     1       5.407  -0.331  13.141  1.00  0.00     0.058 A 
ATOM     87  C   UNL     1       4.999  -1.495  13.816  1.00  0.00     0.135 A 
ATOM     88  C   UNL     1       6.412   0.428  13.786  1.00  0.00     0.135 A 
ATOM     89  F   UNL     1       4.176  -2.389  13.251  1.00  0.00    -0.206 F 
ATOM     90  C   UNL     1       5.452  -1.815  15.091  1.00  0.00     0.059 A 
ATOM     91  C   UNL     1       6.936   0.083  15.026  1.00  0.00     0.059 A 
ATOM     92  F   UNL     1       6.936   1.527  13.225  1.00  0.00    -0.206 F 
ATOM     93  C   UNL     1       6.413  -1.013  15.693  1.00  0.00     0.060 A 
BRANCH  93  94
ATOM     94  S   UNL     1       6.978  -1.427  17.346  1.00  0.00     0.124 S 
ATOM     95  O   UNL     1       5.909  -0.860  18.162  1.00  0.00    -0.237 OA
ATOM     96  O   UNL     1       7.036  -2.885  17.307  1.00  0.00    -0.237 OA
ATOM     97  O   UNL     1       8.270  -0.756  17.441  1.00  0.00    -0.744 OA
ENDBRANCH  93  94
ENDBRANCH  61  86
ENDBRANCH  35  36
ENDBRANCH  28  30
ENDBRANCH  27  28
ENDBRANCH  26  27
ENDBRANCH  25  26
ENDBRANCH  24  25
ENDBRANCH   1  24
TORSDOF 22
