REMARK SMILES Cc1coc2c(C)c3oc(=O)c(CC(=O)NCC(=O)N[C@H](C(=O)OCCOCCOC(=O)c4ccc(-c5c6nc(c(-c7c(F)cc(S(=O)(=O)[O-])cc7F)c7ccc([nH]7)c(-c7c(F)cc(S(=O)(=O)[O-])cc7F)c7nc(c(-c8c(F)cc(S(=O)(=O)[O-])cc8F)c8ccc5[nH]8)C=C7)C=C6)cc4)C(C)C)c(C)c3cc12
REMARK SMILES IDX 26 1 25 2 24 3 22 4 23 5 21 6 20 7 18 8 19 9 17 11 16 12
REMARK SMILES IDX 14 13 15 14 13 16 12 17 1 18 2 19 3 20 106 21 4 22 5 23
REMARK SMILES IDX 105 24 6 25 104 26 7 27 8 28 102 29 9 30 103 31 10 32 11 33
REMARK SMILES IDX 99 34 100 35 101 36 27 37 28 38 29 39 30 40 31 41 32 42
REMARK SMILES IDX 33 43 34 44 98 45 35 46 97 47 36 48 37 49 38 50 91 51 39 52
REMARK SMILES IDX 96 53 90 54 92 55 40 56 95 57 89 58 88 59 41 61 75 62 54 63
REMARK SMILES IDX 74 64 55 65 58 66 73 67 93 68 56 69 57 70 72 72 94 73 59 74
REMARK SMILES IDX 42 75 43 76 52 77 44 78 45 79 51 80 53 81 46 82 47 83 48 84
REMARK SMILES IDX 49 85 50 86 76 87 77 88 86 89 78 90 79 91 85 92 87 93 80 94
REMARK SMILES IDX 81 95 82 96 83 97 84 98 60 99 61 100 70 101 62 102 63 103
REMARK SMILES IDX 69 104 71 105 64 106 65 107 66 108 67 109 68 110
REMARK H PARENT 20 10 16 15 92 60 58 71
REMARK Flexibility Score: inf
ROOT
ATOM      1  C   UNL     1       2.218   0.692   9.640  1.00  0.00     0.202 C 
ENDROOT
BRANCH   1   2
ATOM      2  C   UNL     1       1.435   2.025   9.178  1.00  0.00     0.261 C 
BRANCH   2   3
ATOM      3  O   UNL     1       1.143   2.144   7.724  1.00  0.00    -0.462 OA
BRANCH   3   4
ATOM      4  C   UNL     1       0.951   3.223   6.885  1.00  0.00     0.328 C 
ATOM      5  O   UNL     1       1.063   4.381   7.280  1.00  0.00    -0.250 OA
BRANCH   4   6
ATOM      6  C   UNL     1       0.501   2.866   5.215  1.00  0.00     0.194 C 
BRANCH   6   7
ATOM      7  N   UNL     1       1.269   3.764   4.287  1.00  0.00    -0.341 N 
ATOM      8  C   UNL     1       2.448   3.586   3.619  1.00  0.00     0.240 C 
ATOM      9  O   UNL     1       2.559   4.103   2.503  1.00  0.00    -0.273 OA
ATOM     10  H   UNL     1       0.846   4.639   4.131  1.00  0.00     0.164 HD
BRANCH   8  11
ATOM     11  C   UNL     1       3.543   2.672   4.131  1.00  0.00     0.216 C 
BRANCH  11  12
ATOM     12  N   UNL     1       3.745   2.878   5.527  1.00  0.00    -0.347 N 
ATOM     13  C   UNL     1       3.476   2.023   6.519  1.00  0.00     0.225 C 
ATOM     14  O   UNL     1       3.942   2.311   7.626  1.00  0.00    -0.275 OA
ATOM     15  H   UNL     1       4.125   3.747   5.790  1.00  0.00     0.164 HD
BRANCH  13  16
ATOM     16  C   UNL     1       2.642   0.740   6.297  1.00  0.00     0.143 C 
BRANCH  16  17
ATOM     17  C   UNL     1       1.159   0.571   5.777  1.00  0.00     0.051 A 
ATOM     18  C   UNL     1      -6.393   1.748   5.037  1.00  0.00     0.048 C 
ATOM     19  C   UNL     1      -5.544   0.987   4.087  1.00  0.00    -0.005 A 
ATOM     20  C   UNL     1      -5.971   0.363   2.936  1.00  0.00     0.199 A 
ATOM     21  C   UNL     1      -4.125   0.750   4.174  1.00  0.00     0.024 A 
ATOM     22  O   UNL     1      -4.937  -0.209   2.282  1.00  0.00    -0.464 OA
ATOM     23  C   UNL     1      -3.798   0.015   3.005  1.00  0.00     0.140 A 
ATOM     24  C   UNL     1      -3.163   1.123   5.181  1.00  0.00     0.024 A 
ATOM     25  C   UNL     1      -2.543  -0.440   2.557  1.00  0.00     0.036 A 
ATOM     26  C   UNL     1      -1.854   0.746   4.966  1.00  0.00     0.022 A 
ATOM     27  C   UNL     1      -2.243  -1.186   1.313  1.00  0.00     0.052 C 
ATOM     28  C   UNL     1      -1.616  -0.027   3.484  1.00  0.00     0.145 A 
ATOM     29  C   UNL     1      -0.430   0.885   6.222  1.00  0.00    -0.029 A 
ATOM     30  O   UNL     1       0.106  -0.366   3.054  1.00  0.00    -0.422 OA
ATOM     31  C   UNL     1      -1.174   1.244   7.512  1.00  0.00     0.046 C 
ATOM     32  C   UNL     1       1.535  -0.304   4.079  1.00  0.00     0.340 A 
ATOM     33  O   UNL     1       2.617  -0.740   3.713  1.00  0.00    -0.246 OA
ENDBRANCH  16  17
ENDBRANCH  13  16
ENDBRANCH  11  12
ENDBRANCH   8  11
ENDBRANCH   6   7
BRANCH   6  34
ATOM     34  C   UNL     1       0.084   1.313   4.206  1.00  0.00     0.017 C 
ATOM     35  C   UNL     1      -0.272  -0.697   4.946  1.00  0.00     0.010 C 
ATOM     36  C   UNL     1      -0.669   2.129   2.910  1.00  0.00     0.010 C 
ENDBRANCH   6  34
ENDBRANCH   4   6
ENDBRANCH   3   4
ENDBRANCH   2   3
ENDBRANCH   1   2
BRANCH   1  37
ATOM     37  O   UNL     1       1.651  -0.644   9.463  1.00  0.00    -0.374 OA
BRANCH  37  38
ATOM     38  C   UNL     1       1.969  -1.318   8.229  1.00  0.00     0.202 C 
BRANCH  38  39
ATOM     39  C   UNL     1       1.631  -2.779   7.885  1.00  0.00     0.261 C 
BRANCH  39  40
ATOM     40  O   UNL     1       0.319  -3.026   8.298  1.00  0.00    -0.460 OA
BRANCH  40  41
ATOM     41  C   UNL     1       0.361  -2.981   9.647  1.00  0.00     0.338 C 
ATOM     42  O   UNL     1       1.216  -3.497  10.349  1.00  0.00    -0.246 OA
BRANCH  41  43
ATOM     43  C   UNL     1      -0.746  -2.124  10.123  1.00  0.00     0.060 A 
ATOM     44  C   UNL     1      -1.002  -2.451  11.434  1.00  0.00     0.016 A 
ATOM     45  C   UNL     1      -1.765  -1.834   9.200  1.00  0.00     0.016 A 
ATOM     46  C   UNL     1      -2.138  -3.184  11.584  1.00  0.00     0.010 A 
ATOM     47  C   UNL     1      -2.979  -2.422   9.412  1.00  0.00     0.010 A 
ATOM     48  C   UNL     1      -3.071  -3.240  10.524  1.00  0.00    -0.014 A 
BRANCH  48  49
ATOM     49  C   UNL     1      -4.277  -3.991  10.760  1.00  0.00     0.031 A 
ATOM     50  C   UNL     1      -4.961  -3.358  11.901  1.00  0.00     0.074 A 
ATOM     51  C   UNL     1      -4.668  -5.084  10.080  1.00  0.00     0.049 A 
ATOM     52  N   UNL     1      -4.806  -3.718  13.130  1.00  0.00    -0.248 NA
ATOM     53  C   UNL     1      -5.502  -1.999  11.740  1.00  0.00     0.031 C 
ATOM     54  C   UNL     1      -4.120  -5.688   8.863  1.00  0.00     0.029 A 
ATOM     55  N   UNL     1      -5.721  -5.898  10.372  1.00  0.00    -0.354 N 
ATOM     56  C   UNL     1      -5.499  -2.781  13.870  1.00  0.00     0.074 A 
ATOM     57  C   UNL     1      -5.673  -1.638  13.014  1.00  0.00     0.031 C 
ATOM     58  C   UNL     1      -4.983  -6.627   8.393  1.00  0.00     0.029 A 
ATOM     59  C   UNL     1      -6.053  -6.804   9.361  1.00  0.00     0.049 A 
ATOM     60  H   UNL     1      -6.208  -5.852  11.226  1.00  0.00     0.167 HD
ATOM     61  C   UNL     1      -6.176  -3.193  14.972  1.00  0.00     0.037 A 
ATOM     62  C   UNL     1      -7.114  -7.657   9.387  1.00  0.00     0.037 A 
ATOM     63  C   UNL     1      -5.721  -4.500  15.386  1.00  0.00     0.049 A 
ATOM     64  C   UNL     1      -7.426  -7.859  10.825  1.00  0.00     0.074 A 
ATOM     65  C   UNL     1      -4.612  -5.008  16.031  1.00  0.00     0.029 A 
ATOM     66  N   UNL     1      -6.271  -5.525  14.655  1.00  0.00    -0.354 N 
ATOM     67  N   UNL     1      -6.622  -8.483  11.641  1.00  0.00    -0.248 NA
ATOM     68  C   UNL     1      -8.417  -6.996  11.457  1.00  0.00     0.031 C 
ATOM     69  C   UNL     1      -4.423  -6.328  15.520  1.00  0.00     0.029 A 
ATOM     70  C   UNL     1      -5.456  -6.625  14.634  1.00  0.00     0.049 A 
ATOM     71  H   UNL     1      -7.143  -5.475  14.201  1.00  0.00     0.167 HD
ATOM     72  C   UNL     1      -6.723  -7.786  12.831  1.00  0.00     0.074 A 
ATOM     73  C   UNL     1      -7.938  -6.984  12.705  1.00  0.00     0.031 C 
ATOM     74  C   UNL     1      -5.651  -7.687  13.670  1.00  0.00     0.037 A 
BRANCH  61  75
ATOM     75  C   UNL     1      -7.555  -2.686  15.295  1.00  0.00     0.058 A 
ATOM     76  C   UNL     1      -8.130  -2.996  16.539  1.00  0.00     0.135 A 
ATOM     77  C   UNL     1      -8.436  -2.138  14.332  1.00  0.00     0.135 A 
ATOM     78  F   UNL     1      -7.395  -3.568  17.505  1.00  0.00    -0.206 F 
ATOM     79  C   UNL     1      -9.483  -2.778  16.804  1.00  0.00     0.059 A 
ATOM     80  C   UNL     1      -9.767  -1.859  14.592  1.00  0.00     0.059 A 
ATOM     81  F   UNL     1      -8.077  -1.935  13.059  1.00  0.00    -0.206 F 
ATOM     82  C   UNL     1     -10.290  -2.201  15.825  1.00  0.00     0.060 A 
BRANCH  82  83
ATOM     83  S   UNL     1     -12.036  -1.927  16.157  1.00  0.00     0.124 S 
ATOM     84  O   UNL     1     -12.529  -3.292  16.295  1.00  0.00    -0.237 OA
ATOM     85  O   UNL     1     -11.982  -1.135  17.381  1.00  0.00    -0.237 OA
ATOM     86  O   UNL     1     -12.494  -1.206  14.973  1.00  0.00    -0.744 OA
ENDBRANCH  82  83
ENDBRANCH  61  75
BRANCH  62  87
ATOM     87  C   UNL     1      -8.134  -7.954   8.340  1.00  0.00     0.058 A 
ATOM     88  C   UNL     1      -9.083  -8.982   8.529  1.00  0.00     0.135 A 
ATOM     89  C   UNL     1      -8.427  -7.026   7.326  1.00  0.00     0.135 A 
ATOM     90  F   UNL     1      -8.891  -9.909   9.480  1.00  0.00    -0.206 F 
ATOM     91  C   UNL     1     -10.288  -9.038   7.814  1.00  0.00     0.059 A 
ATOM     92  C   UNL     1      -9.622  -7.060   6.600  1.00  0.00     0.059 A 
ATOM     93  F   UNL     1      -7.601  -5.996   7.085  1.00  0.00    -0.206 F 
ATOM     94  C   UNL     1     -10.564  -8.050   6.872  1.00  0.00     0.060 A 
BRANCH  94  95
ATOM     95  S   UNL     1     -12.200  -7.997   6.093  1.00  0.00     0.124 S 
ATOM     96  O   UNL     1     -12.197  -9.216   5.292  1.00  0.00    -0.237 OA
ATOM     97  O   UNL     1     -13.092  -7.998   7.248  1.00  0.00    -0.237 OA
ATOM     98  O   UNL     1     -12.173  -6.751   5.331  1.00  0.00    -0.744 OA
ENDBRANCH  94  95
ENDBRANCH  62  87
BRANCH  74  99
ATOM     99  C   UNL     1      -4.569  -8.718  13.527  1.00  0.00     0.058 A 
ATOM    100  C   UNL     1      -3.659  -8.814  12.459  1.00  0.00     0.135 A 
ATOM    101  C   UNL     1      -4.412  -9.618  14.590  1.00  0.00     0.135 A 
ATOM    102  F   UNL     1      -3.703  -7.943  11.438  1.00  0.00    -0.206 F 
ATOM    103  C   UNL     1      -2.656  -9.789  12.440  1.00  0.00     0.059 A 
ATOM    104  C   UNL     1      -3.408 -10.576  14.605  1.00  0.00     0.059 A 
ATOM    105  F   UNL     1      -5.226  -9.545  15.656  1.00  0.00    -0.206 F 
ATOM    106  C   UNL     1      -2.542 -10.668  13.520  1.00  0.00     0.060 A 
BRANCH 106 107
ATOM    107  S   UNL     1      -1.240 -11.921  13.521  1.00  0.00     0.124 S 
ATOM    108  O   UNL     1      -1.652 -12.796  12.429  1.00  0.00    -0.237 OA
ATOM    109  O   UNL     1      -0.038 -11.127  13.280  1.00  0.00    -0.237 OA
ATOM    110  O   UNL     1      -1.331 -12.508  14.856  1.00  0.00    -0.744 OA
ENDBRANCH 106 107
ENDBRANCH  74  99
ENDBRANCH  48  49
ENDBRANCH  41  43
ENDBRANCH  40  41
ENDBRANCH  39  40
ENDBRANCH  38  39
ENDBRANCH  37  38
ENDBRANCH   1  37
TORSDOF 23
