REMARK SMILES CC(C)CC(=O)N[C@@H](CC(=O)OCCOCCOC(=O)c1ccc(-c2c3nc(c(-c4c(F)cc(S(=O)(=O)[O-])cc4F)c4ccc([nH]4)c(-c4c(F)cc(S(=O)(=O)[O-])cc4F)c4nc(c(-c5c(F)cc(S(=O)(=O)[O-])cc5F)c5ccc2[nH]5)C=C4)C=C3)cc1)c1ccccc1Cl
REMARK SMILES IDX 14 1 13 2 12 3 10 4 11 5 9 6 8 7 7 8 5 9 6 10 4 12 2 13 1 14
REMARK SMILES IDX 3 15 87 16 88 17 92 18 89 19 91 20 93 21 90 22 15 23 16 24
REMARK SMILES IDX 17 25 18 26 19 27 20 28 21 29 22 30 86 31 23 32 85 33 24 34
REMARK SMILES IDX 25 35 26 36 79 37 27 38 84 39 78 40 80 41 28 42 83 43 77 44
REMARK SMILES IDX 76 45 29 47 63 48 42 49 62 50 43 51 46 52 61 53 81 54 44 55
REMARK SMILES IDX 45 56 60 58 82 59 47 60 30 61 31 62 40 63 32 64 33 65 39 66
REMARK SMILES IDX 41 67 34 68 35 69 36 70 37 71 38 72 64 73 65 74 74 75 66 76
REMARK SMILES IDX 67 77 73 78 75 79 68 80 69 81 70 82 71 83 72 84 48 85 49 86
REMARK SMILES IDX 58 87 50 88 51 89 57 90 59 91 52 92 53 93 54 94 55 95 56 96
REMARK H PARENT 7 11 80 46 46 57
REMARK Flexibility Score: inf
ROOT
ATOM      1  C   UNL     1      -0.458  -2.535   6.240  1.00  0.00     0.202 C 
ENDROOT
BRANCH   1   2
ATOM      2  C   UNL     1       0.141  -1.285   5.582  1.00  0.00     0.261 C 
BRANCH   2   3
ATOM      3  O   UNL     1       0.036  -1.216   4.148  1.00  0.00    -0.463 OA
BRANCH   3   4
ATOM      4  C   UNL     1       1.152  -1.636   3.495  1.00  0.00     0.308 C 
ATOM      5  O   UNL     1       2.108  -2.193   4.024  1.00  0.00    -0.252 OA
BRANCH   4   6
ATOM      6  C   UNL     1       1.205  -1.200   2.060  1.00  0.00     0.152 C 
BRANCH   6   7
ATOM      7  C   UNL     1      -0.062  -1.200   1.195  1.00  0.00     0.125 C 
BRANCH   7   8
ATOM      8  N   UNL     1      -0.840   0.003   1.510  1.00  0.00    -0.349 N 
ATOM      9  C   UNL     1      -1.121   1.088   0.736  1.00  0.00     0.220 C 
ATOM     10  O   UNL     1      -1.683   2.051   1.258  1.00  0.00    -0.275 OA
ATOM     11  H   UNL     1      -1.215   0.030   2.420  1.00  0.00     0.164 HD
BRANCH   9  12
ATOM     12  C   UNL     1      -0.770   1.095  -0.740  1.00  0.00     0.103 C 
BRANCH  12  13
ATOM     13  C   UNL     1       0.515   1.872  -1.074  1.00  0.00    -0.008 C 
ATOM     14  C   UNL     1       1.787   1.169  -0.605  1.00  0.00     0.008 C 
ATOM     15  C   UNL     1       0.601   2.096  -2.586  1.00  0.00     0.008 C 
ENDBRANCH  12  13
ENDBRANCH   9  12
ENDBRANCH   7   8
BRANCH   7  16
ATOM     16  C   UNL     1      -0.921  -2.457   1.040  1.00  0.00    -0.006 A 
ATOM     17  C   UNL     1      -2.326  -2.380   1.175  1.00  0.00     0.007 A 
ATOM     18  C   UNL     1      -0.400  -3.693   0.600  1.00  0.00     0.046 A 
ATOM     19  C   UNL     1      -3.160  -3.471   0.899  1.00  0.00     0.000 A 
ATOM     20  C   UNL     1      -1.237  -4.791   0.347  1.00  0.00     0.021 A 
ATOM     21  Cl  UNL     1       1.274  -3.944   0.258  1.00  0.00    -0.084 Cl
ATOM     22  C   UNL     1      -2.615  -4.680   0.489  1.00  0.00     0.002 A 
ENDBRANCH   7  16
ENDBRANCH   6   7
ENDBRANCH   4   6
ENDBRANCH   3   4
ENDBRANCH   2   3
ENDBRANCH   1   2
BRANCH   1  23
ATOM     23  O   UNL     1      -0.080  -3.803   5.712  1.00  0.00    -0.374 OA
BRANCH  23  24
ATOM     24  C   UNL     1      -0.672  -4.211   4.477  1.00  0.00     0.202 C 
BRANCH  24  25
ATOM     25  C   UNL     1      -2.198  -4.280   4.461  1.00  0.00     0.261 C 
BRANCH  25  26
ATOM     26  O   UNL     1      -2.750  -2.954   4.517  1.00  0.00    -0.460 OA
BRANCH  26  27
ATOM     27  C   UNL     1      -4.090  -2.936   4.675  1.00  0.00     0.338 C 
ATOM     28  O   UNL     1      -4.866  -3.859   4.487  1.00  0.00    -0.246 OA
BRANCH  27  29
ATOM     29  C   UNL     1      -4.473  -1.651   5.278  1.00  0.00     0.060 A 
ATOM     30  C   UNL     1      -4.379  -1.518   6.668  1.00  0.00     0.016 A 
ATOM     31  C   UNL     1      -5.033  -0.637   4.500  1.00  0.00     0.016 A 
ATOM     32  C   UNL     1      -4.905  -0.388   7.291  1.00  0.00     0.010 A 
ATOM     33  C   UNL     1      -5.547   0.504   5.128  1.00  0.00     0.010 A 
ATOM     34  C   UNL     1      -5.528   0.613   6.530  1.00  0.00    -0.014 A 
BRANCH  34  35
ATOM     35  C   UNL     1      -6.270   1.694   7.228  1.00  0.00     0.031 A 
ATOM     36  C   UNL     1      -7.764   1.585   7.382  1.00  0.00     0.074 A 
ATOM     37  C   UNL     1      -5.612   2.732   7.775  1.00  0.00     0.049 A 
ATOM     38  N   UNL     1      -8.589   2.364   8.036  1.00  0.00    -0.248 NA
ATOM     39  C   UNL     1      -8.416   0.448   6.713  1.00  0.00     0.031 C 
ATOM     40  C   UNL     1      -4.168   2.952   7.696  1.00  0.00     0.029 A 
ATOM     41  N   UNL     1      -6.074   3.792   8.514  1.00  0.00    -0.354 N 
ATOM     42  C   UNL     1      -9.852   1.808   7.867  1.00  0.00     0.074 A 
ATOM     43  C   UNL     1      -9.691   0.648   7.017  1.00  0.00     0.031 C 
ATOM     44  C   UNL     1      -3.861   4.076   8.367  1.00  0.00     0.029 A 
ATOM     45  C   UNL     1      -5.086   4.659   8.913  1.00  0.00     0.049 A 
ATOM     46  H   UNL     1      -7.025   3.919   8.736  1.00  0.00     0.167 HD
ATOM     47  C   UNL     1     -11.036   2.217   8.383  1.00  0.00     0.037 A 
ATOM     48  C   UNL     1      -5.159   5.791   9.640  1.00  0.00     0.037 A 
ATOM     49  C   UNL     1     -11.199   3.374   9.225  1.00  0.00     0.049 A 
ATOM     50  C   UNL     1      -6.490   6.241  10.181  1.00  0.00     0.074 A 
ATOM     51  C   UNL     1     -12.354   3.852   9.820  1.00  0.00     0.029 A 
ATOM     52  N   UNL     1     -10.178   4.241   9.584  1.00  0.00    -0.354 N 
ATOM     53  N   UNL     1      -7.667   5.676  10.053  1.00  0.00    -0.248 NA
ATOM     54  C   UNL     1      -6.499   7.478  10.976  1.00  0.00     0.031 C 
ATOM     55  C   UNL     1     -12.038   5.029  10.509  1.00  0.00     0.029 A 
ATOM     56  C   UNL     1     -10.680   5.263  10.374  1.00  0.00     0.049 A 
ATOM     57  H   UNL     1      -9.236   4.145   9.317  1.00  0.00     0.167 HD
ATOM     58  C   UNL     1      -8.554   6.480  10.760  1.00  0.00     0.074 A 
ATOM     59  C   UNL     1      -7.774   7.560  11.331  1.00  0.00     0.031 C 
ATOM     60  C   UNL     1      -9.893   6.339  10.922  1.00  0.00     0.037 A 
BRANCH  47  61
ATOM     61  C   UNL     1     -12.255   1.406   8.043  1.00  0.00     0.058 A 
ATOM     62  C   UNL     1     -12.487   0.150   8.626  1.00  0.00     0.135 A 
ATOM     63  C   UNL     1     -13.214   1.899   7.144  1.00  0.00     0.135 A 
ATOM     64  F   UNL     1     -11.593  -0.374   9.479  1.00  0.00    -0.206 F 
ATOM     65  C   UNL     1     -13.617  -0.599   8.313  1.00  0.00     0.059 A 
ATOM     66  C   UNL     1     -14.361   1.176   6.832  1.00  0.00     0.059 A 
ATOM     67  F   UNL     1     -13.038   3.094   6.557  1.00  0.00    -0.206 F 
ATOM     68  C   UNL     1     -14.546  -0.079   7.410  1.00  0.00     0.060 A 
BRANCH  68  69
ATOM     69  S   UNL     1     -16.008  -1.062   7.010  1.00  0.00     0.124 S 
ATOM     70  O   UNL     1     -15.445  -2.067   6.114  1.00  0.00    -0.237 OA
ATOM     71  O   UNL     1     -16.429  -1.547   8.320  1.00  0.00    -0.237 OA
ATOM     72  O   UNL     1     -16.906  -0.095   6.386  1.00  0.00    -0.744 OA
ENDBRANCH  68  69
ENDBRANCH  47  61
BRANCH  48  73
ATOM     73  C   UNL     1      -3.926   6.576   9.909  1.00  0.00     0.058 A 
ATOM     74  C   UNL     1      -3.346   6.600  11.186  1.00  0.00     0.135 A 
ATOM     75  C   UNL     1      -3.300   7.308   8.890  1.00  0.00     0.135 A 
ATOM     76  F   UNL     1      -3.917   5.923  12.194  1.00  0.00    -0.206 F 
ATOM     77  C   UNL     1      -2.191   7.329  11.446  1.00  0.00     0.059 A 
ATOM     78  C   UNL     1      -2.132   8.028   9.120  1.00  0.00     0.059 A 
ATOM     79  F   UNL     1      -3.813   7.309   7.650  1.00  0.00    -0.206 F 
ATOM     80  C   UNL     1      -1.589   8.038  10.405  1.00  0.00     0.060 A 
BRANCH  80  81
ATOM     81  S   UNL     1      -0.052   8.929  10.732  1.00  0.00     0.124 S 
ATOM     82  O   UNL     1      -0.543  10.120  11.414  1.00  0.00    -0.237 OA
ATOM     83  O   UNL     1       0.687   7.978  11.558  1.00  0.00    -0.237 OA
ATOM     84  O   UNL     1       0.499   9.144   9.397  1.00  0.00    -0.744 OA
ENDBRANCH  80  81
ENDBRANCH  48  73
BRANCH  60  85
ATOM     85  C   UNL     1     -10.594   7.378  11.754  1.00  0.00     0.058 A 
ATOM     86  C   UNL     1     -10.828   8.672  11.264  1.00  0.00     0.135 A 
ATOM     87  C   UNL     1     -11.045   7.074  13.048  1.00  0.00     0.135 A 
ATOM     88  F   UNL     1     -10.413   9.013  10.034  1.00  0.00    -0.206 F 
ATOM     89  C   UNL     1     -11.454   9.641  12.041  1.00  0.00     0.059 A 
ATOM     90  C   UNL     1     -11.693   8.021  13.835  1.00  0.00     0.059 A 
ATOM     91  F   UNL     1     -10.857   5.847  13.559  1.00  0.00    -0.206 F 
ATOM     92  C   UNL     1     -11.876   9.308  13.330  1.00  0.00     0.060 A 
BRANCH  92  93
ATOM     93  S   UNL     1     -12.685  10.571  14.336  1.00  0.00     0.124 S 
ATOM     94  O   UNL     1     -11.541  11.343  14.810  1.00  0.00    -0.237 OA
ATOM     95  O   UNL     1     -13.546  11.244  13.368  1.00  0.00    -0.237 OA
ATOM     96  O   UNL     1     -13.385   9.793  15.353  1.00  0.00    -0.744 OA
ENDBRANCH  92  93
ENDBRANCH  60  85
ENDBRANCH  34  35
ENDBRANCH  27  29
ENDBRANCH  26  27
ENDBRANCH  25  26
ENDBRANCH  24  25
ENDBRANCH  23  24
ENDBRANCH   1  23
TORSDOF 22
