REMARK SMILES Cc1coc2cc3c(cc12)[C@@H](C)[C@H](CCC(=O)N[C@@H](Cc1c[nH]c2ccccc12)C(=O)OCCOCCOC(=O)c1ccc(-c2c4nc(c(-c5c(F)cc(S(=O)(=O)[O-])cc5F)c5ccc([nH]5)c(-c5c(F)cc(S(=O)(=O)[O-])cc5F)c5nc(c(-c6c(F)cc(S(=O)(=O)[O-])cc6F)c6ccc2[nH]6)C=C5)C=C4)cc1)C(=O)O3
REMARK SMILES IDX 34 1 33 2 32 3 30 4 31 5 19 6 18 7 16 8 17 9 15 11 14 12
REMARK SMILES IDX 13 13 1 14 2 15 3 16 10 17 4 18 5 19 9 20 6 21 8 22 7 23
REMARK SMILES IDX 11 24 109 25 12 26 107 27 108 28 20 29 21 30 22 31 29 32
REMARK SMILES IDX 23 33 24 34 28 35 25 37 27 38 26 39 35 40 36 41 37 42 38 43
REMARK SMILES IDX 39 44 40 45 41 46 42 47 106 48 43 49 105 50 44 51 45 52
REMARK SMILES IDX 46 53 99 54 47 55 104 56 98 57 100 58 48 59 103 60 97 61
REMARK SMILES IDX 96 62 49 64 83 65 62 66 82 67 63 68 66 69 81 70 101 71 64 72
REMARK SMILES IDX 65 73 80 75 102 76 67 77 50 78 51 79 60 80 52 81 53 82 59 83
REMARK SMILES IDX 61 84 54 85 55 86 56 87 57 88 58 89 84 90 85 91 94 92 86 93
REMARK SMILES IDX 87 94 93 95 95 96 88 97 89 98 90 99 91 100 92 101 68 102
REMARK SMILES IDX 69 103 78 104 70 105 71 106 77 107 79 108 72 109 73 110
REMARK SMILES IDX 74 111 75 112 76 113
REMARK H PARENT 18 10 23 36 100 63 66 74
REMARK Flexibility Score: inf
ROOT
ATOM      1  C   UNL     1      -6.497  -4.887  -9.681  1.00  0.00     0.202 C 
ENDROOT
BRANCH   1   2
ATOM      2  C   UNL     1      -6.718  -4.207  -8.331  1.00  0.00     0.261 C 
BRANCH   2   3
ATOM      3  O   UNL     1      -5.643  -3.341  -8.000  1.00  0.00    -0.462 OA
BRANCH   3   4
ATOM      4  C   UNL     1      -4.978  -3.727  -6.893  1.00  0.00     0.329 C 
ATOM      5  O   UNL     1      -5.318  -4.617  -6.118  1.00  0.00    -0.250 OA
BRANCH   4   6
ATOM      6  C   UNL     1      -3.723  -2.920  -6.660  1.00  0.00     0.196 C 
BRANCH   6   7
ATOM      7  N   UNL     1      -2.964  -2.426  -7.825  1.00  0.00    -0.342 N 
ATOM      8  C   UNL     1      -1.737  -2.789  -8.327  1.00  0.00     0.220 C 
ATOM      9  O   UNL     1      -1.343  -2.256  -9.370  1.00  0.00    -0.275 OA
ATOM     10  H   UNL     1      -3.416  -1.713  -8.332  1.00  0.00     0.164 HD
BRANCH   8  11
ATOM     11  C   UNL     1      -0.863  -3.879  -7.676  1.00  0.00     0.101 C 
BRANCH  11  12
ATOM     12  C   UNL     1      -0.066  -3.638  -6.363  1.00  0.00     0.026 C 
BRANCH  12  13
ATOM     13  C   UNL     1      -0.716  -2.663  -5.390  1.00  0.00     0.107 C 
ATOM     14  C   UNL     1       0.972   0.171   0.925  1.00  0.00     0.048 C 
ATOM     15  C   UNL     1       0.602   0.841  -0.337  1.00  0.00    -0.005 A 
ATOM     16  C   UNL     1       0.703   2.186  -0.632  1.00  0.00     0.199 A 
ATOM     17  C   UNL     1       0.215   0.201  -1.546  1.00  0.00     0.024 A 
ATOM     18  O   UNL     1       0.495   2.409  -1.952  1.00  0.00    -0.464 OA
ATOM     19  C   UNL     1       0.285   1.195  -2.514  1.00  0.00     0.137 A 
ATOM     20  C   UNL     1      -0.077  -1.126  -1.932  1.00  0.00     0.020 A 
ATOM     21  C   UNL     1       0.268   0.954  -3.867  1.00  0.00     0.095 A 
ATOM     22  C   UNL     1      -0.087  -1.426  -3.296  1.00  0.00    -0.001 A 
ATOM     23  C   UNL     1       0.228  -0.395  -4.191  1.00  0.00     0.138 A 
ATOM     24  C   UNL     1      -0.430  -2.792  -3.865  1.00  0.00     0.034 C 
ATOM     25  O   UNL     1       0.640  -0.704  -5.463  1.00  0.00    -0.426 OA
ATOM     26  C   UNL     1      -1.704  -3.356  -3.165  1.00  0.00     0.014 C 
ATOM     27  C   UNL     1      -0.477  -1.273  -5.940  1.00  0.00     0.314 C 
ATOM     28  O   UNL     1      -1.105  -0.743  -6.848  1.00  0.00    -0.251 OA
ENDBRANCH  12  13
ENDBRANCH  11  12
ENDBRANCH   8  11
ENDBRANCH   6   7
BRANCH   6  29
ATOM     29  C   UNL     1      -4.036  -1.840  -5.593  1.00  0.00     0.074 C 
BRANCH  29  30
ATOM     30  C   UNL     1      -4.931  -0.698  -5.984  1.00  0.00    -0.020 A 
ATOM     31  C   UNL     1      -6.310  -0.722  -5.919  1.00  0.00     0.087 A 
ATOM     32  C   UNL     1      -4.566   0.652  -6.331  1.00  0.00     0.003 A 
ATOM     33  N   UNL     1      -6.787   0.520  -6.236  1.00  0.00    -0.361 N 
ATOM     34  C   UNL     1      -5.747   1.366  -6.540  1.00  0.00     0.046 A 
ATOM     35  C   UNL     1      -3.354   1.365  -6.455  1.00  0.00     0.010 A 
ATOM     36  H   UNL     1      -7.738   0.773  -6.244  1.00  0.00     0.166 HD
ATOM     37  C   UNL     1      -5.766   2.712  -6.933  1.00  0.00     0.026 A 
ATOM     38  C   UNL     1      -3.348   2.703  -6.866  1.00  0.00     0.001 A 
ATOM     39  C   UNL     1      -4.543   3.363  -7.115  1.00  0.00     0.002 A 
ENDBRANCH  29  30
ENDBRANCH   6  29
ENDBRANCH   4   6
ENDBRANCH   3   4
ENDBRANCH   2   3
ENDBRANCH   1   2
BRANCH   1  40
ATOM     40  O   UNL     1      -5.243  -5.520  -9.920  1.00  0.00    -0.374 OA
BRANCH  40  41
ATOM     41  C   UNL     1      -4.090  -4.683 -10.063  1.00  0.00     0.202 C 
BRANCH  41  42
ATOM     42  C   UNL     1      -4.099  -3.537 -11.098  1.00  0.00     0.261 C 
BRANCH  42  43
ATOM     43  O   UNL     1      -5.036  -2.503 -10.757  1.00  0.00    -0.460 OA
BRANCH  43  44
ATOM     44  C   UNL     1      -5.790  -2.028 -11.787  1.00  0.00     0.338 C 
ATOM     45  O   UNL     1      -5.557  -2.113 -12.979  1.00  0.00    -0.246 OA
BRANCH  44  46
ATOM     46  C   UNL     1      -7.131  -1.798 -11.211  1.00  0.00     0.060 A 
ATOM     47  C   UNL     1      -7.301  -1.019 -10.066  1.00  0.00     0.016 A 
ATOM     48  C   UNL     1      -8.142  -2.668 -11.656  1.00  0.00     0.016 A 
ATOM     49  C   UNL     1      -8.451  -1.203  -9.305  1.00  0.00     0.010 A 
ATOM     50  C   UNL     1      -9.251  -2.901 -10.853  1.00  0.00     0.010 A 
ATOM     51  C   UNL     1      -9.383  -2.200  -9.654  1.00  0.00    -0.014 A 
BRANCH  51  52
ATOM     52  C   UNL     1     -10.606  -2.323  -8.857  1.00  0.00     0.031 A 
ATOM     53  C   UNL     1     -11.497  -1.154  -9.086  1.00  0.00     0.074 A 
ATOM     54  C   UNL     1     -11.007  -3.381  -8.116  1.00  0.00     0.049 A 
ATOM     55  N   UNL     1     -11.790  -0.211  -8.254  1.00  0.00    -0.248 NA
ATOM     56  C   UNL     1     -11.935  -0.893 -10.469  1.00  0.00     0.031 C 
ATOM     57  C   UNL     1     -10.397  -4.706  -7.992  1.00  0.00     0.029 A 
ATOM     58  N   UNL     1     -12.135  -3.513  -7.350  1.00  0.00    -0.354 N 
ATOM     59  C   UNL     1     -12.639   0.644  -8.949  1.00  0.00     0.074 A 
ATOM     60  C   UNL     1     -12.520   0.296 -10.338  1.00  0.00     0.031 C 
ATOM     61  C   UNL     1     -11.266  -5.556  -7.393  1.00  0.00     0.029 A 
ATOM     62  C   UNL     1     -12.455  -4.824  -6.998  1.00  0.00     0.049 A 
ATOM     63  H   UNL     1     -12.678  -2.741  -7.070  1.00  0.00     0.167 HD
ATOM     64  C   UNL     1     -13.560   1.408  -8.303  1.00  0.00     0.037 A 
ATOM     65  C   UNL     1     -13.635  -5.282  -6.491  1.00  0.00     0.037 A 
ATOM     66  C   UNL     1     -13.263   1.508  -6.899  1.00  0.00     0.049 A 
ATOM     67  C   UNL     1     -14.323  -4.114  -5.878  1.00  0.00     0.074 A 
ATOM     68  C   UNL     1     -12.197   1.991  -6.165  1.00  0.00     0.029 A 
ATOM     69  N   UNL     1     -13.988   0.724  -6.034  1.00  0.00    -0.354 N 
ATOM     70  N   UNL     1     -13.865  -3.477  -4.832  1.00  0.00    -0.248 NA
ATOM     71  C   UNL     1     -15.223  -3.351  -6.730  1.00  0.00     0.031 C 
ATOM     72  C   UNL     1     -12.064   1.088  -5.072  1.00  0.00     0.029 A 
ATOM     73  C   UNL     1     -13.096   0.153  -5.163  1.00  0.00     0.049 A 
ATOM     74  H   UNL     1     -14.964   0.595  -6.039  1.00  0.00     0.167 HD
ATOM     75  C   UNL     1     -14.058  -2.135  -5.124  1.00  0.00     0.074 A 
ATOM     76  C   UNL     1     -14.940  -2.122  -6.291  1.00  0.00     0.031 C 
ATOM     77  C   UNL     1     -13.266  -1.161  -4.585  1.00  0.00     0.037 A 
BRANCH  64  78
ATOM     78  C   UNL     1     -14.922   1.739  -8.863  1.00  0.00     0.058 A 
ATOM     79  C   UNL     1     -15.739   2.654  -8.169  1.00  0.00     0.135 A 
ATOM     80  C   UNL     1     -15.567   0.984  -9.869  1.00  0.00     0.135 A 
ATOM     81  F   UNL     1     -15.229   3.421  -7.192  1.00  0.00    -0.206 F 
ATOM     82  C   UNL     1     -17.111   2.746  -8.395  1.00  0.00     0.059 A 
ATOM     83  C   UNL     1     -16.922   1.102 -10.149  1.00  0.00     0.059 A 
ATOM     84  F   UNL     1     -14.944   0.024 -10.561  1.00  0.00    -0.206 F 
ATOM     85  C   UNL     1     -17.695   1.952  -9.376  1.00  0.00     0.060 A 
BRANCH  85  86
ATOM     86  S   UNL     1     -19.482   1.984  -9.586  1.00  0.00     0.124 S 
ATOM     87  O   UNL     1     -19.932   1.410  -8.323  1.00  0.00    -0.237 OA
ATOM     88  O   UNL     1     -19.735   3.409  -9.770  1.00  0.00    -0.237 OA
ATOM     89  O   UNL     1     -19.695   1.155 -10.769  1.00  0.00    -0.744 OA
ENDBRANCH  85  86
ENDBRANCH  64  78
BRANCH  65  90
ATOM     90  C   UNL     1     -14.357  -6.535  -6.889  1.00  0.00     0.058 A 
ATOM     91  C   UNL     1     -15.482  -7.021  -6.192  1.00  0.00     0.135 A 
ATOM     92  C   UNL     1     -14.107  -7.150  -8.133  1.00  0.00     0.135 A 
ATOM     93  F   UNL     1     -15.834  -6.476  -5.016  1.00  0.00    -0.206 F 
ATOM     94  C   UNL     1     -16.310  -8.037  -6.705  1.00  0.00     0.059 A 
ATOM     95  C   UNL     1     -14.907  -8.165  -8.659  1.00  0.00     0.059 A 
ATOM     96  F   UNL     1     -13.117  -6.724  -8.930  1.00  0.00    -0.206 F 
ATOM     97  C   UNL     1     -16.019  -8.596  -7.949  1.00  0.00     0.060 A 
BRANCH  97  98
ATOM     98  S   UNL     1     -17.133  -9.820  -8.685  1.00  0.00     0.124 S 
ATOM     99  O   UNL     1     -17.020 -10.936  -7.752  1.00  0.00    -0.237 OA
ATOM    100  O   UNL     1     -18.410  -9.115  -8.685  1.00  0.00    -0.237 OA
ATOM    101  O   UNL     1     -16.555 -10.055 -10.006  1.00  0.00    -0.744 OA
ENDBRANCH  97  98
ENDBRANCH  65  90
BRANCH  77 102
ATOM    102  C   UNL     1     -12.327  -1.510  -3.459  1.00  0.00     0.058 A 
ATOM    103  C   UNL     1     -11.216  -2.361  -3.587  1.00  0.00     0.135 A 
ATOM    104  C   UNL     1     -12.431  -0.765  -2.273  1.00  0.00     0.135 A 
ATOM    105  F   UNL     1     -10.989  -3.033  -4.725  1.00  0.00    -0.206 F 
ATOM    106  C   UNL     1     -10.256  -2.472  -2.576  1.00  0.00     0.059 A 
ATOM    107  C   UNL     1     -11.472  -0.836  -1.268  1.00  0.00     0.059 A 
ATOM    108  F   UNL     1     -13.438   0.111  -2.117  1.00  0.00    -0.206 F 
ATOM    109  C   UNL     1     -10.386  -1.694  -1.425  1.00  0.00     0.060 A 
BRANCH 109 110
ATOM    110  S   UNL     1      -9.085  -1.747  -0.172  1.00  0.00     0.124 S 
ATOM    111  O   UNL     1      -9.228  -3.097   0.363  1.00  0.00    -0.237 OA
ATOM    112  O   UNL     1      -7.881  -1.501  -0.960  1.00  0.00    -0.237 OA
ATOM    113  O   UNL     1      -9.450  -0.671   0.747  1.00  0.00    -0.744 OA
ENDBRANCH 109 110
ENDBRANCH  77 102
ENDBRANCH  51  52
ENDBRANCH  44  46
ENDBRANCH  43  44
ENDBRANCH  42  43
ENDBRANCH  41  42
ENDBRANCH  40  41
ENDBRANCH   1  40
TORSDOF 23
