REMARK SMILES N#Cc1cc(-c2cncc(C(=O)OCCOCCOC(=O)c3ccc(-c4c5nc(c(-c6c(F)cc(S(=O)(=O)[O-])cc6F)c6ccc([nH]6)c(-c6c(F)cc(S(=O)(=O)[O-])cc6F)c6nc(c(-c7c(F)cc(S(=O)(=O)[O-])cc7F)c7ccc4[nH]7)C=C6)C=C5)cc3)c2)ccc1Cl
REMARK SMILES IDX 17 1 16 2 15 3 14 4 13 5 11 6 12 7 10 8 6 9 7 10 88 11 8 12
REMARK SMILES IDX 9 13 5 14 3 15 4 16 91 17 90 18 92 19 89 20 2 21 1 22 18 23
REMARK SMILES IDX 19 24 20 25 21 26 22 27 23 28 87 29 24 30 86 31 25 32 26 33
REMARK SMILES IDX 27 34 80 35 28 36 85 37 79 38 81 39 29 40 84 41 78 42 77 43
REMARK SMILES IDX 30 45 64 46 43 47 63 48 44 49 47 50 62 51 82 52 45 53 46 54
REMARK SMILES IDX 61 56 83 57 48 58 31 59 32 60 41 61 33 62 34 63 40 64 42 65
REMARK SMILES IDX 35 66 36 67 37 68 38 69 39 70 65 71 66 72 75 73 67 74 68 75
REMARK SMILES IDX 74 76 76 77 69 78 70 79 71 80 72 81 73 82 49 83 50 84 59 85
REMARK SMILES IDX 51 86 52 87 58 88 60 89 53 90 54 91 55 92 56 93 57 94
REMARK H PARENT 81 44 47 55
REMARK Flexibility Score: inf
ROOT
ATOM      1  C   UNL     1       7.545   3.443   3.191  1.00  0.00     0.202 C 
ENDROOT
BRANCH   1   2
ATOM      2  O   UNL     1       7.609   4.766   3.717  1.00  0.00    -0.374 OA
BRANCH   2   3
ATOM      3  C   UNL     1       6.440   5.322   4.312  1.00  0.00     0.202 C 
BRANCH   3   4
ATOM      4  C   UNL     1       5.297   5.789   3.402  1.00  0.00     0.261 C 
BRANCH   4   5
ATOM      5  O   UNL     1       4.823   4.751   2.532  1.00  0.00    -0.460 OA
BRANCH   5   6
ATOM      6  C   UNL     1       5.237   4.866   1.247  1.00  0.00     0.339 C 
ATOM      7  O   UNL     1       5.878   5.781   0.758  1.00  0.00    -0.246 OA
BRANCH   6   8
ATOM      8  C   UNL     1       4.973   3.614   0.519  1.00  0.00     0.079 A 
ATOM      9  C   UNL     1       3.668   1.652  -0.047  1.00  0.00     0.001 A 
ATOM     10  C   UNL     1       4.686   1.347  -0.960  1.00  0.00     0.119 A 
ATOM     11  C   UNL     1       3.851   2.809   0.729  1.00  0.00     0.027 A 
ATOM     12  N   UNL     1       5.806   2.082  -1.152  1.00  0.00    -0.263 NA
ATOM     13  C   UNL     1       5.914   3.212  -0.419  1.00  0.00     0.126 A 
BRANCH   9  14
ATOM     14  C   UNL     1       2.441   0.842   0.029  1.00  0.00    -0.015 A 
ATOM     15  C   UNL     1      -0.010   0.712   0.024  1.00  0.00     0.071 A 
ATOM     16  C   UNL     1       1.178   1.461   0.029  1.00  0.00     0.029 A 
ATOM     17  C   UNL     1       0.058  -0.682   0.029  1.00  0.00     0.058 A 
ATOM     18  C   UNL     1       1.302  -1.316   0.043  1.00  0.00     0.022 A 
ATOM     19  Cl  UNL     1      -1.354  -1.675  -0.005  1.00  0.00    -0.083 Cl
ATOM     20  C   UNL     1       2.481  -0.562   0.044  1.00  0.00     0.010 A 
BRANCH  15  21
ATOM     21  C   UNL     1      -1.261   1.413  -0.024  1.00  0.00     0.101 C 
ATOM     22  N   UNL     1      -2.250   2.011  -0.091  1.00  0.00    -0.192 NA
ENDBRANCH  15  21
ENDBRANCH   9  14
ENDBRANCH   6   8
ENDBRANCH   5   6
ENDBRANCH   4   5
ENDBRANCH   3   4
ENDBRANCH   2   3
ENDBRANCH   1   2
BRANCH   1  23
ATOM     23  C   UNL     1       7.422   2.249   4.148  1.00  0.00     0.261 C 
BRANCH  23  24
ATOM     24  O   UNL     1       6.260   2.295   4.989  1.00  0.00    -0.460 OA
BRANCH  24  25
ATOM     25  C   UNL     1       6.520   2.647   6.274  1.00  0.00     0.338 C 
ATOM     26  O   UNL     1       7.609   2.897   6.762  1.00  0.00    -0.246 OA
BRANCH  25  27
ATOM     27  C   UNL     1       5.254   2.881   6.991  1.00  0.00     0.060 A 
ATOM     28  C   UNL     1       5.052   4.140   7.571  1.00  0.00     0.016 A 
ATOM     29  C   UNL     1       4.319   1.860   7.157  1.00  0.00     0.016 A 
ATOM     30  C   UNL     1       3.930   4.370   8.362  1.00  0.00     0.010 A 
ATOM     31  C   UNL     1       3.196   2.093   7.955  1.00  0.00     0.010 A 
ATOM     32  C   UNL     1       3.014   3.335   8.591  1.00  0.00    -0.014 A 
BRANCH  32  33
ATOM     33  C   UNL     1       1.934   3.508   9.592  1.00  0.00     0.031 A 
ATOM     34  C   UNL     1       2.047   2.815  10.922  1.00  0.00     0.074 A 
ATOM     35  C   UNL     1       0.870   4.284   9.320  1.00  0.00     0.049 A 
ATOM     36  N   UNL     1       1.199   2.785  11.918  1.00  0.00    -0.248 NA
ATOM     37  C   UNL     1       3.279   2.046  11.156  1.00  0.00     0.031 C 
ATOM     38  C   UNL     1       0.670   5.039   8.085  1.00  0.00     0.029 A 
ATOM     39  N   UNL     1      -0.247   4.558  10.068  1.00  0.00    -0.354 N 
ATOM     40  C   UNL     1       1.788   1.988  12.893  1.00  0.00     0.074 A 
ATOM     41  C   UNL     1       3.043   1.515  12.346  1.00  0.00     0.031 C 
ATOM     42  C   UNL     1      -0.499   5.697   8.161  1.00  0.00     0.029 A 
ATOM     43  C   UNL     1      -1.149   5.374   9.429  1.00  0.00     0.049 A 
ATOM     44  H   UNL     1      -0.388   4.204  10.976  1.00  0.00     0.167 HD
ATOM     45  C   UNL     1       1.332   1.688  14.134  1.00  0.00     0.037 A 
ATOM     46  C   UNL     1      -2.369   5.796   9.817  1.00  0.00     0.037 A 
ATOM     47  C   UNL     1       0.073   2.153  14.659  1.00  0.00     0.049 A 
ATOM     48  C   UNL     1      -2.902   5.372  11.160  1.00  0.00     0.074 A 
ATOM     49  C   UNL     1      -0.482   1.915  15.904  1.00  0.00     0.029 A 
ATOM     50  N   UNL     1      -0.838   2.937  13.962  1.00  0.00    -0.354 N 
ATOM     51  N   UNL     1      -2.329   4.635  12.082  1.00  0.00    -0.248 NA
ATOM     52  C   UNL     1      -4.248   5.840  11.516  1.00  0.00     0.031 C 
ATOM     53  C   UNL     1      -1.755   2.494  15.934  1.00  0.00     0.029 A 
ATOM     54  C   UNL     1      -1.964   3.163  14.738  1.00  0.00     0.049 A 
ATOM     55  H   UNL     1      -0.703   3.283  13.050  1.00  0.00     0.167 HD
ATOM     56  C   UNL     1      -3.228   4.583  13.143  1.00  0.00     0.074 A 
ATOM     57  C   UNL     1      -4.380   5.370  12.748  1.00  0.00     0.031 C 
ATOM     58  C   UNL     1      -3.108   3.949  14.337  1.00  0.00     0.037 A 
BRANCH  45  59
ATOM     59  C   UNL     1       2.187   0.785  14.986  1.00  0.00     0.058 A 
ATOM     60  C   UNL     1       3.452   1.180  15.456  1.00  0.00     0.135 A 
ATOM     61  C   UNL     1       1.740  -0.501  15.334  1.00  0.00     0.135 A 
ATOM     62  F   UNL     1       3.939   2.393  15.149  1.00  0.00    -0.206 F 
ATOM     63  C   UNL     1       4.263   0.316  16.185  1.00  0.00     0.059 A 
ATOM     64  C   UNL     1       2.517  -1.367  16.098  1.00  0.00     0.059 A 
ATOM     65  F   UNL     1       0.538  -0.935  14.921  1.00  0.00    -0.206 F 
ATOM     66  C   UNL     1       3.789  -0.959  16.496  1.00  0.00     0.060 A 
BRANCH  66  67
ATOM     67  S   UNL     1       4.870  -2.082  17.406  1.00  0.00     0.124 S 
ATOM     68  O   UNL     1       5.888  -2.381  16.403  1.00  0.00    -0.237 OA
ATOM     69  O   UNL     1       5.307  -1.253  18.525  1.00  0.00    -0.237 OA
ATOM     70  O   UNL     1       3.991  -3.193  17.757  1.00  0.00    -0.744 OA
ENDBRANCH  66  67
ENDBRANCH  45  59
BRANCH  46  71
ATOM     71  C   UNL     1      -3.157   6.690   8.927  1.00  0.00     0.058 A 
ATOM     72  C   UNL     1      -3.389   8.027   9.280  1.00  0.00     0.135 A 
ATOM     73  C   UNL     1      -3.666   6.240   7.698  1.00  0.00     0.135 A 
ATOM     74  F   UNL     1      -2.934   8.501  10.450  1.00  0.00    -0.206 F 
ATOM     75  C   UNL     1      -4.099   8.887   8.450  1.00  0.00     0.059 A 
ATOM     76  C   UNL     1      -4.353   7.089   6.837  1.00  0.00     0.059 A 
ATOM     77  F   UNL     1      -3.463   4.971   7.310  1.00  0.00    -0.206 F 
ATOM     78  C   UNL     1      -4.566   8.411   7.223  1.00  0.00     0.060 A 
BRANCH  78  79
ATOM     79  S   UNL     1      -5.413   9.564   6.122  1.00  0.00     0.124 S 
ATOM     80  O   UNL     1      -6.650   9.816   6.852  1.00  0.00    -0.237 OA
ATOM     81  O   UNL     1      -4.467  10.674   6.063  1.00  0.00    -0.237 OA
ATOM     82  O   UNL     1      -5.554   8.804   4.883  1.00  0.00    -0.744 OA
ENDBRANCH  78  79
ENDBRANCH  46  71
BRANCH  58  83
ATOM     83  C   UNL     1      -4.231   4.111  15.330  1.00  0.00     0.058 A 
ATOM     84  C   UNL     1      -5.495   3.534  15.130  1.00  0.00     0.135 A 
ATOM     85  C   UNL     1      -4.019   4.814  16.529  1.00  0.00     0.135 A 
ATOM     86  F   UNL     1      -5.758   2.857  14.001  1.00  0.00    -0.206 F 
ATOM     87  C   UNL     1      -6.516   3.673  16.066  1.00  0.00     0.059 A 
ATOM     88  C   UNL     1      -5.013   4.934  17.495  1.00  0.00     0.059 A 
ATOM     89  F   UNL     1      -2.827   5.379  16.780  1.00  0.00    -0.206 F 
ATOM     90  C   UNL     1      -6.263   4.370  17.249  1.00  0.00     0.060 A 
BRANCH  90  91
ATOM     91  S   UNL     1      -7.585   4.508  18.470  1.00  0.00     0.124 S 
ATOM     92  O   UNL     1      -8.514   5.412  17.799  1.00  0.00    -0.237 OA
ATOM     93  O   UNL     1      -8.031   3.124  18.602  1.00  0.00    -0.237 OA
ATOM     94  O   UNL     1      -6.911   5.058  19.643  1.00  0.00    -0.744 OA
ENDBRANCH  90  91
ENDBRANCH  58  83
ENDBRANCH  32  33
ENDBRANCH  25  27
ENDBRANCH  24  25
ENDBRANCH  23  24
ENDBRANCH   1  23
TORSDOF 19
