REMARK SMILES O=C(OCCOCCOC(=O)[C@@H]1c2[nH]cnc2CCN1C(=O)CCCc1c[nH]c2ccccc12)c1ccc(-c2c3nc(c(-c4c(F)cc(S(=O)(=O)[O-])cc4F)c4ccc([nH]4)c(-c4c(F)cc(S(=O)(=O)[O-])cc4F)c4nc(c(-c5c(F)cc(S(=O)(=O)[O-])cc5F)c5ccc2[nH]5)C=C4)C=C3)cc1
REMARK SMILES IDX 7 1 6 2 5 3 4 4 3 5 2 6 1 7 35 8 36 9 100 10 37 11 99 12
REMARK SMILES IDX 38 13 39 14 40 15 93 16 41 17 98 18 92 19 94 20 42 21 97 22
REMARK SMILES IDX 91 23 90 24 43 26 77 27 56 28 76 29 57 30 60 31 75 32 95 33
REMARK SMILES IDX 58 34 59 35 74 37 96 38 61 39 44 40 45 41 54 42 46 43 47 44
REMARK SMILES IDX 53 45 55 46 48 47 49 48 50 49 51 50 52 51 78 52 79 53 88 54
REMARK SMILES IDX 80 55 81 56 87 57 89 58 82 59 83 60 84 61 85 62 86 63 62 64
REMARK SMILES IDX 63 65 72 66 64 67 65 68 71 69 73 70 66 71 67 72 68 73 69 74
REMARK SMILES IDX 70 75 8 76 9 77 10 78 11 79 12 80 13 81 20 82 14 83 17 84
REMARK SMILES IDX 19 85 15 86 16 88 18 89 21 90 22 91 23 92 24 93 25 94 26 95
REMARK SMILES IDX 27 96 34 97 28 98 29 99 33 100 30 102 32 103 31 104
REMARK H PARENT 94 25 60 36 14 87 28 101
REMARK Flexibility Score: inf
ROOT
ATOM      1  C   UNL     1       6.500  -1.044  -7.240  1.00  0.00     0.202 C 
ENDROOT
BRANCH   1   2
ATOM      2  O   UNL     1       7.205  -2.236  -6.880  1.00  0.00    -0.374 OA
BRANCH   2   3
ATOM      3  C   UNL     1       7.315  -2.679  -5.534  1.00  0.00     0.202 C 
BRANCH   3   4
ATOM      4  C   UNL     1       8.483  -2.193  -4.673  1.00  0.00     0.261 C 
BRANCH   4   5
ATOM      5  O   UNL     1       8.524  -0.769  -4.506  1.00  0.00    -0.460 OA
BRANCH   5   6
ATOM      6  C   UNL     1       8.687   0.123  -5.506  1.00  0.00     0.338 C 
ATOM      7  O   UNL     1       8.106   1.205  -5.441  1.00  0.00    -0.246 OA
BRANCH   6   8
ATOM      8  C   UNL     1       9.695  -0.111  -6.579  1.00  0.00     0.060 A 
ATOM      9  C   UNL     1      10.243  -1.349  -6.919  1.00  0.00     0.016 A 
ATOM     10  C   UNL     1      10.149   1.035  -7.249  1.00  0.00     0.016 A 
ATOM     11  C   UNL     1      11.417  -1.415  -7.631  1.00  0.00     0.010 A 
ATOM     12  C   UNL     1      11.275   0.969  -8.045  1.00  0.00     0.010 A 
ATOM     13  C   UNL     1      11.960  -0.238  -8.127  1.00  0.00    -0.014 A 
BRANCH  13  14
ATOM     14  C   UNL     1      13.203  -0.353  -8.859  1.00  0.00     0.031 A 
ATOM     15  C   UNL     1      13.069  -1.190 -10.076  1.00  0.00     0.074 A 
ATOM     16  C   UNL     1      14.300   0.314  -8.458  1.00  0.00     0.049 A 
ATOM     17  N   UNL     1      13.609  -2.341 -10.310  1.00  0.00    -0.248 NA
ATOM     18  C   UNL     1      12.019  -0.820 -11.044  1.00  0.00     0.031 C 
ATOM     19  C   UNL     1      14.395   1.297  -7.374  1.00  0.00     0.029 A 
ATOM     20  N   UNL     1      15.541   0.355  -9.008  1.00  0.00    -0.354 N 
ATOM     21  C   UNL     1      13.193  -2.681 -11.595  1.00  0.00     0.074 A 
ATOM     22  C   UNL     1      12.043  -1.867 -11.870  1.00  0.00     0.031 C 
ATOM     23  C   UNL     1      15.529   2.014  -7.522  1.00  0.00     0.029 A 
ATOM     24  C   UNL     1      16.292   1.465  -8.627  1.00  0.00     0.049 A 
ATOM     25  H   UNL     1      15.879  -0.336  -9.622  1.00  0.00     0.167 HD
ATOM     26  C   UNL     1      14.049  -3.321 -12.439  1.00  0.00     0.037 A 
ATOM     27  C   UNL     1      17.394   1.940  -9.264  1.00  0.00     0.037 A 
ATOM     28  C   UNL     1      15.074  -4.014 -11.690  1.00  0.00     0.049 A 
ATOM     29  C   UNL     1      17.927   0.822 -10.091  1.00  0.00     0.074 A 
ATOM     30  C   UNL     1      15.073  -4.967 -10.688  1.00  0.00     0.029 A 
ATOM     31  N   UNL     1      16.333  -3.463 -11.679  1.00  0.00    -0.354 N 
ATOM     32  N   UNL     1      18.434  -0.270  -9.582  1.00  0.00    -0.248 NA
ATOM     33  C   UNL     1      17.445   0.701 -11.459  1.00  0.00     0.031 C 
ATOM     34  C   UNL     1      16.160  -4.612  -9.834  1.00  0.00     0.029 A 
ATOM     35  C   UNL     1      16.811  -3.515 -10.398  1.00  0.00     0.049 A 
ATOM     36  H   UNL     1      16.808  -3.094 -12.458  1.00  0.00     0.167 HD
ATOM     37  C   UNL     1      17.937  -1.296 -10.374  1.00  0.00     0.074 A 
ATOM     38  C   UNL     1      17.400  -0.631 -11.561  1.00  0.00     0.031 C 
ATOM     39  C   UNL     1      17.740  -2.547  -9.860  1.00  0.00     0.037 A 
BRANCH  26  40
ATOM     40  C   UNL     1      14.259  -2.888 -13.884  1.00  0.00     0.058 A 
ATOM     41  C   UNL     1      15.226  -3.575 -14.649  1.00  0.00     0.135 A 
ATOM     42  C   UNL     1      13.825  -1.659 -14.434  1.00  0.00     0.135 A 
ATOM     43  F   UNL     1      15.686  -4.773 -14.254  1.00  0.00    -0.206 F 
ATOM     44  C   UNL     1      15.828  -3.014 -15.775  1.00  0.00     0.059 A 
ATOM     45  C   UNL     1      14.381  -1.102 -15.578  1.00  0.00     0.059 A 
ATOM     46  F   UNL     1      12.898  -0.884 -13.866  1.00  0.00    -0.206 F 
ATOM     47  C   UNL     1      15.416  -1.760 -16.212  1.00  0.00     0.060 A 
BRANCH  47  48
ATOM     48  S   UNL     1      16.268  -0.978 -17.588  1.00  0.00     0.124 S 
ATOM     49  O   UNL     1      17.567  -0.698 -17.003  1.00  0.00    -0.237 OA
ATOM     50  O   UNL     1      16.225  -2.029 -18.600  1.00  0.00    -0.237 OA
ATOM     51  O   UNL     1      15.432   0.192 -17.874  1.00  0.00    -0.744 OA
ENDBRANCH  47  48
ENDBRANCH  26  40
BRANCH  27  52
ATOM     52  C   UNL     1      17.754   3.368  -9.502  1.00  0.00     0.058 A 
ATOM     53  C   UNL     1      19.005   3.725 -10.038  1.00  0.00     0.135 A 
ATOM     54  C   UNL     1      16.788   4.396  -9.463  1.00  0.00     0.135 A 
ATOM     55  F   UNL     1      19.982   2.810 -10.136  1.00  0.00    -0.206 F 
ATOM     56  C   UNL     1      19.265   5.005 -10.547  1.00  0.00     0.059 A 
ATOM     57  C   UNL     1      17.029   5.680  -9.948  1.00  0.00     0.059 A 
ATOM     58  F   UNL     1      15.540   4.167  -9.032  1.00  0.00    -0.206 F 
ATOM     59  C   UNL     1      18.262   5.972 -10.515  1.00  0.00     0.060 A 
BRANCH  59  60
ATOM     60  S   UNL     1      18.525   7.571 -11.320  1.00  0.00     0.124 S 
ATOM     61  O   UNL     1      19.513   8.191 -10.444  1.00  0.00    -0.237 OA
ATOM     62  O   UNL     1      19.001   7.179 -12.641  1.00  0.00    -0.237 OA
ATOM     63  O   UNL     1      17.200   8.185 -11.296  1.00  0.00    -0.744 OA
ENDBRANCH  59  60
ENDBRANCH  27  52
BRANCH  39  64
ATOM     64  C   UNL     1      18.378  -2.884  -8.539  1.00  0.00     0.058 A 
ATOM     65  C   UNL     1      18.080  -2.256  -7.316  1.00  0.00     0.135 A 
ATOM     66  C   UNL     1      19.241  -3.988  -8.499  1.00  0.00     0.135 A 
ATOM     67  F   UNL     1      17.177  -1.267  -7.251  1.00  0.00    -0.206 F 
ATOM     68  C   UNL     1      18.662  -2.674  -6.117  1.00  0.00     0.059 A 
ATOM     69  C   UNL     1      19.805  -4.443  -7.312  1.00  0.00     0.059 A 
ATOM     70  F   UNL     1      19.512  -4.673  -9.623  1.00  0.00    -0.206 F 
ATOM     71  C   UNL     1      19.528  -3.768  -6.127  1.00  0.00     0.060 A 
BRANCH  71  72
ATOM     72  S   UNL     1      20.253  -4.337  -4.574  1.00  0.00     0.124 S 
ATOM     73  O   UNL     1      21.180  -3.257  -4.255  1.00  0.00    -0.237 OA
ATOM     74  O   UNL     1      19.087  -4.451  -3.703  1.00  0.00    -0.237 OA
ATOM     75  O   UNL     1      20.877  -5.608  -4.934  1.00  0.00    -0.744 OA
ENDBRANCH  71  72
ENDBRANCH  39  64
ENDBRANCH  13  14
ENDBRANCH   6   8
ENDBRANCH   5   6
ENDBRANCH   4   5
ENDBRANCH   3   4
ENDBRANCH   2   3
ENDBRANCH   1   2
BRANCH   1  76
ATOM     76  C   UNL     1       5.271  -0.521  -6.480  1.00  0.00     0.261 C 
BRANCH  76  77
ATOM     77  O   UNL     1       5.400  -0.574  -5.055  1.00  0.00    -0.461 OA
BRANCH  77  78
ATOM     78  C   UNL     1       4.216  -0.868  -4.452  1.00  0.00     0.335 C 
ATOM     79  O   UNL     1       3.115  -0.557  -4.909  1.00  0.00    -0.249 OA
BRANCH  78  80
ATOM     80  C   UNL     1       4.354  -1.778  -3.234  1.00  0.00     0.244 C 
ATOM     81  C   UNL     1       5.600  -1.827  -2.401  1.00  0.00     0.072 A 
ATOM     82  N   UNL     1       3.850  -3.184  -3.359  1.00  0.00    -0.323 N 
ATOM     83  N   UNL     1       6.602  -0.912  -2.229  1.00  0.00    -0.346 N 
ATOM     84  C   UNL     1       5.867  -2.820  -1.477  1.00  0.00     0.066 A 
ATOM     85  C   UNL     1       3.673  -3.800  -2.035  1.00  0.00     0.127 C 
ATOM     86  C   UNL     1       7.396  -1.379  -1.207  1.00  0.00     0.197 A 
ATOM     87  H   UNL     1       6.730  -0.080  -2.739  1.00  0.00     0.167 HD
ATOM     88  N   UNL     1       6.973  -2.534  -0.737  1.00  0.00    -0.242 NA
ATOM     89  C   UNL     1       5.017  -4.024  -1.305  1.00  0.00     0.080 C 
BRANCH  82  90
ATOM     90  C   UNL     1       3.940  -3.838  -4.580  1.00  0.00     0.223 C 
ATOM     91  O   UNL     1       4.477  -3.276  -5.542  1.00  0.00    -0.275 OA
BRANCH  90  92
ATOM     92  C   UNL     1       3.247  -5.155  -4.945  1.00  0.00     0.100 C 
BRANCH  92  93
ATOM     93  C   UNL     1       3.685  -6.503  -4.436  1.00  0.00     0.015 C 
BRANCH  93  94
ATOM     94  C   UNL     1       3.271  -6.938  -3.049  1.00  0.00     0.038 C 
BRANCH  94  95
ATOM     95  C   UNL     1       1.839  -6.840  -2.554  1.00  0.00    -0.023 A 
ATOM     96  C   UNL     1       1.284  -7.906  -1.863  1.00  0.00     0.087 A 
ATOM     97  C   UNL     1       0.851  -5.764  -2.463  1.00  0.00     0.003 A 
ATOM     98  N   UNL     1       0.182  -7.474  -1.193  1.00  0.00    -0.361 N 
ATOM     99  C   UNL     1      -0.066  -6.158  -1.481  1.00  0.00     0.046 A 
ATOM    100  C   UNL     1       0.637  -4.463  -2.993  1.00  0.00     0.010 A 
ATOM    101  H   UNL     1      -0.360  -8.028  -0.587  1.00  0.00     0.166 HD
ATOM    102  C   UNL     1      -1.040  -5.304  -0.939  1.00  0.00     0.026 A 
ATOM    103  C   UNL     1      -0.439  -3.662  -2.588  1.00  0.00     0.001 A 
ATOM    104  C   UNL     1      -1.243  -4.065  -1.540  1.00  0.00     0.002 A 
ENDBRANCH  94  95
ENDBRANCH  93  94
ENDBRANCH  92  93
ENDBRANCH  90  92
ENDBRANCH  82  90
ENDBRANCH  78  80
ENDBRANCH  77  78
ENDBRANCH  76  77
ENDBRANCH   1  76
TORSDOF 22
