REMARK SMILES O=C(OCCOCCOC(=O)c1cc2c(c(S(=O)(=O)Nc3cc(C(F)(F)F)ccc3-n3cccn3)c1)CCC2)c1ccc(-c2c3nc(c(-c4c(F)cc(S(=O)(=O)[O-])cc4F)c4ccc([nH]4)c(-c4c(F)cc(S(=O)(=O)[O-])cc4F)c4nc(c(-c5c(F)cc(S(=O)(=O)[O-])cc5F)c5ccc2[nH]5)C=C4)C=C3)cc1
REMARK SMILES IDX 7 1 6 2 5 3 4 4 3 5 2 6 1 7 40 8 41 9 105 10 42 11 104 12
REMARK SMILES IDX 43 13 44 14 45 15 98 16 46 17 103 18 97 19 99 20 47 21
REMARK SMILES IDX 102 22 96 23 95 24 48 26 82 27 61 28 81 29 62 30 65 31 80 32
REMARK SMILES IDX 100 33 63 34 64 35 79 37 101 38 66 39 49 40 50 41 59 42
REMARK SMILES IDX 51 43 52 44 58 45 60 46 53 47 54 48 55 49 56 50 57 51 83 52
REMARK SMILES IDX 84 53 93 54 85 55 86 56 92 57 94 58 87 59 88 60 89 61 90 62
REMARK SMILES IDX 91 63 67 64 68 65 77 66 69 67 70 68 76 69 78 70 71 71 72 72
REMARK SMILES IDX 73 73 74 74 75 75 8 76 9 77 10 78 11 79 12 80 13 81 36 82
REMARK SMILES IDX 14 83 16 84 15 85 39 86 37 87 38 88 17 89 18 90 19 91 20 92
REMARK SMILES IDX 21 94 22 95 30 96 23 97 29 98 28 99 31 100 32 101 35 102
REMARK SMILES IDX 33 103 34 104 24 105 25 106 26 107 27 108
REMARK H PARENT 99 25 65 36 20 93
REMARK Flexibility Score: inf
ROOT
ATOM      1  C   UNL     1       3.039  -0.208   2.063  1.00  0.00     0.202 C 
ENDROOT
BRANCH   1   2
ATOM      2  O   UNL     1       4.189  -0.467   1.246  1.00  0.00    -0.374 OA
BRANCH   2   3
ATOM      3  C   UNL     1       4.731   0.642   0.538  1.00  0.00     0.202 C 
BRANCH   3   4
ATOM      4  C   UNL     1       4.463   0.724  -0.962  1.00  0.00     0.261 C 
BRANCH   4   5
ATOM      5  O   UNL     1       3.086   0.984  -1.298  1.00  0.00    -0.460 OA
BRANCH   5   6
ATOM      6  C   UNL     1       2.029   0.243  -0.901  1.00  0.00     0.338 C 
ATOM      7  O   UNL     1       1.020   0.794  -0.464  1.00  0.00    -0.246 OA
BRANCH   6   8
ATOM      8  C   UNL     1       1.986  -1.208  -1.225  1.00  0.00     0.060 A 
ATOM      9  C   UNL     1       3.087  -1.973  -1.600  1.00  0.00     0.016 A 
ATOM     10  C   UNL     1       0.707  -1.790  -1.266  1.00  0.00     0.016 A 
ATOM     11  C   UNL     1       2.902  -3.170  -2.258  1.00  0.00     0.010 A 
ATOM     12  C   UNL     1       0.520  -3.026  -1.861  1.00  0.00     0.010 A 
ATOM     13  C   UNL     1       1.610  -3.653  -2.449  1.00  0.00    -0.014 A 
BRANCH  13  14
ATOM     14  C   UNL     1       1.474  -4.870  -3.228  1.00  0.00     0.031 A 
ATOM     15  C   UNL     1       2.229  -6.026  -2.671  1.00  0.00     0.074 A 
ATOM     16  C   UNL     1       0.701  -4.932  -4.330  1.00  0.00     0.049 A 
ATOM     17  N   UNL     1       3.246  -6.636  -3.184  1.00  0.00    -0.248 NA
ATOM     18  C   UNL     1       1.930  -6.427  -1.286  1.00  0.00     0.031 C 
ATOM     19  C   UNL     1      -0.251  -3.940  -4.838  1.00  0.00     0.029 A 
ATOM     20  N   UNL     1       0.546  -5.965  -5.197  1.00  0.00    -0.354 N 
ATOM     21  C   UNL     1       3.580  -7.645  -2.283  1.00  0.00     0.074 A 
ATOM     22  C   UNL     1       2.856  -7.362  -1.072  1.00  0.00     0.031 C 
ATOM     23  C   UNL     1      -1.054  -4.522  -5.758  1.00  0.00     0.029 A 
ATOM     24  C   UNL     1      -0.576  -5.869  -6.011  1.00  0.00     0.049 A 
ATOM     25  H   UNL     1       1.175  -6.720  -5.244  1.00  0.00     0.167 HD
ATOM     26  C   UNL     1       4.259  -8.756  -2.679  1.00  0.00     0.037 A 
ATOM     27  C   UNL     1      -1.100  -6.869  -6.766  1.00  0.00     0.037 A 
ATOM     28  C   UNL     1       4.934  -8.536  -3.931  1.00  0.00     0.049 A 
ATOM     29  C   UNL     1      -0.010  -7.863  -6.975  1.00  0.00     0.074 A 
ATOM     30  C   UNL     1       5.939  -7.685  -4.349  1.00  0.00     0.029 A 
ATOM     31  N   UNL     1       4.328  -8.994  -5.075  1.00  0.00    -0.354 N 
ATOM     32  N   UNL     1       1.075  -7.609  -7.660  1.00  0.00    -0.248 NA
ATOM     33  C   UNL     1       0.103  -8.950  -6.012  1.00  0.00     0.031 C 
ATOM     34  C   UNL     1       5.563  -7.295  -5.666  1.00  0.00     0.029 A 
ATOM     35  C   UNL     1       4.396  -7.985  -6.002  1.00  0.00     0.049 A 
ATOM     36  H   UNL     1       3.920  -9.880  -5.206  1.00  0.00     0.167 HD
ATOM     37  C   UNL     1       2.102  -8.205  -6.941  1.00  0.00     0.074 A 
ATOM     38  C   UNL     1       1.433  -9.065  -5.965  1.00  0.00     0.031 C 
ATOM     39  C   UNL     1       3.384  -7.740  -7.006  1.00  0.00     0.037 A 
BRANCH  26  40
ATOM     40  C   UNL     1       4.010 -10.140  -2.130  1.00  0.00     0.058 A 
ATOM     41  C   UNL     1       4.847 -11.204  -2.527  1.00  0.00     0.135 A 
ATOM     42  C   UNL     1       2.815 -10.517  -1.476  1.00  0.00     0.135 A 
ATOM     43  F   UNL     1       6.008 -10.963  -3.156  1.00  0.00    -0.206 F 
ATOM     44  C   UNL     1       4.482 -12.541  -2.366  1.00  0.00     0.059 A 
ATOM     45  C   UNL     1       2.457 -11.842  -1.260  1.00  0.00     0.059 A 
ATOM     46  F   UNL     1       1.889  -9.627  -1.102  1.00  0.00    -0.206 F 
ATOM     47  C   UNL     1       3.274 -12.848  -1.747  1.00  0.00     0.060 A 
BRANCH  47  48
ATOM     48  S   UNL     1       2.746 -14.565  -1.639  1.00  0.00     0.124 S 
ATOM     49  O   UNL     1       2.496 -14.882  -3.041  1.00  0.00    -0.237 OA
ATOM     50  O   UNL     1       3.912 -15.202  -1.036  1.00  0.00    -0.237 OA
ATOM     51  O   UNL     1       1.563 -14.500  -0.785  1.00  0.00    -0.744 OA
ENDBRANCH  47  48
ENDBRANCH  26  40
BRANCH  27  52
ATOM     52  C   UNL     1      -2.545  -7.208  -6.909  1.00  0.00     0.058 A 
ATOM     53  C   UNL     1      -2.994  -8.120  -7.881  1.00  0.00     0.135 A 
ATOM     54  C   UNL     1      -3.484  -6.854  -5.917  1.00  0.00     0.135 A 
ATOM     55  F   UNL     1      -2.161  -8.536  -8.848  1.00  0.00    -0.206 F 
ATOM     56  C   UNL     1      -4.280  -8.676  -7.850  1.00  0.00     0.059 A 
ATOM     57  C   UNL     1      -4.771  -7.387  -5.870  1.00  0.00     0.059 A 
ATOM     58  F   UNL     1      -3.148  -6.042  -4.903  1.00  0.00    -0.206 F 
ATOM     59  C   UNL     1      -5.157  -8.316  -6.827  1.00  0.00     0.060 A 
BRANCH  59  60
ATOM     60  S   UNL     1      -6.759  -9.147  -6.683  1.00  0.00     0.124 S 
ATOM     61  O   UNL     1      -7.475  -8.627  -7.842  1.00  0.00    -0.237 OA
ATOM     62  O   UNL     1      -6.383 -10.556  -6.745  1.00  0.00    -0.237 OA
ATOM     63  O   UNL     1      -7.260  -8.697  -5.387  1.00  0.00    -0.744 OA
ENDBRANCH  59  60
ENDBRANCH  27  52
BRANCH  39  64
ATOM     64  C   UNL     1       3.738  -6.726  -8.063  1.00  0.00     0.058 A 
ATOM     65  C   UNL     1       3.264  -5.401  -8.083  1.00  0.00     0.135 A 
ATOM     66  C   UNL     1       4.766  -7.053  -8.958  1.00  0.00     0.135 A 
ATOM     67  F   UNL     1       2.349  -4.984  -7.198  1.00  0.00    -0.206 F 
ATOM     68  C   UNL     1       3.785  -4.450  -8.965  1.00  0.00     0.059 A 
ATOM     69  C   UNL     1       5.319  -6.116  -9.825  1.00  0.00     0.059 A 
ATOM     70  F   UNL     1       5.301  -8.286  -8.944  1.00  0.00    -0.206 F 
ATOM     71  C   UNL     1       4.821  -4.815  -9.826  1.00  0.00     0.060 A 
BRANCH  71  72
ATOM     72  S   UNL     1       5.578  -3.561 -10.885  1.00  0.00     0.124 S 
ATOM     73  O   UNL     1       4.532  -3.320 -11.872  1.00  0.00    -0.237 OA
ATOM     74  O   UNL     1       5.833  -2.468  -9.951  1.00  0.00    -0.237 OA
ATOM     75  O   UNL     1       6.777  -4.223 -11.395  1.00  0.00    -0.744 OA
ENDBRANCH  71  72
ENDBRANCH  39  64
ENDBRANCH  13  14
ENDBRANCH   6   8
ENDBRANCH   5   6
ENDBRANCH   4   5
ENDBRANCH   3   4
ENDBRANCH   2   3
ENDBRANCH   1   2
BRANCH   1  76
ATOM     76  C   UNL     1       3.208   0.662   3.319  1.00  0.00     0.261 C 
BRANCH  76  77
ATOM     77  O   UNL     1       3.466   2.044   3.003  1.00  0.00    -0.460 OA
BRANCH  77  78
ATOM     78  C   UNL     1       4.759   2.456   3.098  1.00  0.00     0.338 C 
ATOM     79  O   UNL     1       5.707   1.830   3.518  1.00  0.00    -0.246 OA
BRANCH  78  80
ATOM     80  C   UNL     1       4.880   3.770   2.420  1.00  0.00     0.061 A 
ATOM     81  C   UNL     1       4.000   4.792   2.760  1.00  0.00     0.019 A 
ATOM     82  C   UNL     1       5.891   3.971   1.447  1.00  0.00     0.038 A 
ATOM     83  C   UNL     1       4.166   6.006   2.128  1.00  0.00    -0.043 A 
ATOM     84  C   UNL     1       6.029   5.207   0.777  1.00  0.00     0.092 A 
ATOM     85  C   UNL     1       5.126   6.208   1.109  1.00  0.00    -0.024 A 
ATOM     86  C   UNL     1       3.410   7.268   2.421  1.00  0.00     0.036 C 
ATOM     87  C   UNL     1       4.915   7.583   0.559  1.00  0.00     0.037 C 
ATOM     88  C   UNL     1       4.378   8.282   1.813  1.00  0.00     0.010 C 
BRANCH  84  89
ATOM     89  S   UNL     1       7.191   5.333  -0.571  1.00  0.00     0.262 S 
ATOM     90  O   UNL     1       7.852   4.047  -0.681  1.00  0.00    -0.201 OA
ATOM     91  O   UNL     1       6.473   5.869  -1.708  1.00  0.00    -0.201 OA
BRANCH  89  92
ATOM     92  N   UNL     1       8.475   6.431  -0.283  1.00  0.00    -0.277 N 
ATOM     93  H   UNL     1       9.367   6.213  -0.640  1.00  0.00     0.180 HD
BRANCH  92  94
ATOM     94  C   UNL     1       8.311   7.651   0.454  1.00  0.00     0.075 A 
ATOM     95  C   UNL     1       8.102   8.848  -0.262  1.00  0.00     0.042 A 
ATOM     96  C   UNL     1       8.252   7.674   1.855  1.00  0.00     0.089 A 
ATOM     97  C   UNL     1       7.762  10.045   0.405  1.00  0.00     0.058 A 
ATOM     98  C   UNL     1       7.931   8.867   2.523  1.00  0.00     0.031 A 
ATOM     99  C   UNL     1       7.690  10.041   1.805  1.00  0.00     0.015 A 
BRANCH  96 100
ATOM    100  N   UNL     1       8.454   6.505   2.629  1.00  0.00    -0.239 N 
ATOM    101  C   UNL     1       9.234   5.409   2.336  1.00  0.00     0.115 A 
ATOM    102  N   UNL     1       7.746   6.311   3.772  1.00  0.00    -0.177 NA
ATOM    103  C   UNL     1       8.846   4.404   3.186  1.00  0.00     0.042 A 
ATOM    104  C   UNL     1       7.901   5.009   4.028  1.00  0.00     0.135 A 
ENDBRANCH  96 100
BRANCH  97 105
ATOM    105  C   UNL     1       7.410  11.290  -0.379  1.00  0.00     0.416 C 
ATOM    106  F   UNL     1       8.480  11.823  -1.027  1.00  0.00    -0.166 F 
ATOM    107  F   UNL     1       6.468  11.052  -1.334  1.00  0.00    -0.166 F 
ATOM    108  F   UNL     1       6.903  12.292   0.394  1.00  0.00    -0.166 F 
ENDBRANCH  97 105
ENDBRANCH  92  94
ENDBRANCH  89  92
ENDBRANCH  84  89
ENDBRANCH  78  80
ENDBRANCH  77  78
ENDBRANCH  76  77
ENDBRANCH   1  76
TORSDOF 22
