REMARK SMILES CC[C@@H](C)[C@@H](C(=O)OCCOCCOC(=O)c1ccc(-c2c3nc(c(-c4c(F)cc(S(=O)(=O)[O-])cc4F)c4ccc([nH]4)c(-c4c(F)cc(S(=O)(=O)[O-])cc4F)c4nc(c(-c5c(F)cc(S(=O)(=O)[O-])cc5F)c5ccc2[nH]5)C=C4)C=C3)cc1)S(=O)(=O)c1ccc(OC)cc1
REMARK SMILES IDX 11 1 10 2 9 3 8 4 6 5 7 6 5 7 3 8 4 9 2 10 1 11 83 12 84 13
REMARK SMILES IDX 85 14 86 15 87 16 93 17 88 18 92 19 89 20 90 21 91 22 12 23
REMARK SMILES IDX 13 24 14 25 15 26 16 27 17 28 18 29 82 30 19 31 81 32 20 33
REMARK SMILES IDX 21 34 22 35 75 36 23 37 80 38 74 39 76 40 24 41 79 42 73 43
REMARK SMILES IDX 72 44 25 46 59 47 38 48 58 49 39 50 42 51 57 52 77 53 40 54
REMARK SMILES IDX 41 55 56 57 78 58 43 59 26 60 27 61 36 62 28 63 29 64 35 65
REMARK SMILES IDX 37 66 30 67 31 68 32 69 33 70 34 71 60 72 61 73 70 74 62 75
REMARK SMILES IDX 63 76 69 77 71 78 64 79 65 80 66 81 67 82 68 83 44 84 45 85
REMARK SMILES IDX 54 86 46 87 47 88 53 89 55 90 48 91 49 92 50 93 51 94 52 95
REMARK H PARENT 76 45 42 56
REMARK Flexibility Score: inf
ROOT
ATOM      1  O   UNL     1       2.991  -2.759   4.953  1.00  0.00    -0.374 OA
ENDROOT
BRANCH   1   2
ATOM      2  C   UNL     1       1.671  -3.081   4.490  1.00  0.00     0.202 C 
BRANCH   2   3
ATOM      3  C   UNL     1       0.506  -2.223   5.034  1.00  0.00     0.261 C 
BRANCH   3   4
ATOM      4  O   UNL     1       0.286  -0.999   4.272  1.00  0.00    -0.462 OA
BRANCH   4   5
ATOM      5  C   UNL     1       0.624   0.191   4.849  1.00  0.00     0.325 C 
ATOM      6  O   UNL     1       1.073   0.241   5.984  1.00  0.00    -0.251 OA
BRANCH   5   7
ATOM      7  C   UNL     1       0.418   1.392   3.911  1.00  0.00     0.225 C 
BRANCH   7   8
ATOM      8  C   UNL     1       0.998   1.294   2.441  1.00  0.00     0.015 C 
ATOM      9  C   UNL     1       0.611   2.530   1.604  1.00  0.00     0.009 C 
BRANCH   8  10
ATOM     10  C   UNL     1       0.551   0.020   1.663  1.00  0.00     0.002 C 
ATOM     11  C   UNL     1       1.027  -0.074   0.211  1.00  0.00     0.004 C 
ENDBRANCH   8  10
ENDBRANCH   7   8
BRANCH   7  12
ATOM     12  S   UNL     1       0.972   2.910   4.814  1.00  0.00     0.192 S 
ATOM     13  O   UNL     1       0.536   4.070   4.052  1.00  0.00    -0.223 OA
ATOM     14  O   UNL     1       0.572   2.854   6.207  1.00  0.00    -0.223 OA
BRANCH  12  15
ATOM     15  C   UNL     1       2.768   3.000   4.820  1.00  0.00     0.068 A 
ATOM     16  C   UNL     1       3.528   1.846   4.804  1.00  0.00     0.024 A 
ATOM     17  C   UNL     1       3.432   4.229   4.876  1.00  0.00     0.024 A 
ATOM     18  C   UNL     1       4.920   1.883   4.818  1.00  0.00     0.048 A 
ATOM     19  C   UNL     1       4.844   4.273   4.915  1.00  0.00     0.048 A 
ATOM     20  C   UNL     1       5.591   3.095   4.878  1.00  0.00     0.118 A 
BRANCH  20  21
ATOM     21  O   UNL     1       6.947   2.954   4.923  1.00  0.00    -0.497 OA
ATOM     22  C   UNL     1       7.739   4.127   4.873  1.00  0.00     0.278 C 
ENDBRANCH  20  21
ENDBRANCH  12  15
ENDBRANCH   7  12
ENDBRANCH   5   7
ENDBRANCH   4   5
ENDBRANCH   3   4
ENDBRANCH   2   3
ENDBRANCH   1   2
BRANCH   1  23
ATOM     23  C   UNL     1       3.497  -1.510   4.514  1.00  0.00     0.202 C 
BRANCH  23  24
ATOM     24  C   UNL     1       4.412  -1.482   3.290  1.00  0.00     0.261 C 
BRANCH  24  25
ATOM     25  O   UNL     1       3.834  -2.228   2.226  1.00  0.00    -0.460 OA
BRANCH  25  26
ATOM     26  C   UNL     1       4.247  -3.516   2.230  1.00  0.00     0.338 C 
ATOM     27  O   UNL     1       5.157  -4.006   2.878  1.00  0.00    -0.246 OA
BRANCH  26  28
ATOM     28  C   UNL     1       3.283  -4.301   1.458  1.00  0.00     0.060 A 
ATOM     29  C   UNL     1       2.803  -5.473   2.051  1.00  0.00     0.016 A 
ATOM     30  C   UNL     1       2.879  -3.904   0.182  1.00  0.00     0.016 A 
ATOM     31  C   UNL     1       1.968  -6.310   1.328  1.00  0.00     0.010 A 
ATOM     32  C   UNL     1       2.046  -4.746  -0.544  1.00  0.00     0.010 A 
ATOM     33  C   UNL     1       1.638  -5.972   0.011  1.00  0.00    -0.014 A 
BRANCH  33  34
ATOM     34  C   UNL     1       1.065  -6.998  -0.877  1.00  0.00     0.031 A 
ATOM     35  C   UNL     1       1.999  -7.701  -1.820  1.00  0.00     0.074 A 
ATOM     36  C   UNL     1      -0.246  -7.280  -0.839  1.00  0.00     0.049 A 
ATOM     37  N   UNL     1       1.726  -8.531  -2.788  1.00  0.00    -0.248 NA
ATOM     38  C   UNL     1       3.436  -7.415  -1.656  1.00  0.00     0.031 C 
ATOM     39  C   UNL     1      -1.211  -6.685   0.084  1.00  0.00     0.029 A 
ATOM     40  N   UNL     1      -0.993  -8.124  -1.615  1.00  0.00    -0.354 N 
ATOM     41  C   UNL     1       2.951  -8.849  -3.362  1.00  0.00     0.074 A 
ATOM     42  C   UNL     1       3.966  -8.104  -2.654  1.00  0.00     0.031 C 
ATOM     43  C   UNL     1      -2.434  -7.168  -0.196  1.00  0.00     0.029 A 
ATOM     44  C   UNL     1      -2.338  -8.066  -1.345  1.00  0.00     0.049 A 
ATOM     45  H   UNL     1      -0.604  -8.716  -2.299  1.00  0.00     0.167 HD
ATOM     46  C   UNL     1       3.198  -9.694  -4.388  1.00  0.00     0.037 A 
ATOM     47  C   UNL     1      -3.370  -8.646  -1.987  1.00  0.00     0.037 A 
ATOM     48  C   UNL     1       2.166 -10.426  -5.070  1.00  0.00     0.049 A 
ATOM     49  C   UNL     1      -3.079  -9.529  -3.173  1.00  0.00     0.074 A 
ATOM     50  C   UNL     1       2.292 -11.319  -6.117  1.00  0.00     0.029 A 
ATOM     51  N   UNL     1       0.812 -10.341  -4.772  1.00  0.00    -0.354 N 
ATOM     52  N   UNL     1      -1.919  -9.831  -3.710  1.00  0.00    -0.248 NA
ATOM     53  C   UNL     1      -4.230 -10.151  -3.841  1.00  0.00     0.031 C 
ATOM     54  C   UNL     1       1.010 -11.731  -6.489  1.00  0.00     0.029 A 
ATOM     55  C   UNL     1       0.090 -11.150  -5.629  1.00  0.00     0.049 A 
ATOM     56  H   UNL     1       0.425  -9.787  -4.056  1.00  0.00     0.167 HD
ATOM     57  C   UNL     1      -2.197 -10.712  -4.749  1.00  0.00     0.074 A 
ATOM     58  C   UNL     1      -3.635 -10.887  -4.772  1.00  0.00     0.031 C 
ATOM     59  C   UNL     1      -1.342 -11.328  -5.602  1.00  0.00     0.037 A 
BRANCH  46  60
ATOM     60  C   UNL     1       4.620  -9.842  -4.851  1.00  0.00     0.058 A 
ATOM     61  C   UNL     1       5.594 -10.484  -4.069  1.00  0.00     0.135 A 
ATOM     62  C   UNL     1       5.009  -9.356  -6.110  1.00  0.00     0.135 A 
ATOM     63  F   UNL     1       5.285 -10.947  -2.847  1.00  0.00    -0.206 F 
ATOM     64  C   UNL     1       6.907 -10.619  -4.509  1.00  0.00     0.059 A 
ATOM     65  C   UNL     1       6.309  -9.508  -6.583  1.00  0.00     0.059 A 
ATOM     66  F   UNL     1       4.121  -8.725  -6.894  1.00  0.00    -0.206 F 
ATOM     67  C   UNL     1       7.254 -10.130  -5.770  1.00  0.00     0.060 A 
BRANCH  67  68
ATOM     68  S   UNL     1       8.958 -10.323  -6.331  1.00  0.00     0.124 S 
ATOM     69  O   UNL     1       9.658  -9.374  -5.471  1.00  0.00    -0.237 OA
ATOM     70  O   UNL     1       9.216 -11.734  -6.059  1.00  0.00    -0.237 OA
ATOM     71  O   UNL     1       8.896  -9.961  -7.743  1.00  0.00    -0.744 OA
ENDBRANCH  67  68
ENDBRANCH  46  60
BRANCH  47  72
ATOM     72  C   UNL     1      -4.762  -8.396  -1.529  1.00  0.00     0.058 A 
ATOM     73  C   UNL     1      -5.526  -9.417  -0.946  1.00  0.00     0.135 A 
ATOM     74  C   UNL     1      -5.351  -7.127  -1.649  1.00  0.00     0.135 A 
ATOM     75  F   UNL     1      -5.009 -10.648  -0.813  1.00  0.00    -0.206 F 
ATOM     76  C   UNL     1      -6.829  -9.195  -0.513  1.00  0.00     0.059 A 
ATOM     77  C   UNL     1      -6.642  -6.873  -1.198  1.00  0.00     0.059 A 
ATOM     78  F   UNL     1      -4.657  -6.110  -2.184  1.00  0.00    -0.206 F 
ATOM     79  C   UNL     1      -7.377  -7.917  -0.640  1.00  0.00     0.060 A 
BRANCH  79  80
ATOM     80  S   UNL     1      -9.054  -7.632  -0.036  1.00  0.00     0.124 S 
ATOM     81  O   UNL     1      -9.848  -8.361  -1.018  1.00  0.00    -0.237 OA
ATOM     82  O   UNL     1      -8.998  -8.214   1.301  1.00  0.00    -0.237 OA
ATOM     83  O   UNL     1      -9.182  -6.178  -0.074  1.00  0.00    -0.744 OA
ENDBRANCH  79  80
ENDBRANCH  47  72
BRANCH  59  84
ATOM     84  C   UNL     1      -1.914 -12.307  -6.588  1.00  0.00     0.058 A 
ATOM     85  C   UNL     1      -2.608 -11.889  -7.731  1.00  0.00     0.135 A 
ATOM     86  C   UNL     1      -1.645 -13.679  -6.443  1.00  0.00     0.135 A 
ATOM     87  F   UNL     1      -2.897 -10.590  -7.911  1.00  0.00    -0.206 F 
ATOM     88  C   UNL     1      -3.013 -12.798  -8.703  1.00  0.00     0.059 A 
ATOM     89  C   UNL     1      -2.014 -14.601  -7.415  1.00  0.00     0.059 A 
ATOM     90  F   UNL     1      -0.974 -14.126  -5.369  1.00  0.00    -0.206 F 
ATOM     91  C   UNL     1      -2.698 -14.150  -8.542  1.00  0.00     0.060 A 
BRANCH  91  92
ATOM     92  S   UNL     1      -3.145 -15.303  -9.857  1.00  0.00     0.124 S 
ATOM     93  O   UNL     1      -4.595 -15.369  -9.710  1.00  0.00    -0.237 OA
ATOM     94  O   UNL     1      -2.659 -14.616 -11.050  1.00  0.00    -0.237 OA
ATOM     95  O   UNL     1      -2.422 -16.521  -9.503  1.00  0.00    -0.744 OA
ENDBRANCH  91  92
ENDBRANCH  59  84
ENDBRANCH  33  34
ENDBRANCH  26  28
ENDBRANCH  25  26
ENDBRANCH  24  25
ENDBRANCH  23  24
ENDBRANCH   1  23
TORSDOF 22
