REMARK SMILES O=C(OCCOCCOC(=O)c1cccnc1C(=O)Nc1ccc([N+](=O)[O-])cc1)c1ccc(-c2c3nc(c(-c4c(F)cc(S(=O)(=O)[O-])cc4F)c4ccc([nH]4)c(-c4c(F)cc(S(=O)(=O)[O-])cc4F)c4nc(c(-c5c(F)cc(S(=O)(=O)[O-])cc5F)c5ccc2[nH]5)C=C4)C=C3)cc1
REMARK SMILES IDX 6 1 5 2 4 3 3 4 2 5 1 6 30 7 31 8 95 9 32 10 94 11 33 12
REMARK SMILES IDX 34 13 35 14 88 15 36 16 93 17 87 18 89 19 37 20 92 21 86 22
REMARK SMILES IDX 85 23 38 25 72 26 51 27 71 28 52 29 55 30 70 31 90 32 53 33
REMARK SMILES IDX 54 34 69 36 91 37 56 38 39 39 40 40 49 41 41 42 42 43 48 44
REMARK SMILES IDX 50 45 43 46 44 47 45 48 46 49 47 50 73 51 74 52 83 53 75 54
REMARK SMILES IDX 76 55 82 56 84 57 77 58 78 59 79 60 80 61 81 62 57 63 58 64
REMARK SMILES IDX 67 65 59 66 60 67 66 68 68 69 61 70 62 71 63 72 64 73 65 74
REMARK SMILES IDX 7 75 8 76 9 77 10 78 11 79 12 80 13 81 17 82 14 83 16 84
REMARK SMILES IDX 15 85 18 86 19 87 20 88 21 90 22 91 29 92 23 93 28 94 24 95
REMARK SMILES IDX 25 96 26 97 27 98
REMARK H PARENT 89 24 55 35 20 89
REMARK Flexibility Score: inf
ROOT
ATOM      1  O   UNL     1       3.141  -0.248  -1.086  1.00  0.00    -0.374 OA
ENDROOT
BRANCH   1   2
ATOM      2  C   UNL     1       3.753  -1.387  -0.468  1.00  0.00     0.202 C 
BRANCH   2   3
ATOM      3  C   UNL     1       3.441  -1.507   1.027  1.00  0.00     0.261 C 
BRANCH   3   4
ATOM      4  O   UNL     1       2.063  -1.202   1.304  1.00  0.00    -0.460 OA
BRANCH   4   5
ATOM      5  C   UNL     1       1.556   0.020   1.613  1.00  0.00     0.338 C 
ATOM      6  O   UNL     1       0.338   0.169   1.683  1.00  0.00    -0.246 OA
BRANCH   5   7
ATOM      7  C   UNL     1       2.432   1.171   1.967  1.00  0.00     0.060 A 
ATOM      8  C   UNL     1       3.575   1.544   1.255  1.00  0.00     0.016 A 
ATOM      9  C   UNL     1       2.041   1.956   3.059  1.00  0.00     0.016 A 
ATOM     10  C   UNL     1       4.391   2.576   1.687  1.00  0.00     0.010 A 
ATOM     11  C   UNL     1       2.829   3.033   3.471  1.00  0.00     0.010 A 
ATOM     12  C   UNL     1       4.034   3.311   2.811  1.00  0.00    -0.014 A 
BRANCH  12  13
ATOM     13  C   UNL     1       5.028   4.235   3.384  1.00  0.00     0.031 A 
ATOM     14  C   UNL     1       5.708   3.822   4.656  1.00  0.00     0.074 A 
ATOM     15  C   UNL     1       5.385   5.349   2.722  1.00  0.00     0.049 A 
ATOM     16  N   UNL     1       6.504   4.505   5.429  1.00  0.00    -0.248 NA
ATOM     17  C   UNL     1       5.448   2.447   5.121  1.00  0.00     0.031 C 
ATOM     18  C   UNL     1       4.867   5.761   1.414  1.00  0.00     0.029 A 
ATOM     19  N   UNL     1       6.283   6.328   3.048  1.00  0.00    -0.354 N 
ATOM     20  C   UNL     1       6.780   3.673   6.508  1.00  0.00     0.074 A 
ATOM     21  C   UNL     1       6.083   2.428   6.281  1.00  0.00     0.031 C 
ATOM     22  C   UNL     1       5.476   6.898   1.040  1.00  0.00     0.029 A 
ATOM     23  C   UNL     1       6.365   7.332   2.113  1.00  0.00     0.049 A 
ATOM     24  H   UNL     1       6.819   6.314   3.873  1.00  0.00     0.167 HD
ATOM     25  C   UNL     1       7.536   3.943   7.596  1.00  0.00     0.037 A 
ATOM     26  C   UNL     1       7.055   8.487   2.152  1.00  0.00     0.037 A 
ATOM     27  C   UNL     1       8.246   5.181   7.763  1.00  0.00     0.049 A 
ATOM     28  C   UNL     1       7.869   8.780   3.385  1.00  0.00     0.074 A 
ATOM     29  C   UNL     1       9.010   5.607   8.833  1.00  0.00     0.029 A 
ATOM     30  N   UNL     1       8.287   6.191   6.810  1.00  0.00    -0.354 N 
ATOM     31  N   UNL     1       8.043   8.036   4.454  1.00  0.00    -0.248 NA
ATOM     32  C   UNL     1       8.561  10.073   3.431  1.00  0.00     0.031 C 
ATOM     33  C   UNL     1       9.494   6.887   8.535  1.00  0.00     0.029 A 
ATOM     34  C   UNL     1       9.066   7.239   7.262  1.00  0.00     0.049 A 
ATOM     35  H   UNL     1       7.829   6.164   5.939  1.00  0.00     0.167 HD
ATOM     36  C   UNL     1       8.883   8.759   5.290  1.00  0.00     0.074 A 
ATOM     37  C   UNL     1       9.189   9.996   4.597  1.00  0.00     0.031 C 
ATOM     38  C   UNL     1       9.358   8.441   6.521  1.00  0.00     0.037 A 
BRANCH  25  39
ATOM     39  C   UNL     1       7.552   2.916   8.691  1.00  0.00     0.058 A 
ATOM     40  C   UNL     1       8.217   1.686   8.560  1.00  0.00     0.135 A 
ATOM     41  C   UNL     1       6.836   3.148   9.877  1.00  0.00     0.135 A 
ATOM     42  F   UNL     1       8.887   1.398   7.433  1.00  0.00    -0.206 F 
ATOM     43  C   UNL     1       8.137   0.707   9.547  1.00  0.00     0.059 A 
ATOM     44  C   UNL     1       6.764   2.194  10.888  1.00  0.00     0.059 A 
ATOM     45  F   UNL     1       6.172   4.301  10.051  1.00  0.00    -0.206 F 
ATOM     46  C   UNL     1       7.400   0.968  10.704  1.00  0.00     0.060 A 
BRANCH  46  47
ATOM     47  S   UNL     1       7.268  -0.323  11.959  1.00  0.00     0.124 S 
ATOM     48  O   UNL     1       6.310  -1.233  11.340  1.00  0.00    -0.237 OA
ATOM     49  O   UNL     1       8.639  -0.814  12.050  1.00  0.00    -0.237 OA
ATOM     50  O   UNL     1       6.784   0.395  13.134  1.00  0.00    -0.744 OA
ENDBRANCH  46  47
ENDBRANCH  25  39
BRANCH  26  51
ATOM     51  C   UNL     1       6.981   9.449   1.019  1.00  0.00     0.058 A 
ATOM     52  C   UNL     1       8.100   9.705   0.213  1.00  0.00     0.135 A 
ATOM     53  C   UNL     1       5.789  10.125   0.709  1.00  0.00     0.135 A 
ATOM     54  F   UNL     1       9.265   9.090   0.470  1.00  0.00    -0.206 F 
ATOM     55  C   UNL     1       8.046  10.603  -0.849  1.00  0.00     0.059 A 
ATOM     56  C   UNL     1       5.703  11.007  -0.364  1.00  0.00     0.059 A 
ATOM     57  F   UNL     1       4.685   9.910   1.441  1.00  0.00    -0.206 F 
ATOM     58  C   UNL     1       6.841  11.248  -1.131  1.00  0.00     0.060 A 
BRANCH  58  59
ATOM     59  S   UNL     1       6.771  12.380  -2.538  1.00  0.00     0.124 S 
ATOM     60  O   UNL     1       7.496  13.535  -2.021  1.00  0.00    -0.237 OA
ATOM     61  O   UNL     1       7.448  11.616  -3.581  1.00  0.00    -0.237 OA
ATOM     62  O   UNL     1       5.338  12.573  -2.742  1.00  0.00    -0.744 OA
ENDBRANCH  58  59
ENDBRANCH  26  51
BRANCH  38  63
ATOM     63  C   UNL     1      10.300   9.420   7.157  1.00  0.00     0.058 A 
ATOM     64  C   UNL     1       9.844  10.616   7.729  1.00  0.00     0.135 A 
ATOM     65  C   UNL     1      11.669   9.124   7.237  1.00  0.00     0.135 A 
ATOM     66  F   UNL     1       8.543  10.941   7.672  1.00  0.00    -0.206 F 
ATOM     67  C   UNL     1      10.723  11.502   8.342  1.00  0.00     0.059 A 
ATOM     68  C   UNL     1      12.561   9.983   7.866  1.00  0.00     0.059 A 
ATOM     69  F   UNL     1      12.147   7.984   6.714  1.00  0.00    -0.206 F 
ATOM     70  C   UNL     1      12.080  11.176   8.404  1.00  0.00     0.060 A 
BRANCH  70  71
ATOM     71  S   UNL     1      13.209  12.317   9.228  1.00  0.00     0.124 S 
ATOM     72  O   UNL     1      13.375  13.349   8.211  1.00  0.00    -0.237 OA
ATOM     73  O   UNL     1      12.452  12.709  10.413  1.00  0.00    -0.237 OA
ATOM     74  O   UNL     1      14.387  11.495   9.489  1.00  0.00    -0.744 OA
ENDBRANCH  70  71
ENDBRANCH  38  63
ENDBRANCH  12  13
ENDBRANCH   5   7
ENDBRANCH   4   5
ENDBRANCH   3   4
ENDBRANCH   2   3
ENDBRANCH   1   2
BRANCH   1  75
ATOM     75  C   UNL     1       1.800  -0.473  -1.534  1.00  0.00     0.202 C 
BRANCH  75  76
ATOM     76  C   UNL     1       1.815  -0.564  -3.046  1.00  0.00     0.261 C 
BRANCH  76  77
ATOM     77  O   UNL     1       2.872  -1.471  -3.388  1.00  0.00    -0.460 OA
BRANCH  77  78
ATOM     78  C   UNL     1       3.424  -1.241  -4.582  1.00  0.00     0.340 C 
ATOM     79  O   UNL     1       2.959  -0.565  -5.497  1.00  0.00    -0.246 OA
BRANCH  78  80
ATOM     80  C   UNL     1       4.572  -2.111  -4.754  1.00  0.00     0.091 A 
ATOM     81  C   UNL     1       4.323  -3.183  -5.633  1.00  0.00     0.020 A 
ATOM     82  C   UNL     1       5.808  -2.024  -4.126  1.00  0.00     0.142 A 
ATOM     83  C   UNL     1       5.280  -4.164  -5.836  1.00  0.00     0.021 A 
ATOM     84  N   UNL     1       6.768  -2.978  -4.381  1.00  0.00    -0.250 NA
ATOM     85  C   UNL     1       6.486  -4.018  -5.190  1.00  0.00     0.112 A 
BRANCH  82  86
ATOM     86  C   UNL     1       6.253  -1.181  -2.971  1.00  0.00     0.275 C 
ATOM     87  O   UNL     1       6.817  -1.798  -2.048  1.00  0.00    -0.267 OA
ATOM     88  N   UNL     1       6.176   0.167  -2.737  1.00  0.00    -0.321 N 
ATOM     89  H   UNL     1       6.715   0.407  -1.948  1.00  0.00     0.170 HD
BRANCH  88  90
ATOM     90  C   UNL     1       5.572   1.304  -3.269  1.00  0.00     0.042 A 
ATOM     91  C   UNL     1       5.503   2.412  -2.400  1.00  0.00     0.033 A 
ATOM     92  C   UNL     1       4.965   1.388  -4.508  1.00  0.00     0.033 A 
ATOM     93  C   UNL     1       4.663   3.492  -2.672  1.00  0.00     0.088 A 
ATOM     94  C   UNL     1       4.083   2.443  -4.779  1.00  0.00     0.088 A 
ATOM     95  C   UNL     1       3.897   3.461  -3.835  1.00  0.00     0.269 A 
BRANCH  95  96
ATOM     96  N   UNL     1       2.839   4.452  -4.029  1.00  0.00     0.062 N 
ATOM     97  O   UNL     1       2.931   5.522  -3.414  1.00  0.00    -0.258 OA
ATOM     98  O   UNL     1       1.892   4.136  -4.766  1.00  0.00    -0.258 OA
ENDBRANCH  95  96
ENDBRANCH  88  90
ENDBRANCH  82  86
ENDBRANCH  78  80
ENDBRANCH  77  78
ENDBRANCH  76  77
ENDBRANCH  75  76
ENDBRANCH   1  75
TORSDOF 20
