REMARK SMILES COc1cc([C@H]2CC(c3ccc(S(C)(=O)=O)cc3)=NN2c2ccc(C(=O)OCCOCCOC(=O)c3ccc(-c4c5nc(c(-c6c(F)cc(S(=O)(=O)[O-])cc6F)c6ccc([nH]6)c(-c6c(F)cc(S(=O)(=O)[O-])cc6F)c6nc(c(-c7c(F)cc(S(=O)(=O)[O-])cc7F)c7ccc4[nH]7)C=C6)C=C5)cc3)cc2)cc(OC)c1OC
REMARK SMILES IDX 30 1 29 2 28 3 27 4 25 5 26 6 24 7 21 8 22 9 103 10 23 11
REMARK SMILES IDX 102 12 20 13 6 14 7 15 8 16 19 17 5 18 3 19 4 20 108 21
REMARK SMILES IDX 105 22 104 23 2 24 1 25 109 26 110 27 106 28 107 29 9 30
REMARK SMILES IDX 10 31 18 32 11 33 17 34 12 35 13 36 14 37 15 38 16 39 31 40
REMARK SMILES IDX 32 41 33 42 34 43 35 44 36 45 37 46 101 47 38 48 100 49
REMARK SMILES IDX 39 50 40 51 41 52 94 53 42 54 99 55 93 56 95 57 43 58 98 59
REMARK SMILES IDX 92 60 91 61 44 63 78 64 57 65 77 66 58 67 61 68 76 69 96 70
REMARK SMILES IDX 59 71 60 72 75 74 97 75 62 76 45 77 46 78 55 79 47 80 48 81
REMARK SMILES IDX 54 82 56 83 49 84 50 85 51 86 52 87 53 88 79 89 80 90 89 91
REMARK SMILES IDX 81 92 82 93 88 94 90 95 83 96 84 97 85 98 86 99 87 100
REMARK SMILES IDX 63 101 64 102 73 103 65 104 66 105 72 106 74 107 67 108
REMARK SMILES IDX 68 109 69 110 70 111 71 112
REMARK H PARENT 95 62 61 73
REMARK Flexibility Score: inf
ROOT
ATOM      1  O   UNL     1       2.959   6.518   7.580  1.00  0.00    -0.374 OA
ENDROOT
BRANCH   1   2
ATOM      2  C   UNL     1       2.132   7.140   6.595  1.00  0.00     0.202 C 
BRANCH   2   3
ATOM      3  C   UNL     1       2.003   6.415   5.252  1.00  0.00     0.261 C 
BRANCH   3   4
ATOM      4  O   UNL     1       1.392   5.125   5.406  1.00  0.00    -0.460 OA
BRANCH   4   5
ATOM      5  C   UNL     1       2.241   4.077   5.289  1.00  0.00     0.338 C 
ATOM      6  O   UNL     1       3.421   4.120   4.965  1.00  0.00    -0.246 OA
BRANCH   5   7
ATOM      7  C   UNL     1       1.591   2.837   5.766  1.00  0.00     0.060 A 
ATOM      8  C   UNL     1       0.524   0.363   6.551  1.00  0.00     0.060 A 
ATOM      9  C   UNL     1       1.865   0.672   6.810  1.00  0.00     0.029 A 
ATOM     10  C   UNL     1      -0.296   1.349   5.982  1.00  0.00     0.029 A 
ATOM     11  C   UNL     1       2.403   1.889   6.397  1.00  0.00     0.018 A 
ATOM     12  C   UNL     1       0.226   2.589   5.600  1.00  0.00     0.018 A 
BRANCH   8  13
ATOM     13  N   UNL     1       0.049  -0.931   6.750  1.00  0.00    -0.257 N 
ATOM     14  C   UNL     1      -0.377  -1.775   5.621  1.00  0.00     0.144 C 
ATOM     15  C   UNL     1      -0.450  -3.170   6.269  1.00  0.00     0.091 C 
ATOM     16  C   UNL     1       0.053  -2.858   7.654  1.00  0.00     0.071 C 
ATOM     17  N   UNL     1       0.352  -1.618   7.884  1.00  0.00    -0.176 NA
BRANCH  14  18
ATOM     18  C   UNL     1       0.565  -1.666   4.420  1.00  0.00    -0.015 A 
ATOM     19  C   UNL     1       1.129  -0.646   2.258  1.00  0.00     0.164 A 
ATOM     20  C   UNL     1       0.224  -0.865   3.316  1.00  0.00     0.056 A 
ATOM     21  C   UNL     1       2.408  -1.229   2.266  1.00  0.00     0.203 A 
ATOM     22  C   UNL     1       2.757  -2.030   3.375  1.00  0.00     0.164 A 
ATOM     23  C   UNL     1       1.843  -2.237   4.425  1.00  0.00     0.056 A 
BRANCH  19  24
ATOM     24  O   UNL     1       0.766   0.287   1.320  1.00  0.00    -0.493 OA
ATOM     25  C   UNL     1      -0.094  -0.243   0.314  1.00  0.00     0.278 C 
ENDBRANCH  19  24
BRANCH  21  26
ATOM     26  O   UNL     1       3.365  -1.101   1.298  1.00  0.00    -0.490 OA
ATOM     27  C   UNL     1       3.141  -0.338   0.126  1.00  0.00     0.278 C 
ENDBRANCH  21  26
BRANCH  22  28
ATOM     28  O   UNL     1       3.943  -2.692   3.598  1.00  0.00    -0.493 OA
ATOM     29  C   UNL     1       5.101  -2.246   2.905  1.00  0.00     0.278 C 
ENDBRANCH  22  28
ENDBRANCH  14  18
BRANCH  16  30
ATOM     30  C   UNL     1       0.123  -3.895   8.698  1.00  0.00    -0.002 A 
ATOM     31  C   UNL     1      -0.535  -3.659   9.912  1.00  0.00     0.011 A 
ATOM     32  C   UNL     1       0.816  -5.089   8.488  1.00  0.00     0.011 A 
ATOM     33  C   UNL     1      -0.526  -4.633  10.914  1.00  0.00     0.021 A 
ATOM     34  C   UNL     1       0.850  -6.055   9.501  1.00  0.00     0.021 A 
ATOM     35  C   UNL     1       0.176  -5.824  10.707  1.00  0.00     0.067 A 
BRANCH  35  36
ATOM     36  S   UNL     1       0.164  -7.073  11.974  1.00  0.00     0.175 S 
ATOM     37  C   UNL     1       0.907  -6.296  13.384  1.00  0.00     0.163 C 
ATOM     38  O   UNL     1      -1.227  -7.343  12.283  1.00  0.00    -0.224 OA
ATOM     39  O   UNL     1       1.052  -8.139  11.550  1.00  0.00    -0.224 OA
ENDBRANCH  35  36
ENDBRANCH  16  30
ENDBRANCH   8  13
ENDBRANCH   5   7
ENDBRANCH   4   5
ENDBRANCH   3   4
ENDBRANCH   2   3
ENDBRANCH   1   2
BRANCH   1  40
ATOM     40  C   UNL     1       2.368   5.470   8.351  1.00  0.00     0.202 C 
BRANCH  40  41
ATOM     41  C   UNL     1       1.458   5.899   9.509  1.00  0.00     0.261 C 
BRANCH  41  42
ATOM     42  O   UNL     1       0.256   6.539   9.047  1.00  0.00    -0.460 OA
BRANCH  42  43
ATOM     43  C   UNL     1       0.204   7.875   9.258  1.00  0.00     0.338 C 
ATOM     44  O   UNL     1       1.021   8.560   9.862  1.00  0.00    -0.246 OA
BRANCH  43  45
ATOM     45  C   UNL     1      -0.908   8.460   8.488  1.00  0.00     0.060 A 
ATOM     46  C   UNL     1      -0.618   9.546   7.651  1.00  0.00     0.016 A 
ATOM     47  C   UNL     1      -2.219   7.994   8.615  1.00  0.00     0.016 A 
ATOM     48  C   UNL     1      -1.645  10.197   6.970  1.00  0.00     0.010 A 
ATOM     49  C   UNL     1      -3.248   8.653   7.936  1.00  0.00     0.010 A 
ATOM     50  C   UNL     1      -2.971   9.776   7.135  1.00  0.00    -0.014 A 
BRANCH  50  51
ATOM     51  C   UNL     1      -4.077  10.583   6.565  1.00  0.00     0.031 A 
ATOM     52  C   UNL     1      -4.857  11.500   7.465  1.00  0.00     0.074 A 
ATOM     53  C   UNL     1      -4.371  10.511   5.254  1.00  0.00     0.049 A 
ATOM     54  N   UNL     1      -5.876  12.271   7.184  1.00  0.00    -0.248 NA
ATOM     55  C   UNL     1      -4.433  11.552   8.873  1.00  0.00     0.031 C 
ATOM     56  C   UNL     1      -3.663   9.687   4.276  1.00  0.00     0.029 A 
ATOM     57  N   UNL     1      -5.348  11.138   4.523  1.00  0.00    -0.354 N 
ATOM     58  C   UNL     1      -6.224  12.890   8.379  1.00  0.00     0.074 A 
ATOM     59  C   UNL     1      -5.325  12.382   9.394  1.00  0.00     0.031 C 
ATOM     60  C   UNL     1      -4.231   9.858   3.070  1.00  0.00     0.029 A 
ATOM     61  C   UNL     1      -5.363  10.775   3.198  1.00  0.00     0.049 A 
ATOM     62  H   UNL     1      -5.979  11.787   4.912  1.00  0.00     0.167 HD
ATOM     63  C   UNL     1      -7.199  13.803   8.607  1.00  0.00     0.037 A 
ATOM     64  C   UNL     1      -6.204  11.128   2.207  1.00  0.00     0.037 A 
ATOM     65  C   UNL     1      -8.090  14.302   7.590  1.00  0.00     0.049 A 
ATOM     66  C   UNL     1      -7.326  12.089   2.497  1.00  0.00     0.074 A 
ATOM     67  C   UNL     1      -9.086  15.254   7.711  1.00  0.00     0.029 A 
ATOM     68  N   UNL     1      -8.103  13.876   6.269  1.00  0.00    -0.354 N 
ATOM     69  N   UNL     1      -7.624  12.694   3.623  1.00  0.00    -0.248 NA
ATOM     70  C   UNL     1      -8.228  12.415   1.383  1.00  0.00     0.031 C 
ATOM     71  C   UNL     1      -9.740  15.361   6.479  1.00  0.00     0.029 A 
ATOM     72  C   UNL     1      -9.115  14.519   5.573  1.00  0.00     0.049 A 
ATOM     73  H   UNL     1      -7.485  13.215   5.883  1.00  0.00     0.167 HD
ATOM     74  C   UNL     1      -8.731  13.491   3.347  1.00  0.00     0.074 A 
ATOM     75  C   UNL     1      -9.044  13.296   1.946  1.00  0.00     0.031 C 
ATOM     76  C   UNL     1      -9.422  14.312   4.178  1.00  0.00     0.037 A 
BRANCH  63  77
ATOM     77  C   UNL     1      -7.376  14.287  10.021  1.00  0.00     0.058 A 
ATOM     78  C   UNL     1      -6.431  15.114  10.649  1.00  0.00     0.135 A 
ATOM     79  C   UNL     1      -8.513  13.918  10.758  1.00  0.00     0.135 A 
ATOM     80  F   UNL     1      -5.318  15.487   9.996  1.00  0.00    -0.206 F 
ATOM     81  C   UNL     1      -6.584  15.522  11.971  1.00  0.00     0.059 A 
ATOM     82  C   UNL     1      -8.702  14.339  12.072  1.00  0.00     0.059 A 
ATOM     83  F   UNL     1      -9.450  13.131  10.208  1.00  0.00    -0.206 F 
ATOM     84  C   UNL     1      -7.721  15.123  12.676  1.00  0.00     0.060 A 
BRANCH  84  85
ATOM     85  S   UNL     1      -7.893  15.634  14.399  1.00  0.00     0.124 S 
ATOM     86  O   UNL     1      -6.907  14.781  15.055  1.00  0.00    -0.237 OA
ATOM     87  O   UNL     1      -7.562  17.054  14.339  1.00  0.00    -0.237 OA
ATOM     88  O   UNL     1      -9.287  15.331  14.706  1.00  0.00    -0.744 OA
ENDBRANCH  84  85
ENDBRANCH  63  77
BRANCH  64  89
ATOM     89  C   UNL     1      -6.009  10.568   0.843  1.00  0.00     0.058 A 
ATOM     90  C   UNL     1      -5.551  11.375  -0.209  1.00  0.00     0.135 A 
ATOM     91  C   UNL     1      -6.241   9.210   0.573  1.00  0.00     0.135 A 
ATOM     92  F   UNL     1      -5.329  12.682  -0.003  1.00  0.00    -0.206 F 
ATOM     93  C   UNL     1      -5.327  10.856  -1.480  1.00  0.00     0.059 A 
ATOM     94  C   UNL     1      -6.002   8.663  -0.683  1.00  0.00     0.059 A 
ATOM     95  F   UNL     1      -6.673   8.395   1.548  1.00  0.00    -0.206 F 
ATOM     96  C   UNL     1      -5.545   9.495  -1.705  1.00  0.00     0.060 A 
BRANCH  96  97
ATOM     97  S   UNL     1      -5.170   8.817  -3.336  1.00  0.00     0.124 S 
ATOM     98  O   UNL     1      -6.250   9.371  -4.142  1.00  0.00    -0.237 OA
ATOM     99  O   UNL     1      -3.838   9.357  -3.591  1.00  0.00    -0.237 OA
ATOM    100  O   UNL     1      -5.220   7.374  -3.118  1.00  0.00    -0.744 OA
ENDBRANCH  96  97
ENDBRANCH  64  89
BRANCH  76 101
ATOM    101  C   UNL     1     -10.575  15.083   3.593  1.00  0.00     0.058 A 
ATOM    102  C   UNL     1     -11.783  14.457   3.247  1.00  0.00     0.135 A 
ATOM    103  C   UNL     1     -10.489  16.475   3.427  1.00  0.00     0.135 A 
ATOM    104  F   UNL     1     -11.916  13.127   3.377  1.00  0.00    -0.206 F 
ATOM    105  C   UNL     1     -12.857  15.180   2.736  1.00  0.00     0.059 A 
ATOM    106  C   UNL     1     -11.560  17.222   2.946  1.00  0.00     0.059 A 
ATOM    107  F   UNL     1      -9.361  17.127   3.752  1.00  0.00    -0.206 F 
ATOM    108  C   UNL     1     -12.737  16.564   2.592  1.00  0.00     0.060 A 
BRANCH 108 109
ATOM    109  S   UNL     1     -14.150  17.494   1.961  1.00  0.00     0.124 S 
ATOM    110  O   UNL     1     -14.138  17.126   0.549  1.00  0.00    -0.237 OA
ATOM    111  O   UNL     1     -15.255  16.955   2.748  1.00  0.00    -0.237 OA
ATOM    112  O   UNL     1     -13.800  18.881   2.251  1.00  0.00    -0.744 OA
ENDBRANCH 108 109
ENDBRANCH  76 101
ENDBRANCH  50  51
ENDBRANCH  43  45
ENDBRANCH  42  43
ENDBRANCH  41  42
ENDBRANCH  40  41
ENDBRANCH   1  40
TORSDOF 24
