REMARK SMILES O=C(COc1ccc(/C=N/NC(=O)c2cc3cc([N+](=O)[O-])ccc3o2)cc1)OCCOCCOC(=O)c1ccc(-c2c3nc(c(-c4c(F)cc(S(=O)(=O)[O-])cc4F)c4ccc([nH]4)c(-c4c(F)cc(S(=O)(=O)[O-])cc4F)c4nc(c(-c5c(F)cc(S(=O)(=O)[O-])cc5F)c5ccc2[nH]5)C=C4)C=C3)cc1
REMARK SMILES IDX 29 1 28 2 2 3 1 4 3 5 4 6 5 7 6 8 27 9 7 10 26 11 8 12 9 13
REMARK SMILES IDX 10 14 11 15 12 16 13 18 14 19 15 20 25 21 16 22 24 23 17 24
REMARK SMILES IDX 23 25 18 26 22 27 19 28 20 29 21 30 30 31 31 32 32 33 33 34
REMARK SMILES IDX 34 35 35 36 36 37 37 38 38 39 102 40 39 41 101 42 40 43
REMARK SMILES IDX 41 44 42 45 95 46 43 47 100 48 94 49 96 50 44 51 99 52 93 53
REMARK SMILES IDX 92 54 45 56 79 57 58 58 78 59 59 60 62 61 77 62 97 63 60 64
REMARK SMILES IDX 61 65 76 67 98 68 63 69 46 70 47 71 56 72 48 73 49 74 55 75
REMARK SMILES IDX 57 76 50 77 51 78 52 79 53 80 54 81 80 82 81 83 90 84 82 85
REMARK SMILES IDX 83 86 89 87 91 88 84 89 85 90 86 91 87 92 88 93 64 94 65 95
REMARK SMILES IDX 74 96 66 97 67 98 73 99 75 100 68 101 69 102 70 103 71 104
REMARK SMILES IDX 72 105
REMARK H PARENT 11 17 96 55 62 66
REMARK Flexibility Score: inf
ROOT
ATOM      1  C   UNL     1       4.187  -0.192   0.626  1.00  0.00     0.261 C 
ENDROOT
BRANCH   1   2
ATOM      2  O   UNL     1       2.756  -0.278   0.750  1.00  0.00    -0.461 OA
BRANCH   2   3
ATOM      3  C   UNL     1       1.880   0.506   0.080  1.00  0.00     0.344 C 
ATOM      4  O   UNL     1       0.678   0.234   0.097  1.00  0.00    -0.248 OA
BRANCH   3   5
ATOM      5  C   UNL     1       2.386   1.718  -0.693  1.00  0.00     0.351 C 
BRANCH   5   6
ATOM      6  O   UNL     1       3.397   2.551  -0.164  1.00  0.00    -0.482 OA
BRANCH   6   7
ATOM      7  C   UNL     1       3.057   3.309   0.917  1.00  0.00     0.120 A 
ATOM      8  C   UNL     1       3.692   4.548   0.975  1.00  0.00     0.047 A 
ATOM      9  C   UNL     1       2.205   2.912   1.951  1.00  0.00     0.047 A 
ATOM     10  C   UNL     1       3.423   5.417   2.027  1.00  0.00     0.013 A 
ATOM     11  C   UNL     1       1.948   3.767   3.019  1.00  0.00     0.013 A 
ATOM     12  C   UNL     1       2.542   5.024   3.038  1.00  0.00    -0.005 A 
BRANCH  12  13
ATOM     13  C   UNL     1       2.288   5.905   4.184  1.00  0.00     0.141 C 
ATOM     14  N   UNL     1       2.511   7.170   4.082  1.00  0.00    -0.180 NA
BRANCH  14  15
ATOM     15  N   UNL     1       2.433   7.949   5.183  1.00  0.00    -0.240 N 
ATOM     16  C   UNL     1       1.717   7.860   6.352  1.00  0.00     0.307 C 
ATOM     17  H   UNL     1       3.009   8.746   5.139  1.00  0.00     0.194 HD
ATOM     18  O   UNL     1       2.141   8.506   7.316  1.00  0.00    -0.264 OA
BRANCH  16  19
ATOM     19  C   UNL     1       0.452   7.160   6.444  1.00  0.00     0.194 A 
ATOM     20  C   UNL     1       0.149   5.994   7.137  1.00  0.00     0.065 A 
ATOM     21  O   UNL     1      -0.663   7.964   6.419  1.00  0.00    -0.451 OA
ATOM     22  C   UNL     1      -1.007   6.313   7.911  1.00  0.00     0.028 A 
ATOM     23  C   UNL     1      -1.469   7.527   7.421  1.00  0.00     0.135 A 
ATOM     24  C   UNL     1      -1.596   5.779   9.071  1.00  0.00     0.097 A 
ATOM     25  C   UNL     1      -2.508   8.266   7.981  1.00  0.00     0.055 A 
ATOM     26  C   UNL     1      -2.541   6.581   9.741  1.00  0.00     0.270 A 
ATOM     27  C   UNL     1      -3.006   7.792   9.199  1.00  0.00     0.089 A 
BRANCH  26  28
ATOM     28  N   UNL     1      -2.958   6.201  11.097  1.00  0.00     0.062 N 
ATOM     29  O   UNL     1      -2.744   5.037  11.460  1.00  0.00    -0.258 OA
ATOM     30  O   UNL     1      -3.484   7.075  11.802  1.00  0.00    -0.258 OA
ENDBRANCH  26  28
ENDBRANCH  16  19
ENDBRANCH  14  15
ENDBRANCH  12  13
ENDBRANCH   6   7
ENDBRANCH   5   6
ENDBRANCH   3   5
ENDBRANCH   2   3
ENDBRANCH   1   2
BRANCH   1  31
ATOM     31  C   UNL     1       4.725  -1.081  -0.491  1.00  0.00     0.202 C 
BRANCH  31  32
ATOM     32  O   UNL     1       4.195  -0.822  -1.790  1.00  0.00    -0.374 OA
BRANCH  32  33
ATOM     33  C   UNL     1       2.992  -1.516  -2.143  1.00  0.00     0.202 C 
BRANCH  33  34
ATOM     34  C   UNL     1       3.127  -2.986  -2.549  1.00  0.00     0.261 C 
BRANCH  34  35
ATOM     35  O   UNL     1       3.491  -3.809  -1.429  1.00  0.00    -0.460 OA
BRANCH  35  36
ATOM     36  C   UNL     1       4.779  -4.231  -1.443  1.00  0.00     0.338 C 
ATOM     37  O   UNL     1       5.589  -4.068  -2.338  1.00  0.00    -0.246 OA
BRANCH  36  38
ATOM     38  C   UNL     1       5.156  -4.760  -0.115  1.00  0.00     0.060 A 
ATOM     39  C   UNL     1       6.434  -4.429   0.353  1.00  0.00     0.016 A 
ATOM     40  C   UNL     1       4.320  -5.593   0.635  1.00  0.00     0.016 A 
ATOM     41  C   UNL     1       6.917  -5.005   1.521  1.00  0.00     0.010 A 
ATOM     42  C   UNL     1       4.808  -6.175   1.810  1.00  0.00     0.010 A 
ATOM     43  C   UNL     1       6.128  -5.925   2.223  1.00  0.00    -0.014 A 
BRANCH  43  44
ATOM     44  C   UNL     1       6.781  -6.754   3.262  1.00  0.00     0.031 A 
ATOM     45  C   UNL     1       7.274  -8.125   2.882  1.00  0.00     0.074 A 
ATOM     46  C   UNL     1       7.022  -6.252   4.485  1.00  0.00     0.049 A 
ATOM     47  N   UNL     1       7.951  -8.989   3.591  1.00  0.00    -0.248 NA
ATOM     48  C   UNL     1       6.965  -8.581   1.515  1.00  0.00     0.031 C 
ATOM     49  C   UNL     1       6.609  -4.928   4.950  1.00  0.00     0.029 A 
ATOM     50  N   UNL     1       7.683  -6.795   5.556  1.00  0.00    -0.354 N 
ATOM     51  C   UNL     1       8.164 -10.080   2.755  1.00  0.00     0.074 A 
ATOM     52  C   UNL     1       7.504  -9.791   1.502  1.00  0.00     0.031 C 
ATOM     53  C   UNL     1       7.024  -4.763   6.218  1.00  0.00     0.029 A 
ATOM     54  C   UNL     1       7.721  -5.971   6.655  1.00  0.00     0.049 A 
ATOM     55  H   UNL     1       8.091  -7.690   5.540  1.00  0.00     0.167 HD
ATOM     56  C   UNL     1       8.863 -11.212   3.004  1.00  0.00     0.037 A 
ATOM     57  C   UNL     1       8.256  -6.175   7.874  1.00  0.00     0.037 A 
ATOM     58  C   UNL     1       9.508 -11.497   4.259  1.00  0.00     0.049 A 
ATOM     59  C   UNL     1       8.998  -7.458   8.140  1.00  0.00     0.074 A 
ATOM     60  C   UNL     1      10.231 -12.618   4.624  1.00  0.00     0.029 A 
ATOM     61  N   UNL     1       9.507 -10.647   5.356  1.00  0.00    -0.354 N 
ATOM     62  N   UNL     1       9.203  -8.475   7.335  1.00  0.00    -0.248 NA
ATOM     63  C   UNL     1       9.597  -7.615   9.472  1.00  0.00     0.031 C 
ATOM     64  C   UNL     1      10.637 -12.462   5.955  1.00  0.00     0.029 A 
ATOM     65  C   UNL     1      10.205 -11.224   6.403  1.00  0.00     0.049 A 
ATOM     66  H   UNL     1       9.072  -9.764   5.386  1.00  0.00     0.167 HD
ATOM     67  C   UNL     1       9.963  -9.387   8.059  1.00  0.00     0.074 A 
ATOM     68  C   UNL     1      10.204  -8.787   9.356  1.00  0.00     0.031 C 
ATOM     69  C   UNL     1      10.420 -10.610   7.689  1.00  0.00     0.037 A 
BRANCH  56  70
ATOM     70  C   UNL     1       8.957 -12.226   1.898  1.00  0.00     0.058 A 
ATOM     71  C   UNL     1       9.756 -12.004   0.765  1.00  0.00     0.135 A 
ATOM     72  C   UNL     1       8.261 -13.442   1.979  1.00  0.00     0.135 A 
ATOM     73  F   UNL     1      10.425 -10.848   0.625  1.00  0.00    -0.206 F 
ATOM     74  C   UNL     1       9.847 -12.943  -0.258  1.00  0.00     0.059 A 
ATOM     75  C   UNL     1       8.355 -14.406   0.979  1.00  0.00     0.059 A 
ATOM     76  F   UNL     1       7.476 -13.702   3.037  1.00  0.00    -0.206 F 
ATOM     77  C   UNL     1       9.142 -14.142  -0.141  1.00  0.00     0.060 A 
BRANCH  77  78
ATOM     78  S   UNL     1       9.278 -15.357  -1.471  1.00  0.00     0.124 S 
ATOM     79  O   UNL     1       8.474 -14.733  -2.518  1.00  0.00    -0.237 OA
ATOM     80  O   UNL     1      10.716 -15.394  -1.714  1.00  0.00    -0.237 OA
ATOM     81  O   UNL     1       8.713 -16.568  -0.884  1.00  0.00    -0.744 OA
ENDBRANCH  77  78
ENDBRANCH  56  70
BRANCH  57  82
ATOM     82  C   UNL     1       8.102  -5.144   8.933  1.00  0.00     0.058 A 
ATOM     83  C   UNL     1       9.193  -4.387   9.385  1.00  0.00     0.135 A 
ATOM     84  C   UNL     1       6.848  -4.893   9.512  1.00  0.00     0.135 A 
ATOM     85  F   UNL     1      10.413  -4.595   8.867  1.00  0.00    -0.206 F 
ATOM     86  C   UNL     1       9.050  -3.429  10.384  1.00  0.00     0.059 A 
ATOM     87  C   UNL     1       6.675  -3.924  10.494  1.00  0.00     0.059 A 
ATOM     88  F   UNL     1       5.769  -5.580   9.104  1.00  0.00    -0.206 F 
ATOM     89  C   UNL     1       7.786  -3.203  10.931  1.00  0.00     0.060 A 
BRANCH  89  90
ATOM     90  S   UNL     1       7.596  -1.919  12.187  1.00  0.00     0.124 S 
ATOM     91  O   UNL     1       8.150  -2.577  13.365  1.00  0.00    -0.237 OA
ATOM     92  O   UNL     1       8.387  -0.826  11.632  1.00  0.00    -0.237 OA
ATOM     93  O   UNL     1       6.154  -1.688  12.211  1.00  0.00    -0.744 OA
ENDBRANCH  89  90
ENDBRANCH  57  82
BRANCH  69  94
ATOM     94  C   UNL     1      11.231 -11.367   8.703  1.00  0.00     0.058 A 
ATOM     95  C   UNL     1      10.636 -11.943   9.837  1.00  0.00     0.135 A 
ATOM     96  C   UNL     1      12.615 -11.527   8.534  1.00  0.00     0.135 A 
ATOM     97  F   UNL     1       9.316 -11.817  10.045  1.00  0.00    -0.206 F 
ATOM     98  C   UNL     1      11.393 -12.614  10.791  1.00  0.00     0.059 A 
ATOM     99  C   UNL     1      13.387 -12.217   9.462  1.00  0.00     0.059 A 
ATOM    100  F   UNL     1      13.230 -11.009   7.459  1.00  0.00    -0.206 F 
ATOM    101  C   UNL     1      12.770 -12.739  10.599  1.00  0.00     0.060 A 
BRANCH 101 102
ATOM    102  S   UNL     1      13.746 -13.601  11.848  1.00  0.00     0.124 S 
ATOM    103  O   UNL     1      13.845 -12.587  12.893  1.00  0.00    -0.237 OA
ATOM    104  O   UNL     1      12.909 -14.755  12.162  1.00  0.00    -0.237 OA
ATOM    105  O   UNL     1      14.991 -13.910  11.151  1.00  0.00    -0.744 OA
ENDBRANCH 101 102
ENDBRANCH  69  94
ENDBRANCH  43  44
ENDBRANCH  36  38
ENDBRANCH  35  36
ENDBRANCH  34  35
ENDBRANCH  33  34
ENDBRANCH  32  33
ENDBRANCH  31  32
ENDBRANCH   1  31
TORSDOF 23
