REMARK SMILES CCCCCCNC(=O)Oc1cccc(-c2ccc([C@@H](C)C(=O)OCCOCCOC(=O)c3ccc(-c4c5nc(c(-c6c(F)cc(S(=O)(=O)[O-])cc6F)c6ccc([nH]6)c(-c6c(F)cc(S(=O)(=O)[O-])cc6F)c6nc(c(-c7c(F)cc(S(=O)(=O)[O-])cc7F)c7ccc4[nH]7)C=C6)C=C5)cc3)cc2C(F)(F)F)c1
REMARK SMILES IDX 24 1 22 2 23 3 20 4 21 5 19 6 16 7 17 8 100 9 18 10 99 11
REMARK SMILES IDX 15 12 11 13 12 14 105 15 13 16 14 17 10 18 8 19 7 20 9 22
REMARK SMILES IDX 6 23 5 24 4 25 3 26 2 27 1 28 101 29 102 30 103 31 104 32
REMARK SMILES IDX 25 33 26 34 27 35 28 36 29 37 30 38 31 39 32 40 33 41 34 42
REMARK SMILES IDX 98 43 35 44 97 45 36 46 37 47 38 48 91 49 39 50 96 51 90 52
REMARK SMILES IDX 92 53 40 54 95 55 89 56 88 57 41 59 75 60 54 61 74 62 55 63
REMARK SMILES IDX 58 64 73 65 93 66 56 67 57 68 72 70 94 71 59 72 42 73 43 74
REMARK SMILES IDX 52 75 44 76 45 77 51 78 53 79 46 80 47 81 48 82 49 83 50 84
REMARK SMILES IDX 76 85 77 86 86 87 78 88 79 89 85 90 87 91 80 92 81 93 82 94
REMARK SMILES IDX 83 95 84 96 60 97 61 98 70 99 62 100 63 101 69 102 71 103
REMARK SMILES IDX 64 104 65 105 66 106 67 107 68 108
REMARK H PARENT 7 21 92 58 58 69
REMARK Flexibility Score: inf
ROOT
ATOM      1  O   UNL     1      -3.343  14.790   1.921  1.00  0.00    -0.463 OA
ENDROOT
BRANCH   1   2
ATOM      2  C   UNL     1      -3.927  14.864   0.698  1.00  0.00     0.313 C 
ATOM      3  O   UNL     1      -3.603  15.657  -0.181  1.00  0.00    -0.252 OA
BRANCH   2   4
ATOM      4  C   UNL     1      -5.070  13.881   0.500  1.00  0.00     0.126 C 
ATOM      5  C   UNL     1      -6.396  14.584   0.772  1.00  0.00     0.025 C 
BRANCH   4   6
ATOM      6  C   UNL     1      -4.987  12.524   1.194  1.00  0.00    -0.033 A 
ATOM      7  C   UNL     1      -5.018   9.919   2.379  1.00  0.00    -0.006 A 
ATOM      8  C   UNL     1      -5.038  11.092   3.160  1.00  0.00     0.009 A 
ATOM      9  C   UNL     1      -4.977  10.061   0.976  1.00  0.00     0.064 A 
ATOM     10  C   UNL     1      -5.031  12.370   2.581  1.00  0.00     0.005 A 
ATOM     11  C   UNL     1      -4.939  11.358   0.411  1.00  0.00     0.018 A 
BRANCH   7  12
ATOM     12  C   UNL     1      -5.097   8.605   3.046  1.00  0.00    -0.014 A 
ATOM     13  C   UNL     1      -4.231   6.374   3.462  1.00  0.00     0.133 A 
ATOM     14  C   UNL     1      -5.378   6.032   4.174  1.00  0.00     0.047 A 
ATOM     15  C   UNL     1      -4.078   7.648   2.907  1.00  0.00     0.056 A 
ATOM     16  C   UNL     1      -6.380   6.982   4.351  1.00  0.00     0.004 A 
ATOM     17  C   UNL     1      -6.240   8.255   3.789  1.00  0.00     0.009 A 
BRANCH  13  18
ATOM     18  O   UNL     1      -3.321   5.332   3.203  1.00  0.00    -0.410 OA
BRANCH  18  19
ATOM     19  C   UNL     1      -1.962   5.557   3.345  1.00  0.00     0.412 C 
ATOM     20  N   UNL     1      -1.194   4.496   2.957  1.00  0.00    -0.321 N 
ATOM     21  H   UNL     1      -0.221   4.597   3.064  1.00  0.00     0.167 HD
ATOM     22  O   UNL     1      -1.445   6.587   3.772  1.00  0.00    -0.224 OA
BRANCH  20  23
ATOM     23  C   UNL     1      -1.655   3.237   2.404  1.00  0.00     0.119 C 
BRANCH  23  24
ATOM     24  C   UNL     1      -1.075   2.974   1.013  1.00  0.00     0.021 C 
BRANCH  24  25
ATOM     25  C   UNL     1       0.453   2.840   0.962  1.00  0.00     0.002 C 
BRANCH  25  26
ATOM     26  C   UNL     1       1.046   1.708   1.809  1.00  0.00    -0.000 C 
BRANCH  26  27
ATOM     27  C   UNL     1       0.573   0.299   1.445  1.00  0.00    -0.003 C 
ATOM     28  C   UNL     1       0.967  -0.125   0.038  1.00  0.00     0.004 C 
ENDBRANCH  26  27
ENDBRANCH  25  26
ENDBRANCH  24  25
ENDBRANCH  23  24
ENDBRANCH  20  23
ENDBRANCH  18  19
ENDBRANCH  13  18
ENDBRANCH   7  12
BRANCH   9  29
ATOM     29  C   UNL     1      -4.965   8.885   0.021  1.00  0.00     0.417 C 
ATOM     30  F   UNL     1      -5.533   9.191  -1.185  1.00  0.00    -0.166 F 
ATOM     31  F   UNL     1      -3.697   8.478  -0.275  1.00  0.00    -0.166 F 
ATOM     32  F   UNL     1      -5.633   7.778   0.443  1.00  0.00    -0.166 F 
ENDBRANCH   9  29
ENDBRANCH   4   6
ENDBRANCH   2   4
ENDBRANCH   1   2
BRANCH   1  33
ATOM     33  C   UNL     1      -2.182  15.618   2.116  1.00  0.00     0.261 C 
BRANCH  33  34
ATOM     34  C   UNL     1      -0.920  14.775   2.319  1.00  0.00     0.202 C 
BRANCH  34  35
ATOM     35  O   UNL     1      -0.490  13.994   1.204  1.00  0.00    -0.374 OA
BRANCH  35  36
ATOM     36  C   UNL     1      -1.212  12.796   0.918  1.00  0.00     0.202 C 
BRANCH  36  37
ATOM     37  C   UNL     1      -0.966  11.589   1.833  1.00  0.00     0.261 C 
BRANCH  37  38
ATOM     38  O   UNL     1      -1.393  11.818   3.186  1.00  0.00    -0.460 OA
BRANCH  38  39
ATOM     39  C   UNL     1      -0.380  11.931   4.081  1.00  0.00     0.338 C 
ATOM     40  O   UNL     1       0.814  11.816   3.856  1.00  0.00    -0.246 OA
BRANCH  39  41
ATOM     41  C   UNL     1      -0.892  12.422   5.375  1.00  0.00     0.060 A 
ATOM     42  C   UNL     1      -0.234  13.521   5.943  1.00  0.00     0.016 A 
ATOM     43  C   UNL     1      -1.925  11.782   6.064  1.00  0.00     0.016 A 
ATOM     44  C   UNL     1      -0.560  13.943   7.229  1.00  0.00     0.010 A 
ATOM     45  C   UNL     1      -2.250  12.207   7.359  1.00  0.00     0.010 A 
ATOM     46  C   UNL     1      -1.539  13.261   7.963  1.00  0.00    -0.014 A 
BRANCH  46  47
ATOM     47  C   UNL     1      -1.688  13.560   9.411  1.00  0.00     0.031 A 
ATOM     48  C   UNL     1      -1.052  12.636  10.416  1.00  0.00     0.074 A 
ATOM     49  C   UNL     1      -2.319  14.675   9.823  1.00  0.00     0.049 A 
ATOM     50  N   UNL     1      -1.034  12.717  11.722  1.00  0.00    -0.248 NA
ATOM     51  C   UNL     1      -0.339  11.467   9.877  1.00  0.00     0.031 C 
ATOM     52  C   UNL     1      -2.936  15.668   8.946  1.00  0.00     0.029 A 
ATOM     53  N   UNL     1      -2.537  15.160  11.088  1.00  0.00    -0.354 N 
ATOM     54  C   UNL     1      -0.311  11.613  12.160  1.00  0.00     0.074 A 
ATOM     55  C   UNL     1       0.061  10.857  10.984  1.00  0.00     0.031 C 
ATOM     56  C   UNL     1      -3.465  16.647   9.701  1.00  0.00     0.029 A 
ATOM     57  C   UNL     1      -3.248  16.336  11.113  1.00  0.00     0.049 A 
ATOM     58  H   UNL     1      -2.216  14.709  11.901  1.00  0.00     0.167 HD
ATOM     59  C   UNL     1       0.023  11.265  13.427  1.00  0.00     0.037 A 
ATOM     60  C   UNL     1      -3.684  17.072  12.155  1.00  0.00     0.037 A 
ATOM     61  C   UNL     1      -0.347  12.020  14.596  1.00  0.00     0.049 A 
ATOM     62  C   UNL     1      -3.354  16.632  13.559  1.00  0.00     0.074 A 
ATOM     63  C   UNL     1      -0.050  11.755  15.922  1.00  0.00     0.029 A 
ATOM     64  N   UNL     1      -1.100  13.185  14.582  1.00  0.00    -0.354 N 
ATOM     65  N   UNL     1      -2.658  15.593  13.957  1.00  0.00    -0.248 NA
ATOM     66  C   UNL     1      -3.864  17.468  14.655  1.00  0.00     0.031 C 
ATOM     67  C   UNL     1      -0.662  12.735  16.712  1.00  0.00     0.029 A 
ATOM     68  C   UNL     1      -1.296  13.640  15.876  1.00  0.00     0.049 A 
ATOM     69  H   UNL     1      -1.445  13.625  13.771  1.00  0.00     0.167 HD
ATOM     70  C   UNL     1      -2.620  15.669  15.346  1.00  0.00     0.074 A 
ATOM     71  C   UNL     1      -3.357  16.859  15.718  1.00  0.00     0.031 C 
ATOM     72  C   UNL     1      -2.026  14.831  16.232  1.00  0.00     0.037 A 
BRANCH  59  73
ATOM     73  C   UNL     1       0.811   9.998  13.614  1.00  0.00     0.058 A 
ATOM     74  C   UNL     1       2.162   9.904  13.242  1.00  0.00     0.135 A 
ATOM     75  C   UNL     1       0.215   8.868  14.198  1.00  0.00     0.135 A 
ATOM     76  F   UNL     1       2.778  10.947  12.664  1.00  0.00    -0.206 F 
ATOM     77  C   UNL     1       2.885   8.727  13.415  1.00  0.00     0.059 A 
ATOM     78  C   UNL     1       0.926   7.690  14.406  1.00  0.00     0.059 A 
ATOM     79  F   UNL     1      -1.074   8.902  14.572  1.00  0.00    -0.206 F 
ATOM     80  C   UNL     1       2.257   7.624  13.997  1.00  0.00     0.060 A 
BRANCH  80  81
ATOM     81  S   UNL     1       3.207   6.105  14.217  1.00  0.00     0.124 S 
ATOM     82  O   UNL     1       3.296   5.615  12.845  1.00  0.00    -0.237 OA
ATOM     83  O   UNL     1       4.454   6.596  14.796  1.00  0.00    -0.237 OA
ATOM     84  O   UNL     1       2.374   5.309  15.114  1.00  0.00    -0.744 OA
ENDBRANCH  80  81
ENDBRANCH  59  73
BRANCH  60  85
ATOM     85  C   UNL     1      -4.483  18.303  11.913  1.00  0.00     0.058 A 
ATOM     86  C   UNL     1      -3.960  19.575  12.187  1.00  0.00     0.135 A 
ATOM     87  C   UNL     1      -5.789  18.229  11.403  1.00  0.00     0.135 A 
ATOM     88  F   UNL     1      -2.721  19.698  12.687  1.00  0.00    -0.206 F 
ATOM     89  C   UNL     1      -4.707  20.730  11.976  1.00  0.00     0.059 A 
ATOM     90  C   UNL     1      -6.545  19.370  11.160  1.00  0.00     0.059 A 
ATOM     91  F   UNL     1      -6.332  17.036  11.116  1.00  0.00    -0.206 F 
ATOM     92  C   UNL     1      -5.998  20.617  11.459  1.00  0.00     0.060 A 
BRANCH  92  93
ATOM     93  S   UNL     1      -6.941  22.125  11.140  1.00  0.00     0.124 S 
ATOM     94  O   UNL     1      -7.295  22.542  12.491  1.00  0.00    -0.237 OA
ATOM     95  O   UNL     1      -5.961  22.958  10.449  1.00  0.00    -0.237 OA
ATOM     96  O   UNL     1      -8.049  21.657  10.311  1.00  0.00    -0.744 OA
ENDBRANCH  92  93
ENDBRANCH  60  85
BRANCH  72  97
ATOM     97  C   UNL     1      -2.112  15.190  17.691  1.00  0.00     0.058 A 
ATOM     98  C   UNL     1      -3.308  15.068  18.416  1.00  0.00     0.135 A 
ATOM     99  C   UNL     1      -0.968  15.623  18.384  1.00  0.00     0.135 A 
ATOM    100  F   UNL     1      -4.431  14.664  17.803  1.00  0.00    -0.206 F 
ATOM    101  C   UNL     1      -3.374  15.390  19.768  1.00  0.00     0.059 A 
ATOM    102  C   UNL     1      -1.005  15.923  19.742  1.00  0.00     0.059 A 
ATOM    103  F   UNL     1       0.205  15.745  17.742  1.00  0.00    -0.206 F 
ATOM    104  C   UNL     1      -2.217  15.818  20.423  1.00  0.00     0.060 A 
BRANCH 104 105
ATOM    105  S   UNL     1      -2.311  16.212  22.182  1.00  0.00     0.124 S 
ATOM    106  O   UNL     1      -3.001  17.498  22.159  1.00  0.00    -0.237 OA
ATOM    107  O   UNL     1      -3.078  15.091  22.715  1.00  0.00    -0.237 OA
ATOM    108  O   UNL     1      -0.911  16.258  22.595  1.00  0.00    -0.744 OA
ENDBRANCH 104 105
ENDBRANCH  72  97
ENDBRANCH  46  47
ENDBRANCH  39  41
ENDBRANCH  38  39
ENDBRANCH  37  38
ENDBRANCH  36  37
ENDBRANCH  35  36
ENDBRANCH  34  35
ENDBRANCH  33  34
ENDBRANCH   1  33
TORSDOF 27
