REMARK SMILES C[C@@H](C(=O)OCCOCCOC(=O)c1ccc(-c2c3nc(c(-c4c(F)cc(S(=O)(=O)[O-])cc4F)c4ccc([nH]4)c(-c4c(F)cc(S(=O)(=O)[O-])cc4F)c4nc(c(-c5c(F)cc(S(=O)(=O)[O-])cc5F)c5ccc2[nH]5)C=C4)C=C3)cc1)N(C)c1ccc(C(N)=O)nn1
REMARK SMILES IDX 8 1 7 2 6 3 5 4 3 5 4 6 2 7 1 8 80 9 81 10 82 11 83 12 90 13
REMARK SMILES IDX 84 14 89 15 85 16 86 17 87 18 88 19 9 22 10 23 11 24 12 25
REMARK SMILES IDX 13 26 14 27 15 28 79 29 16 30 78 31 17 32 18 33 19 34 72 35
REMARK SMILES IDX 20 36 77 37 71 38 73 39 21 40 76 41 70 42 69 43 22 45 56 46
REMARK SMILES IDX 35 47 55 48 36 49 39 50 54 51 74 52 37 53 38 54 53 56 75 57
REMARK SMILES IDX 40 58 23 59 24 60 33 61 25 62 26 63 32 64 34 65 27 66 28 67
REMARK SMILES IDX 29 68 30 69 31 70 57 71 58 72 67 73 59 74 60 75 66 76 68 77
REMARK SMILES IDX 61 78 62 79 63 80 64 81 65 82 41 83 42 84 51 85 43 86 44 87
REMARK SMILES IDX 50 88 52 89 45 90 46 91 47 92 48 93 49 94
REMARK H PARENT 87 20 87 21 73 44 39 55
REMARK Flexibility Score: inf
ROOT
ATOM      1  O   UNL     1       1.091   2.432  -4.149  1.00  0.00    -0.374 OA
ENDROOT
BRANCH   1   2
ATOM      2  C   UNL     1       2.284   2.929  -3.537  1.00  0.00     0.202 C 
BRANCH   2   3
ATOM      3  C   UNL     1       2.107   3.566  -2.156  1.00  0.00     0.261 C 
BRANCH   3   4
ATOM      4  O   UNL     1       1.825   2.553  -1.171  1.00  0.00    -0.462 OA
BRANCH   4   5
ATOM      5  C   UNL     1       0.685   2.716  -0.444  1.00  0.00     0.328 C 
ATOM      6  O   UNL     1      -0.006   3.729  -0.464  1.00  0.00    -0.250 OA
BRANCH   5   7
ATOM      7  C   UNL     1       0.387   1.487   0.450  1.00  0.00     0.190 C 
ATOM      8  C   UNL     1       1.291   0.277   0.216  1.00  0.00     0.044 C 
BRANCH   7   9
ATOM      9  N   UNL     1      -1.068   1.135   0.476  1.00  0.00    -0.345 N 
ATOM     10  C   UNL     1      -1.908   2.057   1.250  1.00  0.00     0.146 C 
BRANCH   9  11
ATOM     11  C   UNL     1      -1.714   0.652  -0.666  1.00  0.00     0.151 A 
ATOM     12  C   UNL     1      -1.438  -0.615  -1.173  1.00  0.00     0.051 A 
ATOM     13  N   UNL     1      -2.709   1.367  -1.246  1.00  0.00    -0.132 NA
ATOM     14  C   UNL     1      -2.155  -1.121  -2.262  1.00  0.00     0.040 A 
ATOM     15  N   UNL     1      -3.433   0.884  -2.324  1.00  0.00    -0.143 NA
ATOM     16  C   UNL     1      -3.152  -0.341  -2.811  1.00  0.00     0.150 A 
BRANCH  16  17
ATOM     17  C   UNL     1      -3.982  -0.828  -3.947  1.00  0.00     0.269 C 
ATOM     18  N   UNL     1      -4.977   0.008  -4.378  1.00  0.00    -0.364 N 
ATOM     19  O   UNL     1      -3.796  -1.921  -4.469  1.00  0.00    -0.268 OA
ATOM     20  H   UNL     1      -5.108   0.882  -3.944  1.00  0.00     0.160 HD
ATOM     21  H   UNL     1      -5.562  -0.265  -5.122  1.00  0.00     0.160 HD
ENDBRANCH  16  17
ENDBRANCH   9  11
ENDBRANCH   7   9
ENDBRANCH   5   7
ENDBRANCH   4   5
ENDBRANCH   3   4
ENDBRANCH   2   3
ENDBRANCH   1   2
BRANCH   1  22
ATOM     22  C   UNL     1       0.547   1.223  -3.626  1.00  0.00     0.202 C 
BRANCH  22  23
ATOM     23  C   UNL     1       1.184  -0.083  -4.118  1.00  0.00     0.261 C 
BRANCH  23  24
ATOM     24  O   UNL     1       2.586  -0.160  -3.814  1.00  0.00    -0.460 OA
BRANCH  24  25
ATOM     25  C   UNL     1       3.393   0.005  -4.890  1.00  0.00     0.338 C 
ATOM     26  O   UNL     1       3.048   0.113  -6.060  1.00  0.00    -0.246 OA
BRANCH  25  27
ATOM     27  C   UNL     1       4.787   0.213  -4.462  1.00  0.00     0.060 A 
ATOM     28  C   UNL     1       5.462   1.314  -5.004  1.00  0.00     0.016 A 
ATOM     29  C   UNL     1       5.450  -0.681  -3.617  1.00  0.00     0.016 A 
ATOM     30  C   UNL     1       6.819   1.492  -4.753  1.00  0.00     0.010 A 
ATOM     31  C   UNL     1       6.816  -0.503  -3.371  1.00  0.00     0.010 A 
ATOM     32  C   UNL     1       7.514   0.562  -3.970  1.00  0.00    -0.014 A 
BRANCH  32  33
ATOM     33  C   UNL     1       8.994   0.627  -3.917  1.00  0.00     0.031 A 
ATOM     34  C   UNL     1       9.796  -0.284  -4.807  1.00  0.00     0.074 A 
ATOM     35  C   UNL     1       9.613   1.523  -3.128  1.00  0.00     0.049 A 
ATOM     36  N   UNL     1      11.093  -0.398  -4.924  1.00  0.00    -0.248 NA
ATOM     37  C   UNL     1       9.031  -1.189  -5.681  1.00  0.00     0.031 C 
ATOM     38  C   UNL     1       8.941   2.482  -2.252  1.00  0.00     0.029 A 
ATOM     39  N   UNL     1      10.949   1.770  -2.936  1.00  0.00    -0.354 N 
ATOM     40  C   UNL     1      11.301  -1.383  -5.883  1.00  0.00     0.074 A 
ATOM     41  C   UNL     1       9.998  -1.860  -6.291  1.00  0.00     0.031 C 
ATOM     42  C   UNL     1       9.870   3.207  -1.606  1.00  0.00     0.029 A 
ATOM     43  C   UNL     1      11.200   2.748  -2.004  1.00  0.00     0.049 A 
ATOM     44  H   UNL     1      11.661   1.293  -3.421  1.00  0.00     0.167 HD
ATOM     45  C   UNL     1      12.473  -1.839  -6.387  1.00  0.00     0.037 A 
ATOM     46  C   UNL     1      12.370   3.205  -1.514  1.00  0.00     0.037 A 
ATOM     47  C   UNL     1      13.767  -1.360  -5.977  1.00  0.00     0.049 A 
ATOM     48  C   UNL     1      13.661   2.643  -2.047  1.00  0.00     0.074 A 
ATOM     49  C   UNL     1      15.014  -1.752  -6.431  1.00  0.00     0.029 A 
ATOM     50  N   UNL     1      13.981  -0.386  -5.012  1.00  0.00    -0.354 N 
ATOM     51  N   UNL     1      13.843   1.724  -2.966  1.00  0.00    -0.248 NA
ATOM     52  C   UNL     1      14.906   3.183  -1.484  1.00  0.00     0.031 C 
ATOM     53  C   UNL     1      15.983  -1.045  -5.711  1.00  0.00     0.029 A 
ATOM     54  C   UNL     1      15.339  -0.178  -4.842  1.00  0.00     0.049 A 
ATOM     55  H   UNL     1      13.271   0.087  -4.521  1.00  0.00     0.167 HD
ATOM     56  C   UNL     1      15.221   1.592  -3.107  1.00  0.00     0.074 A 
ATOM     57  C   UNL     1      15.825   2.534  -2.187  1.00  0.00     0.031 C 
ATOM     58  C   UNL     1      15.923   0.768  -3.924  1.00  0.00     0.037 A 
BRANCH  45  59
ATOM     59  C   UNL     1      12.406  -2.925  -7.424  1.00  0.00     0.058 A 
ATOM     60  C   UNL     1      11.965  -2.671  -8.733  1.00  0.00     0.135 A 
ATOM     61  C   UNL     1      12.814  -4.233  -7.113  1.00  0.00     0.135 A 
ATOM     62  F   UNL     1      11.546  -1.443  -9.078  1.00  0.00    -0.206 F 
ATOM     63  C   UNL     1      11.905  -3.680  -9.689  1.00  0.00     0.059 A 
ATOM     64  C   UNL     1      12.786  -5.252  -8.061  1.00  0.00     0.059 A 
ATOM     65  F   UNL     1      13.241  -4.531  -5.877  1.00  0.00    -0.206 F 
ATOM     66  C   UNL     1      12.316  -4.968  -9.343  1.00  0.00     0.060 A 
BRANCH  66  67
ATOM     67  S   UNL     1      12.233  -6.267 -10.594  1.00  0.00     0.124 S 
ATOM     68  O   UNL     1      10.796  -6.511 -10.665  1.00  0.00    -0.237 OA
ATOM     69  O   UNL     1      12.824  -5.618 -11.759  1.00  0.00    -0.237 OA
ATOM     70  O   UNL     1      13.024  -7.348 -10.014  1.00  0.00    -0.744 OA
ENDBRANCH  66  67
ENDBRANCH  45  59
BRANCH  46  71
ATOM     71  C   UNL     1      12.370   4.243  -0.449  1.00  0.00     0.058 A 
ATOM     72  C   UNL     1      12.801   5.552  -0.706  1.00  0.00     0.135 A 
ATOM     73  C   UNL     1      11.929   3.943   0.850  1.00  0.00     0.135 A 
ATOM     74  F   UNL     1      13.242   5.885  -1.929  1.00  0.00    -0.206 F 
ATOM     75  C   UNL     1      12.805   6.526   0.288  1.00  0.00     0.059 A 
ATOM     76  C   UNL     1      11.900   4.905   1.853  1.00  0.00     0.059 A 
ATOM     77  F   UNL     1      11.496   2.707   1.144  1.00  0.00    -0.206 F 
ATOM     78  C   UNL     1      12.349   6.193   1.565  1.00  0.00     0.060 A 
BRANCH  78  79
ATOM     79  S   UNL     1      12.303   7.477   2.834  1.00  0.00     0.124 S 
ATOM     80  O   UNL     1      13.716   7.609   3.169  1.00  0.00    -0.237 OA
ATOM     81  O   UNL     1      11.709   8.599   2.115  1.00  0.00    -0.237 OA
ATOM     82  O   UNL     1      11.459   6.891   3.872  1.00  0.00    -0.744 OA
ENDBRANCH  78  79
ENDBRANCH  46  71
BRANCH  58  83
ATOM     83  C   UNL     1      17.423   0.866  -3.885  1.00  0.00     0.058 A 
ATOM     84  C   UNL     1      18.167   0.357  -2.809  1.00  0.00     0.135 A 
ATOM     85  C   UNL     1      18.127   1.426  -4.963  1.00  0.00     0.135 A 
ATOM     86  F   UNL     1      17.543  -0.184  -1.751  1.00  0.00    -0.206 F 
ATOM     87  C   UNL     1      19.557   0.420  -2.794  1.00  0.00     0.059 A 
ATOM     88  C   UNL     1      19.517   1.476  -4.981  1.00  0.00     0.059 A 
ATOM     89  F   UNL     1      17.463   1.917  -6.022  1.00  0.00    -0.206 F 
ATOM     90  C   UNL     1      20.223   0.981  -3.885  1.00  0.00     0.060 A 
BRANCH  90  91
ATOM     91  S   UNL     1      22.028   1.026  -3.869  1.00  0.00     0.124 S 
ATOM     92  O   UNL     1      22.286   2.108  -2.925  1.00  0.00    -0.237 OA
ATOM     93  O   UNL     1      22.372  -0.315  -3.406  1.00  0.00    -0.237 OA
ATOM     94  O   UNL     1      22.373   1.309  -5.259  1.00  0.00    -0.744 OA
ENDBRANCH  90  91
ENDBRANCH  58  83
ENDBRANCH  32  33
ENDBRANCH  25  27
ENDBRANCH  24  25
ENDBRANCH  23  24
ENDBRANCH  22  23
ENDBRANCH   1  22
TORSDOF 20
