REMARK SMILES CN(C)S(=O)(=O)c1ccc(-n2c(CCC(=O)OCCOCCOC(=O)c3ccc(-c4c5nc(c(-c6c(F)cc(S(=O)(=O)[O-])cc6F)c6ccc([nH]6)c(-c6c(F)cc(S(=O)(=O)[O-])cc6F)c6nc(c(-c7c(F)cc(S(=O)(=O)[O-])cc7F)c7ccc4[nH]7)C=C6)C=C5)cc3)ccc2-c2ccc(F)cc2)cc1
REMARK SMILES IDX 19 1 18 2 17 3 15 4 16 5 14 6 13 7 12 8 11 9 94 10 92 11
REMARK SMILES IDX 93 12 10 13 7 14 8 15 103 16 9 17 102 18 4 19 5 20 6 21 2 22
REMARK SMILES IDX 1 23 3 24 95 25 96 26 101 27 97 28 100 29 98 30 99 31 20 32
REMARK SMILES IDX 21 33 22 34 23 35 24 36 25 37 26 38 27 39 91 40 28 41 90 42
REMARK SMILES IDX 29 43 30 44 31 45 84 46 32 47 89 48 83 49 85 50 33 51 88 52
REMARK SMILES IDX 82 53 81 54 34 56 68 57 47 58 67 59 48 60 51 61 66 62 86 63
REMARK SMILES IDX 49 64 50 65 65 67 87 68 52 69 35 70 36 71 45 72 37 73 38 74
REMARK SMILES IDX 44 75 46 76 39 77 40 78 41 79 42 80 43 81 69 82 70 83 79 84
REMARK SMILES IDX 71 85 72 86 78 87 80 88 73 89 74 90 75 91 76 92 77 93 53 94
REMARK SMILES IDX 54 95 63 96 55 97 56 98 62 99 64 100 57 101 58 102 59 103
REMARK SMILES IDX 60 104 61 105
REMARK H PARENT 85 55 51 66
REMARK Flexibility Score: inf
ROOT
ATOM      1  C   UNL     1      -0.744  -2.014   4.920  1.00  0.00     0.202 C 
ENDROOT
BRANCH   1   2
ATOM      2  C   UNL     1      -1.530  -3.340   5.755  1.00  0.00     0.261 C 
BRANCH   2   3
ATOM      3  O   UNL     1      -1.452  -3.448   7.210  1.00  0.00    -0.463 OA
BRANCH   3   4
ATOM      4  C   UNL     1      -0.797  -4.528   7.725  1.00  0.00     0.306 C 
ATOM      5  O   UNL     1      -0.750  -5.619   7.161  1.00  0.00    -0.252 OA
BRANCH   4   6
ATOM      6  C   UNL     1      -0.010  -4.264   9.020  1.00  0.00     0.129 C 
BRANCH   6   7
ATOM      7  C   UNL     1       0.686  -2.918   9.284  1.00  0.00     0.066 C 
BRANCH   7   8
ATOM      8  C   UNL     1      -0.251  -1.772   9.300  1.00  0.00     0.024 A 
ATOM      9  N   UNL     1      -0.641  -1.068   8.170  1.00  0.00    -0.314 N 
ATOM     10  C   UNL     1      -1.726  -0.241   8.557  1.00  0.00     0.053 A 
ATOM     11  C   UNL     1      -0.841  -1.192  10.405  1.00  0.00     0.024 A 
ATOM     12  C   UNL     1      -1.766  -0.246   9.943  1.00  0.00     0.029 A 
BRANCH   9  13
ATOM     13  C   UNL     1      -0.103  -1.224   6.846  1.00  0.00     0.046 A 
ATOM     14  C   UNL     1       0.792  -1.428   3.357  1.00  0.00     0.082 A 
ATOM     15  C   UNL     1      -0.027   0.003   4.005  1.00  0.00     0.024 A 
ATOM     16  C   UNL     1       1.152  -2.845   4.416  1.00  0.00     0.024 A 
ATOM     17  C   UNL     1      -0.462   0.120   5.724  1.00  0.00     0.028 A 
ATOM     18  C   UNL     1       0.752  -2.725   6.202  1.00  0.00     0.028 A 
BRANCH  14  19
ATOM     19  S   UNL     1       1.242  -1.453   1.653  1.00  0.00     0.242 S 
ATOM     20  O   UNL     1       0.592  -2.613   1.075  1.00  0.00    -0.207 OA
ATOM     21  O   UNL     1       2.678  -1.298   1.586  1.00  0.00    -0.207 OA
BRANCH  19  22
ATOM     22  N   UNL     1       0.508  -0.066   0.938  1.00  0.00    -0.204 NA
ATOM     23  C   UNL     1       1.093   0.282  -0.382  1.00  0.00     0.124 C 
ATOM     24  C   UNL     1      -0.972  -0.072   0.857  1.00  0.00     0.124 C 
ENDBRANCH  19  22
ENDBRANCH  14  19
ENDBRANCH   9  13
BRANCH  10  25
ATOM     25  C   UNL     1      -2.719   0.446   7.704  1.00  0.00    -0.001 A 
ATOM     26  C   UNL     1      -2.947   1.824   7.855  1.00  0.00     0.013 A 
ATOM     27  C   UNL     1      -3.497  -0.256   6.769  1.00  0.00     0.013 A 
ATOM     28  C   UNL     1      -3.868   2.493   7.040  1.00  0.00     0.040 A 
ATOM     29  C   UNL     1      -4.403   0.415   5.939  1.00  0.00     0.040 A 
ATOM     30  C   UNL     1      -4.573   1.786   6.076  1.00  0.00     0.123 A 
ATOM     31  F   UNL     1      -5.434   2.429   5.276  1.00  0.00    -0.207 F 
ENDBRANCH  10  25
ENDBRANCH   7   8
ENDBRANCH   6   7
ENDBRANCH   4   6
ENDBRANCH   3   4
ENDBRANCH   2   3
ENDBRANCH   1   2
BRANCH   1  32
ATOM     32  O   UNL     1       0.998  -1.083   5.278  1.00  0.00    -0.374 OA
BRANCH  32  33
ATOM     33  C   UNL     1       2.552  -1.307   5.570  1.00  0.00     0.202 C 
BRANCH  33  34
ATOM     34  C   UNL     1       3.221  -0.220   6.413  1.00  0.00     0.261 C 
BRANCH  34  35
ATOM     35  O   UNL     1       2.403   0.895   6.592  1.00  0.00    -0.460 OA
BRANCH  35  36
ATOM     36  C   UNL     1       2.250   1.595   5.451  1.00  0.00     0.338 C 
ATOM     37  O   UNL     1       2.721   1.383   4.356  1.00  0.00    -0.246 OA
BRANCH  36  38
ATOM     38  C   UNL     1       1.441   2.752   5.800  1.00  0.00     0.060 A 
ATOM     39  C   UNL     1       0.838   3.440   4.746  1.00  0.00     0.016 A 
ATOM     40  C   UNL     1       1.492   3.229   7.116  1.00  0.00     0.016 A 
ATOM     41  C   UNL     1       0.437   4.724   4.974  1.00  0.00     0.010 A 
ATOM     42  C   UNL     1       1.197   4.540   7.320  1.00  0.00     0.010 A 
ATOM     43  C   UNL     1       0.726   5.269   6.227  1.00  0.00    -0.014 A 
BRANCH  43  44
ATOM     44  C   UNL     1       0.458   6.673   6.431  1.00  0.00     0.031 A 
ATOM     45  C   UNL     1      -0.972   6.783   7.036  1.00  0.00     0.074 A 
ATOM     46  C   UNL     1       1.527   7.456   6.043  1.00  0.00     0.049 A 
ATOM     47  N   UNL     1      -1.811   7.763   7.009  1.00  0.00    -0.248 NA
ATOM     48  C   UNL     1      -1.628   5.603   7.705  1.00  0.00     0.031 C 
ATOM     49  C   UNL     1       2.840   6.966   5.506  1.00  0.00     0.029 A 
ATOM     50  N   UNL     1       1.772   8.806   6.030  1.00  0.00    -0.354 N 
ATOM     51  C   UNL     1      -2.837   7.475   7.940  1.00  0.00     0.074 A 
ATOM     52  C   UNL     1      -2.785   6.073   8.176  1.00  0.00     0.031 C 
ATOM     53  C   UNL     1       3.644   7.989   5.118  1.00  0.00     0.029 A 
ATOM     54  C   UNL     1       2.993   9.247   5.418  1.00  0.00     0.049 A 
ATOM     55  H   UNL     1       1.137   9.446   6.425  1.00  0.00     0.167 HD
ATOM     56  C   UNL     1      -3.474   8.467   8.631  1.00  0.00     0.037 A 
ATOM     57  C   UNL     1       3.388  10.546   5.181  1.00  0.00     0.037 A 
ATOM     58  C   UNL     1      -2.921   9.716   8.213  1.00  0.00     0.049 A 
ATOM     59  C   UNL     1       2.433  11.307   5.992  1.00  0.00     0.074 A 
ATOM     60  C   UNL     1      -2.951  10.338   6.989  1.00  0.00     0.029 A 
ATOM     61  N   UNL     1      -1.830  10.155   8.935  1.00  0.00    -0.354 N 
ATOM     62  N   UNL     1       2.441  11.323   7.290  1.00  0.00    -0.248 NA
ATOM     63  C   UNL     1       1.314  11.971   5.321  1.00  0.00     0.031 C 
ATOM     64  C   UNL     1      -1.596  10.666   6.805  1.00  0.00     0.029 A 
ATOM     65  C   UNL     1      -0.925  10.646   8.035  1.00  0.00     0.049 A 
ATOM     66  H   UNL     1      -1.724  10.122   9.913  1.00  0.00     0.167 HD
ATOM     67  C   UNL     1       1.146  11.657   7.578  1.00  0.00     0.074 A 
ATOM     68  C   UNL     1       0.626  12.338   6.399  1.00  0.00     0.031 C 
ATOM     69  C   UNL     1       0.440  10.872   8.440  1.00  0.00     0.037 A 
BRANCH  56  70
ATOM     70  C   UNL     1      -4.307   8.501   9.882  1.00  0.00     0.058 A 
ATOM     71  C   UNL     1      -4.977   9.721  10.160  1.00  0.00     0.135 A 
ATOM     72  C   UNL     1      -4.186   7.604  10.952  1.00  0.00     0.135 A 
ATOM     73  F   UNL     1      -5.213  10.614   9.183  1.00  0.00    -0.206 F 
ATOM     74  C   UNL     1      -5.334  10.104  11.443  1.00  0.00     0.059 A 
ATOM     75  C   UNL     1      -4.595   7.948  12.246  1.00  0.00     0.059 A 
ATOM     76  F   UNL     1      -3.606   6.407  10.794  1.00  0.00    -0.206 F 
ATOM     77  C   UNL     1      -5.111   9.221  12.489  1.00  0.00     0.060 A 
BRANCH  77  78
ATOM     78  S   UNL     1      -5.493   9.786  14.158  1.00  0.00     0.124 S 
ATOM     79  O   UNL     1      -4.442  10.771  14.387  1.00  0.00    -0.237 OA
ATOM     80  O   UNL     1      -6.840  10.326  13.995  1.00  0.00    -0.237 OA
ATOM     81  O   UNL     1      -5.408   8.566  14.953  1.00  0.00    -0.744 OA
ENDBRANCH  77  78
ENDBRANCH  56  70
BRANCH  57  82
ATOM     82  C   UNL     1       4.351  11.421   4.385  1.00  0.00     0.058 A 
ATOM     83  C   UNL     1       5.263  11.003   3.410  1.00  0.00     0.135 A 
ATOM     84  C   UNL     1       4.166  12.842   4.424  1.00  0.00     0.135 A 
ATOM     85  F   UNL     1       5.656   9.723   3.352  1.00  0.00    -0.206 F 
ATOM     86  C   UNL     1       5.777  11.893   2.433  1.00  0.00     0.059 A 
ATOM     87  C   UNL     1       4.594  13.721   3.434  1.00  0.00     0.059 A 
ATOM     88  F   UNL     1       3.482  13.437   5.412  1.00  0.00    -0.206 F 
ATOM     89  C   UNL     1       5.365  13.230   2.405  1.00  0.00     0.060 A 
BRANCH  89  90
ATOM     90  S   UNL     1       5.678  14.288   0.965  1.00  0.00     0.124 S 
ATOM     91  O   UNL     1       7.064  14.692   1.172  1.00  0.00    -0.237 OA
ATOM     92  O   UNL     1       5.439  13.374  -0.148  1.00  0.00    -0.237 OA
ATOM     93  O   UNL     1       4.686  15.352   1.103  1.00  0.00    -0.744 OA
ENDBRANCH  89  90
ENDBRANCH  57  82
BRANCH  69  94
ATOM     94  C   UNL     1       1.260  10.082   9.465  1.00  0.00     0.058 A 
ATOM     95  C   UNL     1       2.210  10.755  10.259  1.00  0.00     0.135 A 
ATOM     96  C   UNL     1       1.208   8.686   9.661  1.00  0.00     0.135 A 
ATOM     97  F   UNL     1       2.311  12.092  10.187  1.00  0.00    -0.206 F 
ATOM     98  C   UNL     1       3.062  10.097  11.154  1.00  0.00     0.059 A 
ATOM     99  C   UNL     1       2.056   7.997  10.548  1.00  0.00     0.059 A 
ATOM    100  F   UNL     1       0.312   7.941   9.009  1.00  0.00    -0.206 F 
ATOM    101  C   UNL     1       2.982   8.715  11.296  1.00  0.00     0.060 A 
BRANCH 101 102
ATOM    102  S   UNL     1       4.050   7.900  12.509  1.00  0.00     0.124 S 
ATOM    103  O   UNL     1       5.388   8.247  12.040  1.00  0.00    -0.237 OA
ATOM    104  O   UNL     1       3.636   8.536  13.756  1.00  0.00    -0.237 OA
ATOM    105  O   UNL     1       3.700   6.487  12.387  1.00  0.00    -0.744 OA
ENDBRANCH 101 102
ENDBRANCH  69  94
ENDBRANCH  43  44
ENDBRANCH  36  38
ENDBRANCH  35  36
ENDBRANCH  34  35
ENDBRANCH  33  34
ENDBRANCH  32  33
ENDBRANCH   1  32
TORSDOF 23
