REMARK SMILES Cc1cc(Cl)c2c(c1)C=C(C(=O)OCCOCCOC(=O)c1ccc(-c3c4nc(c(-c5c(F)cc(S(=O)(=O)[O-])cc5F)c5ccc([nH]5)c(-c5c(F)cc(S(=O)(=O)[O-])cc5F)c5nc(c(-c6c(F)cc(S(=O)(=O)[O-])cc6F)c6ccc3[nH]6)C=C5)C=C4)cc1)[C@@H](C(F)(F)F)O2
REMARK SMILES IDX 17 1 16 2 15 3 14 4 13 5 11 6 12 7 10 8 1 9 2 10 3 11 8 12
REMARK SMILES IDX 4 13 7 14 5 15 6 16 9 17 93 18 88 19 89 20 90 21 91 22 92 23
REMARK SMILES IDX 18 24 19 25 20 26 21 27 22 28 23 29 87 30 24 31 86 32 25 33
REMARK SMILES IDX 26 34 27 35 80 36 28 37 85 38 79 39 81 40 29 41 84 42 78 43
REMARK SMILES IDX 77 44 30 46 64 47 43 48 63 49 44 50 47 51 62 52 82 53 45 54
REMARK SMILES IDX 46 55 61 57 83 58 48 59 31 60 32 61 41 62 33 63 34 64 40 65
REMARK SMILES IDX 42 66 35 67 36 68 37 69 38 70 39 71 65 72 66 73 75 74 67 75
REMARK SMILES IDX 68 76 74 77 76 78 69 79 70 80 71 81 72 82 73 83 49 84 50 85
REMARK SMILES IDX 59 86 51 87 52 88 58 89 60 90 53 91 54 92 55 93 56 94 57 95
REMARK H PARENT 81 45 47 56
REMARK Flexibility Score: inf
ROOT
ATOM      1  C   UNL     1       3.387   7.318   1.895  1.00  0.00     0.202 C 
ENDROOT
BRANCH   1   2
ATOM      2  O   UNL     1       3.062   8.580   1.313  1.00  0.00    -0.374 OA
BRANCH   2   3
ATOM      3  C   UNL     1       2.194   9.451   2.035  1.00  0.00     0.202 C 
BRANCH   3   4
ATOM      4  C   UNL     1       0.697   9.124   2.031  1.00  0.00     0.261 C 
BRANCH   4   5
ATOM      5  O   UNL     1       0.434   7.793   2.501  1.00  0.00    -0.460 OA
BRANCH   5   6
ATOM      6  C   UNL     1       0.018   6.934   1.543  1.00  0.00     0.338 C 
ATOM      7  O   UNL     1      -0.232   7.199   0.377  1.00  0.00    -0.246 OA
BRANCH   6   8
ATOM      8  C   UNL     1       0.044   5.554   2.062  1.00  0.00     0.087 C 
ATOM      9  C   UNL     1       1.033  -0.156   0.011  1.00  0.00     0.044 C 
ATOM     10  C   UNL     1       0.649   0.893   1.011  1.00  0.00    -0.049 A 
ATOM     11  C   UNL     1       0.138   0.549   2.267  1.00  0.00     0.028 A 
ATOM     12  C   UNL     1       0.813   2.246   0.697  1.00  0.00     0.015 A 
ATOM     13  C   UNL     1      -0.200   1.544   3.192  1.00  0.00     0.084 A 
ATOM     14  C   UNL     1       0.443   3.242   1.610  1.00  0.00     0.019 A 
ATOM     15  Cl  UNL     1      -0.838   1.051   4.720  1.00  0.00    -0.080 Cl
ATOM     16  C   UNL     1      -0.048   2.899   2.871  1.00  0.00     0.146 A 
ATOM     17  C   UNL     1       0.510   4.634   1.210  1.00  0.00     0.027 C 
ATOM     18  O   UNL     1      -0.375   3.834   3.815  1.00  0.00    -0.474 OA
ATOM     19  C   UNL     1      -0.451   5.240   3.446  1.00  0.00     0.316 C 
BRANCH  19  20
ATOM     20  C   UNL     1      -1.888   5.729   3.682  1.00  0.00     0.430 C 
ATOM     21  F   UNL     1      -2.328   5.385   4.915  1.00  0.00    -0.167 F 
ATOM     22  F   UNL     1      -1.978   7.076   3.594  1.00  0.00    -0.167 F 
ATOM     23  F   UNL     1      -2.748   5.204   2.779  1.00  0.00    -0.167 F 
ENDBRANCH  19  20
ENDBRANCH   6   8
ENDBRANCH   5   6
ENDBRANCH   4   5
ENDBRANCH   3   4
ENDBRANCH   2   3
ENDBRANCH   1   2
BRANCH   1  24
ATOM     24  C   UNL     1       4.289   7.295   3.136  1.00  0.00     0.261 C 
BRANCH  24  25
ATOM     25  O   UNL     1       3.672   7.893   4.289  1.00  0.00    -0.460 OA
BRANCH  25  26
ATOM     26  C   UNL     1       4.248   9.045   4.711  1.00  0.00     0.338 C 
ATOM     27  O   UNL     1       5.234   9.595   4.239  1.00  0.00    -0.246 OA
BRANCH  26  28
ATOM     28  C   UNL     1       3.394   9.678   5.730  1.00  0.00     0.060 A 
ATOM     29  C   UNL     1       2.862  10.942   5.449  1.00  0.00     0.016 A 
ATOM     30  C   UNL     1       3.169   9.067   6.965  1.00  0.00     0.016 A 
ATOM     31  C   UNL     1       2.114  11.610   6.415  1.00  0.00     0.010 A 
ATOM     32  C   UNL     1       2.426   9.746   7.936  1.00  0.00     0.010 A 
ATOM     33  C   UNL     1       1.914  11.029   7.675  1.00  0.00    -0.014 A 
BRANCH  33  34
ATOM     34  C   UNL     1       1.258  11.822   8.743  1.00  0.00     0.031 A 
ATOM     35  C   UNL     1       2.105  12.471   9.803  1.00  0.00     0.074 A 
ATOM     36  C   UNL     1      -0.075  12.002   8.732  1.00  0.00     0.049 A 
ATOM     37  N   UNL     1       1.738  13.238  10.796  1.00  0.00    -0.248 NA
ATOM     38  C   UNL     1       3.555  12.227   9.734  1.00  0.00     0.031 C 
ATOM     39  C   UNL     1      -0.991  11.444   7.737  1.00  0.00     0.029 A 
ATOM     40  N   UNL     1      -0.891  12.714   9.575  1.00  0.00    -0.354 N 
ATOM     41  C   UNL     1       2.909  13.578  11.464  1.00  0.00     0.074 A 
ATOM     42  C   UNL     1       3.993  12.895  10.792  1.00  0.00     0.031 C 
ATOM     43  C   UNL     1      -2.241  11.846   8.020  1.00  0.00     0.029 A 
ATOM     44  C   UNL     1      -2.221  12.666   9.230  1.00  0.00     0.049 A 
ATOM     45  H   UNL     1      -0.555  13.212  10.355  1.00  0.00     0.167 HD
ATOM     46  C   UNL     1       3.066  14.402  12.526  1.00  0.00     0.037 A 
ATOM     47  C   UNL     1      -3.299  13.218   9.824  1.00  0.00     0.037 A 
ATOM     48  C   UNL     1       1.980  15.077  13.187  1.00  0.00     0.049 A 
ATOM     49  C   UNL     1      -3.107  14.068  11.054  1.00  0.00     0.074 A 
ATOM     50  C   UNL     1       2.039  15.941  14.267  1.00  0.00     0.029 A 
ATOM     51  N   UNL     1       0.643  14.961  12.838  1.00  0.00    -0.354 N 
ATOM     52  N   UNL     1      -1.990  14.405  11.654  1.00  0.00    -0.248 NA
ATOM     53  C   UNL     1      -4.317  14.612  11.689  1.00  0.00     0.031 C 
ATOM     54  C   UNL     1       0.734  16.305  14.604  1.00  0.00     0.029 A 
ATOM     55  C   UNL     1      -0.136  15.717  13.698  1.00  0.00     0.049 A 
ATOM     56  H   UNL     1       0.298  14.422  12.090  1.00  0.00     0.167 HD
ATOM     57  C   UNL     1      -2.360  15.226  12.716  1.00  0.00     0.074 A 
ATOM     58  C   UNL     1      -3.803  15.335  12.677  1.00  0.00     0.031 C 
ATOM     59  C   UNL     1      -1.572  15.834  13.635  1.00  0.00     0.037 A 
BRANCH  46  60
ATOM     60  C   UNL     1       4.459  14.625  13.045  1.00  0.00     0.058 A 
ATOM     61  C   UNL     1       5.395  15.387  12.328  1.00  0.00     0.135 A 
ATOM     62  C   UNL     1       4.843  14.130  14.302  1.00  0.00     0.135 A 
ATOM     63  F   UNL     1       5.086  15.871  11.114  1.00  0.00    -0.206 F 
ATOM     64  C   UNL     1       6.667  15.637  12.831  1.00  0.00     0.059 A 
ATOM     65  C   UNL     1       6.101  14.391  14.837  1.00  0.00     0.059 A 
ATOM     66  F   UNL     1       3.987  13.394  15.028  1.00  0.00    -0.206 F 
ATOM     67  C   UNL     1       7.009  15.139  14.090  1.00  0.00     0.060 A 
BRANCH  67  68
ATOM     68  S   UNL     1       8.659  15.490  14.732  1.00  0.00     0.124 S 
ATOM     69  O   UNL     1       9.496  14.698  13.834  1.00  0.00    -0.237 OA
ATOM     70  O   UNL     1       8.752  16.937  14.572  1.00  0.00    -0.237 OA
ATOM     71  O   UNL     1       8.598  15.015  16.110  1.00  0.00    -0.744 OA
ENDBRANCH  67  68
ENDBRANCH  46  60
BRANCH  47  72
ATOM     72  C   UNL     1      -4.653  13.000   9.248  1.00  0.00     0.058 A 
ATOM     73  C   UNL     1      -5.359  14.050   8.643  1.00  0.00     0.135 A 
ATOM     74  C   UNL     1      -5.259  11.733   9.267  1.00  0.00     0.135 A 
ATOM     75  F   UNL     1      -4.827  15.282   8.607  1.00  0.00    -0.206 F 
ATOM     76  C   UNL     1      -6.618  13.857   8.084  1.00  0.00     0.059 A 
ATOM     77  C   UNL     1      -6.506  11.509   8.692  1.00  0.00     0.059 A 
ATOM     78  F   UNL     1      -4.622  10.692   9.825  1.00  0.00    -0.206 F 
ATOM     79  C   UNL     1      -7.181  12.579   8.107  1.00  0.00     0.060 A 
BRANCH  79  80
ATOM     80  S   UNL     1      -8.792  12.333   7.330  1.00  0.00     0.124 S 
ATOM     81  O   UNL     1      -9.669  13.075   8.228  1.00  0.00    -0.237 OA
ATOM     82  O   UNL     1      -8.584  12.920   6.010  1.00  0.00    -0.237 OA
ATOM     83  O   UNL     1      -8.955  10.882   7.345  1.00  0.00    -0.744 OA
ENDBRANCH  79  80
ENDBRANCH  47  72
BRANCH  59  84
ATOM     84  C   UNL     1      -2.226  16.706  14.672  1.00  0.00     0.058 A 
ATOM     85  C   UNL     1      -2.912  16.157  15.765  1.00  0.00     0.135 A 
ATOM     86  C   UNL     1      -2.033  18.098  14.649  1.00  0.00     0.135 A 
ATOM     87  F   UNL     1      -3.130  14.834  15.831  1.00  0.00    -0.206 F 
ATOM     88  C   UNL     1      -3.371  16.955  16.808  1.00  0.00     0.059 A 
ATOM     89  C   UNL     1      -2.461  18.912  15.693  1.00  0.00     0.059 A 
ATOM     90  F   UNL     1      -1.375  18.672  13.629  1.00  0.00    -0.206 F 
ATOM     91  C   UNL     1      -3.125  18.330  16.771  1.00  0.00     0.060 A 
BRANCH  91  92
ATOM     92  S   UNL     1      -3.635  19.333  18.183  1.00  0.00     0.124 S 
ATOM     93  O   UNL     1      -5.089  19.287  18.071  1.00  0.00    -0.237 OA
ATOM     94  O   UNL     1      -3.062  18.599  19.307  1.00  0.00    -0.237 OA
ATOM     95  O   UNL     1      -3.027  20.634  17.916  1.00  0.00    -0.744 OA
ENDBRANCH  91  92
ENDBRANCH  59  84
ENDBRANCH  33  34
ENDBRANCH  26  28
ENDBRANCH  25  26
ENDBRANCH  24  25
ENDBRANCH   1  24
TORSDOF 18
