REMARK SMILES O=C(OCCOCCOC(=O)C1(Oc2cccc(F)c2)CCN(c2cc(NCCO)ncn2)CC1)c1ccc(-c2c3nc(c(-c4c(F)cc(S(=O)(=O)[O-])cc4F)c4ccc([nH]4)c(-c4c(F)cc(S(=O)(=O)[O-])cc4F)c4nc(c(-c5c(F)cc(S(=O)(=O)[O-])cc5F)c5ccc2[nH]5)C=C4)C=C3)cc1
REMARK SMILES IDX 7 1 6 2 5 3 4 4 3 5 2 6 1 7 36 8 37 9 101 10 38 11 100 12
REMARK SMILES IDX 39 13 40 14 41 15 94 16 42 17 99 18 93 19 95 20 43 21 98 22
REMARK SMILES IDX 92 23 91 24 44 26 78 27 57 28 77 29 58 30 61 31 76 32 96 33
REMARK SMILES IDX 59 34 60 35 75 37 97 38 62 39 45 40 46 41 55 42 47 43 48 44
REMARK SMILES IDX 54 45 56 46 49 47 50 48 51 49 52 50 53 51 79 52 80 53 89 54
REMARK SMILES IDX 81 55 82 56 88 57 90 58 83 59 84 60 85 61 86 62 87 63 63 64
REMARK SMILES IDX 64 65 73 66 65 67 66 68 72 69 74 70 67 71 68 72 69 73 70 74
REMARK SMILES IDX 71 75 8 76 9 77 10 78 11 79 12 80 21 81 35 82 22 83 34 84
REMARK SMILES IDX 23 85 13 86 14 87 15 88 20 89 16 90 18 91 17 92 19 93 24 94
REMARK SMILES IDX 25 95 33 96 26 97 32 98 31 99 27 100 28 102 29 103 30 104
REMARK H PARENT 95 25 61 36 27 101 30 105
REMARK Flexibility Score: inf
ROOT
ATOM      1  C   UNL     1       2.719   1.816  -1.370  1.00  0.00     0.202 C 
ENDROOT
BRANCH   1   2
ATOM      2  O   UNL     1       4.085   1.681  -0.968  1.00  0.00    -0.374 OA
BRANCH   2   3
ATOM      3  C   UNL     1       4.651   0.380  -1.072  1.00  0.00     0.202 C 
BRANCH   3   4
ATOM      4  C   UNL     1       4.303  -0.673  -0.005  1.00  0.00     0.261 C 
BRANCH   4   5
ATOM      5  O   UNL     1       2.869  -0.864   0.104  1.00  0.00    -0.460 OA
BRANCH   5   6
ATOM      6  C   UNL     1       2.042  -0.385   1.082  1.00  0.00     0.338 C 
ATOM      7  O   UNL     1       0.854  -0.645   1.078  1.00  0.00    -0.246 OA
BRANCH   6   8
ATOM      8  C   UNL     1       2.624   0.425   2.180  1.00  0.00     0.060 A 
ATOM      9  C   UNL     1       3.612   1.345   1.905  1.00  0.00     0.016 A 
ATOM     10  C   UNL     1       2.228   0.266   3.504  1.00  0.00     0.016 A 
ATOM     11  C   UNL     1       4.445   1.823   2.865  1.00  0.00     0.010 A 
ATOM     12  C   UNL     1       2.926   0.950   4.511  1.00  0.00     0.010 A 
ATOM     13  C   UNL     1       4.078   1.685   4.185  1.00  0.00    -0.014 A 
BRANCH  13  14
ATOM     14  C   UNL     1       5.045   2.236   5.141  1.00  0.00     0.031 A 
ATOM     15  C   UNL     1       5.788   1.270   6.002  1.00  0.00     0.074 A 
ATOM     16  C   UNL     1       5.414   3.529   5.017  1.00  0.00     0.049 A 
ATOM     17  N   UNL     1       6.633   1.512   6.959  1.00  0.00    -0.248 NA
ATOM     18  C   UNL     1       5.554  -0.166   5.750  1.00  0.00     0.031 C 
ATOM     19  C   UNL     1       4.874   4.476   4.024  1.00  0.00     0.029 A 
ATOM     20  N   UNL     1       6.383   4.253   5.651  1.00  0.00    -0.354 N 
ATOM     21  C   UNL     1       6.977   0.269   7.471  1.00  0.00     0.074 A 
ATOM     22  C   UNL     1       6.260  -0.730   6.717  1.00  0.00     0.031 C 
ATOM     23  C   UNL     1       5.578   5.614   4.063  1.00  0.00     0.029 A 
ATOM     24  C   UNL     1       6.503   5.540   5.180  1.00  0.00     0.049 A 
ATOM     25  H   UNL     1       6.941   3.888   6.375  1.00  0.00     0.167 HD
ATOM     26  C   UNL     1       7.814   0.013   8.499  1.00  0.00     0.037 A 
ATOM     27  C   UNL     1       7.236   6.564   5.651  1.00  0.00     0.037 A 
ATOM     28  C   UNL     1       8.516   1.062   9.186  1.00  0.00     0.049 A 
ATOM     29  C   UNL     1       8.061   6.283   6.872  1.00  0.00     0.074 A 
ATOM     30  C   UNL     1       9.303   0.983  10.316  1.00  0.00     0.029 A 
ATOM     31  N   UNL     1       8.517   2.394   8.780  1.00  0.00    -0.354 N 
ATOM     32  N   UNL     1       8.248   5.135   7.484  1.00  0.00    -0.248 NA
ATOM     33  C   UNL     1       8.739   7.422   7.492  1.00  0.00     0.031 C 
ATOM     34  C   UNL     1       9.744   2.277  10.618  1.00  0.00     0.029 A 
ATOM     35  C   UNL     1       9.282   3.153   9.643  1.00  0.00     0.049 A 
ATOM     36  H   UNL     1       8.040   2.744   7.993  1.00  0.00     0.167 HD
ATOM     37  C   UNL     1       9.071   5.408   8.564  1.00  0.00     0.074 A 
ATOM     38  C   UNL     1       9.362   6.831   8.504  1.00  0.00     0.031 C 
ATOM     39  C   UNL     1       9.538   4.570   9.523  1.00  0.00     0.037 A 
BRANCH  26  40
ATOM     40  C   UNL     1       7.909  -1.409   8.968  1.00  0.00     0.058 A 
ATOM     41  C   UNL     1       7.295  -1.788  10.173  1.00  0.00     0.135 A 
ATOM     42  C   UNL     1       8.542  -2.410   8.215  1.00  0.00     0.135 A 
ATOM     43  F   UNL     1       6.648  -0.879  10.918  1.00  0.00    -0.206 F 
ATOM     44  C   UNL     1       7.312  -3.106  10.617  1.00  0.00     0.059 A 
ATOM     45  C   UNL     1       8.547  -3.741   8.627  1.00  0.00     0.059 A 
ATOM     46  F   UNL     1       9.098  -2.114   7.029  1.00  0.00    -0.206 F 
ATOM     47  C   UNL     1       7.936  -4.077   9.835  1.00  0.00     0.060 A 
BRANCH  47  48
ATOM     48  S   UNL     1       7.885  -5.793  10.395  1.00  0.00     0.124 S 
ATOM     49  O   UNL     1       8.773  -5.757  11.550  1.00  0.00    -0.237 OA
ATOM     50  O   UNL     1       6.466  -5.977  10.687  1.00  0.00    -0.237 OA
ATOM     51  O   UNL     1       8.379  -6.539   9.241  1.00  0.00    -0.744 OA
ENDBRANCH  47  48
ENDBRANCH  26  40
BRANCH  27  52
ATOM     52  C   UNL     1       7.136   7.911   5.025  1.00  0.00     0.058 A 
ATOM     53  C   UNL     1       5.917   8.614   5.001  1.00  0.00     0.135 A 
ATOM     54  C   UNL     1       8.232   8.503   4.381  1.00  0.00     0.135 A 
ATOM     55  F   UNL     1       4.829   8.098   5.595  1.00  0.00    -0.206 F 
ATOM     56  C   UNL     1       5.777   9.823   4.329  1.00  0.00     0.059 A 
ATOM     57  C   UNL     1       8.125   9.731   3.728  1.00  0.00     0.059 A 
ATOM     58  F   UNL     1       9.422   7.883   4.382  1.00  0.00    -0.206 F 
ATOM     59  C   UNL     1       6.888  10.373   3.691  1.00  0.00     0.060 A 
BRANCH  59  60
ATOM     60  S   UNL     1       6.678  11.940   2.817  1.00  0.00     0.124 S 
ATOM     61  O   UNL     1       5.804  11.547   1.716  1.00  0.00    -0.237 OA
ATOM     62  O   UNL     1       6.067  12.780   3.842  1.00  0.00    -0.237 OA
ATOM     63  O   UNL     1       8.040  12.302   2.440  1.00  0.00    -0.744 OA
ENDBRANCH  59  60
ENDBRANCH  27  52
BRANCH  39  64
ATOM     64  C   UNL     1      10.438   5.172  10.557  1.00  0.00     0.058 A 
ATOM     65  C   UNL     1      11.804   4.853  10.565  1.00  0.00     0.135 A 
ATOM     66  C   UNL     1       9.935   5.986  11.582  1.00  0.00     0.135 A 
ATOM     67  F   UNL     1      12.324   4.071   9.605  1.00  0.00    -0.206 F 
ATOM     68  C   UNL     1      12.641   5.303  11.573  1.00  0.00     0.059 A 
ATOM     69  C   UNL     1      10.763   6.475  12.584  1.00  0.00     0.059 A 
ATOM     70  F   UNL     1       8.636   6.325  11.602  1.00  0.00    -0.206 F 
ATOM     71  C   UNL     1      12.110   6.111  12.581  1.00  0.00     0.060 A 
BRANCH  71  72
ATOM     72  S   UNL     1      13.217   6.690  13.880  1.00  0.00     0.124 S 
ATOM     73  O   UNL     1      13.466   5.462  14.627  1.00  0.00    -0.237 OA
ATOM     74  O   UNL     1      14.345   7.209  13.112  1.00  0.00    -0.237 OA
ATOM     75  O   UNL     1      12.423   7.700  14.574  1.00  0.00    -0.744 OA
ENDBRANCH  71  72
ENDBRANCH  39  64
ENDBRANCH  13  14
ENDBRANCH   6   8
ENDBRANCH   5   6
ENDBRANCH   4   5
ENDBRANCH   3   4
ENDBRANCH   2   3
ENDBRANCH   1   2
BRANCH   1  76
ATOM     76  C   UNL     1       2.641   2.615  -2.661  1.00  0.00     0.261 C 
BRANCH  76  77
ATOM     77  O   UNL     1       3.046   1.758  -3.743  1.00  0.00    -0.460 OA
BRANCH  77  78
ATOM     78  C   UNL     1       4.389   1.635  -3.937  1.00  0.00     0.350 C 
ATOM     79  O   UNL     1       5.234   2.323  -3.370  1.00  0.00    -0.247 OA
BRANCH  78  80
ATOM     80  C   UNL     1       4.734   0.521  -4.935  1.00  0.00     0.209 C 
ATOM     81  C   UNL     1       3.508  -0.022  -5.684  1.00  0.00     0.082 C 
ATOM     82  C   UNL     1       5.571  -0.606  -4.263  1.00  0.00     0.082 C 
ATOM     83  C   UNL     1       2.727  -1.028  -4.853  1.00  0.00     0.123 C 
ATOM     84  C   UNL     1       4.809  -1.807  -3.688  1.00  0.00     0.123 C 
ATOM     85  N   UNL     1       3.617  -2.090  -4.444  1.00  0.00    -0.356 N 
BRANCH  80  86
ATOM     86  O   UNL     1       5.510   1.422  -5.796  1.00  0.00    -0.475 OA
BRANCH  86  87
ATOM     87  C   UNL     1       6.368   0.844  -6.671  1.00  0.00     0.123 A 
ATOM     88  C   UNL     1       5.905   0.507  -7.938  1.00  0.00     0.047 A 
ATOM     89  C   UNL     1       7.706   0.682  -6.325  1.00  0.00     0.085 A 
ATOM     90  C   UNL     1       6.765  -0.100  -8.845  1.00  0.00     0.007 A 
ATOM     91  C   UNL     1       8.556   0.077  -7.237  1.00  0.00     0.126 A 
ATOM     92  C   UNL     1       8.094  -0.328  -8.487  1.00  0.00     0.039 A 
ATOM     93  F   UNL     1       9.838  -0.132  -6.911  1.00  0.00    -0.207 F 
ENDBRANCH  86  87
ENDBRANCH  80  86
BRANCH  85  94
ATOM     94  C   UNL     1       3.328  -3.396  -4.762  1.00  0.00     0.134 A 
ATOM     95  C   UNL     1       3.144  -4.348  -3.772  1.00  0.00     0.093 A 
ATOM     96  N   UNL     1       3.301  -3.717  -6.060  1.00  0.00    -0.219 NA
ATOM     97  C   UNL     1       2.933  -5.657  -4.159  1.00  0.00     0.131 A 
ATOM     98  C   UNL     1       3.155  -5.015  -6.336  1.00  0.00     0.226 A 
ATOM     99  N   UNL     1       2.974  -6.005  -5.452  1.00  0.00    -0.219 NA
BRANCH  97 100
ATOM    100  N   UNL     1       2.753  -6.630  -3.182  1.00  0.00    -0.368 N 
ATOM    101  H   UNL     1       2.751  -6.378  -2.231  1.00  0.00     0.162 HD
BRANCH 100 102
ATOM    102  C   UNL     1       2.568  -8.026  -3.570  1.00  0.00     0.142 C 
BRANCH 102 103
ATOM    103  C   UNL     1       3.577  -8.912  -2.835  1.00  0.00     0.177 C 
BRANCH 103 104
ATOM    104  O   UNL     1       3.363  -8.857  -1.426  1.00  0.00    -0.395 OA
ATOM    105  H   UNL     1       3.475  -7.945  -1.117  1.00  0.00     0.210 HD
ENDBRANCH 103 104
ENDBRANCH 102 103
ENDBRANCH 100 102
ENDBRANCH  97 100
ENDBRANCH  85  94
ENDBRANCH  78  80
ENDBRANCH  77  78
ENDBRANCH  76  77
ENDBRANCH   1  76
TORSDOF 24
