REMARK SMILES CC1=Nc2ncnn2[C@H](c2ccc(F)cc2)[C@@H]1C(=O)OCCOCCOC(=O)c1ccc(-c2c3nc(c(-c4c(F)cc(S(=O)(=O)[O-])cc4F)c4ccc([nH]4)c(-c4c(F)cc(S(=O)(=O)[O-])cc4F)c4nc(c(-c5c(F)cc(S(=O)(=O)[O-])cc5F)c5ccc2[nH]5)C=C4)C=C3)cc1
REMARK SMILES IDX 24 1 23 2 22 3 21 4 20 5 18 6 19 7 17 8 1 9 2 10 3 11 4 12
REMARK SMILES IDX 9 13 5 14 8 15 6 16 7 17 10 18 11 19 16 20 12 21 15 22 13 23
REMARK SMILES IDX 14 24 25 25 26 26 27 27 28 28 29 29 30 30 94 31 31 32 93 33
REMARK SMILES IDX 32 34 33 35 34 36 87 37 35 38 92 39 86 40 88 41 36 42 91 43
REMARK SMILES IDX 85 44 84 45 37 47 71 48 50 49 70 50 51 51 54 52 69 53 89 54
REMARK SMILES IDX 52 55 53 56 68 58 90 59 55 60 38 61 39 62 48 63 40 64 41 65
REMARK SMILES IDX 47 66 49 67 42 68 43 69 44 70 45 71 46 72 72 73 73 74 82 75
REMARK SMILES IDX 74 76 75 77 81 78 83 79 76 80 77 81 78 82 79 83 80 84 56 85
REMARK SMILES IDX 57 86 66 87 58 88 59 89 65 90 67 91 60 92 61 93 62 94 63 95
REMARK SMILES IDX 64 96
REMARK H PARENT 88 46 54 57
REMARK Flexibility Score: inf
ROOT
ATOM      1  C   UNL     1      -1.552   1.751   4.669  1.00  0.00     0.202 C 
ENDROOT
BRANCH   1   2
ATOM      2  O   UNL     1      -1.323   0.171   4.952  1.00  0.00    -0.374 OA
BRANCH   2   3
ATOM      3  C   UNL     1      -0.167  -0.680   4.810  1.00  0.00     0.202 C 
BRANCH   3   4
ATOM      4  C   UNL     1       0.302  -1.238   3.450  1.00  0.00     0.261 C 
BRANCH   4   5
ATOM      5  O   UNL     1       0.452  -0.277   2.401  1.00  0.00    -0.463 OA
BRANCH   5   6
ATOM      6  C   UNL     1      -0.684   0.063   1.748  1.00  0.00     0.317 C 
ATOM      7  O   UNL     1      -1.772  -0.473   1.898  1.00  0.00    -0.251 OA
BRANCH   6   8
ATOM      8  C   UNL     1      -0.451   1.217   0.814  1.00  0.00     0.173 C 
ATOM      9  C   UNL     1       1.276  -0.166  -0.575  1.00  0.00     0.063 C 
ATOM     10  C   UNL     1       0.849   1.159   0.027  1.00  0.00     0.036 C 
ATOM     11  N   UNL     1       1.547   2.195  -0.323  1.00  0.00    -0.220 NA
ATOM     12  C   UNL     1       1.121   3.426   0.039  1.00  0.00     0.248 A 
ATOM     13  C   UNL     1      -0.706   2.575   1.489  1.00  0.00     0.161 C 
ATOM     14  N   UNL     1       1.559   4.606  -0.340  1.00  0.00    -0.198 NA
ATOM     15  N   UNL     1       0.071   3.632   0.887  1.00  0.00    -0.221 N 
ATOM     16  C   UNL     1       0.719   5.490   0.281  1.00  0.00     0.248 A 
ATOM     17  N   UNL     1      -0.259   4.931   0.999  1.00  0.00    -0.157 NA
BRANCH  13  18
ATOM     18  C   UNL     1      -0.684   2.712   3.009  1.00  0.00    -0.022 A 
ATOM     19  C   UNL     1      -2.093   3.604   3.710  1.00  0.00     0.009 A 
ATOM     20  C   UNL     1       0.400   1.803   4.118  1.00  0.00     0.009 A 
ATOM     21  C   UNL     1      -2.397   3.618   5.461  1.00  0.00     0.039 A 
ATOM     22  C   UNL     1       0.046   1.789   5.933  1.00  0.00     0.039 A 
ATOM     23  C   UNL     1      -1.361   2.677   6.576  1.00  0.00     0.123 A 
ATOM     24  F   UNL     1      -1.561   2.767   7.895  1.00  0.00    -0.207 F 
ENDBRANCH  13  18
ENDBRANCH   6   8
ENDBRANCH   5   6
ENDBRANCH   4   5
ENDBRANCH   3   4
ENDBRANCH   2   3
ENDBRANCH   1   2
BRANCH   1  25
ATOM     25  C   UNL     1      -0.326   3.541   4.937  1.00  0.00     0.261 C 
BRANCH  25  26
ATOM     26  O   UNL     1       1.248   3.644   4.906  1.00  0.00    -0.460 OA
BRANCH  26  27
ATOM     27  C   UNL     1       2.034   3.434   5.991  1.00  0.00     0.338 C 
ATOM     28  O   UNL     1       1.713   3.470   7.166  1.00  0.00    -0.246 OA
BRANCH  27  29
ATOM     29  C   UNL     1       3.358   2.971   5.476  1.00  0.00     0.060 A 
ATOM     30  C   UNL     1       4.281   2.869   6.508  1.00  0.00     0.016 A 
ATOM     31  C   UNL     1       3.704   3.585   4.270  1.00  0.00     0.016 A 
ATOM     32  C   UNL     1       5.122   3.945   6.635  1.00  0.00     0.010 A 
ATOM     33  C   UNL     1       4.576   4.631   4.362  1.00  0.00     0.010 A 
ATOM     34  C   UNL     1       5.133   4.902   5.609  1.00  0.00    -0.014 A 
BRANCH  34  35
ATOM     35  C   UNL     1       5.995   6.054   5.731  1.00  0.00     0.031 A 
ATOM     36  C   UNL     1       7.385   5.576   5.567  1.00  0.00     0.074 A 
ATOM     37  C   UNL     1       5.565   7.326   5.869  1.00  0.00     0.049 A 
ATOM     38  N   UNL     1       8.199   5.268   6.523  1.00  0.00    -0.248 NA
ATOM     39  C   UNL     1       7.762   4.995   4.261  1.00  0.00     0.031 C 
ATOM     40  C   UNL     1       4.205   7.874   5.855  1.00  0.00     0.029 A 
ATOM     41  N   UNL     1       6.330   8.450   6.006  1.00  0.00    -0.354 N 
ATOM     42  C   UNL     1       9.311   4.760   5.873  1.00  0.00     0.074 A 
ATOM     43  C   UNL     1       8.855   4.305   4.591  1.00  0.00     0.031 C 
ATOM     44  C   UNL     1       4.259   9.224   5.713  1.00  0.00     0.029 A 
ATOM     45  C   UNL     1       5.644   9.653   5.771  1.00  0.00     0.049 A 
ATOM     46  H   UNL     1       7.283   8.419   6.249  1.00  0.00     0.167 HD
ATOM     47  C   UNL     1      10.557   5.137   6.261  1.00  0.00     0.037 A 
ATOM     48  C   UNL     1       6.239  10.872   5.606  1.00  0.00     0.037 A 
ATOM     49  C   UNL     1      10.527   5.699   7.589  1.00  0.00     0.049 A 
ATOM     50  C   UNL     1       7.589  10.748   6.239  1.00  0.00     0.074 A 
ATOM     51  C   UNL     1      10.160   5.215   8.830  1.00  0.00     0.029 A 
ATOM     52  N   UNL     1      10.450   7.069   7.673  1.00  0.00    -0.354 N 
ATOM     53  N   UNL     1       7.753  10.526   7.519  1.00  0.00    -0.248 NA
ATOM     54  C   UNL     1       8.668  10.290   5.374  1.00  0.00     0.031 C 
ATOM     55  C   UNL     1       9.447   6.281   9.450  1.00  0.00     0.029 A 
ATOM     56  C   UNL     1       9.511   7.401   8.619  1.00  0.00     0.049 A 
ATOM     57  H   UNL     1      10.979   7.707   7.143  1.00  0.00     0.167 HD
ATOM     58  C   UNL     1       8.718   9.528   7.580  1.00  0.00     0.074 A 
ATOM     59  C   UNL     1       9.246   9.428   6.217  1.00  0.00     0.031 C 
ATOM     60  C   UNL     1       8.785   8.656   8.630  1.00  0.00     0.037 A 
BRANCH  47  61
ATOM     61  C   UNL     1      11.666   5.395   5.277  1.00  0.00     0.058 A 
ATOM     62  C   UNL     1      11.465   5.753   3.921  1.00  0.00     0.135 A 
ATOM     63  C   UNL     1      12.985   5.519   5.745  1.00  0.00     0.135 A 
ATOM     64  F   UNL     1      10.252   5.838   3.364  1.00  0.00    -0.206 F 
ATOM     65  C   UNL     1      12.492   6.141   3.078  1.00  0.00     0.059 A 
ATOM     66  C   UNL     1      14.025   5.970   4.930  1.00  0.00     0.059 A 
ATOM     67  F   UNL     1      13.277   5.253   7.028  1.00  0.00    -0.206 F 
ATOM     68  C   UNL     1      13.768   6.264   3.595  1.00  0.00     0.060 A 
BRANCH  68  69
ATOM     69  S   UNL     1      15.048   6.875   2.490  1.00  0.00     0.124 S 
ATOM     70  O   UNL     1      15.127   5.793   1.514  1.00  0.00    -0.237 OA
ATOM     71  O   UNL     1      14.463   8.122   2.011  1.00  0.00    -0.237 OA
ATOM     72  O   UNL     1      16.205   7.018   3.366  1.00  0.00    -0.744 OA
ENDBRANCH  68  69
ENDBRANCH  47  61
BRANCH  48  73
ATOM     73  C   UNL     1       5.965  11.892   4.539  1.00  0.00     0.058 A 
ATOM     74  C   UNL     1       5.346  11.522   3.330  1.00  0.00     0.135 A 
ATOM     75  C   UNL     1       6.569  13.170   4.545  1.00  0.00     0.135 A 
ATOM     76  F   UNL     1       4.779  10.315   3.190  1.00  0.00    -0.206 F 
ATOM     77  C   UNL     1       5.363  12.331   2.192  1.00  0.00     0.059 A 
ATOM     78  C   UNL     1       6.594  14.006   3.412  1.00  0.00     0.059 A 
ATOM     79  F   UNL     1       7.206  13.607   5.642  1.00  0.00    -0.206 F 
ATOM     80  C   UNL     1       6.011  13.560   2.228  1.00  0.00     0.060 A 
BRANCH  80  81
ATOM     81  S   UNL     1       6.124  14.497   0.681  1.00  0.00     0.124 S 
ATOM     82  O   UNL     1       6.896  13.591  -0.163  1.00  0.00    -0.237 OA
ATOM     83  O   UNL     1       4.719  14.652   0.316  1.00  0.00    -0.237 OA
ATOM     84  O   UNL     1       6.806  15.727   1.070  1.00  0.00    -0.744 OA
ENDBRANCH  80  81
ENDBRANCH  48  73
BRANCH  60  85
ATOM     85  C   UNL     1       7.942   8.920   9.858  1.00  0.00     0.058 A 
ATOM     86  C   UNL     1       8.625   9.091  11.070  1.00  0.00     0.135 A 
ATOM     87  C   UNL     1       6.540   8.794   9.926  1.00  0.00     0.135 A 
ATOM     88  F   UNL     1       9.966   9.166  11.077  1.00  0.00    -0.206 F 
ATOM     89  C   UNL     1       7.967   9.107  12.293  1.00  0.00     0.059 A 
ATOM     90  C   UNL     1       5.851   8.838  11.147  1.00  0.00     0.059 A 
ATOM     91  F   UNL     1       5.819   8.552   8.822  1.00  0.00    -0.206 F 
ATOM     92  C   UNL     1       6.580   8.979  12.328  1.00  0.00     0.060 A 
BRANCH  92  93
ATOM     93  S   UNL     1       5.783   8.975  13.949  1.00  0.00     0.124 S 
ATOM     94  O   UNL     1       6.313   7.752  14.546  1.00  0.00    -0.237 OA
ATOM     95  O   UNL     1       6.272  10.220  14.535  1.00  0.00    -0.237 OA
ATOM     96  O   UNL     1       4.357   8.950  13.640  1.00  0.00    -0.744 OA
ENDBRANCH  92  93
ENDBRANCH  60  85
ENDBRANCH  34  35
ENDBRANCH  27  29
ENDBRANCH  26  27
ENDBRANCH  25  26
ENDBRANCH   1  25
TORSDOF 18
