REMARK SMILES O=C(Cc1cccn(C(F)F)c1=O)OCCOCCOC(=O)c1ccc(-c2c3nc(c(-c4c(F)cc(S(=O)(=O)[O-])cc4F)c4ccc([nH]4)c(-c4c(F)cc(S(=O)(=O)[O-])cc4F)c4nc(c(-c5c(F)cc(S(=O)(=O)[O-])cc5F)c5ccc2[nH]5)C=C4)C=C3)cc1
REMARK SMILES IDX 18 1 17 2 16 3 15 4 14 5 2 6 1 7 3 8 4 9 5 10 12 11 6 12
REMARK SMILES IDX 8 13 13 14 7 15 9 16 10 17 11 18 19 19 20 20 21 21 22 22
REMARK SMILES IDX 23 23 24 24 88 25 25 26 87 27 26 28 27 29 28 30 81 31 29 32
REMARK SMILES IDX 86 33 80 34 82 35 30 36 85 37 79 38 78 39 31 41 65 42 44 43
REMARK SMILES IDX 64 44 45 45 48 46 63 47 83 48 46 49 47 50 62 52 84 53 49 54
REMARK SMILES IDX 32 55 33 56 42 57 34 58 35 59 41 60 43 61 36 62 37 63 38 64
REMARK SMILES IDX 39 65 40 66 66 67 67 68 76 69 68 70 69 71 75 72 77 73 70 74
REMARK SMILES IDX 71 75 72 76 73 77 74 78 50 79 51 80 60 81 52 82 53 83 59 84
REMARK SMILES IDX 61 85 54 86 55 87 56 88 57 89 58 90
REMARK H PARENT 82 40 48 51
REMARK Flexibility Score: inf
ROOT
ATOM      1  C   UNL     1       2.668  -2.208  -0.828  1.00  0.00     0.202 C 
ENDROOT
BRANCH   1   2
ATOM      2  O   UNL     1       3.877  -1.452  -0.705  1.00  0.00    -0.374 OA
BRANCH   2   3
ATOM      3  C   UNL     1       4.198  -1.076   0.633  1.00  0.00     0.202 C 
BRANCH   3   4
ATOM      4  C   UNL     1       3.840   0.368   0.953  1.00  0.00     0.261 C 
BRANCH   4   5
ATOM      5  O   UNL     1       2.471   0.678   0.637  1.00  0.00    -0.463 OA
BRANCH   5   6
ATOM      6  C   UNL     1       2.021   1.159  -0.544  1.00  0.00     0.310 C 
ATOM      7  O   UNL     1       0.816   1.381  -0.681  1.00  0.00    -0.252 OA
BRANCH   6   8
ATOM      8  C   UNL     1       2.974   1.427  -1.696  1.00  0.00     0.164 C 
BRANCH   8   9
ATOM      9  C   UNL     1       3.865   2.608  -1.465  1.00  0.00     0.029 A 
ATOM     10  C   UNL     1       3.423   3.866  -1.291  1.00  0.00     0.011 A 
ATOM     11  C   UNL     1       5.339   2.341  -1.356  1.00  0.00     0.258 A 
ATOM     12  C   UNL     1       4.328   4.920  -0.905  1.00  0.00     0.019 A 
ATOM     13  N   UNL     1       6.093   3.353  -0.797  1.00  0.00    -0.258 N 
ATOM     14  O   UNL     1       5.798   1.246  -1.668  1.00  0.00    -0.269 OA
ATOM     15  C   UNL     1       5.603   4.631  -0.622  1.00  0.00     0.095 A 
BRANCH  13  16
ATOM     16  C   UNL     1       7.452   3.039  -0.437  1.00  0.00     0.451 C 
ATOM     17  F   UNL     1       8.305   3.614  -1.323  1.00  0.00    -0.185 F 
ATOM     18  F   UNL     1       7.741   3.579   0.778  1.00  0.00    -0.185 F 
ENDBRANCH  13  16
ENDBRANCH   8   9
ENDBRANCH   6   8
ENDBRANCH   5   6
ENDBRANCH   4   5
ENDBRANCH   3   4
ENDBRANCH   2   3
ENDBRANCH   1   2
BRANCH   1  19
ATOM     19  C   UNL     1       2.901  -3.717  -0.702  1.00  0.00     0.261 C 
BRANCH  19  20
ATOM     20  O   UNL     1       3.269  -4.048   0.647  1.00  0.00    -0.460 OA
BRANCH  20  21
ATOM     21  C   UNL     1       4.595  -4.233   0.869  1.00  0.00     0.338 C 
ATOM     22  O   UNL     1       5.468  -4.359   0.027  1.00  0.00    -0.246 OA
BRANCH  21  23
ATOM     23  C   UNL     1       4.866  -4.046   2.316  1.00  0.00     0.060 A 
ATOM     24  C   UNL     1       3.916  -4.360   3.292  1.00  0.00     0.016 A 
ATOM     25  C   UNL     1       6.097  -3.488   2.688  1.00  0.00     0.016 A 
ATOM     26  C   UNL     1       4.212  -4.147   4.640  1.00  0.00     0.010 A 
ATOM     27  C   UNL     1       6.396  -3.280   4.036  1.00  0.00     0.010 A 
ATOM     28  C   UNL     1       5.464  -3.634   5.021  1.00  0.00    -0.014 A 
BRANCH  28  29
ATOM     29  C   UNL     1       5.865  -3.672   6.447  1.00  0.00     0.031 A 
ATOM     30  C   UNL     1       5.866  -2.450   7.311  1.00  0.00     0.074 A 
ATOM     31  C   UNL     1       6.243  -4.865   6.946  1.00  0.00     0.049 A 
ATOM     32  N   UNL     1       6.111  -2.358   8.593  1.00  0.00    -0.248 NA
ATOM     33  C   UNL     1       5.562  -1.168   6.661  1.00  0.00     0.031 C 
ATOM     34  C   UNL     1       6.318  -6.108   6.173  1.00  0.00     0.029 A 
ATOM     35  N   UNL     1       6.625  -5.234   8.208  1.00  0.00    -0.354 N 
ATOM     36  C   UNL     1       5.972  -1.014   8.914  1.00  0.00     0.074 A 
ATOM     37  C   UNL     1       5.661  -0.320   7.679  1.00  0.00     0.031 C 
ATOM     38  C   UNL     1       6.695  -7.107   6.983  1.00  0.00     0.029 A 
ATOM     39  C   UNL     1       6.909  -6.574   8.324  1.00  0.00     0.049 A 
ATOM     40  H   UNL     1       6.689  -4.602   8.960  1.00  0.00     0.167 HD
ATOM     41  C   UNL     1       6.080  -0.425  10.130  1.00  0.00     0.037 A 
ATOM     42  C   UNL     1       7.292  -7.297   9.393  1.00  0.00     0.037 A 
ATOM     43  C   UNL     1       6.405  -1.132  11.345  1.00  0.00     0.049 A 
ATOM     44  C   UNL     1       7.425  -6.614  10.722  1.00  0.00     0.074 A 
ATOM     45  C   UNL     1       6.491  -0.632  12.634  1.00  0.00     0.029 A 
ATOM     46  N   UNL     1       6.713  -2.484  11.423  1.00  0.00    -0.354 N 
ATOM     47  N   UNL     1       7.208  -5.356  11.024  1.00  0.00    -0.248 NA
ATOM     48  C   UNL     1       7.846  -7.446  11.857  1.00  0.00     0.031 C 
ATOM     49  C   UNL     1       6.894  -1.670  13.482  1.00  0.00     0.029 A 
ATOM     50  C   UNL     1       7.016  -2.828  12.731  1.00  0.00     0.049 A 
ATOM     51  H   UNL     1       6.715  -3.107  10.661  1.00  0.00     0.167 HD
ATOM     52  C   UNL     1       7.456  -5.247  12.387  1.00  0.00     0.074 A 
ATOM     53  C   UNL     1       7.820  -6.570  12.853  1.00  0.00     0.031 C 
ATOM     54  C   UNL     1       7.388  -4.148  13.178  1.00  0.00     0.037 A 
BRANCH  41  55
ATOM     55  C   UNL     1       5.833   1.055  10.224  1.00  0.00     0.058 A 
ATOM     56  C   UNL     1       4.537   1.585  10.128  1.00  0.00     0.135 A 
ATOM     57  C   UNL     1       6.884   1.944  10.502  1.00  0.00     0.135 A 
ATOM     58  F   UNL     1       3.497   0.782   9.855  1.00  0.00    -0.206 F 
ATOM     59  C   UNL     1       4.293   2.945  10.293  1.00  0.00     0.059 A 
ATOM     60  C   UNL     1       6.660   3.306  10.691  1.00  0.00     0.059 A 
ATOM     61  F   UNL     1       8.143   1.490  10.606  1.00  0.00    -0.206 F 
ATOM     62  C   UNL     1       5.361   3.798  10.578  1.00  0.00     0.060 A 
BRANCH  62  63
ATOM     63  S   UNL     1       5.019   5.556  10.811  1.00  0.00     0.124 S 
ATOM     64  O   UNL     1       4.684   5.969   9.452  1.00  0.00    -0.237 OA
ATOM     65  O   UNL     1       3.909   5.534  11.758  1.00  0.00    -0.237 OA
ATOM     66  O   UNL     1       6.276   6.082  11.333  1.00  0.00    -0.744 OA
ENDBRANCH  62  63
ENDBRANCH  41  55
BRANCH  42  67
ATOM     67  C   UNL     1       7.539  -8.752   9.239  1.00  0.00     0.058 A 
ATOM     68  C   UNL     1       6.642  -9.693   9.761  1.00  0.00     0.135 A 
ATOM     69  C   UNL     1       8.648  -9.229   8.523  1.00  0.00     0.135 A 
ATOM     70  F   UNL     1       5.567  -9.284  10.453  1.00  0.00    -0.206 F 
ATOM     71  C   UNL     1       6.837 -11.059   9.586  1.00  0.00     0.059 A 
ATOM     72  C   UNL     1       8.853 -10.588   8.314  1.00  0.00     0.059 A 
ATOM     73  F   UNL     1       9.524  -8.364   7.985  1.00  0.00    -0.206 F 
ATOM     74  C   UNL     1       7.944 -11.496   8.856  1.00  0.00     0.060 A 
BRANCH  74  75
ATOM     75  S   UNL     1       8.154 -13.268   8.584  1.00  0.00     0.124 S 
ATOM     76  O   UNL     1       8.554 -13.723   9.911  1.00  0.00    -0.237 OA
ATOM     77  O   UNL     1       6.822 -13.670   8.145  1.00  0.00    -0.237 OA
ATOM     78  O   UNL     1       9.189 -13.330   7.556  1.00  0.00    -0.744 OA
ENDBRANCH  74  75
ENDBRANCH  42  67
BRANCH  54  79
ATOM     79  C   UNL     1       7.718  -4.327  14.633  1.00  0.00     0.058 A 
ATOM     80  C   UNL     1       9.042  -4.498  15.065  1.00  0.00     0.135 A 
ATOM     81  C   UNL     1       6.710  -4.264  15.608  1.00  0.00     0.135 A 
ATOM     82  F   UNL     1      10.040  -4.575  14.171  1.00  0.00    -0.206 F 
ATOM     83  C   UNL     1       9.355  -4.613  16.415  1.00  0.00     0.059 A 
ATOM     84  C   UNL     1       7.003  -4.353  16.966  1.00  0.00     0.059 A 
ATOM     85  F   UNL     1       5.429  -4.095  15.247  1.00  0.00    -0.206 F 
ATOM     86  C   UNL     1       8.329  -4.534  17.359  1.00  0.00     0.060 A 
BRANCH  86  87
ATOM     87  S   UNL     1       8.758  -4.635  19.110  1.00  0.00     0.124 S 
ATOM     88  O   UNL     1       9.091  -6.049  19.250  1.00  0.00    -0.237 OA
ATOM     89  O   UNL     1       9.880  -3.707  19.210  1.00  0.00    -0.237 OA
ATOM     90  O   UNL     1       7.536  -4.208  19.785  1.00  0.00    -0.744 OA
ENDBRANCH  86  87
ENDBRANCH  54  79
ENDBRANCH  28  29
ENDBRANCH  21  23
ENDBRANCH  20  21
ENDBRANCH  19  20
ENDBRANCH   1  19
TORSDOF 19
