REMARK SMILES CC1=C([C@H](NC(=O)c2cccc3ccccc23)C(=O)OCCOCCOC(=O)c2ccc(-c3c4nc(c(-c5c(F)cc(S(=O)(=O)[O-])cc5F)c5ccc([nH]5)c(-c5c(F)cc(S(=O)(=O)[O-])cc5F)c5nc(c(-c6c(F)cc(S(=O)(=O)[O-])cc6F)c6ccc3[nH]6)C=C5)C=C4)cc2)[C@H](C)N=N1
REMARK SMILES IDX 24 1 23 2 22 3 21 4 20 5 18 6 19 7 4 8 3 9 1 10 2 11 98 12
REMARK SMILES IDX 95 13 97 14 96 15 5 16 6 17 7 19 8 20 9 21 17 22 10 23 12 24
REMARK SMILES IDX 16 25 11 26 13 27 15 28 14 29 25 30 26 31 27 32 28 33 29 34
REMARK SMILES IDX 30 35 94 36 31 37 93 38 32 39 33 40 34 41 87 42 35 43 92 44
REMARK SMILES IDX 86 45 88 46 36 47 91 48 85 49 84 50 37 52 71 53 50 54 70 55
REMARK SMILES IDX 51 56 54 57 69 58 89 59 52 60 53 61 68 63 90 64 55 65 38 66
REMARK SMILES IDX 39 67 48 68 40 69 41 70 47 71 49 72 42 73 43 74 44 75 45 76
REMARK SMILES IDX 46 77 72 78 73 79 82 80 74 81 75 82 81 83 83 84 76 85 77 86
REMARK SMILES IDX 78 87 79 88 80 89 56 90 57 91 66 92 58 93 59 94 65 95 67 96
REMARK SMILES IDX 60 97 61 98 62 99 63 100 64 101
REMARK H PARENT 5 18 88 51 54 62
REMARK Flexibility Score: inf
ROOT
ATOM      1  C   UNL     1       4.573   2.516   1.033  1.00  0.00     0.202 C 
ENDROOT
BRANCH   1   2
ATOM      2  O   UNL     1       5.305   3.719   1.290  1.00  0.00    -0.374 OA
BRANCH   2   3
ATOM      3  C   UNL     1       4.870   4.610   2.327  1.00  0.00     0.202 C 
BRANCH   3   4
ATOM      4  C   UNL     1       3.660   5.475   2.002  1.00  0.00     0.261 C 
BRANCH   4   5
ATOM      5  O   UNL     1       2.509   4.644   1.783  1.00  0.00    -0.461 OA
BRANCH   5   6
ATOM      6  C   UNL     1       1.989   4.602   0.538  1.00  0.00     0.333 C 
ATOM      7  O   UNL     1       2.390   5.304  -0.384  1.00  0.00    -0.249 OA
BRANCH   6   8
ATOM      8  C   UNL     1       0.825   3.566   0.379  1.00  0.00     0.223 C 
BRANCH   8   9
ATOM      9  C   UNL     1      -0.505   4.170   0.036  1.00  0.00     0.012 C 
ATOM     10  C   UNL     1      -0.019   4.513  -2.422  1.00  0.00     0.069 C 
ATOM     11  C   UNL     1      -0.850   4.575  -1.190  1.00  0.00     0.064 C 
ATOM     12  N   UNL     1      -2.101   5.123  -1.245  1.00  0.00    -0.160 NA
ATOM     13  C   UNL     1      -1.709   4.482   0.887  1.00  0.00     0.156 C 
ATOM     14  N   UNL     1      -2.635   5.107  -0.107  1.00  0.00    -0.181 NA
ATOM     15  C   UNL     1      -2.511   3.372   1.569  1.00  0.00     0.040 C 
ENDBRANCH   8   9
BRANCH   8  16
ATOM     16  N   UNL     1       0.608   2.427   1.231  1.00  0.00    -0.335 N 
ATOM     17  C   UNL     1       0.321   2.353   2.548  1.00  0.00     0.252 C 
ATOM     18  H   UNL     1       0.681   1.556   0.779  1.00  0.00     0.165 HD
ATOM     19  O   UNL     1      -0.294   1.366   2.951  1.00  0.00    -0.269 OA
BRANCH  17  20
ATOM     20  C   UNL     1       0.868   3.309   3.508  1.00  0.00     0.047 A 
ATOM     21  C   UNL     1       0.476   4.638   3.671  1.00  0.00     0.014 A 
ATOM     22  C   UNL     1       1.726   2.708   4.387  1.00  0.00    -0.006 A 
ATOM     23  C   UNL     1       0.890   5.439   4.754  1.00  0.00     0.001 A 
ATOM     24  C   UNL     1       1.988   3.570   5.908  1.00  0.00    -0.018 A 
ATOM     25  C   UNL     1       2.280   1.007   4.077  1.00  0.00     0.009 A 
ATOM     26  C   UNL     1       1.581   4.925   5.868  1.00  0.00     0.009 A 
ATOM     27  C   UNL     1       2.786   2.590   7.231  1.00  0.00     0.009 A 
ATOM     28  C   UNL     1       3.189   0.050   5.170  1.00  0.00     0.001 A 
ATOM     29  C   UNL     1       3.504   0.745   6.732  1.00  0.00     0.001 A 
ENDBRANCH  17  20
ENDBRANCH   8  16
ENDBRANCH   6   8
ENDBRANCH   5   6
ENDBRANCH   4   5
ENDBRANCH   3   4
ENDBRANCH   2   3
ENDBRANCH   1   2
BRANCH   1  30
ATOM     30  C   UNL     1       4.619   1.486   2.132  1.00  0.00     0.261 C 
BRANCH  30  31
ATOM     31  O   UNL     1       4.015   2.136   3.234  1.00  0.00    -0.460 OA
BRANCH  31  32
ATOM     32  C   UNL     1       4.653   2.200   4.404  1.00  0.00     0.338 C 
ATOM     33  O   UNL     1       5.870   2.165   4.520  1.00  0.00    -0.246 OA
BRANCH  32  34
ATOM     34  C   UNL     1       3.681   2.230   5.598  1.00  0.00     0.060 A 
ATOM     35  C   UNL     1       4.841   2.364   7.017  1.00  0.00     0.016 A 
ATOM     36  C   UNL     1       1.861   1.446   6.074  1.00  0.00     0.016 A 
ATOM     37  C   UNL     1       4.334   1.631   8.568  1.00  0.00     0.010 A 
ATOM     38  C   UNL     1       1.515   0.805   7.575  1.00  0.00     0.010 A 
ATOM     39  C   UNL     1       2.772   0.763   8.711  1.00  0.00    -0.014 A 
BRANCH  39  40
ATOM     40  C   UNL     1       2.344  -0.490   9.429  1.00  0.00     0.031 A 
ATOM     41  C   UNL     1       1.676   0.211  10.547  1.00  0.00     0.074 A 
ATOM     42  C   UNL     1       2.169  -1.809   8.960  1.00  0.00     0.049 A 
ATOM     43  N   UNL     1       2.342   0.603  11.591  1.00  0.00    -0.248 NA
ATOM     44  C   UNL     1       0.485   1.102  10.319  1.00  0.00     0.031 C 
ATOM     45  C   UNL     1       2.600  -2.501   7.702  1.00  0.00     0.029 A 
ATOM     46  N   UNL     1       1.489  -2.903   9.547  1.00  0.00    -0.354 N 
ATOM     47  C   UNL     1       1.364   1.210  12.345  1.00  0.00     0.074 A 
ATOM     48  C   UNL     1       0.525   1.879  11.408  1.00  0.00     0.031 C 
ATOM     49  C   UNL     1       1.992  -3.719   7.529  1.00  0.00     0.029 A 
ATOM     50  C   UNL     1       1.185  -4.049   8.690  1.00  0.00     0.049 A 
ATOM     51  H   UNL     1       1.230  -2.892  10.497  1.00  0.00     0.167 HD
ATOM     52  C   UNL     1       0.973   0.542  13.462  1.00  0.00     0.037 A 
ATOM     53  C   UNL     1       0.477  -5.221   9.001  1.00  0.00     0.037 A 
ATOM     54  C   UNL     1       1.965  -0.469  13.800  1.00  0.00     0.049 A 
ATOM     55  C   UNL     1       0.466  -5.298  10.485  1.00  0.00     0.074 A 
ATOM     56  C   UNL     1       3.341  -0.449  13.950  1.00  0.00     0.029 A 
ATOM     57  N   UNL     1       1.629  -1.750  13.445  1.00  0.00    -0.354 N 
ATOM     58  N   UNL     1       1.548  -5.459  11.193  1.00  0.00    -0.248 NA
ATOM     59  C   UNL     1      -0.626  -4.574  11.106  1.00  0.00     0.031 C 
ATOM     60  C   UNL     1       3.817  -1.665  13.384  1.00  0.00     0.029 A 
ATOM     61  C   UNL     1       2.730  -2.484  13.094  1.00  0.00     0.049 A 
ATOM     62  H   UNL     1       0.709  -2.100  13.443  1.00  0.00     0.167 HD
ATOM     63  C   UNL     1       1.495  -4.399  12.081  1.00  0.00     0.074 A 
ATOM     64  C   UNL     1       0.117  -3.892  11.980  1.00  0.00     0.031 C 
ATOM     65  C   UNL     1       2.651  -3.804  12.505  1.00  0.00     0.037 A 
BRANCH  52  66
ATOM     66  C   UNL     1      -0.463   0.451  13.905  1.00  0.00     0.058 A 
ATOM     67  C   UNL     1      -0.677   0.114  15.245  1.00  0.00     0.135 A 
ATOM     68  C   UNL     1      -1.619   0.480  13.081  1.00  0.00     0.135 A 
ATOM     69  F   UNL     1       0.359   0.025  16.092  1.00  0.00    -0.206 F 
ATOM     70  C   UNL     1      -1.942  -0.172  15.739  1.00  0.00     0.059 A 
ATOM     71  C   UNL     1      -2.899   0.253  13.565  1.00  0.00     0.059 A 
ATOM     72  F   UNL     1      -1.576   0.660  11.757  1.00  0.00    -0.206 F 
ATOM     73  C   UNL     1      -3.048  -0.083  14.897  1.00  0.00     0.060 A 
BRANCH  73  74
ATOM     74  S   UNL     1      -4.677  -0.395  15.580  1.00  0.00     0.124 S 
ATOM     75  O   UNL     1      -4.582  -1.807  15.928  1.00  0.00    -0.237 OA
ATOM     76  O   UNL     1      -4.705   0.542  16.699  1.00  0.00    -0.237 OA
ATOM     77  O   UNL     1      -5.575  -0.070  14.476  1.00  0.00    -0.744 OA
ENDBRANCH  73  74
ENDBRANCH  52  66
BRANCH  53  78
ATOM     78  C   UNL     1      -0.487  -6.189   8.272  1.00  0.00     0.058 A 
ATOM     79  C   UNL     1      -1.082  -7.360   8.861  1.00  0.00     0.135 A 
ATOM     80  C   UNL     1      -1.135  -5.767   7.106  1.00  0.00     0.135 A 
ATOM     81  F   UNL     1      -0.570  -7.888   9.986  1.00  0.00    -0.206 F 
ATOM     82  C   UNL     1      -2.260  -7.992   8.364  1.00  0.00     0.059 A 
ATOM     83  C   UNL     1      -2.308  -6.370   6.603  1.00  0.00     0.059 A 
ATOM     84  F   UNL     1      -0.692  -4.680   6.463  1.00  0.00    -0.206 F 
ATOM     85  C   UNL     1      -2.890  -7.461   7.244  1.00  0.00     0.060 A 
BRANCH  85  86
ATOM     86  S   UNL     1      -4.521  -8.078   6.684  1.00  0.00     0.124 S 
ATOM     87  O   UNL     1      -4.202  -9.406   6.172  1.00  0.00    -0.237 OA
ATOM     88  O   UNL     1      -5.316  -8.045   7.907  1.00  0.00    -0.237 OA
ATOM     89  O   UNL     1      -4.915  -7.104   5.668  1.00  0.00    -0.744 OA
ENDBRANCH  85  86
ENDBRANCH  53  78
BRANCH  65  90
ATOM     90  C   UNL     1       3.965  -4.532  12.293  1.00  0.00     0.058 A 
ATOM     91  C   UNL     1       4.601  -4.792  11.061  1.00  0.00     0.135 A 
ATOM     92  C   UNL     1       4.684  -4.852  13.452  1.00  0.00     0.135 A 
ATOM     93  F   UNL     1       4.035  -4.426   9.901  1.00  0.00    -0.206 F 
ATOM     94  C   UNL     1       5.871  -5.386  10.996  1.00  0.00     0.059 A 
ATOM     95  C   UNL     1       5.955  -5.408  13.413  1.00  0.00     0.059 A 
ATOM     96  F   UNL     1       4.167  -4.567  14.658  1.00  0.00    -0.206 F 
ATOM     97  C   UNL     1       6.537  -5.696  12.183  1.00  0.00     0.060 A 
BRANCH  97  98
ATOM     98  S   UNL     1       8.176  -6.457  12.131  1.00  0.00     0.124 S 
ATOM     99  O   UNL     1       7.887  -7.773  11.572  1.00  0.00    -0.237 OA
ATOM    100  O   UNL     1       8.920  -5.548  11.264  1.00  0.00    -0.237 OA
ATOM    101  O   UNL     1       8.598  -6.455  13.531  1.00  0.00    -0.744 OA
ENDBRANCH  97  98
ENDBRANCH  65  90
ENDBRANCH  39  40
ENDBRANCH  32  34
ENDBRANCH  31  32
ENDBRANCH  30  31
ENDBRANCH   1  30
TORSDOF 20
