REMARK SMILES CC1=Nc2c(c(C)nn2-c2ccc(F)cc2)[C@H](c2ccc(C(=O)OCCOCCOC(=O)c3ccc(-c4c5nc(c(-c6c(F)cc(S(=O)(=O)[O-])cc6F)c6ccc([nH]6)c(-c6c(F)cc(S(=O)(=O)[O-])cc6F)c6nc(c(-c7c(F)cc(S(=O)(=O)[O-])cc7F)c7ccc4[nH]7)C=C6)C=C5)cc3)cc2)S1
REMARK SMILES IDX 28 1 27 2 26 3 25 4 24 5 22 6 23 7 21 8 18 9 19 10 100 11
REMARK SMILES IDX 20 12 99 13 17 14 1 15 2 16 3 17 101 18 4 19 5 20 9 21 6 22
REMARK SMILES IDX 8 23 7 24 10 25 11 26 16 27 12 28 15 29 13 30 14 31 29 32
REMARK SMILES IDX 30 33 31 34 32 35 33 36 34 37 98 38 35 39 97 40 36 41 37 42
REMARK SMILES IDX 38 43 91 44 39 45 96 46 90 47 92 48 40 49 95 50 89 51 88 52
REMARK SMILES IDX 41 54 75 55 54 56 74 57 55 58 58 59 73 60 93 61 56 62 57 63
REMARK SMILES IDX 72 65 94 66 59 67 42 68 43 69 52 70 44 71 45 72 51 73 53 74
REMARK SMILES IDX 46 75 47 76 48 77 49 78 50 79 76 80 77 81 86 82 78 83 79 84
REMARK SMILES IDX 85 85 87 86 80 87 81 88 82 89 83 90 84 91 60 92 61 93 70 94
REMARK SMILES IDX 62 95 63 96 69 97 71 98 64 99 65 100 66 101 67 102 68 103
REMARK H PARENT 92 53 58 64
REMARK Flexibility Score: inf
ROOT
ATOM      1  C   UNL     1      -2.073  -7.718   5.008  1.00  0.00     0.202 C 
ENDROOT
BRANCH   1   2
ATOM      2  O   UNL     1      -1.692  -8.232   6.281  1.00  0.00    -0.374 OA
BRANCH   2   3
ATOM      3  C   UNL     1      -1.187  -7.369   7.300  1.00  0.00     0.202 C 
BRANCH   3   4
ATOM      4  C   UNL     1       0.166  -6.683   7.102  1.00  0.00     0.261 C 
BRANCH   4   5
ATOM      5  O   UNL     1       0.218  -5.866   5.922  1.00  0.00    -0.460 OA
BRANCH   5   6
ATOM      6  C   UNL     1       0.988  -6.389   4.940  1.00  0.00     0.338 C 
ATOM      7  O   UNL     1       1.665  -7.405   5.008  1.00  0.00    -0.246 OA
BRANCH   6   8
ATOM      8  C   UNL     1       0.799  -5.678   3.657  1.00  0.00     0.060 A 
ATOM      9  C   UNL     1       0.799  -4.490   1.097  1.00  0.00    -0.030 A 
ATOM     10  C   UNL     1       0.849  -5.886   1.252  1.00  0.00     0.006 A 
ATOM     11  C   UNL     1       0.647  -3.708   2.262  1.00  0.00     0.006 A 
ATOM     12  C   UNL     1       0.837  -6.473   2.510  1.00  0.00     0.016 A 
ATOM     13  C   UNL     1       0.658  -4.296   3.540  1.00  0.00     0.016 A 
BRANCH   9  14
ATOM     14  C   UNL     1       1.003  -3.926  -0.305  1.00  0.00     0.119 C 
ATOM     15  C   UNL     1       1.070   0.208  -0.053  1.00  0.00     0.075 C 
ATOM     16  C   UNL     1       0.696  -1.177  -0.512  1.00  0.00     0.074 C 
ATOM     17  N   UNL     1      -0.504  -1.357  -0.961  1.00  0.00    -0.227 NA
ATOM     18  S   UNL     1       1.965  -2.382  -0.363  1.00  0.00    -0.098 SA
ATOM     19  C   UNL     1      -0.896  -2.612  -1.281  1.00  0.00     0.161 A 
ATOM     20  C   UNL     1      -0.312  -3.819  -0.972  1.00  0.00     0.038 A 
ATOM     21  N   UNL     1      -2.081  -2.903  -1.938  1.00  0.00    -0.215 N 
ATOM     22  C   UNL     1      -1.202  -4.794  -1.500  1.00  0.00     0.067 A 
ATOM     23  N   UNL     1      -2.317  -4.238  -1.988  1.00  0.00    -0.171 NA
ATOM     24  C   UNL     1      -1.053  -6.270  -1.563  1.00  0.00     0.069 C 
BRANCH  21  25
ATOM     25  C   UNL     1      -2.965  -1.984  -2.545  1.00  0.00     0.067 A 
ATOM     26  C   UNL     1      -2.451  -0.927  -3.312  1.00  0.00     0.031 A 
ATOM     27  C   UNL     1      -4.343  -2.117  -2.338  1.00  0.00     0.031 A 
ATOM     28  C   UNL     1      -3.324   0.007  -3.865  1.00  0.00     0.041 A 
ATOM     29  C   UNL     1      -5.203  -1.143  -2.848  1.00  0.00     0.041 A 
ATOM     30  C   UNL     1      -4.688  -0.098  -3.611  1.00  0.00     0.123 A 
ATOM     31  F   UNL     1      -5.516   0.825  -4.117  1.00  0.00    -0.207 F 
ENDBRANCH  21  25
ENDBRANCH   9  14
ENDBRANCH   6   8
ENDBRANCH   5   6
ENDBRANCH   4   5
ENDBRANCH   3   4
ENDBRANCH   2   3
ENDBRANCH   1   2
BRANCH   1  32
ATOM     32  C   UNL     1      -3.292  -6.813   4.897  1.00  0.00     0.261 C 
BRANCH  32  33
ATOM     33  O   UNL     1      -3.167  -5.677   5.730  1.00  0.00    -0.460 OA
BRANCH  33  34
ATOM     34  C   UNL     1      -3.828  -5.791   6.906  1.00  0.00     0.338 C 
ATOM     35  O   UNL     1      -4.365  -6.782   7.357  1.00  0.00    -0.246 OA
BRANCH  34  36
ATOM     36  C   UNL     1      -3.876  -4.465   7.534  1.00  0.00     0.060 A 
ATOM     37  C   UNL     1      -4.668  -4.387   8.681  1.00  0.00     0.016 A 
ATOM     38  C   UNL     1      -3.579  -3.351   6.740  1.00  0.00     0.016 A 
ATOM     39  C   UNL     1      -5.469  -3.282   8.817  1.00  0.00     0.010 A 
ATOM     40  C   UNL     1      -4.402  -2.267   6.856  1.00  0.00     0.010 A 
ATOM     41  C   UNL     1      -5.411  -2.311   7.816  1.00  0.00    -0.014 A 
BRANCH  41  42
ATOM     42  C   UNL     1      -6.413  -1.274   7.794  1.00  0.00     0.031 A 
ATOM     43  C   UNL     1      -6.066  -0.172   8.716  1.00  0.00     0.074 A 
ATOM     44  C   UNL     1      -7.429  -1.304   6.910  1.00  0.00     0.049 A 
ATOM     45  N   UNL     1      -6.611   0.114   9.851  1.00  0.00    -0.248 NA
ATOM     46  C   UNL     1      -4.788   0.524   8.473  1.00  0.00     0.031 C 
ATOM     47  C   UNL     1      -7.660  -2.234   5.798  1.00  0.00     0.029 A 
ATOM     48  N   UNL     1      -8.443  -0.412   6.769  1.00  0.00    -0.354 N 
ATOM     49  C   UNL     1      -5.878   1.192  10.334  1.00  0.00     0.074 A 
ATOM     50  C   UNL     1      -4.636   1.191   9.615  1.00  0.00     0.031 C 
ATOM     51  C   UNL     1      -8.600  -1.718   4.969  1.00  0.00     0.029 A 
ATOM     52  C   UNL     1      -9.127  -0.501   5.556  1.00  0.00     0.049 A 
ATOM     53  H   UNL     1      -8.676   0.244   7.465  1.00  0.00     0.167 HD
ATOM     54  C   UNL     1      -6.463   2.185  11.055  1.00  0.00     0.037 A 
ATOM     55  C   UNL     1      -9.982   0.446   5.083  1.00  0.00     0.037 A 
ATOM     56  C   UNL     1      -7.744   1.765  11.561  1.00  0.00     0.049 A 
ATOM     57  C   UNL     1     -10.385   1.268   6.264  1.00  0.00     0.074 A 
ATOM     58  C   UNL     1      -8.154   0.783  12.440  1.00  0.00     0.029 A 
ATOM     59  N   UNL     1      -8.858   2.114  10.833  1.00  0.00    -0.354 N 
ATOM     60  N   UNL     1     -11.070   0.791   7.273  1.00  0.00    -0.248 NA
ATOM     61  C   UNL     1      -9.578   2.444   6.560  1.00  0.00     0.031 C 
ATOM     62  C   UNL     1      -9.359   0.267  11.883  1.00  0.00     0.029 A 
ATOM     63  C   UNL     1      -9.666   1.008  10.740  1.00  0.00     0.049 A 
ATOM     64  H   UNL     1      -9.043   3.001  10.446  1.00  0.00     0.167 HD
ATOM     65  C   UNL     1     -10.484   1.349   8.405  1.00  0.00     0.074 A 
ATOM     66  C   UNL     1      -9.591   2.388   7.895  1.00  0.00     0.031 C 
ATOM     67  C   UNL     1     -10.547   0.731   9.622  1.00  0.00     0.037 A 
BRANCH  54  68
ATOM     68  C   UNL     1      -6.035   3.630  10.986  1.00  0.00     0.058 A 
ATOM     69  C   UNL     1      -5.310   4.202   9.914  1.00  0.00     0.135 A 
ATOM     70  C   UNL     1      -6.574   4.549  11.907  1.00  0.00     0.135 A 
ATOM     71  F   UNL     1      -4.830   3.483   8.893  1.00  0.00    -0.206 F 
ATOM     72  C   UNL     1      -5.117   5.567   9.773  1.00  0.00     0.059 A 
ATOM     73  C   UNL     1      -6.446   5.931  11.748  1.00  0.00     0.059 A 
ATOM     74  F   UNL     1      -7.295   4.120  12.955  1.00  0.00    -0.206 F 
ATOM     75  C   UNL     1      -5.717   6.428  10.675  1.00  0.00     0.060 A 
BRANCH  75  76
ATOM     76  S   UNL     1      -5.596   8.190  10.341  1.00  0.00     0.124 S 
ATOM     77  O   UNL     1      -4.168   8.425  10.536  1.00  0.00    -0.237 OA
ATOM     78  O   UNL     1      -6.070   8.268   8.963  1.00  0.00    -0.237 OA
ATOM     79  O   UNL     1      -6.475   8.782  11.343  1.00  0.00    -0.744 OA
ENDBRANCH  75  76
ENDBRANCH  54  68
BRANCH  55  80
ATOM     80  C   UNL     1     -10.099   0.949   3.683  1.00  0.00     0.058 A 
ATOM     81  C   UNL     1      -9.011   0.881   2.789  1.00  0.00     0.135 A 
ATOM     82  C   UNL     1     -11.177   1.760   3.278  1.00  0.00     0.135 A 
ATOM     83  F   UNL     1      -7.906   0.186   3.097  1.00  0.00    -0.206 F 
ATOM     84  C   UNL     1      -8.975   1.596   1.592  1.00  0.00     0.059 A 
ATOM     85  C   UNL     1     -11.164   2.489   2.079  1.00  0.00     0.059 A 
ATOM     86  F   UNL     1     -12.245   1.906   4.078  1.00  0.00    -0.206 F 
ATOM     87  C   UNL     1     -10.043   2.419   1.254  1.00  0.00     0.060 A 
BRANCH  87  88
ATOM     88  S   UNL     1      -9.889   3.437  -0.234  1.00  0.00     0.124 S 
ATOM     89  O   UNL     1      -8.731   4.265   0.090  1.00  0.00    -0.237 OA
ATOM     90  O   UNL     1      -9.675   2.430  -1.268  1.00  0.00    -0.237 OA
ATOM     91  O   UNL     1     -11.164   4.142  -0.302  1.00  0.00    -0.744 OA
ENDBRANCH  87  88
ENDBRANCH  55  80
BRANCH  67  92
ATOM     92  C   UNL     1     -11.446  -0.475   9.779  1.00  0.00     0.058 A 
ATOM     93  C   UNL     1     -12.449  -0.420  10.756  1.00  0.00     0.135 A 
ATOM     94  C   UNL     1     -11.202  -1.727   9.181  1.00  0.00     0.135 A 
ATOM     95  F   UNL     1     -12.696   0.732  11.401  1.00  0.00    -0.206 F 
ATOM     96  C   UNL     1     -13.155  -1.552  11.152  1.00  0.00     0.059 A 
ATOM     97  C   UNL     1     -11.921  -2.873   9.540  1.00  0.00     0.059 A 
ATOM     98  F   UNL     1     -10.206  -1.882   8.299  1.00  0.00    -0.206 F 
ATOM     99  C   UNL     1     -12.880  -2.777  10.546  1.00  0.00     0.060 A 
BRANCH  99 100
ATOM    100  S   UNL     1     -13.769  -4.234  11.139  1.00  0.00     0.124 S 
ATOM    101  O   UNL     1     -13.257  -4.367  12.500  1.00  0.00    -0.237 OA
ATOM    102  O   UNL     1     -15.162  -3.812  11.030  1.00  0.00    -0.237 OA
ATOM    103  O   UNL     1     -13.365  -5.290  10.216  1.00  0.00    -0.744 OA
ENDBRANCH  99 100
ENDBRANCH  67  92
ENDBRANCH  41  42
ENDBRANCH  34  36
ENDBRANCH  33  34
ENDBRANCH  32  33
ENDBRANCH   1  32
TORSDOF 19
