REMARK SMILES COc1ccc2c(c1)[C@@](NC=O)(C(=O)OCCOCCOC(=O)c1ccc(-c3c4nc(c(-c5c(F)cc(S(=O)(=O)[O-])cc5F)c5ccc([nH]5)c(-c5c(F)cc(S(=O)(=O)[O-])cc5F)c5nc(c(-c6c(F)cc(S(=O)(=O)[O-])cc6F)c6ccc3[nH]6)C=C5)C=C4)cc1)CCC2
REMARK SMILES IDX 19 1 18 2 17 3 16 4 15 5 13 6 14 7 9 8 3 9 4 10 8 11 5 12
REMARK SMILES IDX 7 13 6 14 92 15 90 16 91 17 2 18 1 19 10 20 11 21 12 23
REMARK SMILES IDX 20 24 21 25 22 26 23 27 24 28 25 29 89 30 26 31 88 32 27 33
REMARK SMILES IDX 28 34 29 35 82 36 30 37 87 38 81 39 83 40 31 41 86 42 80 43
REMARK SMILES IDX 79 44 32 46 66 47 45 48 65 49 46 50 49 51 64 52 84 53 47 54
REMARK SMILES IDX 48 55 63 57 85 58 50 59 33 60 34 61 43 62 35 63 36 64 42 65
REMARK SMILES IDX 44 66 37 67 38 68 39 69 40 70 41 71 67 72 68 73 77 74 69 75
REMARK SMILES IDX 70 76 76 77 78 78 71 79 72 80 73 81 74 82 75 83 51 84 52 85
REMARK SMILES IDX 61 86 53 87 54 88 60 89 62 90 55 91 56 92 57 93 58 94 59 95
REMARK H PARENT 10 22 83 45 49 56
REMARK Flexibility Score: inf
ROOT
ATOM      1  C   UNL     1       4.487  -0.779   4.670  1.00  0.00     0.202 C 
ENDROOT
BRANCH   1   2
ATOM      2  O   UNL     1       5.916  -0.798   4.661  1.00  0.00    -0.374 OA
BRANCH   2   3
ATOM      3  C   UNL     1       6.575  -0.302   3.500  1.00  0.00     0.202 C 
BRANCH   3   4
ATOM      4  C   UNL     1       6.619  -1.199   2.257  1.00  0.00     0.261 C 
BRANCH   4   5
ATOM      5  O   UNL     1       5.401  -1.918   2.013  1.00  0.00    -0.461 OA
BRANCH   5   6
ATOM      6  C   UNL     1       5.391  -3.186   2.513  1.00  0.00     0.336 C 
ATOM      7  O   UNL     1       6.375  -3.695   3.049  1.00  0.00    -0.249 OA
BRANCH   6   8
ATOM      8  C   UNL     1       4.089  -3.997   2.180  1.00  0.00     0.164 C 
ATOM      9  C   UNL     1       1.199  -1.426   1.923  1.00  0.00     0.119 A 
ATOM     10  C   UNL     1       0.224  -2.005   2.723  1.00  0.00     0.047 A 
ATOM     11  C   UNL     1       2.442  -2.051   1.763  1.00  0.00     0.053 A 
ATOM     12  C   UNL     1       0.470  -3.228   3.332  1.00  0.00     0.008 A 
ATOM     13  C   UNL     1       2.741  -3.275   2.409  1.00  0.00    -0.004 A 
ATOM     14  C   UNL     1       1.708  -3.877   3.172  1.00  0.00    -0.042 A 
ATOM     15  C   UNL     1       1.872  -5.204   3.870  1.00  0.00     0.036 C 
ATOM     16  C   UNL     1       4.225  -5.253   3.096  1.00  0.00     0.046 C 
ATOM     17  C   UNL     1       2.959  -6.067   3.259  1.00  0.00     0.008 C 
BRANCH   9  18
ATOM     18  O   UNL     1       0.876  -0.211   1.383  1.00  0.00    -0.497 OA
ATOM     19  C   UNL     1       1.177  -0.103  -0.006  1.00  0.00     0.278 C 
ENDBRANCH   9  18
BRANCH   8  20
ATOM     20  N   UNL     1       4.223  -4.379   0.762  1.00  0.00    -0.339 N 
ATOM     21  C   UNL     1       3.300  -5.028   0.005  1.00  0.00     0.338 C 
ATOM     22  H   UNL     1       5.069  -4.139   0.318  1.00  0.00     0.164 HD
ATOM     23  O   UNL     1       3.521  -5.385  -1.143  1.00  0.00    -0.279 OA
ENDBRANCH   8  20
ENDBRANCH   6   8
ENDBRANCH   5   6
ENDBRANCH   4   5
ENDBRANCH   3   4
ENDBRANCH   2   3
ENDBRANCH   1   2
BRANCH   1  24
ATOM     24  C   UNL     1       3.788   0.584   4.727  1.00  0.00     0.261 C 
BRANCH  24  25
ATOM     25  O   UNL     1       3.940   1.318   3.498  1.00  0.00    -0.460 OA
BRANCH  25  26
ATOM     26  C   UNL     1       4.607   2.490   3.611  1.00  0.00     0.338 C 
ATOM     27  O   UNL     1       5.027   3.004   4.640  1.00  0.00    -0.246 OA
BRANCH  26  28
ATOM     28  C   UNL     1       4.964   2.992   2.273  1.00  0.00     0.060 A 
ATOM     29  C   UNL     1       6.316   3.264   2.021  1.00  0.00     0.016 A 
ATOM     30  C   UNL     1       3.993   3.258   1.306  1.00  0.00     0.016 A 
ATOM     31  C   UNL     1       6.697   3.853   0.819  1.00  0.00     0.010 A 
ATOM     32  C   UNL     1       4.377   3.862   0.103  1.00  0.00     0.010 A 
ATOM     33  C   UNL     1       5.724   4.194  -0.130  1.00  0.00    -0.014 A 
BRANCH  33  34
ATOM     34  C   UNL     1       6.102   5.037  -1.289  1.00  0.00     0.031 A 
ATOM     35  C   UNL     1       5.844   6.518  -1.224  1.00  0.00     0.074 A 
ATOM     36  C   UNL     1       6.698   4.499  -2.368  1.00  0.00     0.049 A 
ATOM     37  N   UNL     1       6.059   7.438  -2.127  1.00  0.00    -0.248 NA
ATOM     38  C   UNL     1       5.265   7.029   0.030  1.00  0.00     0.031 C 
ATOM     39  C   UNL     1       7.041   3.086  -2.526  1.00  0.00     0.029 A 
ATOM     40  N   UNL     1       7.115   5.080  -3.538  1.00  0.00    -0.354 N 
ATOM     41  C   UNL     1       5.641   8.635  -1.556  1.00  0.00     0.074 A 
ATOM     42  C   UNL     1       5.132   8.320  -0.239  1.00  0.00     0.031 C 
ATOM     43  C   UNL     1       7.610   2.909  -3.731  1.00  0.00     0.029 A 
ATOM     44  C   UNL     1       7.641   4.187  -4.440  1.00  0.00     0.049 A 
ATOM     45  H   UNL     1       7.044   6.046  -3.716  1.00  0.00     0.167 HD
ATOM     46  C   UNL     1       5.686   9.883  -2.079  1.00  0.00     0.037 A 
ATOM     47  C   UNL     1       8.079   4.378  -5.701  1.00  0.00     0.037 A 
ATOM     48  C   UNL     1       6.193  10.190  -3.391  1.00  0.00     0.049 A 
ATOM     49  C   UNL     1       8.053   5.765  -6.289  1.00  0.00     0.074 A 
ATOM     50  C   UNL     1       6.288  11.424  -4.011  1.00  0.00     0.029 A 
ATOM     51  N   UNL     1       6.686   9.254  -4.288  1.00  0.00    -0.354 N 
ATOM     52  N   UNL     1       7.663   6.889  -5.735  1.00  0.00    -0.248 NA
ATOM     53  C   UNL     1       8.526   5.910  -7.673  1.00  0.00     0.031 C 
ATOM     54  C   UNL     1       6.797  11.228  -5.299  1.00  0.00     0.029 A 
ATOM     55  C   UNL     1       7.067   9.878  -5.464  1.00  0.00     0.049 A 
ATOM     56  H   UNL     1       6.756   8.287  -4.114  1.00  0.00     0.167 HD
ATOM     57  C   UNL     1       7.872   7.878  -6.691  1.00  0.00     0.074 A 
ATOM     58  C   UNL     1       8.428   7.220  -7.856  1.00  0.00     0.031 C 
ATOM     59  C   UNL     1       7.627   9.210  -6.612  1.00  0.00     0.037 A 
BRANCH  46  60
ATOM     60  C   UNL     1       5.152  11.008  -1.238  1.00  0.00     0.058 A 
ATOM     61  C   UNL     1       5.842  11.479  -0.109  1.00  0.00     0.135 A 
ATOM     62  C   UNL     1       3.947  11.644  -1.581  1.00  0.00     0.135 A 
ATOM     63  F   UNL     1       6.988  10.895   0.275  1.00  0.00    -0.206 F 
ATOM     64  C   UNL     1       5.344  12.523   0.664  1.00  0.00     0.059 A 
ATOM     65  C   UNL     1       3.444  12.707  -0.837  1.00  0.00     0.059 A 
ATOM     66  F   UNL     1       3.246  11.231  -2.648  1.00  0.00    -0.206 F 
ATOM     67  C   UNL     1       4.143  13.130   0.293  1.00  0.00     0.060 A 
BRANCH  67  68
ATOM     68  S   UNL     1       3.512  14.486   1.304  1.00  0.00     0.124 S 
ATOM     69  O   UNL     1       3.043  13.772   2.488  1.00  0.00    -0.237 OA
ATOM     70  O   UNL     1       4.698  15.314   1.492  1.00  0.00    -0.237 OA
ATOM     71  O   UNL     1       2.467  15.073   0.471  1.00  0.00    -0.744 OA
ENDBRANCH  67  68
ENDBRANCH  46  60
BRANCH  47  72
ATOM     72  C   UNL     1       8.573   3.224  -6.498  1.00  0.00     0.058 A 
ATOM     73  C   UNL     1       9.930   3.098  -6.826  1.00  0.00     0.135 A 
ATOM     74  C   UNL     1       7.696   2.224  -6.948  1.00  0.00     0.135 A 
ATOM     75  F   UNL     1      10.806   4.034  -6.429  1.00  0.00    -0.206 F 
ATOM     76  C   UNL     1      10.401   2.029  -7.582  1.00  0.00     0.059 A 
ATOM     77  C   UNL     1       8.146   1.133  -7.684  1.00  0.00     0.059 A 
ATOM     78  F   UNL     1       6.388   2.294  -6.652  1.00  0.00    -0.206 F 
ATOM     79  C   UNL     1       9.500   1.049  -8.005  1.00  0.00     0.060 A 
BRANCH  79  80
ATOM     80  S   UNL     1      10.129  -0.360  -8.942  1.00  0.00     0.124 S 
ATOM     81  O   UNL     1      10.397   0.247 -10.241  1.00  0.00    -0.237 OA
ATOM     82  O   UNL     1      11.302  -0.747  -8.164  1.00  0.00    -0.237 OA
ATOM     83  O   UNL     1       9.021  -1.309  -8.904  1.00  0.00    -0.744 OA
ENDBRANCH  79  80
ENDBRANCH  47  72
BRANCH  59  84
ATOM     84  C   UNL     1       7.993  10.055  -7.801  1.00  0.00     0.058 A 
ATOM     85  C   UNL     1       7.239  10.033  -8.984  1.00  0.00     0.135 A 
ATOM     86  C   UNL     1       9.082  10.940  -7.734  1.00  0.00     0.135 A 
ATOM     87  F   UNL     1       6.191   9.201  -9.101  1.00  0.00    -0.206 F 
ATOM     88  C   UNL     1       7.563  10.843 -10.067  1.00  0.00     0.059 A 
ATOM     89  C   UNL     1       9.409  11.778  -8.795  1.00  0.00     0.059 A 
ATOM     90  F   UNL     1       9.830  11.009  -6.621  1.00  0.00    -0.206 F 
ATOM     91  C   UNL     1       8.649  11.714  -9.963  1.00  0.00     0.060 A 
BRANCH  91  92
ATOM     92  S   UNL     1       9.040  12.786 -11.363  1.00  0.00     0.124 S 
ATOM     93  O   UNL     1       9.647  11.841 -12.295  1.00  0.00    -0.237 OA
ATOM     94  O   UNL     1       7.726  13.295 -11.743  1.00  0.00    -0.237 OA
ATOM     95  O   UNL     1       9.947  13.776 -10.791  1.00  0.00    -0.744 OA
ENDBRANCH  91  92
ENDBRANCH  59  84
ENDBRANCH  33  34
ENDBRANCH  26  28
ENDBRANCH  25  26
ENDBRANCH  24  25
ENDBRANCH   1  24
TORSDOF 19
