REMARK SMILES Cc1cc(C)c(NC(=O)C[C@H](C(=O)OCCOCCOC(=O)c2ccc(-c3c4nc(c(-c5c(F)cc(S(=O)(=O)[O-])cc5F)c5ccc([nH]5)c(-c5c(F)cc(S(=O)(=O)[O-])cc5F)c5nc(c(-c6c(F)cc(S(=O)(=O)[O-])cc6F)c6ccc3[nH]6)C=C5)C=C4)cc2)[NH+]2CC[NH+](C)CC2)c(C)c1
REMARK SMILES IDX 17 1 16 2 15 3 14 4 12 5 13 6 11 7 10 8 8 9 7 10 9 12 6 13
REMARK SMILES IDX 1 14 2 15 3 16 98 17 4 18 96 19 5 20 97 21 89 22 90 23 95 24
REMARK SMILES IDX 91 26 94 27 92 28 93 29 18 31 19 32 20 33 21 34 22 35 23 36
REMARK SMILES IDX 24 37 88 38 25 39 87 40 26 41 27 42 28 43 81 44 29 45 86 46
REMARK SMILES IDX 80 47 82 48 30 49 85 50 79 51 78 52 31 54 65 55 44 56 64 57
REMARK SMILES IDX 45 58 48 59 63 60 83 61 46 62 47 63 62 65 84 66 49 67 32 68
REMARK SMILES IDX 33 69 42 70 34 71 35 72 41 73 43 74 36 75 37 76 38 77 39 78
REMARK SMILES IDX 40 79 66 80 67 81 76 82 68 83 69 84 75 85 77 86 70 87 71 88
REMARK SMILES IDX 72 89 73 90 74 91 50 92 51 93 60 94 52 95 53 96 59 97 61 98
REMARK SMILES IDX 54 99 55 100 56 101 57 102 58 103
REMARK H PARENT 7 11 89 25 92 30 82 53 48 64
REMARK Flexibility Score: inf
ROOT
ATOM      1  O   UNL     1      -6.076  -1.783  -0.954  1.00  0.00    -0.374 OA
ENDROOT
BRANCH   1   2
ATOM      2  C   UNL     1      -5.014  -1.863  -1.897  1.00  0.00     0.202 C 
BRANCH   2   3
ATOM      3  C   UNL     1      -3.917  -0.791  -1.859  1.00  0.00     0.261 C 
BRANCH   3   4
ATOM      4  O   UNL     1      -3.495  -0.435  -0.532  1.00  0.00    -0.459 OA
BRANCH   4   5
ATOM      5  C   UNL     1      -3.744   0.868  -0.176  1.00  0.00     0.365 C 
ATOM      6  O   UNL     1      -4.247   1.677  -0.946  1.00  0.00    -0.245 OA
BRANCH   5   7
ATOM      7  C   UNL     1      -3.398   1.113   1.334  1.00  0.00     0.304 C 
BRANCH   7   8
ATOM      8  C   UNL     1      -1.909   0.723   1.543  1.00  0.00     0.177 C 
BRANCH   8   9
ATOM      9  C   UNL     1      -0.848   1.670   2.082  1.00  0.00     0.231 C 
ATOM     10  N   UNL     1      -0.462   2.845   1.512  1.00  0.00    -0.325 N 
ATOM     11  H   UNL     1       0.324   3.267   1.927  1.00  0.00     0.169 HD
ATOM     12  O   UNL     1      -0.278   1.368   3.142  1.00  0.00    -0.274 OA
BRANCH  10  13
ATOM     13  C   UNL     1      -1.007   3.549   0.428  1.00  0.00     0.047 A 
ATOM     14  C   UNL     1      -3.727   5.498  -2.247  1.00  0.00     0.044 C 
ATOM     15  C   UNL     1      -2.650   4.897  -1.396  1.00  0.00    -0.050 A 
ATOM     16  C   UNL     1      -2.144   3.630  -1.695  1.00  0.00     0.009 A 
ATOM     17  C   UNL     1      -2.172   5.559  -0.266  1.00  0.00     0.009 A 
ATOM     18  C   UNL     1      -1.287   2.959  -0.808  1.00  0.00    -0.027 A 
ATOM     19  C   UNL     1      -1.304   4.915   0.629  1.00  0.00    -0.027 A 
ATOM     20  C   UNL     1      -0.607   1.712  -1.302  1.00  0.00     0.046 C 
ATOM     21  C   UNL     1      -0.750   5.698   1.789  1.00  0.00     0.046 C 
ENDBRANCH  10  13
ENDBRANCH   8   9
ENDBRANCH   7   8
BRANCH   7  22
ATOM     22  N   UNL     1      -3.883   2.441   1.783  1.00  0.00    -0.313 N 
ATOM     23  C   UNL     1      -3.650   2.792   3.193  1.00  0.00     0.325 C 
ATOM     24  C   UNL     1      -5.326   2.687   1.543  1.00  0.00     0.325 C 
ATOM     25  H   UNL     1      -3.299   3.031   1.191  1.00  0.00     0.349 HD
ATOM     26  C   UNL     1      -3.944   4.304   3.410  1.00  0.00     0.324 C 
ATOM     27  C   UNL     1      -5.610   4.201   1.655  1.00  0.00     0.324 C 
ATOM     28  N   UNL     1      -5.259   4.803   2.957  1.00  0.00    -0.328 N 
ATOM     29  C   UNL     1      -6.297   4.593   3.952  1.00  0.00     0.333 C 
ATOM     30  H   UNL     1      -5.188   5.813   2.831  1.00  0.00     0.348 HD
ENDBRANCH   7  22
ENDBRANCH   5   7
ENDBRANCH   4   5
ENDBRANCH   3   4
ENDBRANCH   2   3
ENDBRANCH   1   2
BRANCH   1  31
ATOM     31  C   UNL     1      -5.771  -1.936   0.429  1.00  0.00     0.202 C 
BRANCH  31  32
ATOM     32  C   UNL     1      -5.071  -3.216   0.912  1.00  0.00     0.261 C 
BRANCH  32  33
ATOM     33  O   UNL     1      -3.789  -3.459   0.306  1.00  0.00    -0.460 OA
BRANCH  33  34
ATOM     34  C   UNL     1      -3.719  -4.602  -0.421  1.00  0.00     0.338 C 
ATOM     35  O   UNL     1      -4.620  -5.408  -0.615  1.00  0.00    -0.246 OA
BRANCH  34  36
ATOM     36  C   UNL     1      -2.425  -4.704  -1.113  1.00  0.00     0.060 A 
ATOM     37  C   UNL     1      -2.422  -4.725  -2.514  1.00  0.00     0.016 A 
ATOM     38  C   UNL     1      -1.251  -4.933  -0.394  1.00  0.00     0.016 A 
ATOM     39  C   UNL     1      -1.247  -5.018  -3.205  1.00  0.00     0.010 A 
ATOM     40  C   UNL     1      -0.077  -5.239  -1.089  1.00  0.00     0.010 A 
ATOM     41  C   UNL     1      -0.079  -5.318  -2.494  1.00  0.00    -0.014 A 
BRANCH  41  42
ATOM     42  C   UNL     1       1.105  -5.863  -3.202  1.00  0.00     0.031 A 
ATOM     43  C   UNL     1       1.340  -7.348  -3.189  1.00  0.00     0.074 A 
ATOM     44  C   UNL     1       1.970  -5.043  -3.822  1.00  0.00     0.049 A 
ATOM     45  N   UNL     1       2.360  -8.029  -3.640  1.00  0.00    -0.248 NA
ATOM     46  C   UNL     1       0.285  -8.172  -2.579  1.00  0.00     0.031 C 
ATOM     47  C   UNL     1       1.828  -3.592  -3.926  1.00  0.00     0.029 A 
ATOM     48  N   UNL     1       3.156  -5.315  -4.457  1.00  0.00    -0.354 N 
ATOM     49  C   UNL     1       2.085  -9.359  -3.346  1.00  0.00     0.074 A 
ATOM     50  C   UNL     1       0.806  -9.387  -2.669  1.00  0.00     0.031 C 
ATOM     51  C   UNL     1       2.908  -3.095  -4.553  1.00  0.00     0.029 A 
ATOM     52  C   UNL     1       3.829  -4.188  -4.862  1.00  0.00     0.049 A 
ATOM     53  H   UNL     1       3.492  -6.228  -4.607  1.00  0.00     0.167 HD
ATOM     54  C   UNL     1       2.834 -10.456  -3.613  1.00  0.00     0.037 A 
ATOM     55  C   UNL     1       5.064  -4.050  -5.385  1.00  0.00     0.037 A 
ATOM     56  C   UNL     1       4.102 -10.417  -4.292  1.00  0.00     0.049 A 
ATOM     57  C   UNL     1       5.900  -5.274  -5.641  1.00  0.00     0.074 A 
ATOM     58  C   UNL     1       4.918 -11.474  -4.653  1.00  0.00     0.029 A 
ATOM     59  N   UNL     1       4.746  -9.257  -4.698  1.00  0.00    -0.354 N 
ATOM     60  N   UNL     1       5.613  -6.531  -5.397  1.00  0.00    -0.248 NA
ATOM     61  C   UNL     1       7.225  -5.068  -6.242  1.00  0.00     0.031 C 
ATOM     62  C   UNL     1       6.079 -10.950  -5.233  1.00  0.00     0.029 A 
ATOM     63  C   UNL     1       5.963  -9.569  -5.279  1.00  0.00     0.049 A 
ATOM     64  H   UNL     1       4.390  -8.345  -4.589  1.00  0.00     0.167 HD
ATOM     65  C   UNL     1       6.710  -7.266  -5.834  1.00  0.00     0.074 A 
ATOM     66  C   UNL     1       7.666  -6.314  -6.360  1.00  0.00     0.031 C 
ATOM     67  C   UNL     1       6.902  -8.609  -5.807  1.00  0.00     0.037 A 
BRANCH  54  68
ATOM     68  C   UNL     1       2.318 -11.782  -3.128  1.00  0.00     0.058 A 
ATOM     69  C   UNL     1       1.212 -12.412  -3.720  1.00  0.00     0.135 A 
ATOM     70  C   UNL     1       2.942 -12.431  -2.051  1.00  0.00     0.135 A 
ATOM     71  F   UNL     1       0.569 -11.828  -4.744  1.00  0.00    -0.206 F 
ATOM     72  C   UNL     1       0.719 -13.620  -3.236  1.00  0.00     0.059 A 
ATOM     73  C   UNL     1       2.482 -13.652  -1.567  1.00  0.00     0.059 A 
ATOM     74  F   UNL     1       4.004 -11.873  -1.448  1.00  0.00    -0.206 F 
ATOM     75  C   UNL     1       1.356 -14.228  -2.153  1.00  0.00     0.060 A 
BRANCH  75  76
ATOM     76  S   UNL     1       0.688 -15.779  -1.513  1.00  0.00     0.124 S 
ATOM     77  O   UNL     1      -0.492 -15.310  -0.794  1.00  0.00    -0.237 OA
ATOM     78  O   UNL     1       0.427 -16.536  -2.733  1.00  0.00    -0.237 OA
ATOM     79  O   UNL     1       1.768 -16.295  -0.678  1.00  0.00    -0.744 OA
ENDBRANCH  75  76
ENDBRANCH  54  68
BRANCH  55  80
ATOM     80  C   UNL     1       5.580  -2.687  -5.673  1.00  0.00     0.058 A 
ATOM     81  C   UNL     1       5.691  -2.213  -6.987  1.00  0.00     0.135 A 
ATOM     82  C   UNL     1       5.915  -1.809  -4.629  1.00  0.00     0.135 A 
ATOM     83  F   UNL     1       5.393  -3.019  -8.018  1.00  0.00    -0.206 F 
ATOM     84  C   UNL     1       6.106  -0.913  -7.258  1.00  0.00     0.059 A 
ATOM     85  C   UNL     1       6.312  -0.499  -4.874  1.00  0.00     0.059 A 
ATOM     86  F   UNL     1       5.814  -2.213  -3.353  1.00  0.00    -0.206 F 
ATOM     87  C   UNL     1       6.404  -0.060  -6.194  1.00  0.00     0.060 A 
BRANCH  87  88
ATOM     88  S   UNL     1       6.846   1.654  -6.554  1.00  0.00     0.124 S 
ATOM     89  O   UNL     1       8.203   1.506  -7.068  1.00  0.00    -0.237 OA
ATOM     90  O   UNL     1       5.830   2.033  -7.531  1.00  0.00    -0.237 OA
ATOM     91  O   UNL     1       6.730   2.310  -5.255  1.00  0.00    -0.744 OA
ENDBRANCH  87  88
ENDBRANCH  55  80
BRANCH  67  92
ATOM     92  C   UNL     1       8.180  -9.147  -6.388  1.00  0.00     0.058 A 
ATOM     93  C   UNL     1       9.396  -9.063  -5.695  1.00  0.00     0.135 A 
ATOM     94  C   UNL     1       8.163  -9.848  -7.605  1.00  0.00     0.135 A 
ATOM     95  F   UNL     1       9.467  -8.397  -4.532  1.00  0.00    -0.206 F 
ATOM     96  C   UNL     1      10.554  -9.657  -6.188  1.00  0.00     0.059 A 
ATOM     97  C   UNL     1       9.303 -10.468  -8.106  1.00  0.00     0.059 A 
ATOM     98  F   UNL     1       7.021  -9.964  -8.302  1.00  0.00    -0.206 F 
ATOM     99  C   UNL     1      10.495 -10.366  -7.391  1.00  0.00     0.060 A 
BRANCH  99 100
ATOM    100  S   UNL     1      11.985 -11.198  -7.981  1.00  0.00     0.124 S 
ATOM    101  O   UNL     1      12.775 -10.073  -8.472  1.00  0.00    -0.237 OA
ATOM    102  O   UNL     1      12.484 -11.844  -6.771  1.00  0.00    -0.237 OA
ATOM    103  O   UNL     1      11.482 -12.107  -9.007  1.00  0.00    -0.744 OA
ENDBRANCH  99 100
ENDBRANCH  67  92
ENDBRANCH  41  42
ENDBRANCH  34  36
ENDBRANCH  33  34
ENDBRANCH  32  33
ENDBRANCH  31  32
ENDBRANCH   1  31
TORSDOF 21
