REMARK SMILES CC(C)CCc1cc2c(cc1Cl)C=C(C(=O)OCCOCCOC(=O)c1ccc(-c3c4nc(c(-c5c(F)cc(S(=O)(=O)[O-])cc5F)c5ccc([nH]5)c(-c5c(F)cc(S(=O)(=O)[O-])cc5F)c5nc(c(-c6c(F)cc(S(=O)(=O)[O-])cc6F)c6ccc3[nH]6)C=C5)C=C4)cc1)[C@@H](C(F)(F)F)O2
REMARK SMILES IDX 20 1 19 2 18 3 17 4 15 5 16 6 14 7 6 8 7 9 11 10 8 11 10 12
REMARK SMILES IDX 12 13 9 14 97 15 13 16 92 17 5 18 4 19 2 20 1 21 3 22 93 23
REMARK SMILES IDX 94 24 95 25 96 26 21 27 22 28 23 29 24 30 25 31 26 32 27 33
REMARK SMILES IDX 91 34 28 35 90 36 29 37 30 38 31 39 84 40 32 41 89 42 83 43
REMARK SMILES IDX 85 44 33 45 88 46 82 47 81 48 34 50 68 51 47 52 67 53 48 54
REMARK SMILES IDX 51 55 66 56 86 57 49 58 50 59 65 61 87 62 52 63 35 64 36 65
REMARK SMILES IDX 45 66 37 67 38 68 44 69 46 70 39 71 40 72 41 73 42 74 43 75
REMARK SMILES IDX 69 76 70 77 79 78 71 79 72 80 78 81 80 82 73 83 74 84 75 85
REMARK SMILES IDX 76 86 77 87 53 88 54 89 63 90 55 91 56 92 62 93 64 94 57 95
REMARK SMILES IDX 58 96 59 97 60 98 61 99
REMARK H PARENT 85 49 51 60
REMARK Flexibility Score: inf
ROOT
ATOM      1  O   UNL     1      -0.065   9.973   5.776  1.00  0.00    -0.374 OA
ENDROOT
BRANCH   1   2
ATOM      2  C   UNL     1      -0.142  11.058   4.855  1.00  0.00     0.202 C 
BRANCH   2   3
ATOM      3  C   UNL     1       0.411  10.843   3.442  1.00  0.00     0.261 C 
BRANCH   3   4
ATOM      4  O   UNL     1      -0.152   9.687   2.806  1.00  0.00    -0.460 OA
BRANCH   4   5
ATOM      5  C   UNL     1       0.706   8.646   2.686  1.00  0.00     0.338 C 
ATOM      6  O   UNL     1       1.891   8.634   2.976  1.00  0.00    -0.246 OA
BRANCH   5   7
ATOM      7  C   UNL     1      -0.036   7.435   2.290  1.00  0.00     0.087 C 
ATOM      8  C   UNL     1      -1.221   2.631   1.464  1.00  0.00    -0.026 A 
ATOM      9  C   UNL     1      -1.683   3.863   0.958  1.00  0.00     0.052 A 
ATOM     10  C   UNL     1      -0.357   2.651   2.570  1.00  0.00     0.045 A 
ATOM     11  C   UNL     1      -1.218   5.074   1.474  1.00  0.00     0.128 A 
ATOM     12  C   UNL     1       0.115   3.864   3.079  1.00  0.00     0.032 A 
ATOM     13  Cl  UNL     1       0.187   1.216   3.361  1.00  0.00    -0.084 Cl
ATOM     14  C   UNL     1      -0.285   5.072   2.505  1.00  0.00     0.019 A 
ATOM     15  O   UNL     1      -1.716   6.211   0.905  1.00  0.00    -0.475 OA
ATOM     16  C   UNL     1       0.321   6.316   2.932  1.00  0.00     0.027 C 
ATOM     17  C   UNL     1      -1.097   7.493   1.225  1.00  0.00     0.316 C 
BRANCH   8  18
ATOM     18  C   UNL     1      -1.637   1.360   0.756  1.00  0.00     0.037 C 
BRANCH  18  19
ATOM     19  C   UNL     1      -1.047   1.225  -0.661  1.00  0.00     0.008 C 
BRANCH  19  20
ATOM     20  C   UNL     1       0.493   1.160  -0.746  1.00  0.00    -0.017 C 
ATOM     21  C   UNL     1       1.064  -0.104  -0.102  1.00  0.00     0.007 C 
ATOM     22  C   UNL     1       0.937   1.215  -2.212  1.00  0.00     0.007 C 
ENDBRANCH  19  20
ENDBRANCH  18  19
ENDBRANCH   8  18
BRANCH  17  23
ATOM     23  C   UNL     1      -0.589   8.117  -0.083  1.00  0.00     0.430 C 
ATOM     24  F   UNL     1      -1.550   8.099  -1.037  1.00  0.00    -0.167 F 
ATOM     25  F   UNL     1      -0.227   9.409   0.085  1.00  0.00    -0.167 F 
ATOM     26  F   UNL     1       0.483   7.452  -0.571  1.00  0.00    -0.167 F 
ENDBRANCH  17  23
ENDBRANCH   5   7
ENDBRANCH   4   5
ENDBRANCH   3   4
ENDBRANCH   2   3
ENDBRANCH   1   2
BRANCH   1  27
ATOM     27  C   UNL     1      -0.983   8.890   5.627  1.00  0.00     0.202 C 
BRANCH  27  28
ATOM     28  C   UNL     1      -2.470   9.139   5.910  1.00  0.00     0.261 C 
BRANCH  28  29
ATOM     29  O   UNL     1      -3.077  10.030   4.960  1.00  0.00    -0.460 OA
BRANCH  29  30
ATOM     30  C   UNL     1      -3.464  11.230   5.464  1.00  0.00     0.338 C 
ATOM     31  O   UNL     1      -3.382  11.605   6.622  1.00  0.00    -0.246 OA
BRANCH  30  32
ATOM     32  C   UNL     1      -3.814  12.125   4.347  1.00  0.00     0.060 A 
ATOM     33  C   UNL     1      -4.875  11.826   3.491  1.00  0.00     0.016 A 
ATOM     34  C   UNL     1      -3.078  13.306   4.187  1.00  0.00     0.016 A 
ATOM     35  C   UNL     1      -5.211  12.730   2.480  1.00  0.00     0.010 A 
ATOM     36  C   UNL     1      -3.407  14.200   3.171  1.00  0.00     0.010 A 
ATOM     37  C   UNL     1      -4.489  13.928   2.323  1.00  0.00    -0.014 A 
BRANCH  37  38
ATOM     38  C   UNL     1      -4.950  14.970   1.374  1.00  0.00     0.031 A 
ATOM     39  C   UNL     1      -4.230  15.230   0.085  1.00  0.00     0.074 A 
ATOM     40  C   UNL     1      -6.013  15.720   1.723  1.00  0.00     0.049 A 
ATOM     41  N   UNL     1      -4.501  16.113  -0.842  1.00  0.00    -0.248 NA
ATOM     42  C   UNL     1      -3.053  14.397  -0.200  1.00  0.00     0.031 C 
ATOM     43  C   UNL     1      -6.771  15.569   2.967  1.00  0.00     0.029 A 
ATOM     44  N   UNL     1      -6.634  16.756   1.076  1.00  0.00    -0.354 N 
ATOM     45  C   UNL     1      -3.542  15.934  -1.831  1.00  0.00     0.074 A 
ATOM     46  C   UNL     1      -2.656  14.885  -1.368  1.00  0.00     0.031 C 
ATOM     47  C   UNL     1      -7.768  16.467   2.983  1.00  0.00     0.029 A 
ATOM     48  C   UNL     1      -7.695  17.281   1.773  1.00  0.00     0.049 A 
ATOM     49  H   UNL     1      -6.348  17.091   0.196  1.00  0.00     0.167 HD
ATOM     50  C   UNL     1      -3.427  16.577  -3.019  1.00  0.00     0.037 A 
ATOM     51  C   UNL     1      -8.515  18.307   1.477  1.00  0.00     0.037 A 
ATOM     52  C   UNL     1      -4.302  17.641  -3.454  1.00  0.00     0.049 A 
ATOM     53  C   UNL     1      -8.333  19.038   0.177  1.00  0.00     0.074 A 
ATOM     54  C   UNL     1      -4.272  18.345  -4.646  1.00  0.00     0.029 A 
ATOM     55  N   UNL     1      -5.354  18.163  -2.713  1.00  0.00    -0.354 N 
ATOM     56  N   UNL     1      -7.445  18.832  -0.767  1.00  0.00    -0.248 NA
ATOM     57  C   UNL     1      -9.268  20.134  -0.103  1.00  0.00     0.031 C 
ATOM     58  C   UNL     1      -5.268  19.327  -4.603  1.00  0.00     0.029 A 
ATOM     59  C   UNL     1      -5.965  19.192  -3.414  1.00  0.00     0.049 A 
ATOM     60  H   UNL     1      -5.626  17.848  -1.821  1.00  0.00     0.167 HD
ATOM     61  C   UNL     1      -7.737  19.751  -1.769  1.00  0.00     0.074 A 
ATOM     62  C   UNL     1      -8.889  20.506  -1.318  1.00  0.00     0.031 C 
ATOM     63  C   UNL     1      -7.111  19.944  -2.958  1.00  0.00     0.037 A 
BRANCH  50  64
ATOM     64  C   UNL     1      -2.312  16.157  -3.941  1.00  0.00     0.058 A 
ATOM     65  C   UNL     1      -2.330  14.916  -4.598  1.00  0.00     0.135 A 
ATOM     66  C   UNL     1      -1.249  17.030  -4.227  1.00  0.00     0.135 A 
ATOM     67  F   UNL     1      -3.315  14.037  -4.355  1.00  0.00    -0.206 F 
ATOM     68  C   UNL     1      -1.326  14.548  -5.489  1.00  0.00     0.059 A 
ATOM     69  C   UNL     1      -0.249  16.695  -5.136  1.00  0.00     0.059 A 
ATOM     70  F   UNL     1      -1.180  18.230  -3.629  1.00  0.00    -0.206 F 
ATOM     71  C   UNL     1      -0.291  15.447  -5.754  1.00  0.00     0.060 A 
BRANCH  71  72
ATOM     72  S   UNL     1       0.995  14.955  -6.923  1.00  0.00     0.124 S 
ATOM     73  O   UNL     1       1.667  13.889  -6.185  1.00  0.00    -0.237 OA
ATOM     74  O   UNL     1       0.215  14.531  -8.081  1.00  0.00    -0.237 OA
ATOM     75  O   UNL     1       1.775  16.175  -7.106  1.00  0.00    -0.744 OA
ENDBRANCH  71  72
ENDBRANCH  50  64
BRANCH  51  76
ATOM     76  C   UNL     1      -9.605  18.669   2.421  1.00  0.00     0.058 A 
ATOM     77  C   UNL     1     -10.947  18.415   2.102  1.00  0.00     0.135 A 
ATOM     78  C   UNL     1      -9.325  19.229   3.677  1.00  0.00     0.135 A 
ATOM     79  F   UNL     1     -11.264  17.886   0.911  1.00  0.00    -0.206 F 
ATOM     80  C   UNL     1     -11.974  18.709   2.992  1.00  0.00     0.059 A 
ATOM     81  C   UNL     1     -10.332  19.504   4.596  1.00  0.00     0.059 A 
ATOM     82  F   UNL     1      -8.055  19.474   4.037  1.00  0.00    -0.206 F 
ATOM     83  C   UNL     1     -11.655  19.244   4.241  1.00  0.00     0.060 A 
BRANCH  83  84
ATOM     84  S   UNL     1     -12.994  19.553   5.412  1.00  0.00     0.124 S 
ATOM     85  O   UNL     1     -13.697  20.659   4.771  1.00  0.00    -0.237 OA
ATOM     86  O   UNL     1     -13.691  18.271   5.420  1.00  0.00    -0.237 OA
ATOM     87  O   UNL     1     -12.291  19.885   6.648  1.00  0.00    -0.744 OA
ENDBRANCH  83  84
ENDBRANCH  51  76
BRANCH  63  88
ATOM     88  C   UNL     1      -7.685  20.988  -3.880  1.00  0.00     0.058 A 
ATOM     89  C   UNL     1      -7.607  22.361  -3.593  1.00  0.00     0.135 A 
ATOM     90  C   UNL     1      -8.301  20.608  -5.084  1.00  0.00     0.135 A 
ATOM     91  F   UNL     1      -7.033  22.782  -2.455  1.00  0.00    -0.206 F 
ATOM     92  C   UNL     1      -8.157  23.314  -4.445  1.00  0.00     0.059 A 
ATOM     93  C   UNL     1      -8.827  21.546  -5.967  1.00  0.00     0.059 A 
ATOM     94  F   UNL     1      -8.393  19.310  -5.417  1.00  0.00    -0.206 F 
ATOM     95  C   UNL     1      -8.767  22.896  -5.630  1.00  0.00     0.060 A 
BRANCH  95  96
ATOM     96  S   UNL     1      -9.477  24.145  -6.723  1.00  0.00     0.124 S 
ATOM     97  O   UNL     1     -10.634  24.588  -5.952  1.00  0.00    -0.237 OA
ATOM     98  O   UNL     1      -8.387  25.109  -6.842  1.00  0.00    -0.237 OA
ATOM     99  O   UNL     1      -9.783  23.399  -7.940  1.00  0.00    -0.744 OA
ENDBRANCH  95  96
ENDBRANCH  63  88
ENDBRANCH  37  38
ENDBRANCH  30  32
ENDBRANCH  29  30
ENDBRANCH  28  29
ENDBRANCH  27  28
ENDBRANCH   1  27
TORSDOF 21
