REMARK SMILES Cc1c(Cl)cccc1NC(=O)NCc1cn([C@@H]2C[NH2+][C@H](C(=O)OCCOCCOC(=O)c3ccc(-c4c5nc(c(-c6c(F)cc(S(=O)(=O)[O-])cc6F)c6ccc([nH]6)c(-c6c(F)cc(S(=O)(=O)[O-])cc6F)c6nc(c(-c7c(F)cc(S(=O)(=O)[O-])cc7F)c7ccc4[nH]7)C=C6)C=C5)cc3)C2)nn1
REMARK SMILES IDX 25 1 24 2 23 3 21 4 22 5 20 6 17 7 18 8 98 9 19 10 16 13
REMARK SMILES IDX 14 14 15 15 100 16 99 17 13 18 12 19 9 20 10 21 11 23 8 25
REMARK SMILES IDX 1 26 2 27 3 28 4 29 5 30 7 31 6 32 26 33 27 34 28 35 29 36
REMARK SMILES IDX 30 37 31 38 32 39 33 40 97 41 34 42 96 43 35 44 36 45 37 46
REMARK SMILES IDX 90 47 38 48 95 49 89 50 91 51 39 52 94 53 88 54 87 55 40 57
REMARK SMILES IDX 74 58 53 59 73 60 54 61 57 62 72 63 92 64 55 65 56 66 71 68
REMARK SMILES IDX 93 69 58 70 41 71 42 72 51 73 43 74 44 75 50 76 52 77 45 78
REMARK SMILES IDX 46 79 47 80 48 81 49 82 75 83 76 84 85 85 77 86 78 87 84 88
REMARK SMILES IDX 86 89 79 90 80 91 81 92 82 93 83 94 59 95 60 96 69 97 61 98
REMARK SMILES IDX 62 99 68 100 70 101 63 102 64 103 65 104 66 105 67 106
REMARK H PARENT 19 11 19 12 9 22 12 24 91 56 57 67
REMARK Flexibility Score: inf
ROOT
ATOM      1  C   UNL     1      -3.764  -8.835  -0.480  1.00  0.00     0.202 C 
ENDROOT
BRANCH   1   2
ATOM      2  C   UNL     1      -3.647  -7.311  -0.468  1.00  0.00     0.261 C 
BRANCH   2   3
ATOM      3  O   UNL     1      -3.629  -6.789   0.868  1.00  0.00    -0.459 OA
BRANCH   3   4
ATOM      4  C   UNL     1      -4.652  -5.947   1.188  1.00  0.00     0.365 C 
ATOM      5  O   UNL     1      -5.475  -5.520   0.385  1.00  0.00    -0.245 OA
BRANCH   4   6
ATOM      6  C   UNL     1      -4.755  -5.724   2.711  1.00  0.00     0.295 C 
ATOM      7  C   UNL     1      -4.661  -3.445   3.570  1.00  0.00     0.170 C 
ATOM      8  C   UNL     1      -3.266  -4.034   3.351  1.00  0.00     0.289 C 
ATOM      9  C   UNL     1      -5.623  -4.513   3.049  1.00  0.00     0.110 C 
ATOM     10  N   UNL     1      -3.441  -5.489   3.348  1.00  0.00    -0.333 N 
ATOM     11  H   UNL     1      -3.436  -5.851   4.301  1.00  0.00     0.347 HD
ATOM     12  H   UNL     1      -2.687  -5.960   2.848  1.00  0.00     0.347 HD
BRANCH   7  13
ATOM     13  N   UNL     1      -4.830  -2.178   2.898  1.00  0.00    -0.243 N 
ATOM     14  C   UNL     1      -4.894  -0.595   1.432  1.00  0.00     0.102 A 
ATOM     15  C   UNL     1      -4.652  -1.940   1.575  1.00  0.00     0.137 A 
ATOM     16  N   UNL     1      -5.281  -0.082   2.640  1.00  0.00    -0.134 NA
ATOM     17  N   UNL     1      -5.243  -1.069   3.537  1.00  0.00    -0.067 NA
BRANCH  14  18
ATOM     18  C   UNL     1      -4.799   0.132   0.154  1.00  0.00     0.178 C 
BRANCH  18  19
ATOM     19  N   UNL     1      -4.529   1.535   0.251  1.00  0.00    -0.332 N 
ATOM     20  N   UNL     1      -2.278   2.051  -0.444  1.00  0.00    -0.308 N 
ATOM     21  C   UNL     1      -3.556   2.347  -0.154  1.00  0.00     0.319 C 
ATOM     22  H   UNL     1      -1.794   2.858  -0.736  1.00  0.00     0.171 HD
ATOM     23  O   UNL     1      -3.844   3.553  -0.186  1.00  0.00    -0.248 OA
ATOM     24  H   UNL     1      -5.237   2.017   0.736  1.00  0.00     0.165 HD
BRANCH  20  25
ATOM     25  C   UNL     1      -1.422   0.931  -0.453  1.00  0.00     0.047 A 
ATOM     26  C   UNL     1       0.580   2.412   0.196  1.00  0.00     0.048 C 
ATOM     27  C   UNL     1      -0.076   1.070  -0.031  1.00  0.00    -0.009 A 
ATOM     28  C   UNL     1       0.712  -0.097   0.115  1.00  0.00     0.046 A 
ATOM     29  Cl  UNL     1       2.364  -0.030   0.631  1.00  0.00    -0.084 Cl
ATOM     30  C   UNL     1       0.199  -1.360  -0.176  1.00  0.00     0.021 A 
ATOM     31  C   UNL     1      -1.815  -0.309  -0.951  1.00  0.00     0.026 A 
ATOM     32  C   UNL     1      -1.054  -1.462  -0.754  1.00  0.00     0.004 A 
ENDBRANCH  20  25
ENDBRANCH  18  19
ENDBRANCH  14  18
ENDBRANCH   7  13
ENDBRANCH   4   6
ENDBRANCH   3   4
ENDBRANCH   2   3
ENDBRANCH   1   2
BRANCH   1  33
ATOM     33  O   UNL     1      -4.918  -9.441   0.105  1.00  0.00    -0.374 OA
BRANCH  33  34
ATOM     34  C   UNL     1      -5.199  -9.287   1.492  1.00  0.00     0.202 C 
BRANCH  34  35
ATOM     35  C   UNL     1      -4.287  -9.940   2.524  1.00  0.00     0.261 C 
BRANCH  35  36
ATOM     36  O   UNL     1      -2.938  -9.544   2.364  1.00  0.00    -0.460 OA
BRANCH  36  37
ATOM     37  C   UNL     1      -2.197 -10.432   1.669  1.00  0.00     0.338 C 
ATOM     38  O   UNL     1      -2.606 -11.401   1.039  1.00  0.00    -0.246 OA
BRANCH  37  39
ATOM     39  C   UNL     1      -0.779 -10.139   1.885  1.00  0.00     0.060 A 
ATOM     40  C   UNL     1       0.085 -11.148   1.459  1.00  0.00     0.016 A 
ATOM     41  C   UNL     1      -0.431  -9.206   2.873  1.00  0.00     0.016 A 
ATOM     42  C   UNL     1       1.139 -11.454   2.276  1.00  0.00     0.010 A 
ATOM     43  C   UNL     1       0.609  -9.528   3.701  1.00  0.00     0.010 A 
ATOM     44  C   UNL     1       1.299 -10.711   3.449  1.00  0.00    -0.014 A 
BRANCH  44  45
ATOM     45  C   UNL     1       2.279 -11.172   4.398  1.00  0.00     0.031 A 
ATOM     46  C   UNL     1       3.650 -10.857   3.961  1.00  0.00     0.074 A 
ATOM     47  C   UNL     1       1.923 -11.738   5.564  1.00  0.00     0.049 A 
ATOM     48  N   UNL     1       4.546 -11.684   3.542  1.00  0.00    -0.248 NA
ATOM     49  C   UNL     1       3.975  -9.441   3.721  1.00  0.00     0.031 C 
ATOM     50  C   UNL     1       0.587 -11.864   6.153  1.00  0.00     0.029 A 
ATOM     51  N   UNL     1       2.732 -12.232   6.534  1.00  0.00    -0.354 N 
ATOM     52  C   UNL     1       5.640 -10.895   3.214  1.00  0.00     0.074 A 
ATOM     53  C   UNL     1       5.152  -9.548   3.107  1.00  0.00     0.031 C 
ATOM     54  C   UNL     1       0.711 -12.178   7.464  1.00  0.00     0.029 A 
ATOM     55  C   UNL     1       2.115 -12.381   7.771  1.00  0.00     0.049 A 
ATOM     56  H   UNL     1       3.676 -12.466   6.376  1.00  0.00     0.167 HD
ATOM     57  C   UNL     1       6.908 -11.371   3.330  1.00  0.00     0.037 A 
ATOM     58  C   UNL     1       2.771 -12.530   8.951  1.00  0.00     0.037 A 
ATOM     59  C   UNL     1       6.913 -12.809   3.431  1.00  0.00     0.049 A 
ATOM     60  C   UNL     1       4.145 -13.015   8.617  1.00  0.00     0.074 A 
ATOM     61  C   UNL     1       6.492 -13.831   2.602  1.00  0.00     0.029 A 
ATOM     62  N   UNL     1       7.033 -13.360   4.686  1.00  0.00    -0.354 N 
ATOM     63  N   UNL     1       4.383 -14.189   8.091  1.00  0.00    -0.248 NA
ATOM     64  C   UNL     1       5.183 -12.017   8.384  1.00  0.00     0.031 C 
ATOM     65  C   UNL     1       5.938 -14.811   3.473  1.00  0.00     0.029 A 
ATOM     66  C   UNL     1       6.110 -14.371   4.787  1.00  0.00     0.049 A 
ATOM     67  H   UNL     1       7.666 -13.079   5.386  1.00  0.00     0.167 HD
ATOM     68  C   UNL     1       5.363 -13.966   7.130  1.00  0.00     0.074 A 
ATOM     69  C   UNL     1       5.866 -12.622   7.406  1.00  0.00     0.031 C 
ATOM     70  C   UNL     1       5.466 -14.761   6.023  1.00  0.00     0.037 A 
BRANCH  57  71
ATOM     71  C   UNL     1       8.084 -10.523   3.737  1.00  0.00     0.058 A 
ATOM     72  C   UNL     1       9.376 -11.080   3.677  1.00  0.00     0.135 A 
ATOM     73  C   UNL     1       7.978  -9.300   4.440  1.00  0.00     0.135 A 
ATOM     74  F   UNL     1       9.592 -12.237   3.031  1.00  0.00    -0.206 F 
ATOM     75  C   UNL     1      10.461 -10.511   4.341  1.00  0.00     0.059 A 
ATOM     76  C   UNL     1       9.057  -8.687   5.058  1.00  0.00     0.059 A 
ATOM     77  F   UNL     1       6.809  -8.687   4.657  1.00  0.00    -0.206 F 
ATOM     78  C   UNL     1      10.284  -9.324   5.046  1.00  0.00     0.060 A 
BRANCH  78  79
ATOM     79  S   UNL     1      11.644  -8.656   6.014  1.00  0.00     0.124 S 
ATOM     80  O   UNL     1      11.757  -9.649   7.075  1.00  0.00    -0.237 OA
ATOM     81  O   UNL     1      12.726  -8.634   5.036  1.00  0.00    -0.237 OA
ATOM     82  O   UNL     1      11.150  -7.345   6.425  1.00  0.00    -0.744 OA
ENDBRANCH  78  79
ENDBRANCH  57  71
BRANCH  58  83
ATOM     83  C   UNL     1       2.411 -11.914  10.259  1.00  0.00     0.058 A 
ATOM     84  C   UNL     1       3.055 -12.288  11.452  1.00  0.00     0.135 A 
ATOM     85  C   UNL     1       1.603 -10.759  10.336  1.00  0.00     0.135 A 
ATOM     86  F   UNL     1       3.865 -13.358  11.474  1.00  0.00    -0.206 F 
ATOM     87  C   UNL     1       2.939 -11.541  12.634  1.00  0.00     0.059 A 
ATOM     88  C   UNL     1       1.460 -10.010  11.501  1.00  0.00     0.059 A 
ATOM     89  F   UNL     1       0.992 -10.262   9.251  1.00  0.00    -0.206 F 
ATOM     90  C   UNL     1       2.151 -10.390  12.642  1.00  0.00     0.060 A 
BRANCH  90  91
ATOM     91  S   UNL     1       2.130  -9.320  14.100  1.00  0.00     0.124 S 
ATOM     92  O   UNL     1       1.393 -10.133  15.061  1.00  0.00    -0.237 OA
ATOM     93  O   UNL     1       3.553  -9.141  14.371  1.00  0.00    -0.237 OA
ATOM     94  O   UNL     1       1.434  -8.123  13.632  1.00  0.00    -0.744 OA
ENDBRANCH  90  91
ENDBRANCH  58  83
BRANCH  70  95
ATOM     95  C   UNL     1       4.663 -16.037   5.980  1.00  0.00     0.058 A 
ATOM     96  C   UNL     1       3.258 -16.084   5.948  1.00  0.00     0.135 A 
ATOM     97  C   UNL     1       5.347 -17.243   5.774  1.00  0.00     0.135 A 
ATOM     98  F   UNL     1       2.530 -14.961   6.025  1.00  0.00    -0.206 F 
ATOM     99  C   UNL     1       2.564 -17.281   5.759  1.00  0.00     0.059 A 
ATOM    100  C   UNL     1       4.678 -18.443   5.550  1.00  0.00     0.059 A 
ATOM    101  F   UNL     1       6.690 -17.254   5.723  1.00  0.00    -0.206 F 
ATOM    102  C   UNL     1       3.285 -18.457   5.557  1.00  0.00     0.060 A 
BRANCH 102 103
ATOM    103  S   UNL     1       2.392 -19.991   5.227  1.00  0.00     0.124 S 
ATOM    104  O   UNL     1       1.832 -20.306   6.537  1.00  0.00    -0.237 OA
ATOM    105  O   UNL     1       1.429 -19.586   4.207  1.00  0.00    -0.237 OA
ATOM    106  O   UNL     1       3.436 -20.900   4.759  1.00  0.00    -0.744 OA
ENDBRANCH 102 103
ENDBRANCH  70  95
ENDBRANCH  44  45
ENDBRANCH  37  39
ENDBRANCH  36  37
ENDBRANCH  35  36
ENDBRANCH  34  35
ENDBRANCH  33  34
ENDBRANCH   1  33
TORSDOF 21
