REMARK SMILES O=C(OCCOCCOC(=O)c1ccc(-c2c3nc(c(-c4c(F)cc(S(=O)(=O)[O-])cc4F)c4ccc([nH]4)c(-c4c(F)cc(S(=O)(=O)[O-])cc4F)c4nc(c(-c5c(F)cc(S(=O)(=O)[O-])cc5F)c5ccc2[nH]5)C=C4)C=C3)cc1)C1=Cc2cc(Cl)cc(Cl)c2O[C@@H]1C(F)(F)F
REMARK SMILES IDX 7 1 6 2 5 3 4 4 3 5 2 6 1 7 78 8 79 9 89 10 80 11 88 12
REMARK SMILES IDX 81 13 87 14 82 15 85 16 83 17 84 18 86 19 90 20 91 21 92 22
REMARK SMILES IDX 93 23 8 24 9 25 10 26 11 27 12 28 13 29 77 30 14 31 76 32
REMARK SMILES IDX 15 33 16 34 17 35 70 36 18 37 75 38 69 39 71 40 19 41 74 42
REMARK SMILES IDX 68 43 67 44 20 46 54 47 33 48 53 49 34 50 37 51 52 52 72 53
REMARK SMILES IDX 35 54 36 55 51 57 73 58 38 59 21 60 22 61 31 62 23 63 24 64
REMARK SMILES IDX 30 65 32 66 25 67 26 68 27 69 28 70 29 71 55 72 56 73 65 74
REMARK SMILES IDX 57 75 58 76 64 77 66 78 59 79 60 80 61 81 62 82 63 83 39 84
REMARK SMILES IDX 40 85 49 86 41 87 42 88 48 89 50 90 43 91 44 92 45 93 46 94
REMARK SMILES IDX 47 95
REMARK H PARENT 71 45 37 56
REMARK Flexibility Score: inf
ROOT
ATOM      1  C   UNL     1       2.777   1.928   2.344  1.00  0.00     0.202 C 
ENDROOT
BRANCH   1   2
ATOM      2  O   UNL     1       3.792   0.917   2.269  1.00  0.00    -0.374 OA
BRANCH   2   3
ATOM      3  C   UNL     1       4.339  -0.016   1.125  1.00  0.00     0.202 C 
BRANCH   3   4
ATOM      4  C   UNL     1       3.433  -0.823  -0.688  1.00  0.00     0.261 C 
BRANCH   4   5
ATOM      5  O   UNL     1       2.573  -2.099  -0.804  1.00  0.00    -0.460 OA
BRANCH   5   6
ATOM      6  C   UNL     1       2.830  -2.992   0.154  1.00  0.00     0.338 C 
ATOM      7  O   UNL     1       2.294  -4.040   0.403  1.00  0.00    -0.246 OA
BRANCH   6   8
ATOM      8  C   UNL     1       3.680  -2.119   0.930  1.00  0.00     0.087 C 
ATOM      9  C   UNL     1       5.040  -2.024   0.311  1.00  0.00     0.027 C 
ATOM     10  C   UNL     1       2.425  -0.647   1.061  1.00  0.00     0.316 C 
ATOM     11  C   UNL     1       5.642  -0.536  -0.557  1.00  0.00     0.020 A 
ATOM     12  O   UNL     1       3.029   0.905   0.096  1.00  0.00    -0.474 OA
ATOM     13  C   UNL     1       6.806  -0.609  -1.275  1.00  0.00     0.032 A 
ATOM     14  C   UNL     1       4.626   0.856  -0.781  1.00  0.00     0.146 A 
ATOM     15  C   UNL     1       7.018   0.452  -2.178  1.00  0.00     0.043 A 
ATOM     16  C   UNL     1       4.850   1.741  -1.796  1.00  0.00     0.085 A 
ATOM     17  Cl  UNL     1       8.491   0.407  -3.095  1.00  0.00    -0.084 Cl
ATOM     18  C   UNL     1       6.082   1.531  -2.459  1.00  0.00     0.045 A 
ATOM     19  Cl  UNL     1       3.641   2.755  -2.431  1.00  0.00    -0.080 Cl
BRANCH  10  20
ATOM     20  C   UNL     1       1.948  -0.808   2.557  1.00  0.00     0.430 C 
ATOM     21  F   UNL     1       1.075   0.117   2.993  1.00  0.00    -0.167 F 
ATOM     22  F   UNL     1       1.268  -1.994   2.632  1.00  0.00    -0.167 F 
ATOM     23  F   UNL     1       2.947  -0.944   3.460  1.00  0.00    -0.167 F 
ENDBRANCH  10  20
ENDBRANCH   6   8
ENDBRANCH   5   6
ENDBRANCH   4   5
ENDBRANCH   3   4
ENDBRANCH   2   3
ENDBRANCH   1   2
BRANCH   1  24
ATOM     24  C   UNL     1       3.098   3.408   2.294  1.00  0.00     0.261 C 
BRANCH  24  25
ATOM     25  O   UNL     1       3.606   3.818   1.043  1.00  0.00    -0.460 OA
BRANCH  25  26
ATOM     26  C   UNL     1       4.929   4.082   1.034  1.00  0.00     0.338 C 
ATOM     27  O   UNL     1       5.758   3.780   1.871  1.00  0.00    -0.246 OA
BRANCH  26  28
ATOM     28  C   UNL     1       5.208   4.784  -0.226  1.00  0.00     0.060 A 
ATOM     29  C   UNL     1       6.418   4.528  -0.878  1.00  0.00     0.016 A 
ATOM     30  C   UNL     1       4.240   5.625  -0.794  1.00  0.00     0.016 A 
ATOM     31  C   UNL     1       6.638   5.071  -2.140  1.00  0.00     0.010 A 
ATOM     32  C   UNL     1       4.459   6.163  -2.051  1.00  0.00     0.010 A 
ATOM     33  C   UNL     1       5.660   5.888  -2.723  1.00  0.00    -0.014 A 
BRANCH  33  34
ATOM     34  C   UNL     1       5.962   6.681  -3.924  1.00  0.00     0.031 A 
ATOM     35  C   UNL     1       6.454   8.075  -3.695  1.00  0.00     0.074 A 
ATOM     36  C   UNL     1       5.709   6.213  -5.157  1.00  0.00     0.049 A 
ATOM     37  N   UNL     1       6.667   9.029  -4.555  1.00  0.00    -0.248 NA
ATOM     38  C   UNL     1       6.715   8.445  -2.292  1.00  0.00     0.031 C 
ATOM     39  C   UNL     1       5.225   4.871  -5.471  1.00  0.00     0.029 A 
ATOM     40  N   UNL     1       5.790   6.838  -6.374  1.00  0.00    -0.354 N 
ATOM     41  C   UNL     1       7.079  10.117  -3.799  1.00  0.00     0.074 A 
ATOM     42  C   UNL     1       7.044   9.719  -2.410  1.00  0.00     0.031 C 
ATOM     43  C   UNL     1       5.019   4.782  -6.796  1.00  0.00     0.029 A 
ATOM     44  C   UNL     1       5.323   6.072  -7.414  1.00  0.00     0.049 A 
ATOM     45  H   UNL     1       6.149   7.747  -6.491  1.00  0.00     0.167 HD
ATOM     46  C   UNL     1       7.452  11.341  -4.231  1.00  0.00     0.037 A 
ATOM     47  C   UNL     1       5.131   6.396  -8.709  1.00  0.00     0.037 A 
ATOM     48  C   UNL     1       7.427  11.725  -5.614  1.00  0.00     0.049 A 
ATOM     49  C   UNL     1       5.496   7.784  -9.169  1.00  0.00     0.074 A 
ATOM     50  C   UNL     1       7.799  12.930  -6.178  1.00  0.00     0.029 A 
ATOM     51  N   UNL     1       6.970  10.918  -6.649  1.00  0.00    -0.354 N 
ATOM     52  N   UNL     1       5.950   8.793  -8.461  1.00  0.00    -0.248 NA
ATOM     53  C   UNL     1       5.334   8.080 -10.598  1.00  0.00     0.031 C 
ATOM     54  C   UNL     1       7.495  12.878  -7.541  1.00  0.00     0.029 A 
ATOM     55  C   UNL     1       7.017  11.611  -7.844  1.00  0.00     0.049 A 
ATOM     56  H   UNL     1       6.658   9.990  -6.545  1.00  0.00     0.167 HD
ATOM     57  C   UNL     1       6.161   9.832  -9.363  1.00  0.00     0.074 A 
ATOM     58  C   UNL     1       5.779   9.328 -10.668  1.00  0.00     0.031 C 
ATOM     59  C   UNL     1       6.639  11.081  -9.135  1.00  0.00     0.037 A 
BRANCH  46  60
ATOM     60  C   UNL     1       7.844  12.341  -3.182  1.00  0.00     0.058 A 
ATOM     61  C   UNL     1       8.983  12.169  -2.376  1.00  0.00     0.135 A 
ATOM     62  C   UNL     1       7.035  13.462  -2.938  1.00  0.00     0.135 A 
ATOM     63  F   UNL     1       9.779  11.100  -2.546  1.00  0.00    -0.206 F 
ATOM     64  C   UNL     1       9.272  13.039  -1.331  1.00  0.00     0.059 A 
ATOM     65  C   UNL     1       7.327  14.367  -1.925  1.00  0.00     0.059 A 
ATOM     66  F   UNL     1       5.930  13.671  -3.671  1.00  0.00    -0.206 F 
ATOM     67  C   UNL     1       8.433  14.132  -1.109  1.00  0.00     0.060 A 
BRANCH  67  68
ATOM     68  S   UNL     1       8.797  15.228   0.276  1.00  0.00     0.124 S 
ATOM     69  O   UNL     1       8.450  14.382   1.414  1.00  0.00    -0.237 OA
ATOM     70  O   UNL     1      10.220  15.494   0.095  1.00  0.00    -0.237 OA
ATOM     71  O   UNL     1       7.914  16.368   0.049  1.00  0.00    -0.744 OA
ENDBRANCH  67  68
ENDBRANCH  46  60
BRANCH  47  72
ATOM     72  C   UNL     1       4.560   5.387  -9.641  1.00  0.00     0.058 A 
ATOM     73  C   UNL     1       5.346   4.786 -10.635  1.00  0.00     0.135 A 
ATOM     74  C   UNL     1       3.227   4.961  -9.519  1.00  0.00     0.135 A 
ATOM     75  F   UNL     1       6.621   5.166 -10.803  1.00  0.00    -0.206 F 
ATOM     76  C   UNL     1       4.836   3.793 -11.467  1.00  0.00     0.059 A 
ATOM     77  C   UNL     1       2.702   3.953 -10.321  1.00  0.00     0.059 A 
ATOM     78  F   UNL     1       2.434   5.499  -8.579  1.00  0.00    -0.206 F 
ATOM     79  C   UNL     1       3.516   3.372 -11.292  1.00  0.00     0.060 A 
BRANCH  79  80
ATOM     80  S   UNL     1       2.900   2.012 -12.309  1.00  0.00     0.124 S 
ATOM     81  O   UNL     1       2.844   2.630 -13.629  1.00  0.00    -0.237 OA
ATOM     82  O   UNL     1       3.935   1.001 -12.120  1.00  0.00    -0.237 OA
ATOM     83  O   UNL     1       1.609   1.697 -11.704  1.00  0.00    -0.744 OA
ENDBRANCH  79  80
ENDBRANCH  47  72
BRANCH  59  84
ATOM     84  C   UNL     1       6.838  11.989 -10.318  1.00  0.00     0.058 A 
ATOM     85  C   UNL     1       5.763  12.582 -10.996  1.00  0.00     0.135 A 
ATOM     86  C   UNL     1       8.140  12.362 -10.698  1.00  0.00     0.135 A 
ATOM     87  F   UNL     1       4.500  12.256 -10.678  1.00  0.00    -0.206 F 
ATOM     88  C   UNL     1       5.971  13.511 -12.012  1.00  0.00     0.059 A 
ATOM     89  C   UNL     1       8.370  13.312 -11.685  1.00  0.00     0.059 A 
ATOM     90  F   UNL     1       9.204  11.832 -10.074  1.00  0.00    -0.206 F 
ATOM     91  C   UNL     1       7.278  13.879 -12.339  1.00  0.00     0.060 A 
BRANCH  91  92
ATOM     92  S   UNL     1       7.530  15.142 -13.604  1.00  0.00     0.124 S 
ATOM     93  O   UNL     1       7.133  14.430 -14.814  1.00  0.00    -0.237 OA
ATOM     94  O   UNL     1       6.628  16.203 -13.167  1.00  0.00    -0.237 OA
ATOM     95  O   UNL     1       8.952  15.453 -13.498  1.00  0.00    -0.744 OA
ENDBRANCH  91  92
ENDBRANCH  59  84
ENDBRANCH  33  34
ENDBRANCH  26  28
ENDBRANCH  25  26
ENDBRANCH  24  25
ENDBRANCH   1  24
TORSDOF 18
