REMARK SMILES O=C(OCCOCCOC(=O)[C@H]1CC2(CC[NH+](C(=O)C3CC3)CC2)CN1C(=O)CCn1cccn1)c1ccc(-c2c3nc(c(-c4c(F)cc(S(=O)(=O)[O-])cc4F)c4ccc([nH]4)c(-c4c(F)cc(S(=O)(=O)[O-])cc4F)c4nc(c(-c5c(F)cc(S(=O)(=O)[O-])cc5F)c5ccc2[nH]5)C=C4)C=C3)cc1
REMARK SMILES IDX 7 1 6 2 5 3 4 4 3 5 2 6 1 7 36 8 37 9 101 10 38 11 100 12
REMARK SMILES IDX 39 13 40 14 41 15 94 16 42 17 99 18 93 19 95 20 43 21 98 22
REMARK SMILES IDX 92 23 91 24 44 26 78 27 57 28 77 29 58 30 61 31 76 32 96 33
REMARK SMILES IDX 59 34 60 35 75 37 97 38 62 39 45 40 46 41 55 42 47 43 48 44
REMARK SMILES IDX 54 45 56 46 49 47 50 48 51 49 52 50 53 51 79 52 80 53 89 54
REMARK SMILES IDX 81 55 82 56 88 57 90 58 83 59 84 60 85 61 86 62 87 63 63 64
REMARK SMILES IDX 64 65 73 66 65 67 66 68 72 69 74 70 67 71 68 72 69 73 70 74
REMARK SMILES IDX 71 75 8 76 9 77 10 78 11 79 12 80 13 81 26 82 14 83 25 84
REMARK SMILES IDX 15 85 24 86 16 87 23 88 17 89 27 91 28 92 29 93 30 94 31 95
REMARK SMILES IDX 32 96 35 97 33 98 34 99 18 100 19 101 20 102 21 103 22 104
REMARK H PARENT 95 25 61 36 17 90
REMARK Flexibility Score: inf
ROOT
ATOM      1  C   UNL     1       2.697   3.875  -2.392  1.00  0.00     0.202 C 
ENDROOT
BRANCH   1   2
ATOM      2  O   UNL     1       3.276   2.768  -3.096  1.00  0.00    -0.374 OA
BRANCH   2   3
ATOM      3  C   UNL     1       4.481   2.268  -2.522  1.00  0.00     0.202 C 
BRANCH   3   4
ATOM      4  C   UNL     1       5.750   2.633  -3.289  1.00  0.00     0.261 C 
BRANCH   4   5
ATOM      5  O   UNL     1       5.987   4.060  -3.396  1.00  0.00    -0.460 OA
BRANCH   5   6
ATOM      6  C   UNL     1       5.112   4.963  -3.909  1.00  0.00     0.338 C 
ATOM      7  O   UNL     1       4.779   6.006  -3.347  1.00  0.00    -0.246 OA
BRANCH   6   8
ATOM      8  C   UNL     1       4.968   4.875  -5.352  1.00  0.00     0.060 A 
ATOM      9  C   UNL     1       4.895   3.647  -5.980  1.00  0.00     0.016 A 
ATOM     10  C   UNL     1       5.163   6.062  -6.070  1.00  0.00     0.016 A 
ATOM     11  C   UNL     1       5.417   3.558  -7.236  1.00  0.00     0.010 A 
ATOM     12  C   UNL     1       5.500   5.987  -7.401  1.00  0.00     0.010 A 
ATOM     13  C   UNL     1       5.743   4.728  -7.938  1.00  0.00    -0.014 A 
BRANCH  13  14
ATOM     14  C   UNL     1       6.186   4.510  -9.301  1.00  0.00     0.031 A 
ATOM     15  C   UNL     1       5.314   3.546 -10.036  1.00  0.00     0.074 A 
ATOM     16  C   UNL     1       7.225   5.142  -9.866  1.00  0.00     0.049 A 
ATOM     17  N   UNL     1       5.621   2.393 -10.537  1.00  0.00    -0.248 NA
ATOM     18  C   UNL     1       3.863   3.811  -9.971  1.00  0.00     0.031 C 
ATOM     19  C   UNL     1       7.973   6.307  -9.394  1.00  0.00     0.029 A 
ATOM     20  N   UNL     1       7.738   4.923 -11.099  1.00  0.00    -0.354 N 
ATOM     21  C   UNL     1       4.420   1.860 -10.998  1.00  0.00     0.074 A 
ATOM     22  C   UNL     1       3.369   2.674 -10.451  1.00  0.00     0.031 C 
ATOM     23  C   UNL     1       8.626   6.853 -10.444  1.00  0.00     0.029 A 
ATOM     24  C   UNL     1       8.442   5.996 -11.605  1.00  0.00     0.049 A 
ATOM     25  H   UNL     1       7.621   4.077 -11.588  1.00  0.00     0.167 HD
ATOM     26  C   UNL     1       4.363   0.904 -11.963  1.00  0.00     0.037 A 
ATOM     27  C   UNL     1       8.685   6.210 -12.918  1.00  0.00     0.037 A 
ATOM     28  C   UNL     1       5.601   0.181 -12.068  1.00  0.00     0.049 A 
ATOM     29  C   UNL     1       8.520   4.904 -13.622  1.00  0.00     0.074 A 
ATOM     30  C   UNL     1       6.317  -0.633 -11.210  1.00  0.00     0.029 A 
ATOM     31  N   UNL     1       6.476   0.522 -13.072  1.00  0.00    -0.354 N 
ATOM     32  N   UNL     1       9.287   3.862 -13.427  1.00  0.00    -0.248 NA
ATOM     33  C   UNL     1       7.222   4.607 -14.215  1.00  0.00     0.031 C 
ATOM     34  C   UNL     1       7.687  -0.346 -11.480  1.00  0.00     0.029 A 
ATOM     35  C   UNL     1       7.722   0.606 -12.500  1.00  0.00     0.049 A 
ATOM     36  H   UNL     1       6.253   0.676 -14.018  1.00  0.00     0.167 HD
ATOM     37  C   UNL     1       8.444   2.760 -13.513  1.00  0.00     0.074 A 
ATOM     38  C   UNL     1       7.204   3.277 -14.083  1.00  0.00     0.031 C 
ATOM     39  C   UNL     1       8.722   1.587 -12.868  1.00  0.00     0.037 A 
BRANCH  26  40
ATOM     40  C   UNL     1       3.290   0.884 -13.025  1.00  0.00     0.058 A 
ATOM     41  C   UNL     1       3.230  -0.191 -13.932  1.00  0.00     0.135 A 
ATOM     42  C   UNL     1       2.500   2.010 -13.364  1.00  0.00     0.135 A 
ATOM     43  F   UNL     1       3.930  -1.314 -13.710  1.00  0.00    -0.206 F 
ATOM     44  C   UNL     1       2.521  -0.112 -15.133  1.00  0.00     0.059 A 
ATOM     45  C   UNL     1       1.742   2.085 -14.522  1.00  0.00     0.059 A 
ATOM     46  F   UNL     1       2.502   3.140 -12.650  1.00  0.00    -0.206 F 
ATOM     47  C   UNL     1       1.806   1.045 -15.429  1.00  0.00     0.060 A 
BRANCH  47  48
ATOM     48  S   UNL     1       1.044   1.240 -17.047  1.00  0.00     0.124 S 
ATOM     49  O   UNL     1       2.218   1.402 -17.896  1.00  0.00    -0.237 OA
ATOM     50  O   UNL     1       0.314  -0.015 -17.193  1.00  0.00    -0.237 OA
ATOM     51  O   UNL     1       0.212   2.428 -16.885  1.00  0.00    -0.744 OA
ENDBRANCH  47  48
ENDBRANCH  26  40
BRANCH  27  52
ATOM     52  C   UNL     1       8.589   7.530 -13.592  1.00  0.00     0.058 A 
ATOM     53  C   UNL     1       9.141   7.740 -14.864  1.00  0.00     0.135 A 
ATOM     54  C   UNL     1       7.757   8.559 -13.095  1.00  0.00     0.135 A 
ATOM     55  F   UNL     1       9.905   6.794 -15.429  1.00  0.00    -0.206 F 
ATOM     56  C   UNL     1       8.877   8.897 -15.604  1.00  0.00     0.059 A 
ATOM     57  C   UNL     1       7.498   9.728 -13.803  1.00  0.00     0.059 A 
ATOM     58  F   UNL     1       7.096   8.425 -11.936  1.00  0.00    -0.206 F 
ATOM     59  C   UNL     1       8.048   9.884 -15.067  1.00  0.00     0.060 A 
BRANCH  59  60
ATOM     60  S   UNL     1       7.607  11.323 -16.066  1.00  0.00     0.124 S 
ATOM     61  O   UNL     1       8.880  12.030 -16.152  1.00  0.00    -0.237 OA
ATOM     62  O   UNL     1       7.134  10.706 -17.300  1.00  0.00    -0.237 OA
ATOM     63  O   UNL     1       6.578  11.987 -15.269  1.00  0.00    -0.744 OA
ENDBRANCH  59  60
ENDBRANCH  27  52
BRANCH  39  64
ATOM     64  C   UNL     1      10.083   1.415 -12.244  1.00  0.00     0.058 A 
ATOM     65  C   UNL     1      10.528   2.171 -11.145  1.00  0.00     0.135 A 
ATOM     66  C   UNL     1      10.876   0.326 -12.634  1.00  0.00     0.135 A 
ATOM     67  F   UNL     1       9.774   3.153 -10.636  1.00  0.00    -0.206 F 
ATOM     68  C   UNL     1      11.723   1.879 -10.485  1.00  0.00     0.059 A 
ATOM     69  C   UNL     1      12.057  -0.002 -11.971  1.00  0.00     0.059 A 
ATOM     70  F   UNL     1      10.470  -0.478 -13.630  1.00  0.00    -0.206 F 
ATOM     71  C   UNL     1      12.478   0.785 -10.900  1.00  0.00     0.060 A 
BRANCH  71  72
ATOM     72  S   UNL     1      13.957   0.338  -9.963  1.00  0.00     0.124 S 
ATOM     73  O   UNL     1      14.905   1.367 -10.377  1.00  0.00    -0.237 OA
ATOM     74  O   UNL     1      13.495   0.422  -8.580  1.00  0.00    -0.237 OA
ATOM     75  O   UNL     1      14.259  -1.014 -10.427  1.00  0.00    -0.744 OA
ENDBRANCH  71  72
ENDBRANCH  39  64
ENDBRANCH  13  14
ENDBRANCH   6   8
ENDBRANCH   5   6
ENDBRANCH   4   5
ENDBRANCH   3   4
ENDBRANCH   2   3
ENDBRANCH   1   2
BRANCH   1  76
ATOM     76  C   UNL     1       2.017   3.526  -1.069  1.00  0.00     0.261 C 
BRANCH  76  77
ATOM     77  O   UNL     1       2.842   3.955   0.047  1.00  0.00    -0.462 OA
BRANCH  77  78
ATOM     78  C   UNL     1       3.567   3.033   0.707  1.00  0.00     0.328 C 
ATOM     79  O   UNL     1       3.509   1.829   0.454  1.00  0.00    -0.250 OA
BRANCH  78  80
ATOM     80  C   UNL     1       4.455   3.558   1.871  1.00  0.00     0.195 C 
ATOM     81  C   UNL     1       5.886   2.954   1.689  1.00  0.00     0.046 C 
ATOM     82  N   UNL     1       4.767   4.826   2.561  1.00  0.00    -0.328 N 
ATOM     83  C   UNL     1       6.838   3.696   2.678  1.00  0.00     0.001 C 
ATOM     84  C   UNL     1       5.853   4.543   3.499  1.00  0.00     0.128 C 
ATOM     85  C   UNL     1       7.874   4.672   2.066  1.00  0.00     0.071 C 
ATOM     86  C   UNL     1       7.642   2.673   3.495  1.00  0.00     0.071 C 
ATOM     87  C   UNL     1       9.032   4.030   1.301  1.00  0.00     0.270 C 
ATOM     88  C   UNL     1       8.698   1.988   2.615  1.00  0.00     0.270 C 
ATOM     89  N   UNL     1       9.652   2.957   2.068  1.00  0.00    -0.272 N 
ATOM     90  H   UNL     1       9.332   2.714   1.169  1.00  0.00     0.356 HD
BRANCH  82  91
ATOM     91  C   UNL     1       4.312   6.118   2.447  1.00  0.00     0.225 C 
ATOM     92  O   UNL     1       4.712   7.008   3.209  1.00  0.00    -0.275 OA
BRANCH  91  93
ATOM     93  C   UNL     1       3.328   6.516   1.386  1.00  0.00     0.124 C 
BRANCH  93  94
ATOM     94  C   UNL     1       3.979   7.131   0.147  1.00  0.00     0.154 C 
BRANCH  94  95
ATOM     95  N   UNL     1       5.251   6.599  -0.293  1.00  0.00    -0.272 N 
ATOM     96  C   UNL     1       6.337   7.328  -0.701  1.00  0.00     0.108 A 
ATOM     97  N   UNL     1       5.438   5.274  -0.413  1.00  0.00    -0.182 NA
ATOM     98  C   UNL     1       7.256   6.424  -1.173  1.00  0.00     0.042 A 
ATOM     99  C   UNL     1       6.648   5.180  -0.969  1.00  0.00     0.135 A 
ENDBRANCH  94  95
ENDBRANCH  93  94
ENDBRANCH  91  93
ENDBRANCH  82  91
BRANCH  89 100
ATOM    100  C   UNL     1      11.013   2.689   2.242  1.00  0.00     0.315 C 
ATOM    101  O   UNL     1      11.372   1.748   2.952  1.00  0.00    -0.231 OA
BRANCH 100 102
ATOM    102  C   UNL     1      12.138   3.471   1.640  1.00  0.00     0.119 C 
ATOM    103  C   UNL     1      12.184   4.460   0.514  1.00  0.00     0.019 C 
ATOM    104  C   UNL     1      12.304   4.942   1.935  1.00  0.00     0.019 C 
ENDBRANCH 100 102
ENDBRANCH  89 100
ENDBRANCH  78  80
ENDBRANCH  77  78
ENDBRANCH  76  77
ENDBRANCH   1  76
TORSDOF 23
