REMARK SMILES COc1ccc(-c2nc(SCC(=O)OCCOCCOC(=O)c3ccc(-c4c5nc(c(-c6c(F)cc(S(=O)(=O)[O-])cc6F)c6ccc([nH]6)c(-c6c(F)cc(S(=O)(=O)[O-])cc6F)c6nc(c(-c7c(F)cc(S(=O)(=O)[O-])cc7F)c7ccc4[nH]7)C=C6)C=C5)cc3)cc(-c3ccncc3)n2)cc1
REMARK SMILES IDX 16 1 15 2 14 3 12 4 13 5 11 6 10 7 9 8 7 9 8 10 97 11 90 12
REMARK SMILES IDX 89 13 6 14 3 15 4 16 99 17 5 18 98 19 2 20 1 21 91 22 92 23
REMARK SMILES IDX 96 24 93 25 95 26 94 27 17 28 18 29 19 30 20 31 21 32 22 33
REMARK SMILES IDX 23 34 24 35 88 36 25 37 87 38 26 39 27 40 28 41 81 42 29 43
REMARK SMILES IDX 86 44 80 45 82 46 30 47 85 48 79 49 78 50 31 52 65 53 44 54
REMARK SMILES IDX 64 55 45 56 48 57 63 58 83 59 46 60 47 61 62 63 84 64 49 65
REMARK SMILES IDX 32 66 33 67 42 68 34 69 35 70 41 71 43 72 36 73 37 74 38 75
REMARK SMILES IDX 39 76 40 77 66 78 67 79 76 80 68 81 69 82 75 83 77 84 70 85
REMARK SMILES IDX 71 86 72 87 73 88 74 89 50 90 51 91 60 92 52 93 53 94 59 95
REMARK SMILES IDX 61 96 54 97 55 98 56 99 57 100 58 101
REMARK H PARENT 82 51 48 62
REMARK Flexibility Score: inf
ROOT
ATOM      1  C   UNL     1       5.988  -5.429   9.268  1.00  0.00     0.202 C 
ENDROOT
BRANCH   1   2
ATOM      2  C   UNL     1       4.815  -6.060  10.039  1.00  0.00     0.261 C 
BRANCH   2   3
ATOM      3  O   UNL     1       3.546  -5.390   9.838  1.00  0.00    -0.463 OA
BRANCH   3   4
ATOM      4  C   UNL     1       3.012  -4.783  10.934  1.00  0.00     0.316 C 
ATOM      5  O   UNL     1       3.501  -4.851  12.060  1.00  0.00    -0.251 OA
BRANCH   4   6
ATOM      6  C   UNL     1       1.753  -3.963  10.707  1.00  0.00     0.199 C 
BRANCH   6   7
ATOM      7  S   UNL     1       1.230  -3.629   9.003  1.00  0.00    -0.094 SA
BRANCH   7   8
ATOM      8  C   UNL     1       1.775  -1.986   8.544  1.00  0.00     0.101 A 
ATOM      9  C   UNL     1       1.956  -0.617   6.692  1.00  0.00     0.161 A 
ATOM     10  N   UNL     1       1.400  -1.685   7.284  1.00  0.00    -0.222 NA
ATOM     11  N   UNL     1       2.863   0.188   7.268  1.00  0.00    -0.228 NA
ATOM     12  C   UNL     1       3.178  -0.077   8.550  1.00  0.00     0.076 A 
ATOM     13  C   UNL     1       2.620  -1.149   9.252  1.00  0.00     0.064 A 
BRANCH   9  14
ATOM     14  C   UNL     1       1.596  -0.358   5.294  1.00  0.00     0.019 A 
ATOM     15  C   UNL     1       0.895   0.186   2.602  1.00  0.00     0.118 A 
ATOM     16  C   UNL     1      -0.063   0.253   3.614  1.00  0.00     0.047 A 
ATOM     17  C   UNL     1       2.204  -0.161   2.928  1.00  0.00     0.047 A 
ATOM     18  C   UNL     1       0.277  -0.035   4.941  1.00  0.00     0.016 A 
ATOM     19  C   UNL     1       2.552  -0.422   4.264  1.00  0.00     0.016 A 
BRANCH  15  20
ATOM     20  O   UNL     1       0.444   0.535   1.359  1.00  0.00    -0.497 OA
ATOM     21  C   UNL     1       1.146  -0.019   0.251  1.00  0.00     0.278 C 
ENDBRANCH  15  20
ENDBRANCH   9  14
BRANCH  12  22
ATOM     22  C   UNL     1       4.274   0.747   9.095  1.00  0.00     0.003 A 
ATOM     23  C   UNL     1       5.617   0.378   8.937  1.00  0.00     0.030 A 
ATOM     24  C   UNL     1       4.032   1.947   9.761  1.00  0.00     0.030 A 
ATOM     25  C   UNL     1       6.625   1.113   9.538  1.00  0.00     0.111 A 
ATOM     26  C   UNL     1       5.109   2.650  10.291  1.00  0.00     0.111 A 
ATOM     27  N   UNL     1       6.394   2.242  10.227  1.00  0.00    -0.265 NA
ENDBRANCH  12  22
ENDBRANCH   7   8
ENDBRANCH   6   7
ENDBRANCH   4   6
ENDBRANCH   3   4
ENDBRANCH   2   3
ENDBRANCH   1   2
BRANCH   1  28
ATOM     28  O   UNL     1       6.269  -4.051   9.506  1.00  0.00    -0.374 OA
BRANCH  28  29
ATOM     29  C   UNL     1       5.276  -3.121   9.113  1.00  0.00     0.202 C 
BRANCH  29  30
ATOM     30  C   UNL     1       5.075  -2.858   7.621  1.00  0.00     0.261 C 
BRANCH  30  31
ATOM     31  O   UNL     1       4.994  -4.026   6.834  1.00  0.00    -0.460 OA
BRANCH  31  32
ATOM     32  C   UNL     1       5.944  -4.079   5.881  1.00  0.00     0.338 C 
ATOM     33  O   UNL     1       6.809  -3.260   5.607  1.00  0.00    -0.246 OA
BRANCH  32  34
ATOM     34  C   UNL     1       5.859  -5.405   5.306  1.00  0.00     0.060 A 
ATOM     35  C   UNL     1       6.925  -6.272   5.547  1.00  0.00     0.016 A 
ATOM     36  C   UNL     1       4.734  -5.773   4.567  1.00  0.00     0.016 A 
ATOM     37  C   UNL     1       6.889  -7.534   4.989  1.00  0.00     0.010 A 
ATOM     38  C   UNL     1       4.700  -7.040   4.011  1.00  0.00     0.010 A 
ATOM     39  C   UNL     1       5.794  -7.902   4.196  1.00  0.00    -0.014 A 
BRANCH  39  40
ATOM     40  C   UNL     1       5.862  -9.157   3.439  1.00  0.00     0.031 A 
ATOM     41  C   UNL     1       6.221  -9.086   1.987  1.00  0.00     0.074 A 
ATOM     42  C   UNL     1       5.626 -10.317   4.073  1.00  0.00     0.049 A 
ATOM     43  N   UNL     1       6.309 -10.052   1.117  1.00  0.00    -0.248 NA
ATOM     44  C   UNL     1       6.517  -7.749   1.439  1.00  0.00     0.031 C 
ATOM     45  C   UNL     1       5.293 -10.451   5.493  1.00  0.00     0.029 A 
ATOM     46  N   UNL     1       5.623 -11.599   3.602  1.00  0.00    -0.354 N 
ATOM     47  C   UNL     1       6.654  -9.443  -0.082  1.00  0.00     0.074 A 
ATOM     48  C   UNL     1       6.742  -8.022   0.162  1.00  0.00     0.031 C 
ATOM     49  C   UNL     1       5.105 -11.751   5.775  1.00  0.00     0.029 A 
ATOM     50  C   UNL     1       5.267 -12.527   4.550  1.00  0.00     0.049 A 
ATOM     51  H   UNL     1       5.853 -11.835   2.675  1.00  0.00     0.167 HD
ATOM     52  C   UNL     1       6.880 -10.034  -1.276  1.00  0.00     0.037 A 
ATOM     53  C   UNL     1       5.068 -13.851   4.419  1.00  0.00     0.037 A 
ATOM     54  C   UNL     1       6.799 -11.455  -1.478  1.00  0.00     0.049 A 
ATOM     55  C   UNL     1       5.288 -14.470   3.063  1.00  0.00     0.074 A 
ATOM     56  C   UNL     1       7.049 -12.174  -2.631  1.00  0.00     0.029 A 
ATOM     57  N   UNL     1       6.430 -12.370  -0.502  1.00  0.00    -0.354 N 
ATOM     58  N   UNL     1       5.665 -13.895   1.944  1.00  0.00    -0.248 NA
ATOM     59  C   UNL     1       5.060 -15.915   2.950  1.00  0.00     0.031 C 
ATOM     60  C   UNL     1       6.774 -13.519  -2.368  1.00  0.00     0.029 A 
ATOM     61  C   UNL     1       6.414 -13.646  -1.035  1.00  0.00     0.049 A 
ATOM     62  H   UNL     1       6.213 -12.145   0.432  1.00  0.00     0.167 HD
ATOM     63  C   UNL     1       5.746 -14.913   1.002  1.00  0.00     0.074 A 
ATOM     64  C   UNL     1       5.398 -16.141   1.688  1.00  0.00     0.031 C 
ATOM     65  C   UNL     1       6.074 -14.846  -0.313  1.00  0.00     0.037 A 
BRANCH  52  66
ATOM     66  C   UNL     1       7.208  -9.161  -2.452  1.00  0.00     0.058 A 
ATOM     67  C   UNL     1       8.456  -8.533  -2.586  1.00  0.00     0.135 A 
ATOM     68  C   UNL     1       6.286  -9.020  -3.501  1.00  0.00     0.135 A 
ATOM     69  F   UNL     1       9.363  -8.610  -1.599  1.00  0.00    -0.206 F 
ATOM     70  C   UNL     1       8.781  -7.803  -3.725  1.00  0.00     0.059 A 
ATOM     71  C   UNL     1       6.599  -8.316  -4.659  1.00  0.00     0.059 A 
ATOM     72  F   UNL     1       5.072  -9.586  -3.413  1.00  0.00    -0.206 F 
ATOM     73  C   UNL     1       7.851  -7.713  -4.762  1.00  0.00     0.060 A 
BRANCH  73  74
ATOM     74  S   UNL     1       8.317  -6.825  -6.263  1.00  0.00     0.124 S 
ATOM     75  O   UNL     1       8.337  -5.444  -5.792  1.00  0.00    -0.237 OA
ATOM     76  O   UNL     1       9.619  -7.407  -6.575  1.00  0.00    -0.237 OA
ATOM     77  O   UNL     1       7.246  -7.152  -7.199  1.00  0.00    -0.744 OA
ENDBRANCH  73  74
ENDBRANCH  52  66
BRANCH  53  78
ATOM     78  C   UNL     1       4.610 -14.663   5.575  1.00  0.00     0.058 A 
ATOM     79  C   UNL     1       5.422 -15.663   6.130  1.00  0.00     0.135 A 
ATOM     80  C   UNL     1       3.334 -14.476   6.130  1.00  0.00     0.135 A 
ATOM     81  F   UNL     1       6.651 -15.878   5.638  1.00  0.00    -0.206 F 
ATOM     82  C   UNL     1       4.971 -16.478   7.163  1.00  0.00     0.059 A 
ATOM     83  C   UNL     1       2.872 -15.257   7.184  1.00  0.00     0.059 A 
ATOM     84  F   UNL     1       2.524 -13.518   5.652  1.00  0.00    -0.206 F 
ATOM     85  C   UNL     1       3.690 -16.271   7.678  1.00  0.00     0.060 A 
BRANCH  85  86
ATOM     86  S   UNL     1       3.108 -17.340   9.012  1.00  0.00     0.124 S 
ATOM     87  O   UNL     1       2.865 -18.589   8.299  1.00  0.00    -0.237 OA
ATOM     88  O   UNL     1       4.245 -17.335   9.926  1.00  0.00    -0.237 OA
ATOM     89  O   UNL     1       1.918 -16.649   9.500  1.00  0.00    -0.744 OA
ENDBRANCH  85  86
ENDBRANCH  53  78
BRANCH  65  90
ATOM     90  C   UNL     1       6.110 -16.139  -1.076  1.00  0.00     0.058 A 
ATOM     91  C   UNL     1       4.935 -16.826  -1.416  1.00  0.00     0.135 A 
ATOM     92  C   UNL     1       7.334 -16.666  -1.517  1.00  0.00     0.135 A 
ATOM     93  F   UNL     1       3.740 -16.366  -1.012  1.00  0.00    -0.206 F 
ATOM     94  C   UNL     1       4.975 -18.009  -2.144  1.00  0.00     0.059 A 
ATOM     95  C   UNL     1       7.395 -17.829  -2.275  1.00  0.00     0.059 A 
ATOM     96  F   UNL     1       8.485 -16.037  -1.228  1.00  0.00    -0.206 F 
ATOM     97  C   UNL     1       6.210 -18.501  -2.572  1.00  0.00     0.060 A 
BRANCH  97  98
ATOM     98  S   UNL     1       6.245 -20.020  -3.543  1.00  0.00     0.124 S 
ATOM     99  O   UNL     1       5.945 -21.024  -2.527  1.00  0.00    -0.237 OA
ATOM    100  O   UNL     1       5.196 -19.784  -4.529  1.00  0.00    -0.237 OA
ATOM    101  O   UNL     1       7.603 -20.053  -4.076  1.00  0.00    -0.744 OA
ENDBRANCH  97  98
ENDBRANCH  65  90
ENDBRANCH  39  40
ENDBRANCH  32  34
ENDBRANCH  31  32
ENDBRANCH  30  31
ENDBRANCH  29  30
ENDBRANCH  28  29
ENDBRANCH   1  28
TORSDOF 22
