REMARK SMILES O=C(CCCN1C(=O)c2ccc3c4c(ccc(c24)C1=O)C(=O)NC3=O)OCCOCCOC(=O)c1ccc(-c2c3nc(c(-c4c(F)cc(S(=O)(=O)[O-])cc4F)c4ccc([nH]4)c(-c4c(F)cc(S(=O)(=O)[O-])cc4F)c4nc(c(-c5c(F)cc(S(=O)(=O)[O-])cc5F)c5ccc2[nH]5)C=C4)C=C3)cc1
REMARK SMILES IDX 29 1 28 2 27 3 26 4 2 5 1 6 3 7 4 8 5 9 6 10 19 11 7 12
REMARK SMILES IDX 20 13 17 14 9 15 8 16 16 17 18 18 10 19 15 20 13 21 11 22
REMARK SMILES IDX 14 23 12 24 21 25 24 26 23 27 22 28 25 29 30 31 31 32 32 33
REMARK SMILES IDX 33 34 34 35 35 36 36 37 100 38 37 39 99 40 38 41 39 42 40 43
REMARK SMILES IDX 93 44 41 45 98 46 92 47 94 48 42 49 97 50 91 51 90 52 43 54
REMARK SMILES IDX 77 55 56 56 76 57 57 58 60 59 75 60 95 61 58 62 59 63 74 65
REMARK SMILES IDX 96 66 61 67 44 68 45 69 54 70 46 71 47 72 53 73 55 74 48 75
REMARK SMILES IDX 49 76 50 77 51 78 52 79 78 80 79 81 88 82 80 83 81 84 87 85
REMARK SMILES IDX 89 86 82 87 83 88 84 89 85 90 86 91 62 92 63 93 72 94 64 95
REMARK SMILES IDX 65 96 71 97 73 98 66 99 67 100 68 101 69 102 70 103
REMARK H PARENT 23 30 94 53 60 64
REMARK Flexibility Score: inf
ROOT
ATOM      1  O   UNL     1       3.534  -1.277   0.312  1.00  0.00    -0.374 OA
ENDROOT
BRANCH   1   2
ATOM      2  C   UNL     1       3.579  -0.552   1.544  1.00  0.00     0.202 C 
BRANCH   2   3
ATOM      3  C   UNL     1       3.996   0.914   1.401  1.00  0.00     0.261 C 
BRANCH   3   4
ATOM      4  O   UNL     1       3.338   1.757   0.440  1.00  0.00    -0.463 OA
BRANCH   4   5
ATOM      5  C   UNL     1       2.455   1.193  -0.403  1.00  0.00     0.305 C 
ATOM      6  O   UNL     1       1.301   0.934  -0.080  1.00  0.00    -0.252 OA
BRANCH   5   7
ATOM      7  C   UNL     1       3.019   0.890  -1.770  1.00  0.00     0.124 C 
BRANCH   7   8
ATOM      8  C   UNL     1       4.230   1.678  -2.269  1.00  0.00     0.034 C 
BRANCH   8   9
ATOM      9  C   UNL     1       5.593   1.579  -1.565  1.00  0.00     0.130 C 
BRANCH   9  10
ATOM     10  N   UNL     1       6.257   0.302  -1.277  1.00  0.00    -0.274 N 
ATOM     11  C   UNL     1       7.456   0.427  -0.556  1.00  0.00     0.261 C 
ATOM     12  C   UNL     1       5.874  -0.893  -1.872  1.00  0.00     0.261 C 
ATOM     13  O   UNL     1       7.895   1.498  -0.142  1.00  0.00    -0.269 OA
ATOM     14  C   UNL     1       8.248  -0.800  -0.308  1.00  0.00     0.049 A 
ATOM     15  C   UNL     1       6.504  -2.131  -1.346  1.00  0.00     0.049 A 
ATOM     16  O   UNL     1       5.132  -0.992  -2.844  1.00  0.00    -0.269 OA
ATOM     17  C   UNL     1       9.511  -0.713   0.296  1.00  0.00     0.015 A 
ATOM     18  C   UNL     1       7.710  -2.042  -0.646  1.00  0.00     0.009 A 
ATOM     19  C   UNL     1       5.937  -3.381  -1.625  1.00  0.00     0.015 A 
ATOM     20  C   UNL     1      10.235  -1.871   0.578  1.00  0.00     0.015 A 
ATOM     21  C   UNL     1       8.408  -3.225  -0.296  1.00  0.00     0.009 A 
ATOM     22  C   UNL     1       6.584  -4.549  -1.217  1.00  0.00     0.015 A 
ATOM     23  C   UNL     1       9.675  -3.121   0.298  1.00  0.00     0.048 A 
ATOM     24  C   UNL     1       7.821  -4.470  -0.569  1.00  0.00     0.048 A 
ATOM     25  C   UNL     1      10.434  -4.355   0.606  1.00  0.00     0.258 C 
ATOM     26  C   UNL     1       8.529  -5.709  -0.170  1.00  0.00     0.258 C 
ATOM     27  N   UNL     1       9.770  -5.541   0.402  1.00  0.00    -0.288 N 
ATOM     28  O   UNL     1      11.595  -4.313   0.990  1.00  0.00    -0.269 OA
ATOM     29  O   UNL     1       8.053  -6.818  -0.375  1.00  0.00    -0.269 OA
ATOM     30  H   UNL     1      10.232  -6.359   0.696  1.00  0.00     0.173 HD
ENDBRANCH   9  10
ENDBRANCH   8   9
ENDBRANCH   7   8
ENDBRANCH   5   7
ENDBRANCH   4   5
ENDBRANCH   3   4
ENDBRANCH   2   3
ENDBRANCH   1   2
BRANCH   1  31
ATOM     31  C   UNL     1       2.363  -2.109   0.201  1.00  0.00     0.202 C 
BRANCH  31  32
ATOM     32  C   UNL     1       2.523  -3.506   0.809  1.00  0.00     0.261 C 
BRANCH  32  33
ATOM     33  O   UNL     1       3.003  -3.427   2.158  1.00  0.00    -0.460 OA
BRANCH  33  34
ATOM     34  C   UNL     1       4.329  -3.679   2.298  1.00  0.00     0.338 C 
ATOM     35  O   UNL     1       5.090  -4.111   1.454  1.00  0.00    -0.246 OA
BRANCH  34  36
ATOM     36  C   UNL     1       4.798  -3.144   3.592  1.00  0.00     0.060 A 
ATOM     37  C   UNL     1       6.056  -2.521   3.608  1.00  0.00     0.016 A 
ATOM     38  C   UNL     1       4.020  -3.210   4.749  1.00  0.00     0.016 A 
ATOM     39  C   UNL     1       6.558  -1.995   4.793  1.00  0.00     0.010 A 
ATOM     40  C   UNL     1       4.531  -2.696   5.940  1.00  0.00     0.010 A 
ATOM     41  C   UNL     1       5.813  -2.119   5.970  1.00  0.00    -0.014 A 
BRANCH  41  42
ATOM     42  C   UNL     1       6.449  -1.835   7.273  1.00  0.00     0.031 A 
ATOM     43  C   UNL     1       7.005  -2.996   8.046  1.00  0.00     0.074 A 
ATOM     44  C   UNL     1       6.519  -0.582   7.752  1.00  0.00     0.049 A 
ATOM     45  N   UNL     1       7.506  -3.026   9.251  1.00  0.00    -0.248 NA
ATOM     46  C   UNL     1       6.983  -4.305   7.369  1.00  0.00     0.031 C 
ATOM     47  C   UNL     1       6.047   0.617   7.060  1.00  0.00     0.029 A 
ATOM     48  N   UNL     1       6.999  -0.116   8.948  1.00  0.00    -0.354 N 
ATOM     49  C   UNL     1       7.841  -4.354   9.484  1.00  0.00     0.074 A 
ATOM     50  C   UNL     1       7.469  -5.104   8.306  1.00  0.00     0.031 C 
ATOM     51  C   UNL     1       6.238   1.682   7.858  1.00  0.00     0.029 A 
ATOM     52  C   UNL     1       6.811   1.234   9.126  1.00  0.00     0.049 A 
ATOM     53  H   UNL     1       7.437  -0.692   9.616  1.00  0.00     0.167 HD
ATOM     54  C   UNL     1       8.411  -4.896  10.585  1.00  0.00     0.037 A 
ATOM     55  C   UNL     1       7.047   2.006  10.205  1.00  0.00     0.037 A 
ATOM     56  C   UNL     1       8.775  -4.134  11.749  1.00  0.00     0.049 A 
ATOM     57  C   UNL     1       7.636   1.372  11.439  1.00  0.00     0.074 A 
ATOM     58  C   UNL     1       9.371  -4.576  12.916  1.00  0.00     0.029 A 
ATOM     59  N   UNL     1       8.570  -2.769  11.895  1.00  0.00    -0.354 N 
ATOM     60  N   UNL     1       7.961   0.117  11.647  1.00  0.00    -0.248 NA
ATOM     61  C   UNL     1       7.894   2.257  12.583  1.00  0.00     0.031 C 
ATOM     62  C   UNL     1       9.484  -3.486  13.785  1.00  0.00     0.029 A 
ATOM     63  C   UNL     1       9.009  -2.355  13.139  1.00  0.00     0.049 A 
ATOM     64  H   UNL     1       8.171  -2.182  11.212  1.00  0.00     0.167 HD
ATOM     65  C   UNL     1       8.486   0.067  12.935  1.00  0.00     0.074 A 
ATOM     66  C   UNL     1       8.443   1.419  13.453  1.00  0.00     0.031 C 
ATOM     67  C   UNL     1       8.962  -0.999  13.627  1.00  0.00     0.037 A 
BRANCH  54  68
ATOM     68  C   UNL     1       8.641  -6.381  10.590  1.00  0.00     0.058 A 
ATOM     69  C   UNL     1       9.628  -6.981   9.792  1.00  0.00     0.135 A 
ATOM     70  C   UNL     1       7.874  -7.214  11.421  1.00  0.00     0.135 A 
ATOM     71  F   UNL     1      10.371  -6.235   8.959  1.00  0.00    -0.206 F 
ATOM     72  C   UNL     1       9.833  -8.357   9.802  1.00  0.00     0.059 A 
ATOM     73  C   UNL     1       8.080  -8.589  11.467  1.00  0.00     0.059 A 
ATOM     74  F   UNL     1       6.910  -6.693  12.196  1.00  0.00    -0.206 F 
ATOM     75  C   UNL     1       9.054  -9.153  10.645  1.00  0.00     0.060 A 
BRANCH  75  76
ATOM     76  S   UNL     1       9.340 -10.935  10.655  1.00  0.00     0.124 S 
ATOM     77  O   UNL     1       8.774 -11.328   9.368  1.00  0.00    -0.237 OA
ATOM     78  O   UNL     1      10.794 -11.017  10.759  1.00  0.00    -0.237 OA
ATOM     79  O   UNL     1       8.604 -11.391  11.830  1.00  0.00    -0.744 OA
ENDBRANCH  75  76
ENDBRANCH  54  68
BRANCH  55  80
ATOM     80  C   UNL     1       6.710   3.454  10.171  1.00  0.00     0.058 A 
ATOM     81  C   UNL     1       7.714   4.433  10.163  1.00  0.00     0.135 A 
ATOM     82  C   UNL     1       5.375   3.888  10.134  1.00  0.00     0.135 A 
ATOM     83  F   UNL     1       9.005   4.070  10.208  1.00  0.00    -0.206 F 
ATOM     84  C   UNL     1       7.409   5.790  10.132  1.00  0.00     0.059 A 
ATOM     85  C   UNL     1       5.045   5.239  10.077  1.00  0.00     0.059 A 
ATOM     86  F   UNL     1       4.377   2.991  10.129  1.00  0.00    -0.206 F 
ATOM     87  C   UNL     1       6.070   6.183  10.084  1.00  0.00     0.060 A 
BRANCH  87  88
ATOM     88  S   UNL     1       5.687   7.946   9.985  1.00  0.00     0.124 S 
ATOM     89  O   UNL     1       5.999   8.391  11.338  1.00  0.00    -0.237 OA
ATOM     90  O   UNL     1       6.598   8.398   8.938  1.00  0.00    -0.237 OA
ATOM     91  O   UNL     1       4.273   7.961   9.624  1.00  0.00    -0.744 OA
ENDBRANCH  87  88
ENDBRANCH  55  80
BRANCH  67  92
ATOM     92  C   UNL     1       9.513  -0.740  15.002  1.00  0.00     0.058 A 
ATOM     93  C   UNL     1       8.676  -0.458  16.092  1.00  0.00     0.135 A 
ATOM     94  C   UNL     1      10.894  -0.837  15.240  1.00  0.00     0.135 A 
ATOM     95  F   UNL     1       7.350  -0.352  15.917  1.00  0.00    -0.206 F 
ATOM     96  C   UNL     1       9.193  -0.255  17.368  1.00  0.00     0.059 A 
ATOM     97  C   UNL     1      11.429  -0.666  16.512  1.00  0.00     0.059 A 
ATOM     98  F   UNL     1      11.736  -1.119  14.233  1.00  0.00    -0.206 F 
ATOM     99  C   UNL     1      10.570  -0.363  17.568  1.00  0.00     0.060 A 
BRANCH  99 100
ATOM    100  S   UNL     1      11.225  -0.127  19.233  1.00  0.00     0.124 S 
ATOM    101  O   UNL     1      11.117   1.319  19.389  1.00  0.00    -0.237 OA
ATOM    102  O   UNL     1      10.309  -0.923  20.045  1.00  0.00    -0.237 OA
ATOM    103  O   UNL     1      12.585  -0.649  19.141  1.00  0.00    -0.744 OA
ENDBRANCH  99 100
ENDBRANCH  67  92
ENDBRANCH  41  42
ENDBRANCH  34  36
ENDBRANCH  33  34
ENDBRANCH  32  33
ENDBRANCH  31  32
ENDBRANCH   1  31
TORSDOF 20
