REMARK SMILES C[C@H]1[C@H](C(=O)OCCOCCOC(=O)c2ccc(-c3c4nc(c(-c5c(F)cc(S(=O)(=O)[O-])cc5F)c5ccc([nH]5)c(-c5c(F)cc(S(=O)(=O)[O-])cc5F)c5nc(c(-c6c(F)cc(S(=O)(=O)[O-])cc6F)c6ccc3[nH]6)C=C5)C=C4)cc2)CCN1C(=O)NCc1ccncc1
REMARK SMILES IDX 9 1 8 2 7 3 6 4 4 5 5 6 3 7 1 8 2 9 83 10 81 11 82 12 84 13
REMARK SMILES IDX 85 14 86 15 87 17 88 18 89 19 93 20 90 21 92 22 91 23 10 24
REMARK SMILES IDX 11 25 12 26 13 27 14 28 15 29 16 30 80 31 17 32 79 33 18 34
REMARK SMILES IDX 19 35 20 36 73 37 21 38 78 39 72 40 74 41 22 42 77 43 71 44
REMARK SMILES IDX 70 45 23 47 57 48 36 49 56 50 37 51 40 52 55 53 75 54 38 55
REMARK SMILES IDX 39 56 54 58 76 59 41 60 24 61 25 62 34 63 26 64 27 65 33 66
REMARK SMILES IDX 35 67 28 68 29 69 30 70 31 71 32 72 58 73 59 74 68 75 60 76
REMARK SMILES IDX 61 77 67 78 69 79 62 80 63 81 64 82 65 83 66 84 42 85 43 86
REMARK SMILES IDX 52 87 44 88 45 89 51 90 53 91 46 92 47 93 48 94 49 95 50 96
REMARK H PARENT 86 16 74 46 40 57
REMARK Flexibility Score: inf
ROOT
ATOM      1  O   UNL     1       1.225   4.509   2.274  1.00  0.00    -0.374 OA
ENDROOT
BRANCH   1   2
ATOM      2  C   UNL     1       0.251   4.122   3.239  1.00  0.00     0.202 C 
BRANCH   2   3
ATOM      3  C   UNL     1      -0.992   3.378   2.734  1.00  0.00     0.261 C 
BRANCH   3   4
ATOM      4  O   UNL     1      -0.702   2.216   1.935  1.00  0.00    -0.463 OA
BRANCH   4   5
ATOM      5  C   UNL     1      -1.017   2.318   0.617  1.00  0.00     0.311 C 
ATOM      6  O   UNL     1      -1.506   3.310   0.086  1.00  0.00    -0.252 OA
BRANCH   5   7
ATOM      7  C   UNL     1      -0.758   1.054  -0.170  1.00  0.00     0.123 C 
ATOM      8  C   UNL     1       1.578   0.313  -0.723  1.00  0.00     0.032 C 
ATOM      9  C   UNL     1       0.419   0.150   0.273  1.00  0.00     0.098 C 
ATOM     10  N   UNL     1      -0.116  -1.220   0.232  1.00  0.00    -0.321 N 
ATOM     11  C   UNL     1      -1.985   0.154  -0.119  1.00  0.00     0.039 C 
ATOM     12  C   UNL     1      -1.415  -1.212  -0.426  1.00  0.00     0.122 C 
BRANCH  10  13
ATOM     13  C   UNL     1       0.326  -2.398   0.747  1.00  0.00     0.317 C 
ATOM     14  O   UNL     1      -0.326  -3.439   0.606  1.00  0.00    -0.249 OA
ATOM     15  N   UNL     1       1.466  -2.547   1.433  1.00  0.00    -0.334 N 
ATOM     16  H   UNL     1       1.519  -3.432   1.861  1.00  0.00     0.165 HD
BRANCH  15  17
ATOM     17  C   UNL     1       2.641  -1.752   1.711  1.00  0.00     0.153 C 
BRANCH  17  18
ATOM     18  C   UNL     1       3.244  -1.947   3.083  1.00  0.00    -0.026 A 
ATOM     19  C   UNL     1       2.971  -3.035   3.917  1.00  0.00     0.025 A 
ATOM     20  C   UNL     1       4.158  -0.987   3.546  1.00  0.00     0.025 A 
ATOM     21  C   UNL     1       3.575  -3.089   5.167  1.00  0.00     0.111 A 
ATOM     22  C   UNL     1       4.703  -1.121   4.813  1.00  0.00     0.111 A 
ATOM     23  N   UNL     1       4.423  -2.150   5.633  1.00  0.00    -0.265 NA
ENDBRANCH  17  18
ENDBRANCH  15  17
ENDBRANCH  10  13
ENDBRANCH   5   7
ENDBRANCH   4   5
ENDBRANCH   3   4
ENDBRANCH   2   3
ENDBRANCH   1   2
BRANCH   1  24
ATOM     24  C   UNL     1       1.996   3.487   1.652  1.00  0.00     0.202 C 
BRANCH  24  25
ATOM     25  C   UNL     1       2.932   2.658   2.538  1.00  0.00     0.261 C 
BRANCH  25  26
ATOM     26  O   UNL     1       2.244   1.923   3.568  1.00  0.00    -0.460 OA
BRANCH  26  27
ATOM     27  C   UNL     1       2.714   2.170   4.819  1.00  0.00     0.338 C 
ATOM     28  O   UNL     1       3.688   2.859   5.096  1.00  0.00    -0.246 OA
BRANCH  27  29
ATOM     29  C   UNL     1       1.860   1.597   5.878  1.00  0.00     0.060 A 
ATOM     30  C   UNL     1       1.573   2.418   6.975  1.00  0.00     0.016 A 
ATOM     31  C   UNL     1       1.498   0.248   5.897  1.00  0.00     0.016 A 
ATOM     32  C   UNL     1       1.014   1.873   8.129  1.00  0.00     0.010 A 
ATOM     33  C   UNL     1       0.960  -0.305   7.066  1.00  0.00     0.010 A 
ATOM     34  C   UNL     1       0.764   0.496   8.202  1.00  0.00    -0.014 A 
BRANCH  34  35
ATOM     35  C   UNL     1       0.413  -0.093   9.515  1.00  0.00     0.031 A 
ATOM     36  C   UNL     1       1.512  -0.539  10.442  1.00  0.00     0.074 A 
ATOM     37  C   UNL     1      -0.872  -0.171   9.898  1.00  0.00     0.049 A 
ATOM     38  N   UNL     1       1.434  -0.922  11.690  1.00  0.00    -0.248 NA
ATOM     39  C   UNL     1       2.877  -0.548   9.892  1.00  0.00     0.031 C 
ATOM     40  C   UNL     1      -2.019   0.222   9.082  1.00  0.00     0.029 A 
ATOM     41  N   UNL     1      -1.425  -0.602  11.076  1.00  0.00    -0.354 N 
ATOM     42  C   UNL     1       2.740  -1.186  12.088  1.00  0.00     0.074 A 
ATOM     43  C   UNL     1       3.586  -0.960  10.935  1.00  0.00     0.031 C 
ATOM     44  C   UNL     1      -3.146   0.004   9.781  1.00  0.00     0.029 A 
ATOM     45  C   UNL     1      -2.796  -0.536  11.094  1.00  0.00     0.049 A 
ATOM     46  H   UNL     1      -0.890  -0.928  11.835  1.00  0.00     0.167 HD
ATOM     47  C   UNL     1       3.191  -1.570  13.307  1.00  0.00     0.037 A 
ATOM     48  C   UNL     1      -3.670  -0.864  12.066  1.00  0.00     0.037 A 
ATOM     49  C   UNL     1       2.338  -1.832  14.439  1.00  0.00     0.049 A 
ATOM     50  C   UNL     1      -3.150  -1.321  13.401  1.00  0.00     0.074 A 
ATOM     51  C   UNL     1       2.696  -2.201  15.724  1.00  0.00     0.029 A 
ATOM     52  N   UNL     1       0.952  -1.773  14.414  1.00  0.00    -0.354 N 
ATOM     53  N   UNL     1      -1.907  -1.483  13.790  1.00  0.00    -0.248 NA
ATOM     54  C   UNL     1      -4.150  -1.617  14.436  1.00  0.00     0.031 C 
ATOM     55  C   UNL     1       1.524  -2.405  16.465  1.00  0.00     0.029 A 
ATOM     56  C   UNL     1       0.438  -2.123  15.652  1.00  0.00     0.049 A 
ATOM     57  H   UNL     1       0.412  -1.520  13.630  1.00  0.00     0.167 HD
ATOM     58  C   UNL     1      -1.975  -1.875  15.123  1.00  0.00     0.074 A 
ATOM     59  C   UNL     1      -3.380  -1.916  15.474  1.00  0.00     0.031 C 
ATOM     60  C   UNL     1      -0.965  -2.167  15.981  1.00  0.00     0.037 A 
BRANCH  47  61
ATOM     61  C   UNL     1       4.676  -1.735  13.480  1.00  0.00     0.058 A 
ATOM     62  C   UNL     1       5.531  -0.624  13.559  1.00  0.00     0.135 A 
ATOM     63  C   UNL     1       5.247  -3.011  13.611  1.00  0.00     0.135 A 
ATOM     64  F   UNL     1       5.038   0.618  13.429  1.00  0.00    -0.206 F 
ATOM     65  C   UNL     1       6.902  -0.772  13.745  1.00  0.00     0.059 A 
ATOM     66  C   UNL     1       6.614  -3.182  13.817  1.00  0.00     0.059 A 
ATOM     67  F   UNL     1       4.476  -4.107  13.543  1.00  0.00    -0.206 F 
ATOM     68  C   UNL     1       7.435  -2.056  13.871  1.00  0.00     0.060 A 
BRANCH  68  69
ATOM     69  S   UNL     1       9.215  -2.233  14.126  1.00  0.00     0.124 S 
ATOM     70  O   UNL     1       9.731  -1.953  12.789  1.00  0.00    -0.237 OA
ATOM     71  O   UNL     1       9.491  -1.217  15.136  1.00  0.00    -0.237 OA
ATOM     72  O   UNL     1       9.357  -3.614  14.576  1.00  0.00    -0.744 OA
ENDBRANCH  68  69
ENDBRANCH  47  61
BRANCH  48  73
ATOM     73  C   UNL     1      -5.127  -0.738  11.811  1.00  0.00     0.058 A 
ATOM     74  C   UNL     1      -5.879   0.294  12.387  1.00  0.00     0.135 A 
ATOM     75  C   UNL     1      -5.787  -1.635  10.957  1.00  0.00     0.135 A 
ATOM     76  F   UNL     1      -5.290   1.172  13.215  1.00  0.00    -0.206 F 
ATOM     77  C   UNL     1      -7.239   0.433  12.132  1.00  0.00     0.059 A 
ATOM     78  C   UNL     1      -7.142  -1.506  10.671  1.00  0.00     0.059 A 
ATOM     79  F   UNL     1      -5.106  -2.632  10.372  1.00  0.00    -0.206 F 
ATOM     80  C   UNL     1      -7.861  -0.471  11.268  1.00  0.00     0.060 A 
BRANCH  80  81
ATOM     81  S   UNL     1      -9.611  -0.242  10.884  1.00  0.00     0.124 S 
ATOM     82  O   UNL     1     -10.246  -0.753  12.093  1.00  0.00    -0.237 OA
ATOM     83  O   UNL     1      -9.696   1.200  10.677  1.00  0.00    -0.237 OA
ATOM     84  O   UNL     1      -9.796  -1.050   9.682  1.00  0.00    -0.744 OA
ENDBRANCH  80  81
ENDBRANCH  48  73
BRANCH  60  85
ATOM     85  C   UNL     1      -1.350  -2.536  17.386  1.00  0.00     0.058 A 
ATOM     86  C   UNL     1      -1.915  -3.784  17.690  1.00  0.00     0.135 A 
ATOM     87  C   UNL     1      -1.138  -1.635  18.443  1.00  0.00     0.135 A 
ATOM     88  F   UNL     1      -2.142  -4.678  16.715  1.00  0.00    -0.206 F 
ATOM     89  C   UNL     1      -2.292  -4.114  18.988  1.00  0.00     0.059 A 
ATOM     90  C   UNL     1      -1.486  -1.953  19.752  1.00  0.00     0.059 A 
ATOM     91  F   UNL     1      -0.590  -0.433  18.207  1.00  0.00    -0.206 F 
ATOM     92  C   UNL     1      -2.080  -3.188  20.012  1.00  0.00     0.060 A 
BRANCH  92  93
ATOM     93  S   UNL     1      -2.573  -3.620  21.694  1.00  0.00     0.124 S 
ATOM     94  O   UNL     1      -4.012  -3.386  21.646  1.00  0.00    -0.237 OA
ATOM     95  O   UNL     1      -2.162  -5.017  21.797  1.00  0.00    -0.237 OA
ATOM     96  O   UNL     1      -1.811  -2.688  22.519  1.00  0.00    -0.744 OA
ENDBRANCH  92  93
ENDBRANCH  60  85
ENDBRANCH  34  35
ENDBRANCH  27  29
ENDBRANCH  26  27
ENDBRANCH  25  26
ENDBRANCH  24  25
ENDBRANCH   1  24
TORSDOF 20
