REMARK SMILES O=C(OCCOCCOC(=O)c1ccc(-c2c3nc(c(-c4c(F)cc(S(=O)(=O)[O-])cc4F)c4ccc([nH]4)c(-c4c(F)cc(S(=O)(=O)[O-])cc4F)c4nc(c(-c5c(F)cc(S(=O)(=O)[O-])cc5F)c5ccc2[nH]5)C=C4)C=C3)cc1)C1=NN(c2ccc(S(=O)(=O)[O-])cc2)C(=O)/C1=C/Nc1ccccc1
REMARK SMILES IDX 7 1 6 2 5 3 4 4 3 5 2 6 1 7 78 8 79 9 93 10 80 11 91 12
REMARK SMILES IDX 94 13 92 14 81 15 82 16 90 17 83 18 89 19 84 20 85 21 86 22
REMARK SMILES IDX 87 23 88 24 95 25 96 27 97 28 101 29 98 30 100 31 99 32 8 33
REMARK SMILES IDX 9 34 10 35 11 36 12 37 13 38 77 39 14 40 76 41 15 42 16 43
REMARK SMILES IDX 17 44 70 45 18 46 75 47 69 48 71 49 19 50 74 51 68 52 67 53
REMARK SMILES IDX 20 55 54 56 33 57 53 58 34 59 37 60 52 61 72 62 35 63 36 64
REMARK SMILES IDX 51 66 73 67 38 68 21 69 22 70 31 71 23 72 24 73 30 74 32 75
REMARK SMILES IDX 25 76 26 77 27 78 28 79 29 80 55 81 56 82 65 83 57 84 58 85
REMARK SMILES IDX 64 86 66 87 59 88 60 89 61 90 62 91 63 92 39 93 40 94 49 95
REMARK SMILES IDX 41 96 42 97 48 98 50 99 43 100 44 101 45 102 46 103 47 104
REMARK H PARENT 95 26 71 54 37 65
REMARK Flexibility Score: inf
ROOT
ATOM      1  C   UNL     1       1.938   1.568   0.479  1.00  0.00     0.202 C 
ENDROOT
BRANCH   1   2
ATOM      2  O   UNL     1       3.246   0.984   0.584  1.00  0.00    -0.374 OA
BRANCH   2   3
ATOM      3  C   UNL     1       4.062   1.065  -0.592  1.00  0.00     0.202 C 
BRANCH   3   4
ATOM      4  C   UNL     1       4.065  -0.257  -1.349  1.00  0.00     0.261 C 
BRANCH   4   5
ATOM      5  O   UNL     1       2.877  -1.010  -1.083  1.00  0.00    -0.458 OA
BRANCH   5   6
ATOM      6  C   UNL     1       2.592  -1.354   0.190  1.00  0.00     0.359 C 
ATOM      7  O   UNL     1       1.441  -1.499   0.590  1.00  0.00    -0.244 OA
BRANCH   6   8
ATOM      8  C   UNL     1       3.696  -1.934   1.035  1.00  0.00     0.183 C 
ATOM      9  N   UNL     1       3.861  -3.211   0.803  1.00  0.00    -0.157 NA
ATOM     10  C   UNL     1       4.386  -1.481   2.292  1.00  0.00     0.093 C 
ATOM     11  N   UNL     1       4.420  -3.733   1.934  1.00  0.00    -0.196 N 
ATOM     12  C   UNL     1       4.923  -2.780   2.821  1.00  0.00     0.282 C 
ATOM     13  C   UNL     1       4.638  -0.451   3.128  1.00  0.00     0.099 C 
ATOM     14  O   UNL     1       5.555  -2.944   3.851  1.00  0.00    -0.267 OA
BRANCH  11  15
ATOM     15  C   UNL     1       3.856  -4.974   2.325  1.00  0.00     0.069 A 
ATOM     16  C   UNL     1       3.318  -5.837   1.353  1.00  0.00     0.030 A 
ATOM     17  C   UNL     1       3.645  -5.267   3.680  1.00  0.00     0.030 A 
ATOM     18  C   UNL     1       2.616  -6.983   1.725  1.00  0.00     0.021 A 
ATOM     19  C   UNL     1       2.927  -6.399   4.061  1.00  0.00     0.021 A 
ATOM     20  C   UNL     1       2.437  -7.260   3.081  1.00  0.00     0.054 A 
BRANCH  20  21
ATOM     21  S   UNL     1       1.599  -8.743   3.540  1.00  0.00     0.124 S 
ATOM     22  O   UNL     1       0.244  -8.674   3.043  1.00  0.00    -0.237 OA
ATOM     23  O   UNL     1       2.472  -9.852   3.225  1.00  0.00    -0.237 OA
ATOM     24  O   UNL     1       1.513  -8.717   5.152  1.00  0.00    -0.744 OA
ENDBRANCH  20  21
ENDBRANCH  11  15
BRANCH  13  25
ATOM     25  N   UNL     1       4.284   0.874   3.168  1.00  0.00    -0.361 N 
ATOM     26  H   UNL     1       3.522   1.125   2.597  1.00  0.00     0.166 HD
BRANCH  25  27
ATOM     27  C   UNL     1       4.871   1.950   3.928  1.00  0.00     0.038 A 
ATOM     28  C   UNL     1       3.998   2.948   4.408  1.00  0.00     0.026 A 
ATOM     29  C   UNL     1       6.221   2.299   3.744  1.00  0.00     0.026 A 
ATOM     30  C   UNL     1       4.417   4.278   4.555  1.00  0.00     0.002 A 
ATOM     31  C   UNL     1       6.643   3.631   3.908  1.00  0.00     0.002 A 
ATOM     32  C   UNL     1       5.734   4.625   4.273  1.00  0.00     0.000 A 
ENDBRANCH  25  27
ENDBRANCH  13  25
ENDBRANCH   6   8
ENDBRANCH   5   6
ENDBRANCH   4   5
ENDBRANCH   3   4
ENDBRANCH   2   3
ENDBRANCH   1   2
BRANCH   1  33
ATOM     33  C   UNL     1       1.775   2.700   1.488  1.00  0.00     0.261 C 
BRANCH  33  34
ATOM     34  O   UNL     1       2.493   3.866   1.086  1.00  0.00    -0.460 OA
BRANCH  34  35
ATOM     35  C   UNL     1       3.834   3.763   1.092  1.00  0.00     0.338 C 
ATOM     36  O   UNL     1       4.528   2.833   1.467  1.00  0.00    -0.246 OA
BRANCH  35  37
ATOM     37  C   UNL     1       4.450   4.813   0.331  1.00  0.00     0.060 A 
ATOM     38  C   UNL     1       5.678   4.510  -0.287  1.00  0.00     0.016 A 
ATOM     39  C   UNL     1       3.794   6.025   0.182  1.00  0.00     0.016 A 
ATOM     40  C   UNL     1       6.258   5.441  -1.109  1.00  0.00     0.010 A 
ATOM     41  C   UNL     1       4.358   6.943  -0.661  1.00  0.00     0.010 A 
ATOM     42  C   UNL     1       5.578   6.640  -1.294  1.00  0.00    -0.014 A 
BRANCH  42  43
ATOM     43  C   UNL     1       6.136   7.684  -2.133  1.00  0.00     0.031 A 
ATOM     44  C   UNL     1       6.646   8.887  -1.432  1.00  0.00     0.074 A 
ATOM     45  C   UNL     1       5.932   7.571  -3.451  1.00  0.00     0.049 A 
ATOM     46  N   UNL     1       6.833  10.082  -1.899  1.00  0.00    -0.248 NA
ATOM     47  C   UNL     1       6.908   8.737   0.013  1.00  0.00     0.031 C 
ATOM     48  C   UNL     1       5.400   6.381  -4.126  1.00  0.00     0.029 A 
ATOM     49  N   UNL     1       6.066   8.494  -4.440  1.00  0.00    -0.354 N 
ATOM     50  C   UNL     1       7.198  10.845  -0.801  1.00  0.00     0.074 A 
ATOM     51  C   UNL     1       7.172   9.986   0.361  1.00  0.00     0.031 C 
ATOM     52  C   UNL     1       5.205   6.668  -5.420  1.00  0.00     0.029 A 
ATOM     53  C   UNL     1       5.544   8.068  -5.636  1.00  0.00     0.049 A 
ATOM     54  H   UNL     1       6.490   9.373  -4.313  1.00  0.00     0.167 HD
ATOM     55  C   UNL     1       7.514  12.156  -0.796  1.00  0.00     0.037 A 
ATOM     56  C   UNL     1       5.316   8.772  -6.755  1.00  0.00     0.037 A 
ATOM     57  C   UNL     1       7.482  12.944  -1.999  1.00  0.00     0.049 A 
ATOM     58  C   UNL     1       5.685  10.225  -6.733  1.00  0.00     0.074 A 
ATOM     59  C   UNL     1       7.823  14.268  -2.178  1.00  0.00     0.029 A 
ATOM     60  N   UNL     1       7.061  12.461  -3.237  1.00  0.00    -0.354 N 
ATOM     61  N   UNL     1       6.095  10.950  -5.714  1.00  0.00    -0.248 NA
ATOM     62  C   UNL     1       5.581  10.955  -7.996  1.00  0.00     0.031 C 
ATOM     63  C   UNL     1       7.559  14.598  -3.511  1.00  0.00     0.029 A 
ATOM     64  C   UNL     1       7.118  13.464  -4.183  1.00  0.00     0.049 A 
ATOM     65  H   UNL     1       6.765  11.538  -3.411  1.00  0.00     0.167 HD
ATOM     66  C   UNL     1       6.337  12.218  -6.220  1.00  0.00     0.074 A 
ATOM     67  C   UNL     1       6.018  12.156  -7.637  1.00  0.00     0.031 C 
ATOM     68  C   UNL     1       6.791  13.329  -5.586  1.00  0.00     0.037 A 
BRANCH  55  69
ATOM     69  C   UNL     1       7.862  12.778   0.525  1.00  0.00     0.058 A 
ATOM     70  C   UNL     1       8.994  12.380   1.260  1.00  0.00     0.135 A 
ATOM     71  C   UNL     1       7.027  13.751   1.096  1.00  0.00     0.135 A 
ATOM     72  F   UNL     1       9.815  11.433   0.778  1.00  0.00    -0.206 F 
ATOM     73  C   UNL     1       9.257  12.888   2.527  1.00  0.00     0.059 A 
ATOM     74  C   UNL     1       7.291  14.299   2.348  1.00  0.00     0.059 A 
ATOM     75  F   UNL     1       5.923  14.159   0.451  1.00  0.00    -0.206 F 
ATOM     76  C   UNL     1       8.396  13.844   3.065  1.00  0.00     0.060 A 
BRANCH  76  77
ATOM     77  S   UNL     1       8.737  14.473   4.722  1.00  0.00     0.124 S 
ATOM     78  O   UNL     1       8.376  13.325   5.548  1.00  0.00    -0.237 OA
ATOM     79  O   UNL     1      10.162  14.780   4.651  1.00  0.00    -0.237 OA
ATOM     80  O   UNL     1       7.854  15.630   4.834  1.00  0.00    -0.744 OA
ENDBRANCH  76  77
ENDBRANCH  55  69
BRANCH  56  81
ATOM     81  C   UNL     1       4.758   8.083  -7.942  1.00  0.00     0.058 A 
ATOM     82  C   UNL     1       5.588   7.749  -9.020  1.00  0.00     0.135 A 
ATOM     83  C   UNL     1       3.430   7.624  -7.970  1.00  0.00     0.135 A 
ATOM     84  F   UNL     1       6.868   8.152  -9.029  1.00  0.00    -0.206 F 
ATOM     85  C   UNL     1       5.126   6.984 -10.085  1.00  0.00     0.059 A 
ATOM     86  C   UNL     1       2.950   6.839  -9.014  1.00  0.00     0.059 A 
ATOM     87  F   UNL     1       2.607   7.883  -6.941  1.00  0.00    -0.206 F 
ATOM     88  C   UNL     1       3.807   6.524 -10.067  1.00  0.00     0.060 A 
BRANCH  88  89
ATOM     89  S   UNL     1       3.253   5.455 -11.413  1.00  0.00     0.124 S 
ATOM     90  O   UNL     1       3.216   6.387 -12.533  1.00  0.00    -0.237 OA
ATOM     91  O   UNL     1       4.310   4.448 -11.454  1.00  0.00    -0.237 OA
ATOM     92  O   UNL     1       1.956   4.973 -10.948  1.00  0.00    -0.744 OA
ENDBRANCH  88  89
ENDBRANCH  56  81
BRANCH  68  93
ATOM     93  C   UNL     1       7.020  14.542  -6.436  1.00  0.00     0.058 A 
ATOM     94  C   UNL     1       5.957  15.318  -6.917  1.00  0.00     0.135 A 
ATOM     95  C   UNL     1       8.331  14.978  -6.685  1.00  0.00     0.135 A 
ATOM     96  F   UNL     1       4.688  14.931  -6.711  1.00  0.00    -0.206 F 
ATOM     97  C   UNL     1       6.187  16.489  -7.626  1.00  0.00     0.059 A 
ATOM     98  C   UNL     1       8.583  16.161  -7.363  1.00  0.00     0.059 A 
ATOM     99  F   UNL     1       9.378  14.268  -6.233  1.00  0.00    -0.206 F 
ATOM    100  C   UNL     1       7.504  16.907  -7.834  1.00  0.00     0.060 A 
BRANCH 100 101
ATOM    101  S   UNL     1       7.786  18.467  -8.693  1.00  0.00     0.124 S 
ATOM    102  O   UNL     1       7.431  18.114 -10.063  1.00  0.00    -0.237 OA
ATOM    103  O   UNL     1       6.863  19.368  -8.009  1.00  0.00    -0.237 OA
ATOM    104  O   UNL     1       9.202  18.733  -8.459  1.00  0.00    -0.744 OA
ENDBRANCH 100 101
ENDBRANCH  68  93
ENDBRANCH  42  43
ENDBRANCH  35  37
ENDBRANCH  34  35
ENDBRANCH  33  34
ENDBRANCH   1  33
TORSDOF 21
