REMARK SMILES CC[C@](C)([NH3+])C(=O)NC[C@](C)(O)C(=O)OCCOCCOC(=O)c1ccc(-c2c3nc(c(-c4c(F)cc(S(=O)(=O)[O-])cc4F)c4ccc([nH]4)c(-c4c(F)cc(S(=O)(=O)[O-])cc4F)c4nc(c(-c5c(F)cc(S(=O)(=O)[O-])cc5F)c5ccc2[nH]5)C=C4)C=C3)cc1
REMARK SMILES IDX 17 1 16 2 15 3 13 4 14 5 10 6 11 7 9 8 8 9 6 10 7 11 3 13
REMARK SMILES IDX 4 14 2 15 1 16 5 17 12 21 18 23 19 24 20 25 21 26 22 27
REMARK SMILES IDX 23 28 24 29 25 30 89 31 26 32 88 33 27 34 28 35 29 36 82 37
REMARK SMILES IDX 30 38 87 39 81 40 83 41 31 42 86 43 80 44 79 45 32 47 66 48
REMARK SMILES IDX 45 49 65 50 46 51 49 52 64 53 84 54 47 55 48 56 63 58 85 59
REMARK SMILES IDX 50 60 33 61 34 62 43 63 35 64 36 65 42 66 44 67 37 68 38 69
REMARK SMILES IDX 39 70 40 71 41 72 67 73 68 74 77 75 69 76 70 77 76 78 78 79
REMARK SMILES IDX 71 80 72 81 73 82 74 83 75 84 51 85 52 86 61 87 53 88 54 89
REMARK SMILES IDX 60 90 62 91 55 92 56 93 57 94 58 95 59 96
REMARK H PARENT 8 12 5 18 5 19 5 20 12 22 83 46 49 57
REMARK Flexibility Score: inf
ROOT
ATOM      1  C   UNL     1       0.991  -5.173  -4.636  1.00  0.00     0.202 C 
ENDROOT
BRANCH   1   2
ATOM      2  C   UNL     1       2.449  -5.224  -4.172  1.00  0.00     0.261 C 
BRANCH   2   3
ATOM      3  O   UNL     1       2.591  -5.933  -2.938  1.00  0.00    -0.461 OA
BRANCH   3   4
ATOM      4  C   UNL     1       2.917  -5.175  -1.855  1.00  0.00     0.339 C 
ATOM      5  O   UNL     1       3.138  -3.967  -1.858  1.00  0.00    -0.249 OA
BRANCH   4   6
ATOM      6  C   UNL     1       2.952  -6.025  -0.573  1.00  0.00     0.176 C 
ATOM      7  C   UNL     1       2.458  -5.152   0.591  1.00  0.00     0.057 C 
BRANCH   6   8
ATOM      8  C   UNL     1       4.426  -6.411  -0.350  1.00  0.00     0.163 C 
BRANCH   8   9
ATOM      9  N   UNL     1       4.962  -7.345  -1.325  1.00  0.00    -0.347 N 
ATOM     10  C   UNL     1       5.893  -7.237  -2.313  1.00  0.00     0.281 C 
ATOM     11  O   UNL     1       6.082  -8.287  -2.940  1.00  0.00    -0.268 OA
ATOM     12  H   UNL     1       4.569  -8.245  -1.257  1.00  0.00     0.163 HD
BRANCH  10  13
ATOM     13  C   UNL     1       6.707  -5.936  -2.644  1.00  0.00     0.170 C 
ATOM     14  C   UNL     1       7.390  -6.176  -4.018  1.00  0.00     0.090 C 
BRANCH  13  15
ATOM     15  C   UNL     1       7.848  -5.623  -1.645  1.00  0.00     0.075 C 
ATOM     16  C   UNL     1       7.492  -5.174  -0.237  1.00  0.00     0.011 C 
ENDBRANCH  13  15
BRANCH  13  17
ATOM     17  N   UNL     1       5.810  -4.787  -2.869  1.00  0.00    -0.345 N 
ATOM     18  H   UNL     1       5.081  -5.049  -3.532  1.00  0.00     0.345 HD
ATOM     19  H   UNL     1       6.346  -4.005  -3.245  1.00  0.00     0.345 HD
ATOM     20  H   UNL     1       5.382  -4.512  -1.985  1.00  0.00     0.345 HD
ENDBRANCH  13  17
ENDBRANCH  10  13
ENDBRANCH   8   9
ENDBRANCH   6   8
BRANCH   6  21
ATOM     21  O   UNL     1       2.091  -7.168  -0.574  1.00  0.00    -0.377 OA
ATOM     22  H   UNL     1       1.175  -6.882  -0.717  1.00  0.00     0.212 HD
ENDBRANCH   6  21
ENDBRANCH   4   6
ENDBRANCH   3   4
ENDBRANCH   2   3
ENDBRANCH   1   2
BRANCH   1  23
ATOM     23  O   UNL     1       0.033  -4.575  -3.765  1.00  0.00    -0.374 OA
BRANCH  23  24
ATOM     24  C   UNL     1      -0.314  -5.262  -2.564  1.00  0.00     0.202 C 
BRANCH  24  25
ATOM     25  C   UNL     1      -1.083  -6.586  -2.660  1.00  0.00     0.261 C 
BRANCH  25  26
ATOM     26  O   UNL     1      -0.395  -7.613  -3.391  1.00  0.00    -0.460 OA
BRANCH  26  27
ATOM     27  C   UNL     1      -0.986  -7.978  -4.553  1.00  0.00     0.338 C 
ATOM     28  O   UNL     1      -2.029  -7.539  -5.025  1.00  0.00    -0.246 OA
BRANCH  27  29
ATOM     29  C   UNL     1      -0.115  -8.902  -5.293  1.00  0.00     0.060 A 
ATOM     30  C   UNL     1       0.379  -8.492  -6.538  1.00  0.00     0.016 A 
ATOM     31  C   UNL     1       0.137 -10.189  -4.814  1.00  0.00     0.016 A 
ATOM     32  C   UNL     1       1.119  -9.377  -7.319  1.00  0.00     0.010 A 
ATOM     33  C   UNL     1       0.866 -11.079  -5.606  1.00  0.00     0.010 A 
ATOM     34  C   UNL     1       1.344 -10.685  -6.869  1.00  0.00    -0.014 A 
BRANCH  34  35
ATOM     35  C   UNL     1       2.012 -11.670  -7.751  1.00  0.00     0.031 A 
ATOM     36  C   UNL     1       1.179 -12.659  -8.516  1.00  0.00     0.074 A 
ATOM     37  C   UNL     1       3.353 -11.683  -7.853  1.00  0.00     0.049 A 
ATOM     38  N   UNL     1       1.562 -13.661  -9.263  1.00  0.00    -0.248 NA
ATOM     39  C   UNL     1      -0.282 -12.497  -8.428  1.00  0.00     0.031 C 
ATOM     40  C   UNL     1       4.257 -10.747  -7.185  1.00  0.00     0.029 A 
ATOM     41  N   UNL     1       4.188 -12.526  -8.541  1.00  0.00    -0.354 N 
ATOM     42  C   UNL     1       0.395 -14.257  -9.726  1.00  0.00     0.074 A 
ATOM     43  C   UNL     1      -0.712 -13.514  -9.162  1.00  0.00     0.031 C 
ATOM     44  C   UNL     1       5.524 -11.083  -7.477  1.00  0.00     0.029 A 
ATOM     45  C   UNL     1       5.521 -12.278  -8.318  1.00  0.00     0.049 A 
ATOM     46  H   UNL     1       3.863 -13.239  -9.137  1.00  0.00     0.167 HD
ATOM     47  C   UNL     1       0.264 -15.325 -10.548  1.00  0.00     0.037 A 
ATOM     48  C   UNL     1       6.612 -12.963  -8.714  1.00  0.00     0.037 A 
ATOM     49  C   UNL     1       1.375 -16.058 -11.099  1.00  0.00     0.049 A 
ATOM     50  C   UNL     1       6.438 -14.200  -9.555  1.00  0.00     0.074 A 
ATOM     51  C   UNL     1       1.349 -17.133 -11.970  1.00  0.00     0.029 A 
ATOM     52  N   UNL     1       2.709 -15.802 -10.821  1.00  0.00    -0.354 N 
ATOM     53  N   UNL     1       5.332 -14.737 -10.014  1.00  0.00    -0.248 NA
ATOM     54  C   UNL     1       7.658 -14.932  -9.924  1.00  0.00     0.031 C 
ATOM     55  C   UNL     1       2.665 -17.561 -12.175  1.00  0.00     0.029 A 
ATOM     56  C   UNL     1       3.515 -16.723 -11.471  1.00  0.00     0.049 A 
ATOM     57  H   UNL     1       3.036 -15.073 -10.246  1.00  0.00     0.167 HD
ATOM     58  C   UNL     1       5.722 -15.862 -10.732  1.00  0.00     0.074 A 
ATOM     59  C   UNL     1       7.168 -15.918 -10.664  1.00  0.00     0.031 C 
ATOM     60  C   UNL     1       4.954 -16.769 -11.385  1.00  0.00     0.037 A 
BRANCH  47  61
ATOM     61  C   UNL     1      -1.128 -15.787 -10.878  1.00  0.00     0.058 A 
ATOM     62  C   UNL     1      -1.961 -15.065 -11.746  1.00  0.00     0.135 A 
ATOM     63  C   UNL     1      -1.619 -16.994 -10.353  1.00  0.00     0.135 A 
ATOM     64  F   UNL     1      -1.548 -13.897 -12.264  1.00  0.00    -0.206 F 
ATOM     65  C   UNL     1      -3.240 -15.511 -12.066  1.00  0.00     0.059 A 
ATOM     66  C   UNL     1      -2.886 -17.471 -10.677  1.00  0.00     0.059 A 
ATOM     67  F   UNL     1      -0.865 -17.723  -9.516  1.00  0.00    -0.206 F 
ATOM     68  C   UNL     1      -3.694 -16.716 -11.526  1.00  0.00     0.060 A 
BRANCH  68  69
ATOM     69  S   UNL     1      -5.351 -17.287 -11.959  1.00  0.00     0.124 S 
ATOM     70  O   UNL     1      -6.186 -16.360 -11.201  1.00  0.00    -0.237 OA
ATOM     71  O   UNL     1      -5.372 -17.118 -13.408  1.00  0.00    -0.237 OA
ATOM     72  O   UNL     1      -5.369 -18.670 -11.492  1.00  0.00    -0.744 OA
ENDBRANCH  68  69
ENDBRANCH  47  61
BRANCH  48  73
ATOM     73  C   UNL     1       7.964 -12.515  -8.283  1.00  0.00     0.058 A 
ATOM     74  C   UNL     1       8.877 -11.979  -9.202  1.00  0.00     0.135 A 
ATOM     75  C   UNL     1       8.365 -12.609  -6.941  1.00  0.00     0.135 A 
ATOM     76  F   UNL     1       8.546 -11.883 -10.498  1.00  0.00    -0.206 F 
ATOM     77  C   UNL     1      10.144 -11.558  -8.808  1.00  0.00     0.059 A 
ATOM     78  C   UNL     1       9.616 -12.170  -6.518  1.00  0.00     0.059 A 
ATOM     79  F   UNL     1       7.527 -13.114  -6.022  1.00  0.00    -0.206 F 
ATOM     80  C   UNL     1      10.503 -11.654  -7.462  1.00  0.00     0.060 A 
BRANCH  80  81
ATOM     81  S   UNL     1      12.132 -11.062  -6.955  1.00  0.00     0.124 S 
ATOM     82  O   UNL     1      13.002 -12.106  -7.484  1.00  0.00    -0.237 OA
ATOM     83  O   UNL     1      12.211  -9.767  -7.624  1.00  0.00    -0.237 OA
ATOM     84  O   UNL     1      12.032 -11.001  -5.500  1.00  0.00    -0.744 OA
ENDBRANCH  80  81
ENDBRANCH  48  73
BRANCH  60  85
ATOM     85  C   UNL     1       5.658 -17.902 -12.081  1.00  0.00     0.058 A 
ATOM     86  C   UNL     1       6.219 -18.967 -11.360  1.00  0.00     0.135 A 
ATOM     87  C   UNL     1       5.715 -17.956 -13.483  1.00  0.00     0.135 A 
ATOM     88  F   UNL     1       6.200 -18.959 -10.018  1.00  0.00    -0.206 F 
ATOM     89  C   UNL     1       6.824 -20.041 -12.004  1.00  0.00     0.059 A 
ATOM     90  C   UNL     1       6.292 -19.034 -14.149  1.00  0.00     0.059 A 
ATOM     91  F   UNL     1       5.185 -16.967 -14.220  1.00  0.00    -0.206 F 
ATOM     92  C   UNL     1       6.851 -20.068 -13.400  1.00  0.00     0.060 A 
BRANCH  92  93
ATOM     93  S   UNL     1       7.595 -21.492 -14.223  1.00  0.00     0.124 S 
ATOM     94  O   UNL     1       9.016 -21.260 -13.988  1.00  0.00    -0.237 OA
ATOM     95  O   UNL     1       7.008 -22.615 -13.498  1.00  0.00    -0.237 OA
ATOM     96  O   UNL     1       7.157 -21.352 -15.609  1.00  0.00    -0.744 OA
ENDBRANCH  92  93
ENDBRANCH  60  85
ENDBRANCH  34  35
ENDBRANCH  27  29
ENDBRANCH  26  27
ENDBRANCH  25  26
ENDBRANCH  24  25
ENDBRANCH  23  24
ENDBRANCH   1  23
TORSDOF 23
