REMARK SMILES COc1cccc(-c2ccc(=O)n(CC(=O)N[C@@H](C(=O)OCCOCCOC(=O)c3ccc(-c4c5nc(c(-c6c(F)cc(S(=O)(=O)[O-])cc6F)c6ccc([nH]6)c(-c6c(F)cc(S(=O)(=O)[O-])cc6F)c6nc(c(-c7c(F)cc(S(=O)(=O)[O-])cc7F)c7ccc4[nH]7)C=C6)C=C5)cc3)C(C)C)n2)c1
REMARK SMILES IDX 23 1 22 2 21 3 19 4 20 5 18 6 17 7 15 8 16 9 14 11 13 12
REMARK SMILES IDX 8 13 9 14 99 15 10 16 11 17 12 18 7 19 3 20 4 21 100 22 5 23
REMARK SMILES IDX 6 24 2 25 1 26 96 27 97 28 98 29 24 30 25 31 26 32 27 33
REMARK SMILES IDX 28 34 29 35 30 36 31 37 95 38 32 39 94 40 33 41 34 42 35 43
REMARK SMILES IDX 88 44 36 45 93 46 87 47 89 48 37 49 92 50 86 51 85 52 38 54
REMARK SMILES IDX 72 55 51 56 71 57 52 58 55 59 70 60 90 61 53 62 54 63 69 65
REMARK SMILES IDX 91 66 56 67 39 68 40 69 49 70 41 71 42 72 48 73 50 74 43 75
REMARK SMILES IDX 44 76 45 77 46 78 47 79 73 80 74 81 83 82 75 83 76 84 82 85
REMARK SMILES IDX 84 86 77 87 78 88 79 89 80 90 81 91 57 92 58 93 67 94 59 95
REMARK SMILES IDX 60 96 66 97 68 98 61 99 62 100 63 101 64 102 65 103
REMARK H PARENT 17 10 89 53 55 64
REMARK Flexibility Score: inf
ROOT
ATOM      1  C   UNL     1       4.354   9.601  -0.109  1.00  0.00     0.202 C 
ENDROOT
BRANCH   1   2
ATOM      2  C   UNL     1       4.126   8.094   0.056  1.00  0.00     0.261 C 
BRANCH   2   3
ATOM      3  O   UNL     1       4.981   7.290  -0.769  1.00  0.00    -0.462 OA
BRANCH   3   4
ATOM      4  C   UNL     1       4.356   6.620  -1.782  1.00  0.00     0.328 C 
ATOM      5  O   UNL     1       3.139   6.603  -1.935  1.00  0.00    -0.250 OA
BRANCH   4   6
ATOM      6  C   UNL     1       5.340   5.912  -2.746  1.00  0.00     0.194 C 
BRANCH   6   7
ATOM      7  N   UNL     1       6.756   6.069  -2.368  1.00  0.00    -0.341 N 
ATOM      8  C   UNL     1       7.612   5.170  -1.804  1.00  0.00     0.242 C 
ATOM      9  O   UNL     1       8.819   5.415  -1.901  1.00  0.00    -0.273 OA
ATOM     10  H   UNL     1       7.142   6.956  -2.551  1.00  0.00     0.164 HD
BRANCH   8  11
ATOM     11  C   UNL     1       7.107   3.846  -1.233  1.00  0.00     0.248 C 
BRANCH  11  12
ATOM     12  N   UNL     1       6.111   4.076  -0.196  1.00  0.00    -0.220 N 
ATOM     13  C   UNL     1       3.909   4.021   0.408  1.00  0.00     0.091 A 
ATOM     14  C   UNL     1       4.191   4.592   1.739  1.00  0.00     0.036 A 
ATOM     15  N   UNL     1       4.804   3.758  -0.493  1.00  0.00    -0.169 NA
ATOM     16  C   UNL     1       5.472   4.831   2.024  1.00  0.00     0.075 A 
ATOM     17  C   UNL     1       6.534   4.568   1.033  1.00  0.00     0.267 A 
ATOM     18  O   UNL     1       7.700   4.815   1.323  1.00  0.00    -0.268 OA
BRANCH  13  19
ATOM     19  C   UNL     1       2.490   3.747   0.103  1.00  0.00     0.006 A 
ATOM     20  C   UNL     1       0.785   2.188  -0.577  1.00  0.00     0.119 A 
ATOM     21  C   UNL     1      -0.132   3.238  -0.661  1.00  0.00     0.046 A 
ATOM     22  C   UNL     1       2.110   2.444  -0.229  1.00  0.00     0.056 A 
ATOM     23  C   UNL     1       0.253   4.539  -0.336  1.00  0.00     0.005 A 
ATOM     24  C   UNL     1       1.563   4.793   0.064  1.00  0.00     0.011 A 
BRANCH  20  25
ATOM     25  O   UNL     1       0.306   0.947  -0.903  1.00  0.00    -0.497 OA
ATOM     26  C   UNL     1       0.815  -0.097  -0.075  1.00  0.00     0.278 C 
ENDBRANCH  20  25
ENDBRANCH  13  19
ENDBRANCH  11  12
ENDBRANCH   8  11
ENDBRANCH   6   7
BRANCH   6  27
ATOM     27  C   UNL     1       5.173   6.395  -4.218  1.00  0.00     0.017 C 
ATOM     28  C   UNL     1       6.045   5.551  -5.162  1.00  0.00     0.010 C 
ATOM     29  C   UNL     1       3.728   6.346  -4.726  1.00  0.00     0.010 C 
ENDBRANCH   6  27
ENDBRANCH   4   6
ENDBRANCH   3   4
ENDBRANCH   2   3
ENDBRANCH   1   2
BRANCH   1  30
ATOM     30  O   UNL     1       4.510  10.103  -1.432  1.00  0.00    -0.374 OA
BRANCH  30  31
ATOM     31  C   UNL     1       5.722   9.802  -2.123  1.00  0.00     0.202 C 
BRANCH  31  32
ATOM     32  C   UNL     1       7.042  10.322  -1.542  1.00  0.00     0.261 C 
BRANCH  32  33
ATOM     33  O   UNL     1       7.364   9.737  -0.267  1.00  0.00    -0.460 OA
BRANCH  33  34
ATOM     34  C   UNL     1       7.529  10.634   0.734  1.00  0.00     0.338 C 
ATOM     35  O   UNL     1       7.466  11.856   0.640  1.00  0.00    -0.246 OA
BRANCH  34  36
ATOM     36  C   UNL     1       7.615   9.966   2.044  1.00  0.00     0.060 A 
ATOM     37  C   UNL     1       6.700  10.362   3.028  1.00  0.00     0.016 A 
ATOM     38  C   UNL     1       8.650   9.082   2.352  1.00  0.00     0.016 A 
ATOM     39  C   UNL     1       6.856   9.927   4.342  1.00  0.00     0.010 A 
ATOM     40  C   UNL     1       8.811   8.654   3.677  1.00  0.00     0.010 A 
ATOM     41  C   UNL     1       7.941   9.110   4.684  1.00  0.00    -0.014 A 
BRANCH  41  42
ATOM     42  C   UNL     1       8.237   8.870   6.118  1.00  0.00     0.031 A 
ATOM     43  C   UNL     1       9.261   9.730   6.810  1.00  0.00     0.074 A 
ATOM     44  C   UNL     1       7.559   7.938   6.811  1.00  0.00     0.049 A 
ATOM     45  N   UNL     1       9.653   9.712   8.058  1.00  0.00    -0.248 NA
ATOM     46  C   UNL     1       9.928  10.752   5.986  1.00  0.00     0.031 C 
ATOM     47  C   UNL     1       6.519   7.070   6.262  1.00  0.00     0.029 A 
ATOM     48  N   UNL     1       7.645   7.569   8.130  1.00  0.00    -0.354 N 
ATOM     49  C   UNL     1      10.609  10.715   8.171  1.00  0.00     0.074 A 
ATOM     50  C   UNL     1      10.758  11.306   6.859  1.00  0.00     0.031 C 
ATOM     51  C   UNL     1       6.067   6.261   7.236  1.00  0.00     0.029 A 
ATOM     52  C   UNL     1       6.802   6.539   8.470  1.00  0.00     0.049 A 
ATOM     53  H   UNL     1       8.253   8.002   8.772  1.00  0.00     0.167 HD
ATOM     54  C   UNL     1      11.293  11.114   9.271  1.00  0.00     0.037 A 
ATOM     55  C   UNL     1       6.651   5.886   9.639  1.00  0.00     0.037 A 
ATOM     56  C   UNL     1      11.148  10.521  10.575  1.00  0.00     0.049 A 
ATOM     57  C   UNL     1       7.466   6.307  10.833  1.00  0.00     0.074 A 
ATOM     58  C   UNL     1      11.789  10.862  11.753  1.00  0.00     0.029 A 
ATOM     59  N   UNL     1      10.308   9.457  10.871  1.00  0.00    -0.354 N 
ATOM     60  N   UNL     1       8.348   7.273  10.931  1.00  0.00    -0.248 NA
ATOM     61  C   UNL     1       7.261   5.553  12.078  1.00  0.00     0.031 C 
ATOM     62  C   UNL     1      11.366   9.978  12.753  1.00  0.00     0.029 A 
ATOM     63  C   UNL     1      10.429   9.116  12.208  1.00  0.00     0.049 A 
ATOM     64  H   UNL     1       9.714   9.010  10.225  1.00  0.00     0.167 HD
ATOM     65  C   UNL     1       8.786   7.258  12.251  1.00  0.00     0.074 A 
ATOM     66  C   UNL     1       8.063   6.194  12.917  1.00  0.00     0.031 C 
ATOM     67  C   UNL     1       9.700   8.055  12.858  1.00  0.00     0.037 A 
BRANCH  54  68
ATOM     68  C   UNL     1      12.281  12.235   9.103  1.00  0.00     0.058 A 
ATOM     69  C   UNL     1      11.864  13.564   8.927  1.00  0.00     0.135 A 
ATOM     70  C   UNL     1      13.661  11.982   9.148  1.00  0.00     0.135 A 
ATOM     71  F   UNL     1      10.556  13.859   8.861  1.00  0.00    -0.206 F 
ATOM     72  C   UNL     1      12.780  14.600   8.777  1.00  0.00     0.059 A 
ATOM     73  C   UNL     1      14.596  13.006   9.023  1.00  0.00     0.059 A 
ATOM     74  F   UNL     1      14.114  10.729   9.314  1.00  0.00    -0.206 F 
ATOM     75  C   UNL     1      14.145  14.310   8.824  1.00  0.00     0.060 A 
BRANCH  75  76
ATOM     76  S   UNL     1      15.324  15.664   8.630  1.00  0.00     0.124 S 
ATOM     77  O   UNL     1      15.229  15.930   7.197  1.00  0.00    -0.237 OA
ATOM     78  O   UNL     1      14.768  16.693   9.502  1.00  0.00    -0.237 OA
ATOM     79  O   UNL     1      16.586  15.083   9.077  1.00  0.00    -0.744 OA
ENDBRANCH  75  76
ENDBRANCH  54  68
BRANCH  55  80
ATOM     80  C   UNL     1       5.688   4.758   9.736  1.00  0.00     0.058 A 
ATOM     81  C   UNL     1       4.498   4.878  10.466  1.00  0.00     0.135 A 
ATOM     82  C   UNL     1       5.940   3.537   9.090  1.00  0.00     0.135 A 
ATOM     83  F   UNL     1       4.218   6.022  11.109  1.00  0.00    -0.206 F 
ATOM     84  C   UNL     1       3.591   3.827  10.559  1.00  0.00     0.059 A 
ATOM     85  C   UNL     1       5.039   2.479   9.149  1.00  0.00     0.059 A 
ATOM     86  F   UNL     1       7.060   3.375   8.369  1.00  0.00    -0.206 F 
ATOM     87  C   UNL     1       3.869   2.632   9.893  1.00  0.00     0.060 A 
BRANCH  87  88
ATOM     88  S   UNL     1       2.655   1.296   9.960  1.00  0.00     0.124 S 
ATOM     89  O   UNL     1       2.863   0.777  11.306  1.00  0.00    -0.237 OA
ATOM     90  O   UNL     1       1.402   2.009   9.734  1.00  0.00    -0.237 OA
ATOM     91  O   UNL     1       3.068   0.417   8.870  1.00  0.00    -0.744 OA
ENDBRANCH  87  88
ENDBRANCH  55  80
BRANCH  67  92
ATOM     92  C   UNL     1       9.951   7.828  14.323  1.00  0.00     0.058 A 
ATOM     93  C   UNL     1      10.682   6.723  14.784  1.00  0.00     0.135 A 
ATOM     94  C   UNL     1       9.491   8.753  15.275  1.00  0.00     0.135 A 
ATOM     95  F   UNL     1      11.140   5.806  13.916  1.00  0.00    -0.206 F 
ATOM     96  C   UNL     1      10.927   6.528  16.140  1.00  0.00     0.059 A 
ATOM     97  C   UNL     1       9.745   8.591  16.633  1.00  0.00     0.059 A 
ATOM     98  F   UNL     1       8.796   9.834  14.886  1.00  0.00    -0.206 F 
ATOM     99  C   UNL     1      10.453   7.467  17.057  1.00  0.00     0.060 A 
BRANCH  99 100
ATOM    100  S   UNL     1      10.795   7.217  18.813  1.00  0.00     0.124 S 
ATOM    101  O   UNL     1       9.833   6.174  19.153  1.00  0.00    -0.237 OA
ATOM    102  O   UNL     1      12.196   6.809  18.806  1.00  0.00    -0.237 OA
ATOM    103  O   UNL     1      10.534   8.528  19.399  1.00  0.00    -0.744 OA
ENDBRANCH  99 100
ENDBRANCH  67  92
ENDBRANCH  41  42
ENDBRANCH  34  36
ENDBRANCH  33  34
ENDBRANCH  32  33
ENDBRANCH  31  32
ENDBRANCH  30  31
ENDBRANCH   1  30
TORSDOF 23
