REMARK SMILES Cc1c(C(=O)OCCOCCOC(=O)c2ccc(-c3c4nc(c(-c5c(F)cc(S(=O)(=O)[O-])cc5F)c5ccc([nH]5)c(-c5c(F)cc(S(=O)(=O)[O-])cc5F)c5nc(c(-c6c(F)cc(S(=O)(=O)[O-])cc6F)c6ccc3[nH]6)C=C5)C=C4)cc2)cccc1-n1c(C)cc(/C=C2/C(=O)NC(=S)N=C2O)c1C
REMARK SMILES IDX 9 1 8 2 7 3 6 4 4 5 5 6 3 7 1 8 2 9 84 10 81 11 83 12 82 13
REMARK SMILES IDX 85 14 86 15 100 16 87 17 88 18 89 19 101 20 90 21 91 22
REMARK SMILES IDX 92 23 98 24 93 25 94 26 97 27 95 28 96 30 99 31 10 33 11 34
REMARK SMILES IDX 12 35 13 36 14 37 15 38 16 39 80 40 17 41 79 42 18 43 19 44
REMARK SMILES IDX 20 45 73 46 21 47 78 48 72 49 74 50 22 51 77 52 71 53 70 54
REMARK SMILES IDX 23 56 57 57 36 58 56 59 37 60 40 61 55 62 75 63 38 64 39 65
REMARK SMILES IDX 54 67 76 68 41 69 24 70 25 71 34 72 26 73 27 74 33 75 35 76
REMARK SMILES IDX 28 77 29 78 30 79 31 80 32 81 58 82 59 83 68 84 60 85 61 86
REMARK SMILES IDX 67 87 69 88 62 89 63 90 64 91 65 92 66 93 42 94 43 95 52 96
REMARK SMILES IDX 44 97 45 98 51 99 53 100 46 101 47 102 48 103 49 104 50 105
REMARK H PARENT 94 29 99 32 74 55 40 66
REMARK Flexibility Score: inf
ROOT
ATOM      1  O   UNL     1       0.885  -3.372   2.229  1.00  0.00    -0.374 OA
ENDROOT
BRANCH   1   2
ATOM      2  C   UNL     1       2.095  -2.645   2.340  1.00  0.00     0.202 C 
BRANCH   2   3
ATOM      3  C   UNL     1       2.604  -2.540   0.943  1.00  0.00     0.261 C 
BRANCH   3   4
ATOM      4  O   UNL     1       1.719  -1.813   0.070  1.00  0.00    -0.460 OA
BRANCH   4   5
ATOM      5  C   UNL     1       0.409  -2.033  -0.151  1.00  0.00     0.338 C 
ATOM      6  O   UNL     1      -0.194  -3.073  -0.203  1.00  0.00    -0.246 OA
BRANCH   5   7
ATOM      7  C   UNL     1      -0.209  -0.681  -0.303  1.00  0.00     0.065 A 
ATOM      8  C   UNL     1       1.972   0.606   0.232  1.00  0.00     0.047 C 
ATOM      9  C   UNL     1       0.509   0.531  -0.177  1.00  0.00    -0.012 A 
ATOM     10  C   UNL     1      -0.219   1.717  -0.339  1.00  0.00     0.049 A 
ATOM     11  C   UNL     1      -1.607  -0.664  -0.492  1.00  0.00     0.016 A 
ATOM     12  C   UNL     1      -1.611   1.741  -0.487  1.00  0.00     0.027 A 
ATOM     13  C   UNL     1      -2.307   0.541  -0.555  1.00  0.00     0.003 A 
BRANCH  10  14
ATOM     14  N   UNL     1       0.450   2.941  -0.181  1.00  0.00    -0.318 N 
ATOM     15  C   UNL     1       1.363   3.480  -1.074  1.00  0.00     0.020 A 
ATOM     16  C   UNL     1       0.629   3.546   1.059  1.00  0.00     0.027 A 
ATOM     17  C   UNL     1       1.746   2.831  -2.364  1.00  0.00     0.065 C 
ATOM     18  C   UNL     1       1.829   4.644  -0.498  1.00  0.00     0.031 A 
ATOM     19  C   UNL     1       1.294   4.734   0.819  1.00  0.00    -0.003 A 
ATOM     20  C   UNL     1       0.206   2.846   2.316  1.00  0.00     0.065 C 
BRANCH  19  21
ATOM     21  C   UNL     1       1.614   5.785   1.725  1.00  0.00     0.029 C 
ATOM     22  C   UNL     1       0.944   6.281   2.781  1.00  0.00     0.102 C 
ATOM     23  C   UNL     1       1.637   7.354   3.535  1.00  0.00     0.262 C 
ATOM     24  C   UNL     1      -0.342   5.897   3.368  1.00  0.00     0.226 C 
ATOM     25  O   UNL     1       2.569   8.021   3.101  1.00  0.00    -0.269 OA
ATOM     26  N   UNL     1       1.146   7.546   4.798  1.00  0.00    -0.297 N 
ATOM     27  N   UNL     1      -0.756   6.168   4.551  1.00  0.00    -0.184 NA
ATOM     28  C   UNL     1       0.046   6.938   5.349  1.00  0.00     0.203 C 
ATOM     29  H   UNL     1       1.631   8.185   5.369  1.00  0.00     0.172 HD
ATOM     30  S   UNL     1      -0.291   7.255   6.960  1.00  0.00    -0.038 S 
BRANCH  24  31
ATOM     31  O   UNL     1      -1.205   5.266   2.572  1.00  0.00    -0.493 OA
ATOM     32  H   UNL     1      -0.958   5.042   1.696  1.00  0.00     0.295 HD
ENDBRANCH  24  31
ENDBRANCH  19  21
ENDBRANCH  10  14
ENDBRANCH   5   7
ENDBRANCH   4   5
ENDBRANCH   3   4
ENDBRANCH   2   3
ENDBRANCH   1   2
BRANCH   1  33
ATOM     33  C   UNL     1       0.139  -3.521   3.407  1.00  0.00     0.202 C 
BRANCH  33  34
ATOM     34  C   UNL     1       0.915  -4.306   4.464  1.00  0.00     0.261 C 
BRANCH  34  35
ATOM     35  O   UNL     1       1.151  -5.657   4.002  1.00  0.00    -0.460 OA
BRANCH  35  36
ATOM     36  C   UNL     1       2.421  -5.932   3.573  1.00  0.00     0.338 C 
ATOM     37  O   UNL     1       3.384  -6.009   4.315  1.00  0.00    -0.246 OA
BRANCH  36  38
ATOM     38  C   UNL     1       2.453  -6.092   2.085  1.00  0.00     0.060 A 
ATOM     39  C   UNL     1       3.655  -5.998   1.354  1.00  0.00     0.016 A 
ATOM     40  C   UNL     1       1.242  -6.103   1.403  1.00  0.00     0.016 A 
ATOM     41  C   UNL     1       3.636  -5.778  -0.042  1.00  0.00     0.010 A 
ATOM     42  C   UNL     1       1.228  -5.772   0.065  1.00  0.00     0.010 A 
ATOM     43  C   UNL     1       2.411  -5.590  -0.677  1.00  0.00    -0.014 A 
BRANCH  43  44
ATOM     44  C   UNL     1       2.167  -5.142  -2.058  1.00  0.00     0.031 A 
ATOM     45  C   UNL     1       1.386  -6.047  -2.937  1.00  0.00     0.074 A 
ATOM     46  C   UNL     1       2.252  -3.834  -2.413  1.00  0.00     0.049 A 
ATOM     47  N   UNL     1       1.165  -5.830  -4.186  1.00  0.00    -0.248 NA
ATOM     48  C   UNL     1       0.779  -7.290  -2.464  1.00  0.00     0.031 C 
ATOM     49  C   UNL     1       1.387  -3.110  -3.350  1.00  0.00     0.029 A 
ATOM     50  N   UNL     1       3.118  -2.834  -1.964  1.00  0.00    -0.354 N 
ATOM     51  C   UNL     1       0.121  -6.642  -4.559  1.00  0.00     0.074 A 
ATOM     52  C   UNL     1      -0.021  -7.596  -3.486  1.00  0.00     0.031 C 
ATOM     53  C   UNL     1       1.884  -1.882  -3.571  1.00  0.00     0.029 A 
ATOM     54  C   UNL     1       3.181  -1.813  -2.926  1.00  0.00     0.049 A 
ATOM     55  H   UNL     1       3.606  -2.844  -1.109  1.00  0.00     0.167 HD
ATOM     56  C   UNL     1      -0.620  -6.317  -5.656  1.00  0.00     0.037 A 
ATOM     57  C   UNL     1       4.377  -1.448  -3.464  1.00  0.00     0.037 A 
ATOM     58  C   UNL     1      -0.164  -5.049  -6.250  1.00  0.00     0.049 A 
ATOM     59  C   UNL     1       4.415  -1.823  -4.922  1.00  0.00     0.074 A 
ATOM     60  C   UNL     1      -0.655  -3.753  -6.266  1.00  0.00     0.029 A 
ATOM     61  N   UNL     1       1.150  -4.940  -6.679  1.00  0.00    -0.354 N 
ATOM     62  N   UNL     1       3.386  -2.339  -5.535  1.00  0.00    -0.248 NA
ATOM     63  C   UNL     1       5.570  -1.717  -5.803  1.00  0.00     0.031 C 
ATOM     64  C   UNL     1       0.370  -2.885  -6.752  1.00  0.00     0.029 A 
ATOM     65  C   UNL     1       1.486  -3.650  -7.043  1.00  0.00     0.049 A 
ATOM     66  H   UNL     1       1.776  -5.699  -6.720  1.00  0.00     0.167 HD
ATOM     67  C   UNL     1       3.715  -2.730  -6.790  1.00  0.00     0.074 A 
ATOM     68  C   UNL     1       5.104  -2.312  -6.921  1.00  0.00     0.031 C 
ATOM     69  C   UNL     1       2.818  -3.388  -7.584  1.00  0.00     0.037 A 
BRANCH  56  70
ATOM     70  C   UNL     1      -1.910  -7.027  -6.022  1.00  0.00     0.058 A 
ATOM     71  C   UNL     1      -2.923  -6.366  -6.745  1.00  0.00     0.135 A 
ATOM     72  C   UNL     1      -2.209  -8.369  -5.695  1.00  0.00     0.135 A 
ATOM     73  F   UNL     1      -2.754  -5.122  -7.213  1.00  0.00    -0.206 F 
ATOM     74  C   UNL     1      -4.157  -6.950  -7.037  1.00  0.00     0.059 A 
ATOM     75  C   UNL     1      -3.462  -8.954  -5.914  1.00  0.00     0.059 A 
ATOM     76  F   UNL     1      -1.274  -9.197  -5.208  1.00  0.00    -0.206 F 
ATOM     77  C   UNL     1      -4.430  -8.237  -6.596  1.00  0.00     0.060 A 
BRANCH  77  78
ATOM     78  S   UNL     1      -6.034  -8.965  -6.976  1.00  0.00     0.124 S 
ATOM     79  O   UNL     1      -6.961  -7.939  -6.508  1.00  0.00    -0.237 OA
ATOM     80  O   UNL     1      -5.950  -9.133  -8.423  1.00  0.00    -0.237 OA
ATOM     81  O   UNL     1      -6.039 -10.202  -6.201  1.00  0.00    -0.744 OA
ENDBRANCH  77  78
ENDBRANCH  56  70
BRANCH  57  82
ATOM     82  C   UNL     1       5.472  -1.476  -2.437  1.00  0.00     0.058 A 
ATOM     83  C   UNL     1       5.481  -0.426  -1.491  1.00  0.00     0.135 A 
ATOM     84  C   UNL     1       6.039  -2.696  -2.032  1.00  0.00     0.135 A 
ATOM     85  F   UNL     1       4.952   0.768  -1.812  1.00  0.00    -0.206 F 
ATOM     86  C   UNL     1       5.862  -0.624  -0.161  1.00  0.00     0.059 A 
ATOM     87  C   UNL     1       6.398  -2.924  -0.696  1.00  0.00     0.059 A 
ATOM     88  F   UNL     1       6.063  -3.736  -2.878  1.00  0.00    -0.206 F 
ATOM     89  C   UNL     1       6.253  -1.899   0.243  1.00  0.00     0.060 A 
BRANCH  89  90
ATOM     90  S   UNL     1       6.270  -2.284   2.025  1.00  0.00     0.124 S 
ATOM     91  O   UNL     1       7.617  -1.887   2.411  1.00  0.00    -0.237 OA
ATOM     92  O   UNL     1       5.190  -1.448   2.549  1.00  0.00    -0.237 OA
ATOM     93  O   UNL     1       5.987  -3.714   2.047  1.00  0.00    -0.744 OA
ENDBRANCH  89  90
ENDBRANCH  57  82
BRANCH  69  94
ATOM     94  C   UNL     1       3.163  -3.876  -8.957  1.00  0.00     0.058 A 
ATOM     95  C   UNL     1       3.926  -3.112  -9.851  1.00  0.00     0.135 A 
ATOM     96  C   UNL     1       2.686  -5.112  -9.445  1.00  0.00     0.135 A 
ATOM     97  F   UNL     1       4.302  -1.860  -9.545  1.00  0.00    -0.206 F 
ATOM     98  C   UNL     1       4.319  -3.608 -11.089  1.00  0.00     0.059 A 
ATOM     99  C   UNL     1       3.006  -5.597 -10.703  1.00  0.00     0.059 A 
ATOM    100  F   UNL     1       1.919  -5.927  -8.710  1.00  0.00    -0.206 F 
ATOM    101  C   UNL     1       3.871  -4.862 -11.495  1.00  0.00     0.060 A 
BRANCH 101 102
ATOM    102  S   UNL     1       4.429  -5.535 -13.062  1.00  0.00     0.124 S 
ATOM    103  O   UNL     1       4.354  -4.375 -13.945  1.00  0.00    -0.237 OA
ATOM    104  O   UNL     1       5.774  -5.984 -12.718  1.00  0.00    -0.237 OA
ATOM    105  O   UNL     1       3.464  -6.594 -13.343  1.00  0.00    -0.744 OA
ENDBRANCH 101 102
ENDBRANCH  69  94
ENDBRANCH  43  44
ENDBRANCH  36  38
ENDBRANCH  35  36
ENDBRANCH  34  35
ENDBRANCH  33  34
ENDBRANCH   1  33
TORSDOF 20
