REMARK SMILES C[C@@H](C(=O)OCCOCCOC(=O)c1ccc(-c2c3nc(c(-c4c(F)cc(S(=O)(=O)[O-])cc4F)c4ccc([nH]4)c(-c4c(F)cc(S(=O)(=O)[O-])cc4F)c4nc(c(-c5c(F)cc(S(=O)(=O)[O-])cc5F)c5ccc2[nH]5)C=C4)C=C3)cc1)c1ccc(C[C@H]2CCCC2=O)cc1[N+](=O)[O-]
REMARK SMILES IDX 8 1 7 2 6 3 5 4 3 5 4 6 2 7 1 8 80 9 81 10 92 11 82 12 91 13
REMARK SMILES IDX 83 14 93 15 94 16 95 17 84 18 85 19 86 20 89 21 87 22 88 23
REMARK SMILES IDX 90 24 9 25 10 26 11 27 12 28 13 29 14 30 15 31 79 32 16 33
REMARK SMILES IDX 78 34 17 35 18 36 19 37 72 38 20 39 77 40 71 41 73 42 21 43
REMARK SMILES IDX 76 44 70 45 69 46 22 48 56 49 35 50 55 51 36 52 39 53 54 54
REMARK SMILES IDX 74 55 37 56 38 57 53 59 75 60 40 61 23 62 24 63 33 64 25 65
REMARK SMILES IDX 26 66 32 67 34 68 27 69 28 70 29 71 30 72 31 73 57 74 58 75
REMARK SMILES IDX 67 76 59 77 60 78 66 79 68 80 61 81 62 82 63 83 64 84 65 85
REMARK SMILES IDX 41 86 42 87 51 88 43 89 44 90 50 91 52 92 45 93 46 94 47 95
REMARK SMILES IDX 48 96 49 97
REMARK H PARENT 73 47 39 58
REMARK Flexibility Score: inf
ROOT
ATOM      1  O   UNL     1       0.910   4.558  -1.220  1.00  0.00    -0.374 OA
ENDROOT
BRANCH   1   2
ATOM      2  C   UNL     1       2.184   4.650  -0.576  1.00  0.00     0.202 C 
BRANCH   2   3
ATOM      3  C   UNL     1       2.251   4.075   0.842  1.00  0.00     0.261 C 
BRANCH   3   4
ATOM      4  O   UNL     1       2.036   2.654   0.803  1.00  0.00    -0.463 OA
BRANCH   4   5
ATOM      5  C   UNL     1       1.292   2.135   1.815  1.00  0.00     0.313 C 
ATOM      6  O   UNL     1       1.000   2.741   2.840  1.00  0.00    -0.252 OA
BRANCH   5   7
ATOM      7  C   UNL     1       0.718   0.753   1.467  1.00  0.00     0.133 C 
ATOM      8  C   UNL     1       1.411   0.074   0.277  1.00  0.00     0.025 C 
BRANCH   7   9
ATOM      9  C   UNL     1      -0.810   0.769   1.301  1.00  0.00     0.044 A 
ATOM     10  C   UNL     1      -1.488   1.976   1.033  1.00  0.00     0.012 A 
ATOM     11  C   UNL     1      -1.617  -0.383   1.396  1.00  0.00     0.273 A 
ATOM     12  C   UNL     1      -2.883   2.038   0.927  1.00  0.00     0.004 A 
ATOM     13  C   UNL     1      -3.022  -0.327   1.308  1.00  0.00     0.089 A 
ATOM     14  C   UNL     1      -3.668   0.897   1.110  1.00  0.00    -0.040 A 
BRANCH  11  15
ATOM     15  N   UNL     1      -1.047  -1.708   1.592  1.00  0.00     0.063 N 
ATOM     16  O   UNL     1      -1.345  -2.574   0.757  1.00  0.00    -0.258 OA
ATOM     17  O   UNL     1      -0.336  -1.885   2.588  1.00  0.00    -0.258 OA
ENDBRANCH  11  15
BRANCH  14  18
ATOM     18  C   UNL     1      -5.175   0.993   1.142  1.00  0.00     0.047 C 
BRANCH  18  19
ATOM     19  C   UNL     1      -5.783   1.563   2.432  1.00  0.00     0.060 C 
ATOM     20  C   UNL     1      -5.336   0.916   3.748  1.00  0.00     0.012 C 
ATOM     21  C   UNL     1      -5.416   3.012   2.656  1.00  0.00     0.136 C 
ATOM     22  C   UNL     1      -4.225   1.801   4.302  1.00  0.00     0.009 C 
ATOM     23  C   UNL     1      -4.603   3.221   3.907  1.00  0.00     0.076 C 
ATOM     24  O   UNL     1      -5.760   3.921   1.909  1.00  0.00    -0.299 OA
ENDBRANCH  18  19
ENDBRANCH  14  18
ENDBRANCH   7   9
ENDBRANCH   5   7
ENDBRANCH   4   5
ENDBRANCH   3   4
ENDBRANCH   2   3
ENDBRANCH   1   2
BRANCH   1  25
ATOM     25  C   UNL     1       0.507   3.275  -1.700  1.00  0.00     0.202 C 
BRANCH  25  26
ATOM     26  C   UNL     1       1.176   2.768  -2.982  1.00  0.00     0.261 C 
BRANCH  26  27
ATOM     27  O   UNL     1       2.578   2.506  -2.798  1.00  0.00    -0.460 OA
BRANCH  27  28
ATOM     28  C   UNL     1       3.398   3.298  -3.528  1.00  0.00     0.338 C 
ATOM     29  O   UNL     1       3.064   4.132  -4.363  1.00  0.00    -0.246 OA
BRANCH  28  30
ATOM     30  C   UNL     1       4.790   3.169  -3.064  1.00  0.00     0.060 A 
ATOM     31  C   UNL     1       5.459   4.349  -2.715  1.00  0.00     0.016 A 
ATOM     32  C   UNL     1       5.459   1.943  -3.054  1.00  0.00     0.016 A 
ATOM     33  C   UNL     1       6.817   4.317  -2.409  1.00  0.00     0.010 A 
ATOM     34  C   UNL     1       6.827   1.915  -2.755  1.00  0.00     0.010 A 
ATOM     35  C   UNL     1       7.519   3.106  -2.469  1.00  0.00    -0.014 A 
BRANCH  35  36
ATOM     36  C   UNL     1       9.000   3.126  -2.384  1.00  0.00     0.031 A 
ATOM     37  C   UNL     1       9.804   3.084  -3.656  1.00  0.00     0.074 A 
ATOM     38  C   UNL     1       9.620   3.233  -1.195  1.00  0.00     0.049 A 
ATOM     39  N   UNL     1      11.101   3.092  -3.818  1.00  0.00    -0.248 NA
ATOM     40  C   UNL     1       9.042   3.029  -4.915  1.00  0.00     0.031 C 
ATOM     41  C   UNL     1       8.949   3.322   0.101  1.00  0.00     0.029 A 
ATOM     42  N   UNL     1      10.956   3.285  -0.887  1.00  0.00    -0.354 N 
ATOM     43  C   UNL     1      11.313   3.041  -5.191  1.00  0.00     0.074 A 
ATOM     44  C   UNL     1      10.011   2.972  -5.817  1.00  0.00     0.031 C 
ATOM     45  C   UNL     1       9.879   3.408   1.068  1.00  0.00     0.029 A 
ATOM     46  C   UNL     1      11.208   3.354   0.462  1.00  0.00     0.049 A 
ATOM     47  H   UNL     1      11.666   3.274  -1.568  1.00  0.00     0.167 HD
ATOM     48  C   UNL     1      12.486   3.059  -5.868  1.00  0.00     0.037 A 
ATOM     49  C   UNL     1      12.379   3.356   1.131  1.00  0.00     0.037 A 
ATOM     50  C   UNL     1      13.780   3.130  -5.242  1.00  0.00     0.049 A 
ATOM     51  C   UNL     1      13.671   3.314   0.358  1.00  0.00     0.074 A 
ATOM     52  C   UNL     1      15.026   3.168  -5.842  1.00  0.00     0.029 A 
ATOM     53  N   UNL     1      13.995   3.168  -3.872  1.00  0.00    -0.354 N 
ATOM     54  N   UNL     1      13.855   3.285  -0.941  1.00  0.00    -0.248 NA
ATOM     55  C   UNL     1      14.915   3.309   1.141  1.00  0.00     0.031 C 
ATOM     56  C   UNL     1      15.996   3.186  -4.834  1.00  0.00     0.029 A 
ATOM     57  C   UNL     1      15.354   3.207  -3.607  1.00  0.00     0.049 A 
ATOM     58  H   UNL     1      13.286   3.168  -3.189  1.00  0.00     0.167 HD
ATOM     59  C   UNL     1      15.234   3.284  -1.130  1.00  0.00     0.074 A 
ATOM     60  C   UNL     1      15.836   3.325   0.186  1.00  0.00     0.031 C 
ATOM     61  C   UNL     1      15.937   3.254  -2.290  1.00  0.00     0.037 A 
BRANCH  48  62
ATOM     62  C   UNL     1      12.423   2.978  -7.368  1.00  0.00     0.058 A 
ATOM     63  C   UNL     1      11.996   4.064  -8.148  1.00  0.00     0.135 A 
ATOM     64  C   UNL     1      12.826   1.810  -8.035  1.00  0.00     0.135 A 
ATOM     65  F   UNL     1      11.583   5.198  -7.560  1.00  0.00    -0.206 F 
ATOM     66  C   UNL     1      11.948   3.987  -9.537  1.00  0.00     0.059 A 
ATOM     67  C   UNL     1      12.809   1.719  -9.424  1.00  0.00     0.059 A 
ATOM     68  F   UNL     1      13.240   0.742  -7.336  1.00  0.00    -0.206 F 
ATOM     69  C   UNL     1      12.356   2.809 -10.165  1.00  0.00     0.060 A 
BRANCH  69  70
ATOM     70  S   UNL     1      12.292   2.724 -11.968  1.00  0.00     0.124 S 
ATOM     71  O   UNL     1      10.857   2.600 -12.202  1.00  0.00    -0.237 OA
ATOM     72  O   UNL     1      12.891   3.996 -12.362  1.00  0.00    -0.237 OA
ATOM     73  O   UNL     1      13.083   1.539 -12.280  1.00  0.00    -0.744 OA
ENDBRANCH  69  70
ENDBRANCH  48  62
BRANCH  49  74
ATOM     74  C   UNL     1      12.383   3.384   2.617  1.00  0.00     0.058 A 
ATOM     75  C   UNL     1      12.815   4.516   3.323  1.00  0.00     0.135 A 
ATOM     76  C   UNL     1      11.954   2.273   3.362  1.00  0.00     0.135 A 
ATOM     77  F   UNL     1      13.245   5.597   2.656  1.00  0.00    -0.206 F 
ATOM     78  C   UNL     1      12.835   4.543   4.714  1.00  0.00     0.059 A 
ATOM     79  C   UNL     1      11.942   2.286   4.753  1.00  0.00     0.059 A 
ATOM     80  F   UNL     1      11.521   1.169   2.734  1.00  0.00    -0.206 F 
ATOM     81  C   UNL     1      12.394   3.423   5.420  1.00  0.00     0.060 A 
BRANCH  81  82
ATOM     82  S   UNL     1      12.376   3.485   7.225  1.00  0.00     0.124 S 
ATOM     83  O   UNL     1      13.793   3.346   7.537  1.00  0.00    -0.237 OA
ATOM     84  O   UNL     1      11.790   4.797   7.482  1.00  0.00    -0.237 OA
ATOM     85  O   UNL     1      11.533   2.350   7.590  1.00  0.00    -0.744 OA
ENDBRANCH  81  82
ENDBRANCH  49  74
BRANCH  61  86
ATOM     86  C   UNL     1      17.437   3.296  -2.193  1.00  0.00     0.058 A 
ATOM     87  C   UNL     1      18.181   2.182  -1.774  1.00  0.00     0.135 A 
ATOM     88  C   UNL     1      18.142   4.449  -2.576  1.00  0.00     0.135 A 
ATOM     89  F   UNL     1      17.556   1.057  -1.392  1.00  0.00    -0.206 F 
ATOM     90  C   UNL     1      19.571   2.216  -1.720  1.00  0.00     0.059 A 
ATOM     91  C   UNL     1      19.532   4.497  -2.554  1.00  0.00     0.059 A 
ATOM     92  F   UNL     1      17.479   5.538  -2.995  1.00  0.00    -0.206 F 
ATOM     93  C   UNL     1      20.238   3.378  -2.112  1.00  0.00     0.060 A 
BRANCH  93  94
ATOM     94  S   UNL     1      22.043   3.399  -2.070  1.00  0.00     0.124 S 
ATOM     95  O   UNL     1      22.302   3.531  -0.640  1.00  0.00    -0.237 OA
ATOM     96  O   UNL     1      22.386   2.108  -2.659  1.00  0.00    -0.237 OA
ATOM     97  O   UNL     1      22.388   4.563  -2.881  1.00  0.00    -0.744 OA
ENDBRANCH  93  94
ENDBRANCH  61  86
ENDBRANCH  35  36
ENDBRANCH  28  30
ENDBRANCH  27  28
ENDBRANCH  26  27
ENDBRANCH  25  26
ENDBRANCH   1  25
TORSDOF 21
