REMARK SMILES Cc1cccc(C(=O)OCCOCCOC(=O)c2ccc(-c3c4nc(c(-c5c(F)cc(S(=O)(=O)[O-])cc5F)c5ccc([nH]5)c(-c5c(F)cc(S(=O)(=O)[O-])cc5F)c5nc(c(-c6c(F)cc(S(=O)(=O)[O-])cc6F)c6ccc3[nH]6)C=C5)C=C4)cc2)c1OC[C@@H]1C[C@H]2CC[C@@H]1C2
REMARK SMILES IDX 12 1 11 2 10 3 9 4 7 5 8 6 6 7 1 8 2 9 3 10 84 11 4 12 5 13
REMARK SMILES IDX 85 14 86 15 87 16 88 17 92 18 89 19 91 20 93 21 90 22 13 23
REMARK SMILES IDX 14 24 15 25 16 26 17 27 18 28 19 29 83 30 20 31 82 32 21 33
REMARK SMILES IDX 22 34 23 35 76 36 24 37 81 38 75 39 77 40 25 41 80 42 74 43
REMARK SMILES IDX 73 44 26 46 60 47 39 48 59 49 40 50 43 51 58 52 78 53 41 54
REMARK SMILES IDX 42 55 57 57 79 58 44 59 27 60 28 61 37 62 29 63 30 64 36 65
REMARK SMILES IDX 38 66 31 67 32 68 33 69 34 70 35 71 61 72 62 73 71 74 63 75
REMARK SMILES IDX 64 76 70 77 72 78 65 79 66 80 67 81 68 82 69 83 45 84 46 85
REMARK SMILES IDX 55 86 47 87 48 88 54 89 56 90 49 91 50 92 51 93 52 94 53 95
REMARK H PARENT 77 45 43 56
REMARK Flexibility Score: inf
ROOT
ATOM      1  O   UNL     1      -2.188   2.912  -1.850  1.00  0.00    -0.374 OA
ENDROOT
BRANCH   1   2
ATOM      2  C   UNL     1      -0.926   3.564  -1.959  1.00  0.00     0.202 C 
BRANCH   2   3
ATOM      3  C   UNL     1      -0.539   3.972  -0.564  1.00  0.00     0.261 C 
BRANCH   3   4
ATOM      4  O   UNL     1      -0.184   2.855   0.273  1.00  0.00    -0.460 OA
BRANCH   4   5
ATOM      5  C   UNL     1      -1.121   1.914   0.516  1.00  0.00     0.342 C 
ATOM      6  O   UNL     1      -2.291   2.095   0.780  1.00  0.00    -0.246 OA
BRANCH   5   7
ATOM      7  C   UNL     1      -0.534   0.568   0.323  1.00  0.00     0.102 A 
ATOM      8  C   UNL     1       2.223  -1.297  -1.529  1.00  0.00     0.048 C 
ATOM      9  C   UNL     1       1.023  -0.989  -0.678  1.00  0.00    -0.008 A 
ATOM     10  C   UNL     1       0.120  -2.037  -0.421  1.00  0.00     0.007 A 
ATOM     11  C   UNL     1       0.728   0.321  -0.258  1.00  0.00     0.136 A 
ATOM     12  C   UNL     1      -1.104  -1.794   0.191  1.00  0.00     0.001 A 
ATOM     13  C   UNL     1      -1.433  -0.495   0.555  1.00  0.00     0.019 A 
BRANCH  11  14
ATOM     14  O   UNL     1       1.530   1.314  -0.751  1.00  0.00    -0.492 OA
BRANCH  14  15
ATOM     15  C   UNL     1       2.608   1.900   0.006  1.00  0.00     0.233 C 
BRANCH  15  16
ATOM     16  C   UNL     1       3.025   1.338   1.372  1.00  0.00     0.030 C 
ATOM     17  C   UNL     1       4.054   2.255   2.099  1.00  0.00     0.011 C 
ATOM     18  C   UNL     1       3.820   0.011   1.305  1.00  0.00    -0.004 C 
ATOM     19  C   UNL     1       5.179   1.287   2.511  1.00  0.00    -0.010 C 
ATOM     20  C   UNL     1       3.749  -0.643   2.691  1.00  0.00     0.004 C 
ATOM     21  C   UNL     1       5.289   0.442   1.250  1.00  0.00     0.007 C 
ATOM     22  C   UNL     1       4.644   0.271   3.538  1.00  0.00     0.004 C 
ENDBRANCH  15  16
ENDBRANCH  14  15
ENDBRANCH  11  14
ENDBRANCH   5   7
ENDBRANCH   4   5
ENDBRANCH   3   4
ENDBRANCH   2   3
ENDBRANCH   1   2
BRANCH   1  23
ATOM     23  C   UNL     1      -2.704   2.339  -3.030  1.00  0.00     0.202 C 
BRANCH  23  24
ATOM     24  C   UNL     1      -2.907   3.358  -4.155  1.00  0.00     0.261 C 
BRANCH  24  25
ATOM     25  O   UNL     1      -3.995   4.258  -3.848  1.00  0.00    -0.460 OA
BRANCH  25  26
ATOM     26  C   UNL     1      -3.635   5.509  -3.430  1.00  0.00     0.338 C 
ATOM     27  O   UNL     1      -3.214   6.376  -4.174  1.00  0.00    -0.246 OA
BRANCH  26  28
ATOM     28  C   UNL     1      -3.828   5.641  -1.955  1.00  0.00     0.060 A 
ATOM     29  C   UNL     1      -3.205   6.665  -1.218  1.00  0.00     0.016 A 
ATOM     30  C   UNL     1      -4.468   4.607  -1.283  1.00  0.00     0.016 A 
ATOM     31  C   UNL     1      -3.088   6.567   0.182  1.00  0.00     0.010 A 
ATOM     32  C   UNL     1      -4.254   4.459   0.070  1.00  0.00     0.010 A 
ATOM     33  C   UNL     1      -3.544   5.418   0.818  1.00  0.00    -0.014 A 
BRANCH  33  34
ATOM     34  C   UNL     1      -3.367   5.024   2.225  1.00  0.00     0.031 A 
ATOM     35  C   UNL     1      -4.618   4.782   2.993  1.00  0.00     0.074 A 
ATOM     36  C   UNL     1      -2.204   4.459   2.646  1.00  0.00     0.049 A 
ATOM     37  N   UNL     1      -4.662   4.255   4.162  1.00  0.00    -0.248 NA
ATOM     38  C   UNL     1      -5.956   5.122   2.493  1.00  0.00     0.031 C 
ATOM     39  C   UNL     1      -2.038   3.347   3.591  1.00  0.00     0.029 A 
ATOM     40  N   UNL     1      -0.880   4.747   2.296  1.00  0.00    -0.354 N 
ATOM     41  C   UNL     1      -5.953   3.845   4.388  1.00  0.00     0.074 A 
ATOM     42  C   UNL     1      -6.740   4.522   3.394  1.00  0.00     0.031 C 
ATOM     43  C   UNL     1      -0.746   3.235   3.945  1.00  0.00     0.029 A 
ATOM     44  C   UNL     1      -0.054   4.373   3.370  1.00  0.00     0.049 A 
ATOM     45  H   UNL     1      -0.579   5.143   1.446  1.00  0.00     0.167 HD
ATOM     46  C   UNL     1      -6.156   2.870   5.316  1.00  0.00     0.037 A 
ATOM     47  C   UNL     1       0.688   5.307   4.025  1.00  0.00     0.037 A 
ATOM     48  C   UNL     1      -4.931   2.662   6.099  1.00  0.00     0.049 A 
ATOM     49  C   UNL     1       0.191   5.388   5.440  1.00  0.00     0.074 A 
ATOM     50  C   UNL     1      -3.984   1.657   6.159  1.00  0.00     0.029 A 
ATOM     51  N   UNL     1      -4.376   3.762   6.757  1.00  0.00    -0.354 N 
ATOM     52  N   UNL     1      -1.021   5.031   5.775  1.00  0.00    -0.248 NA
ATOM     53  C   UNL     1       1.015   5.720   6.596  1.00  0.00     0.031 C 
ATOM     54  C   UNL     1      -2.805   2.214   6.745  1.00  0.00     0.029 A 
ATOM     55  C   UNL     1      -3.053   3.538   7.084  1.00  0.00     0.049 A 
ATOM     56  H   UNL     1      -4.865   4.592   6.961  1.00  0.00     0.167 HD
ATOM     57  C   UNL     1      -1.132   4.995   7.128  1.00  0.00     0.074 A 
ATOM     58  C   UNL     1       0.157   5.473   7.603  1.00  0.00     0.031 C 
ATOM     59  C   UNL     1      -2.265   4.572   7.757  1.00  0.00     0.037 A 
BRANCH  46  60
ATOM     60  C   UNL     1      -7.396   2.008   5.439  1.00  0.00     0.058 A 
ATOM     61  C   UNL     1      -7.550   1.150   6.550  1.00  0.00     0.135 A 
ATOM     62  C   UNL     1      -8.418   1.896   4.467  1.00  0.00     0.135 A 
ATOM     63  F   UNL     1      -6.636   1.121   7.531  1.00  0.00    -0.206 F 
ATOM     64  C   UNL     1      -8.631   0.273   6.694  1.00  0.00     0.059 A 
ATOM     65  C   UNL     1      -9.532   1.061   4.613  1.00  0.00     0.059 A 
ATOM     66  F   UNL     1      -8.361   2.541   3.296  1.00  0.00    -0.206 F 
ATOM     67  C   UNL     1      -9.626   0.241   5.725  1.00  0.00     0.060 A 
BRANCH  67  68
ATOM     68  S   UNL     1     -11.019  -0.887   5.925  1.00  0.00     0.124 S 
ATOM     69  O   UNL     1     -10.376  -2.189   5.782  1.00  0.00    -0.237 OA
ATOM     70  O   UNL     1     -11.497  -0.557   7.263  1.00  0.00    -0.237 OA
ATOM     71  O   UNL     1     -11.919  -0.515   4.837  1.00  0.00    -0.744 OA
ENDBRANCH  67  68
ENDBRANCH  46  60
BRANCH  47  72
ATOM     72  C   UNL     1       1.165   6.379   3.089  1.00  0.00     0.058 A 
ATOM     73  C   UNL     1       2.189   6.002   2.190  1.00  0.00     0.135 A 
ATOM     74  C   UNL     1       0.296   7.396   2.656  1.00  0.00     0.135 A 
ATOM     75  F   UNL     1       3.079   5.066   2.554  1.00  0.00    -0.206 F 
ATOM     76  C   UNL     1       2.224   6.446   0.866  1.00  0.00     0.059 A 
ATOM     77  C   UNL     1       0.313   7.853   1.329  1.00  0.00     0.059 A 
ATOM     78  F   UNL     1      -0.695   7.817   3.455  1.00  0.00    -0.206 F 
ATOM     79  C   UNL     1       1.238   7.323   0.425  1.00  0.00     0.060 A 
BRANCH  79  80
ATOM     80  S   UNL     1       1.058   7.602  -1.364  1.00  0.00     0.124 S 
ATOM     81  O   UNL     1       2.173   8.499  -1.643  1.00  0.00    -0.237 OA
ATOM     82  O   UNL     1       1.188   6.257  -1.920  1.00  0.00    -0.237 OA
ATOM     83  O   UNL     1      -0.273   8.186  -1.477  1.00  0.00    -0.744 OA
ENDBRANCH  79  80
ENDBRANCH  47  72
BRANCH  59  84
ATOM     84  C   UNL     1      -2.666   5.079   9.115  1.00  0.00     0.058 A 
ATOM     85  C   UNL     1      -2.173   6.282   9.656  1.00  0.00     0.135 A 
ATOM     86  C   UNL     1      -3.696   4.455   9.853  1.00  0.00     0.135 A 
ATOM     87  F   UNL     1      -1.317   7.064   8.984  1.00  0.00    -0.206 F 
ATOM     88  C   UNL     1      -2.570   6.758  10.898  1.00  0.00     0.059 A 
ATOM     89  C   UNL     1      -4.165   4.958  11.061  1.00  0.00     0.059 A 
ATOM     90  F   UNL     1      -4.304   3.342   9.417  1.00  0.00    -0.206 F 
ATOM     91  C   UNL     1      -3.559   6.082  11.599  1.00  0.00     0.060 A 
BRANCH  91  92
ATOM     92  S   UNL     1      -4.050   6.703  13.210  1.00  0.00     0.124 S 
ATOM     93  O   UNL     1      -2.978   6.181  14.053  1.00  0.00    -0.237 OA
ATOM     94  O   UNL     1      -4.046   8.149  13.008  1.00  0.00    -0.237 OA
ATOM     95  O   UNL     1      -5.365   6.108  13.417  1.00  0.00    -0.744 OA
ENDBRANCH  91  92
ENDBRANCH  59  84
ENDBRANCH  33  34
ENDBRANCH  26  28
ENDBRANCH  25  26
ENDBRANCH  24  25
ENDBRANCH  23  24
ENDBRANCH   1  23
TORSDOF 20
