REMARK SMILES CC[C@H]1CCCC[C@@H]1C1(C(=O)OCCOCCOC(=O)c2ccc(-c3c4nc(c(-c5c(F)cc(S(=O)(=O)[O-])cc5F)c5ccc([nH]5)c(-c5c(F)cc(S(=O)(=O)[O-])cc5F)c5nc(c(-c6c(F)cc(S(=O)(=O)[O-])cc6F)c6ccc3[nH]6)C=C5)C=C4)cc2)CC1
REMARK SMILES IDX 16 1 15 2 14 3 13 4 12 5 10 6 11 7 9 8 87 9 88 10 8 11 3 12
REMARK SMILES IDX 4 13 5 14 7 15 6 16 2 17 1 18 17 19 18 20 19 21 20 22 21 23
REMARK SMILES IDX 22 24 86 25 23 26 85 27 24 28 25 29 26 30 79 31 27 32 84 33
REMARK SMILES IDX 78 34 80 35 28 36 83 37 77 38 76 39 29 41 63 42 42 43 62 44
REMARK SMILES IDX 43 45 46 46 61 47 81 48 44 49 45 50 60 52 82 53 47 54 30 55
REMARK SMILES IDX 31 56 40 57 32 58 33 59 39 60 41 61 34 62 35 63 36 64 37 65
REMARK SMILES IDX 38 66 64 67 65 68 74 69 66 70 67 71 73 72 75 73 68 74 69 75
REMARK SMILES IDX 70 76 71 77 72 78 48 79 49 80 58 81 50 82 51 83 57 84 59 85
REMARK SMILES IDX 52 86 53 87 54 88 55 89 56 90
REMARK H PARENT 80 40 46 51
REMARK Flexibility Score: inf
ROOT
ATOM      1  C   UNL     1      -0.338   7.295  -0.471  1.00  0.00     0.202 C 
ENDROOT
BRANCH   1   2
ATOM      2  O   UNL     1      -1.611   7.878  -0.216  1.00  0.00    -0.374 OA
BRANCH   2   3
ATOM      3  C   UNL     1      -2.214   7.602   1.056  1.00  0.00     0.202 C 
BRANCH   3   4
ATOM      4  C   UNL     1      -2.463   6.134   1.429  1.00  0.00     0.261 C 
BRANCH   4   5
ATOM      5  O   UNL     1      -1.227   5.473   1.762  1.00  0.00    -0.463 OA
BRANCH   5   6
ATOM      6  C   UNL     1      -1.303   4.115   1.774  1.00  0.00     0.312 C 
ATOM      7  O   UNL     1      -2.325   3.450   1.665  1.00  0.00    -0.252 OA
BRANCH   6   8
ATOM      8  C   UNL     1       0.066   3.461   1.783  1.00  0.00     0.071 C 
ATOM      9  C   UNL     1       0.309   2.457   2.910  1.00  0.00     0.020 C 
ATOM     10  C   UNL     1       0.996   3.783   2.951  1.00  0.00     0.020 C 
BRANCH   8  11
ATOM     11  C   UNL     1       0.677   3.283   0.369  1.00  0.00     0.009 C 
ATOM     12  C   UNL     1       1.363   1.947  -0.002  1.00  0.00    -0.007 C 
ATOM     13  C   UNL     1       2.871   1.971   0.312  1.00  0.00     0.004 C 
ATOM     14  C   UNL     1       3.596   3.132  -0.360  1.00  0.00     0.000 C 
ATOM     15  C   UNL     1       1.502   4.512  -0.038  1.00  0.00     0.005 C 
ATOM     16  C   UNL     1       3.014   4.452   0.098  1.00  0.00     0.000 C 
BRANCH  12  17
ATOM     17  C   UNL     1       1.078   1.668  -1.507  1.00  0.00     0.000 C 
ATOM     18  C   UNL     1       1.646   0.364  -2.043  1.00  0.00     0.004 C 
ENDBRANCH  12  17
ENDBRANCH   8  11
ENDBRANCH   6   8
ENDBRANCH   5   6
ENDBRANCH   4   5
ENDBRANCH   3   4
ENDBRANCH   2   3
ENDBRANCH   1   2
BRANCH   1  19
ATOM     19  C   UNL     1       0.899   7.970   0.154  1.00  0.00     0.261 C 
BRANCH  19  20
ATOM     20  O   UNL     1       0.655   8.521   1.445  1.00  0.00    -0.460 OA
BRANCH  20  21
ATOM     21  C   UNL     1       0.398   9.849   1.404  1.00  0.00     0.338 C 
ATOM     22  O   UNL     1       0.514  10.605   0.452  1.00  0.00    -0.246 OA
BRANCH  21  23
ATOM     23  C   UNL     1      -0.255  10.234   2.655  1.00  0.00     0.060 A 
ATOM     24  C   UNL     1      -1.545  10.765   2.551  1.00  0.00     0.016 A 
ATOM     25  C   UNL     1       0.385  10.098   3.890  1.00  0.00     0.016 A 
ATOM     26  C   UNL     1      -2.188  11.221   3.689  1.00  0.00     0.010 A 
ATOM     27  C   UNL     1      -0.259  10.569   5.032  1.00  0.00     0.010 A 
ATOM     28  C   UNL     1      -1.526  11.169   4.922  1.00  0.00    -0.014 A 
BRANCH  28  29
ATOM     29  C   UNL     1      -2.091  11.934   6.048  1.00  0.00     0.031 A 
ATOM     30  C   UNL     1      -1.547  13.309   6.309  1.00  0.00     0.074 A 
ATOM     31  C   UNL     1      -3.111  11.429   6.761  1.00  0.00     0.049 A 
ATOM     32  N   UNL     1      -1.897  14.178   7.216  1.00  0.00    -0.248 NA
ATOM     33  C   UNL     1      -0.461  13.764   5.424  1.00  0.00     0.031 C 
ATOM     34  C   UNL     1      -3.727  10.121   6.539  1.00  0.00     0.029 A 
ATOM     35  N   UNL     1      -3.812  11.961   7.808  1.00  0.00    -0.354 N 
ATOM     36  C   UNL     1      -1.075  15.281   7.015  1.00  0.00     0.074 A 
ATOM     37  C   UNL     1      -0.183  14.958   5.925  1.00  0.00     0.031 C 
ATOM     38  C   UNL     1      -4.718   9.950   7.430  1.00  0.00     0.029 A 
ATOM     39  C   UNL     1      -4.782  11.122   8.299  1.00  0.00     0.049 A 
ATOM     40  H   UNL     1      -3.638  12.857   8.175  1.00  0.00     0.167 HD
ATOM     41  C   UNL     1      -1.078  16.460   7.678  1.00  0.00     0.037 A 
ATOM     42  C   UNL     1      -5.613  11.286   9.346  1.00  0.00     0.037 A 
ATOM     43  C   UNL     1      -1.975  16.750   8.765  1.00  0.00     0.049 A 
ATOM     44  C   UNL     1      -5.552  12.581  10.113  1.00  0.00     0.074 A 
ATOM     45  C   UNL     1      -2.078  17.908   9.513  1.00  0.00     0.029 A 
ATOM     46  N   UNL     1      -2.919  15.862   9.265  1.00  0.00    -0.354 N 
ATOM     47  N   UNL     1      -4.785  13.627   9.905  1.00  0.00    -0.248 NA
ATOM     48  C   UNL     1      -6.469  12.723  11.250  1.00  0.00     0.031 C 
ATOM     49  C   UNL     1      -3.045  17.699  10.502  1.00  0.00     0.029 A 
ATOM     50  C   UNL     1      -3.590  16.434  10.332  1.00  0.00     0.049 A 
ATOM     51  H   UNL     1      -3.086  14.958   8.913  1.00  0.00     0.167 HD
ATOM     52  C   UNL     1      -5.143  14.562  10.869  1.00  0.00     0.074 A 
ATOM     53  C   UNL     1      -6.206  13.960  11.651  1.00  0.00     0.031 C 
ATOM     54  C   UNL     1      -4.645  15.805  11.089  1.00  0.00     0.037 A 
BRANCH  41  55
ATOM     55  C   UNL     1      -0.059  17.490   7.271  1.00  0.00     0.058 A 
ATOM     56  C   UNL     1      -0.123  18.155   6.036  1.00  0.00     0.135 A 
ATOM     57  C   UNL     1       1.000  17.818   8.133  1.00  0.00     0.135 A 
ATOM     58  F   UNL     1      -1.100  17.865   5.161  1.00  0.00    -0.206 F 
ATOM     59  C   UNL     1       0.842  19.084   5.657  1.00  0.00     0.059 A 
ATOM     60  C   UNL     1       1.959  18.766   7.788  1.00  0.00     0.059 A 
ATOM     61  F   UNL     1       1.117  17.208   9.323  1.00  0.00    -0.206 F 
ATOM     62  C   UNL     1       1.881  19.382   6.540  1.00  0.00     0.060 A 
BRANCH  62  63
ATOM     63  S   UNL     1       3.127  20.586   6.033  1.00  0.00     0.124 S 
ATOM     64  O   UNL     1       3.857  19.838   5.014  1.00  0.00    -0.237 OA
ATOM     65  O   UNL     1       2.310  21.692   5.544  1.00  0.00    -0.237 OA
ATOM     66  O   UNL     1       3.865  20.852   7.264  1.00  0.00    -0.744 OA
ENDBRANCH  62  63
ENDBRANCH  41  55
BRANCH  42  67
ATOM     67  C   UNL     1      -6.557  10.200   9.720  1.00  0.00     0.058 A 
ATOM     68  C   UNL     1      -7.941  10.349   9.556  1.00  0.00     0.135 A 
ATOM     69  C   UNL     1      -6.087   8.975  10.222  1.00  0.00     0.135 A 
ATOM     70  F   UNL     1      -8.441  11.501   9.085  1.00  0.00    -0.206 F 
ATOM     71  C   UNL     1      -8.828   9.327   9.884  1.00  0.00     0.059 A 
ATOM     72  C   UNL     1      -6.951   7.930  10.532  1.00  0.00     0.059 A 
ATOM     73  F   UNL     1      -4.770   8.775  10.386  1.00  0.00    -0.206 F 
ATOM     74  C   UNL     1      -8.322   8.119  10.367  1.00  0.00     0.060 A 
BRANCH  74  75
ATOM     75  S   UNL     1      -9.478   6.781  10.735  1.00  0.00     0.124 S 
ATOM     76  O   UNL     1     -10.138   7.284  11.934  1.00  0.00    -0.237 OA
ATOM     77  O   UNL     1     -10.294   6.742   9.525  1.00  0.00    -0.237 OA
ATOM     78  O   UNL     1      -8.605   5.627  10.931  1.00  0.00    -0.744 OA
ENDBRANCH  74  75
ENDBRANCH  42  67
BRANCH  54  79
ATOM     79  C   UNL     1      -5.265  16.606  12.200  1.00  0.00     0.058 A 
ATOM     80  C   UNL     1      -5.043  16.293  13.550  1.00  0.00     0.135 A 
ATOM     81  C   UNL     1      -6.043  17.738  11.907  1.00  0.00     0.135 A 
ATOM     82  F   UNL     1      -4.312  15.218  13.883  1.00  0.00    -0.206 F 
ATOM     83  C   UNL     1      -5.593  17.059  14.571  1.00  0.00     0.059 A 
ATOM     84  C   UNL     1      -6.575  18.538  12.912  1.00  0.00     0.059 A 
ATOM     85  F   UNL     1      -6.274  18.088  10.631  1.00  0.00    -0.206 F 
ATOM     86  C   UNL     1      -6.355  18.183  14.241  1.00  0.00     0.060 A 
BRANCH  86  87
ATOM     87  S   UNL     1      -7.033  19.188  15.578  1.00  0.00     0.124 S 
ATOM     88  O   UNL     1      -8.095  18.326  16.084  1.00  0.00    -0.237 OA
ATOM     89  O   UNL     1      -5.880  19.357  16.456  1.00  0.00    -0.237 OA
ATOM     90  O   UNL     1      -7.479  20.401  14.898  1.00  0.00    -0.744 OA
ENDBRANCH  86  87
ENDBRANCH  54  79
ENDBRANCH  28  29
ENDBRANCH  21  23
ENDBRANCH  20  21
ENDBRANCH  19  20
ENDBRANCH   1  19
TORSDOF 19
