REMARK SMILES CC1(C(=O)N2CC(CC(=O)OCCOCCOC(=O)c3ccc(-c4c5nc(c(-c6c(F)cc(S(=O)(=O)[O-])cc6F)c6ccc([nH]6)c(-c6c(F)cc(S(=O)(=O)[O-])cc6F)c6nc(c(-c7c(F)cc(S(=O)(=O)[O-])cc7F)c7ccc4[nH]7)C=C6)C=C5)cc3)C2)CCCC1
REMARK SMILES IDX 15 1 14 2 13 3 12 4 11 5 9 6 10 7 8 8 7 9 3 10 4 11 5 12
REMARK SMILES IDX 6 13 86 14 2 15 1 16 87 17 90 18 88 19 89 20 16 21 17 22
REMARK SMILES IDX 18 23 19 24 20 25 21 26 85 27 22 28 84 29 23 30 24 31 25 32
REMARK SMILES IDX 78 33 26 34 83 35 77 36 79 37 27 38 82 39 76 40 75 41 28 43
REMARK SMILES IDX 62 44 41 45 61 46 42 47 45 48 60 49 80 50 43 51 44 52 59 54
REMARK SMILES IDX 81 55 46 56 29 57 30 58 39 59 31 60 32 61 38 62 40 63 33 64
REMARK SMILES IDX 34 65 35 66 36 67 37 68 63 69 64 70 73 71 65 72 66 73 72 74
REMARK SMILES IDX 74 75 67 76 68 77 69 78 70 79 71 80 47 81 48 82 57 83 49 84
REMARK SMILES IDX 50 85 56 86 58 87 51 88 52 89 53 90 54 91 55 92
REMARK H PARENT 79 42 45 53
REMARK Flexibility Score: inf
ROOT
ATOM      1  C   UNL     1       8.178  -1.335   2.214  1.00  0.00     0.202 C 
ENDROOT
BRANCH   1   2
ATOM      2  O   UNL     1       9.209  -1.903   1.410  1.00  0.00    -0.374 OA
BRANCH   2   3
ATOM      3  C   UNL     1       8.878  -2.250   0.065  1.00  0.00     0.202 C 
BRANCH   3   4
ATOM      4  C   UNL     1       8.006  -3.494  -0.130  1.00  0.00     0.261 C 
BRANCH   4   5
ATOM      5  O   UNL     1       6.685  -3.318   0.418  1.00  0.00    -0.463 OA
BRANCH   5   6
ATOM      6  C   UNL     1       6.311  -4.234   1.347  1.00  0.00     0.306 C 
ATOM      7  O   UNL     1       6.974  -5.207   1.689  1.00  0.00    -0.252 OA
BRANCH   6   8
ATOM      8  C   UNL     1       4.952  -3.959   1.932  1.00  0.00     0.130 C 
BRANCH   8   9
ATOM      9  C   UNL     1       4.481  -2.510   1.958  1.00  0.00     0.039 C 
ATOM     10  C   UNL     1       1.943  -0.426   1.592  1.00  0.00     0.228 C 
ATOM     11  O   UNL     1       1.921   0.283   2.598  1.00  0.00    -0.274 OA
ATOM     12  N   UNL     1       2.657  -1.602   1.560  1.00  0.00    -0.342 N 
ATOM     13  C   UNL     1       3.164  -2.324   2.715  1.00  0.00     0.125 C 
ATOM     14  C   UNL     1       3.789  -1.950   0.705  1.00  0.00     0.125 C 
BRANCH  10  15
ATOM     15  C   UNL     1       1.041  -0.165   0.372  1.00  0.00     0.047 C 
ATOM     16  C   UNL     1       1.833   0.009  -0.928  1.00  0.00     0.022 C 
ATOM     17  C   UNL     1       0.125   1.052   0.610  1.00  0.00     0.016 C 
ATOM     18  C   UNL     1       0.008  -1.302   0.267  1.00  0.00     0.016 C 
ATOM     19  C   UNL     1      -1.110   0.807  -0.252  1.00  0.00     0.001 C 
ATOM     20  C   UNL     1      -1.212  -0.705  -0.426  1.00  0.00     0.001 C 
ENDBRANCH  10  15
ENDBRANCH   8   9
ENDBRANCH   6   8
ENDBRANCH   5   6
ENDBRANCH   4   5
ENDBRANCH   3   4
ENDBRANCH   2   3
ENDBRANCH   1   2
BRANCH   1  21
ATOM     21  C   UNL     1       7.785   0.121   1.922  1.00  0.00     0.261 C 
BRANCH  21  22
ATOM     22  O   UNL     1       7.223   0.301   0.610  1.00  0.00    -0.460 OA
BRANCH  22  23
ATOM     23  C   UNL     1       7.981   1.045  -0.234  1.00  0.00     0.338 C 
ATOM     24  O   UNL     1       9.036   1.608   0.028  1.00  0.00    -0.246 OA
BRANCH  23  25
ATOM     25  C   UNL     1       7.464   0.947  -1.611  1.00  0.00     0.060 A 
ATOM     26  C   UNL     1       8.352   0.517  -2.606  1.00  0.00     0.016 A 
ATOM     27  C   UNL     1       6.165   1.338  -1.941  1.00  0.00     0.016 A 
ATOM     28  C   UNL     1       7.955   0.509  -3.942  1.00  0.00     0.010 A 
ATOM     29  C   UNL     1       5.772   1.340  -3.285  1.00  0.00     0.010 A 
ATOM     30  C   UNL     1       6.673   0.953  -4.295  1.00  0.00    -0.014 A 
BRANCH  30  31
ATOM     31  C   UNL     1       6.322   1.125  -5.727  1.00  0.00     0.031 A 
ATOM     32  C   UNL     1       6.380   2.499  -6.337  1.00  0.00     0.074 A 
ATOM     33  C   UNL     1       5.979   0.065  -6.481  1.00  0.00     0.049 A 
ATOM     34  N   UNL     1       6.069   2.881  -7.548  1.00  0.00    -0.248 NA
ATOM     35  C   UNL     1       6.852   3.586  -5.465  1.00  0.00     0.031 C 
ATOM     36  C   UNL     1       5.931  -1.321  -6.018  1.00  0.00     0.029 A 
ATOM     37  N   UNL     1       5.598  -0.007  -7.798  1.00  0.00    -0.354 N 
ATOM     38  C   UNL     1       6.300   4.251  -7.585  1.00  0.00     0.074 A 
ATOM     39  C   UNL     1       6.754   4.638  -6.266  1.00  0.00     0.031 C 
ATOM     40  C   UNL     1       5.527  -2.106  -7.032  1.00  0.00     0.029 A 
ATOM     41  C   UNL     1       5.257  -1.275  -8.205  1.00  0.00     0.049 A 
ATOM     42  H   UNL     1       5.571   0.775  -8.395  1.00  0.00     0.167 HD
ATOM     43  C   UNL     1       6.154   5.107  -8.624  1.00  0.00     0.037 A 
ATOM     44  C   UNL     1       4.760  -1.712  -9.379  1.00  0.00     0.037 A 
ATOM     45  C   UNL     1       5.705   4.718  -9.936  1.00  0.00     0.049 A 
ATOM     46  C   UNL     1       4.535  -0.729 -10.499  1.00  0.00     0.074 A 
ATOM     47  C   UNL     1       5.543   5.509 -11.060  1.00  0.00     0.029 A 
ATOM     48  N   UNL     1       5.337   3.430 -10.298  1.00  0.00    -0.354 N 
ATOM     49  N   UNL     1       4.774   0.560 -10.525  1.00  0.00    -0.248 NA
ATOM     50  C   UNL     1       3.971  -1.260 -11.749  1.00  0.00     0.031 C 
ATOM     51  C   UNL     1       5.032   4.710 -12.088  1.00  0.00     0.029 A 
ATOM     52  C   UNL     1       4.923   3.410 -11.620  1.00  0.00     0.049 A 
ATOM     53  H   UNL     1       5.367   2.646  -9.704  1.00  0.00     0.167 HD
ATOM     54  C   UNL     1       4.414   0.990 -11.799  1.00  0.00     0.074 A 
ATOM     55  C   UNL     1       3.948  -0.178 -12.517  1.00  0.00     0.031 C 
ATOM     56  C   UNL     1       4.467   2.239 -12.325  1.00  0.00     0.037 A 
BRANCH  43  57
ATOM     57  C   UNL     1       6.461   6.559  -8.380  1.00  0.00     0.058 A 
ATOM     58  C   UNL     1       7.777   7.020  -8.224  1.00  0.00     0.135 A 
ATOM     59  C   UNL     1       5.425   7.506  -8.337  1.00  0.00     0.135 A 
ATOM     60  F   UNL     1       8.803   6.154  -8.240  1.00  0.00    -0.206 F 
ATOM     61  C   UNL     1       8.055   8.366  -8.011  1.00  0.00     0.059 A 
ATOM     62  C   UNL     1       5.681   8.861  -8.149  1.00  0.00     0.059 A 
ATOM     63  F   UNL     1       4.148   7.118  -8.478  1.00  0.00    -0.206 F 
ATOM     64  C   UNL     1       6.999   9.279  -7.974  1.00  0.00     0.060 A 
BRANCH  64  65
ATOM     65  S   UNL     1       7.375  11.024  -7.699  1.00  0.00     0.124 S 
ATOM     66  O   UNL     1       7.722  11.026  -6.281  1.00  0.00    -0.237 OA
ATOM     67  O   UNL     1       8.482  11.254  -8.622  1.00  0.00    -0.237 OA
ATOM     68  O   UNL     1       6.127  11.699  -8.040  1.00  0.00    -0.744 OA
ENDBRANCH  64  65
ENDBRANCH  43  57
BRANCH  44  69
ATOM     69  C   UNL     1       4.420  -3.149  -9.552  1.00  0.00     0.058 A 
ATOM     70  C   UNL     1       5.170  -3.976 -10.401  1.00  0.00     0.135 A 
ATOM     71  C   UNL     1       3.338  -3.724  -8.867  1.00  0.00     0.135 A 
ATOM     72  F   UNL     1       6.205  -3.470 -11.087  1.00  0.00    -0.206 F 
ATOM     73  C   UNL     1       4.854  -5.320 -10.573  1.00  0.00     0.059 A 
ATOM     74  C   UNL     1       3.018  -5.071  -9.004  1.00  0.00     0.059 A 
ATOM     75  F   UNL     1       2.595  -2.978  -8.035  1.00  0.00    -0.206 F 
ATOM     76  C   UNL     1       3.777  -5.859  -9.867  1.00  0.00     0.060 A 
BRANCH  76  77
ATOM     77  S   UNL     1       3.409  -7.618 -10.053  1.00  0.00     0.124 S 
ATOM     78  O   UNL     1       2.810  -7.653 -11.381  1.00  0.00    -0.237 OA
ATOM     79  O   UNL     1       4.733  -8.222  -9.932  1.00  0.00    -0.237 OA
ATOM     80  O   UNL     1       2.502  -7.888  -8.941  1.00  0.00    -0.744 OA
ENDBRANCH  76  77
ENDBRANCH  44  69
BRANCH  56  81
ATOM     81  C   UNL     1       4.039   2.410 -13.757  1.00  0.00     0.058 A 
ATOM     82  C   UNL     1       2.687   2.370 -14.133  1.00  0.00     0.135 A 
ATOM     83  C   UNL     1       4.988   2.687 -14.755  1.00  0.00     0.135 A 
ATOM     84  F   UNL     1       1.740   2.103 -13.220  1.00  0.00    -0.206 F 
ATOM     85  C   UNL     1       2.293   2.582 -15.450  1.00  0.00     0.059 A 
ATOM     86  C   UNL     1       4.614   2.927 -16.073  1.00  0.00     0.059 A 
ATOM     87  F   UNL     1       6.294   2.746 -14.447  1.00  0.00    -0.206 F 
ATOM     88  C   UNL     1       3.264   2.865 -16.413  1.00  0.00     0.060 A 
BRANCH  88  89
ATOM     89  S   UNL     1       2.735   3.185 -18.110  1.00  0.00     0.124 S 
ATOM     90  O   UNL     1       2.390   1.843 -18.568  1.00  0.00    -0.237 OA
ATOM     91  O   UNL     1       1.611   4.098 -17.920  1.00  0.00    -0.237 OA
ATOM     92  O   UNL     1       3.917   3.776 -18.729  1.00  0.00    -0.744 OA
ENDBRANCH  88  89
ENDBRANCH  56  81
ENDBRANCH  30  31
ENDBRANCH  23  25
ENDBRANCH  22  23
ENDBRANCH  21  22
ENDBRANCH   1  21
TORSDOF 19
