REMARK SMILES Cc1ccc(N2C(=O)/C(=C\c3ccccc3O[C@H](C)C(=O)OCCOCCOC(=O)c3ccc(-c4c5nc(c(-c6c(F)cc(S(=O)(=O)[O-])cc6F)c6ccc([nH]6)c(-c6c(F)cc(S(=O)(=O)[O-])cc6F)c6nc(c(-c7c(F)cc(S(=O)(=O)[O-])cc7F)c7ccc4[nH]7)C=C6)C=C5)cc3)SC2=S)c(C)c1
REMARK SMILES IDX 24 1 23 2 22 3 20 4 21 5 18 6 19 7 17 8 16 9 11 10 12 11
REMARK SMILES IDX 13 12 15 13 14 14 10 15 6 16 7 17 98 18 8 19 9 20 97 21
REMARK SMILES IDX 99 22 5 23 1 24 2 25 3 26 102 27 4 28 100 29 101 30 25 31
REMARK SMILES IDX 26 32 27 33 28 34 29 35 30 36 31 37 32 38 96 39 33 40 95 41
REMARK SMILES IDX 34 42 35 43 36 44 89 45 37 46 94 47 88 48 90 49 38 50 93 51
REMARK SMILES IDX 87 52 86 53 39 55 73 56 52 57 72 58 53 59 56 60 71 61 91 62
REMARK SMILES IDX 54 63 55 64 70 66 92 67 57 68 40 69 41 70 50 71 42 72 43 73
REMARK SMILES IDX 49 74 51 75 44 76 45 77 46 78 47 79 48 80 74 81 75 82 84 83
REMARK SMILES IDX 76 84 77 85 83 86 85 87 78 88 79 89 80 90 81 91 82 92 58 93
REMARK SMILES IDX 59 94 68 95 60 96 61 97 67 98 69 99 62 100 63 101 64 102
REMARK SMILES IDX 65 103 66 104
REMARK H PARENT 90 54 56 65
REMARK Flexibility Score: inf
ROOT
ATOM      1  C   UNL     1      -7.080  -5.816  -2.382  1.00  0.00     0.202 C 
ENDROOT
BRANCH   1   2
ATOM      2  C   UNL     1      -6.490  -4.929  -1.282  1.00  0.00     0.261 C 
BRANCH   2   3
ATOM      3  O   UNL     1      -5.655  -3.912  -1.861  1.00  0.00    -0.461 OA
BRANCH   3   4
ATOM      4  C   UNL     1      -4.361  -3.844  -1.438  1.00  0.00     0.347 C 
ATOM      5  O   UNL     1      -3.891  -4.529  -0.536  1.00  0.00    -0.248 OA
BRANCH   4   6
ATOM      6  C   UNL     1      -3.567  -2.782  -2.208  1.00  0.00     0.279 C 
ATOM      7  C   UNL     1      -4.066  -2.599  -3.641  1.00  0.00     0.066 C 
BRANCH   6   8
ATOM      8  O   UNL     1      -3.781  -1.599  -1.447  1.00  0.00    -0.478 OA
BRANCH   8   9
ATOM      9  C   UNL     1      -2.781  -0.670  -1.373  1.00  0.00     0.127 A 
ATOM     10  C   UNL     1      -2.738   0.073  -0.178  1.00  0.00     0.018 A 
ATOM     11  C   UNL     1      -1.920   1.204  -0.096  1.00  0.00     0.012 A 
ATOM     12  C   UNL     1      -1.092   1.547  -1.165  1.00  0.00     0.001 A 
ATOM     13  C   UNL     1      -1.893  -0.369  -2.405  1.00  0.00     0.047 A 
ATOM     14  C   UNL     1      -1.051   0.740  -2.301  1.00  0.00     0.004 A 
BRANCH  10  15
ATOM     15  C   UNL     1      -3.501  -0.366   1.000  1.00  0.00     0.033 C 
ATOM     16  N   UNL     1      -2.337  -3.614   2.269  1.00  0.00    -0.261 N 
ATOM     17  C   UNL     1      -2.209  -2.539   1.391  1.00  0.00     0.270 C 
ATOM     18  C   UNL     1      -3.387  -3.555   3.171  1.00  0.00     0.152 C 
ATOM     19  O   UNL     1      -1.354  -2.415   0.522  1.00  0.00    -0.268 OA
ATOM     20  C   UNL     1      -3.282  -1.522   1.652  1.00  0.00     0.081 C 
ATOM     21  S   UNL     1      -4.284  -2.054   2.948  1.00  0.00    -0.054 SA
ATOM     22  S   UNL     1      -3.785  -4.603   4.418  1.00  0.00    -0.051 S 
BRANCH  16  23
ATOM     23  C   UNL     1      -1.427  -4.715   2.172  1.00  0.00     0.054 A 
ATOM     24  C   UNL     1       1.223  -8.101   1.655  1.00  0.00     0.044 C 
ATOM     25  C   UNL     1       0.293  -6.941   1.847  1.00  0.00    -0.051 A 
ATOM     26  C   UNL     1      -1.090  -7.105   1.790  1.00  0.00     0.005 A 
ATOM     27  C   UNL     1       0.812  -5.661   2.072  1.00  0.00     0.009 A 
ATOM     28  C   UNL     1      -1.938  -6.004   1.945  1.00  0.00     0.027 A 
ATOM     29  C   UNL     1      -0.028  -4.545   2.254  1.00  0.00    -0.027 A 
ATOM     30  C   UNL     1       0.638  -3.224   2.532  1.00  0.00     0.046 C 
ENDBRANCH  16  23
ENDBRANCH  10  15
ENDBRANCH   8   9
ENDBRANCH   6   8
ENDBRANCH   4   6
ENDBRANCH   3   4
ENDBRANCH   2   3
ENDBRANCH   1   2
BRANCH   1  31
ATOM     31  O   UNL     1      -6.173  -6.736  -2.994  1.00  0.00    -0.374 OA
BRANCH  31  32
ATOM     32  C   UNL     1      -5.183  -6.204  -3.870  1.00  0.00     0.202 C 
BRANCH  32  33
ATOM     33  C   UNL     1      -5.657  -5.780  -5.267  1.00  0.00     0.261 C 
BRANCH  33  34
ATOM     34  O   UNL     1      -6.548  -4.650  -5.236  1.00  0.00    -0.460 OA
BRANCH  34  35
ATOM     35  C   UNL     1      -7.819  -4.921  -5.618  1.00  0.00     0.338 C 
ATOM     36  O   UNL     1      -8.255  -5.997  -6.012  1.00  0.00    -0.246 OA
BRANCH  35  37
ATOM     37  C   UNL     1      -8.701  -3.773  -5.348  1.00  0.00     0.060 A 
ATOM     38  C   UNL     1      -9.841  -4.000  -4.564  1.00  0.00     0.016 A 
ATOM     39  C   UNL     1      -8.481  -2.525  -5.932  1.00  0.00     0.016 A 
ATOM     40  C   UNL     1     -10.790  -2.993  -4.399  1.00  0.00     0.010 A 
ATOM     41  C   UNL     1      -9.441  -1.518  -5.774  1.00  0.00     0.010 A 
ATOM     42  C   UNL     1     -10.615  -1.758  -5.035  1.00  0.00    -0.014 A 
BRANCH  42  43
ATOM     43  C   UNL     1     -11.721  -0.769  -5.059  1.00  0.00     0.031 A 
ATOM     44  C   UNL     1     -12.584  -0.674  -6.288  1.00  0.00     0.074 A 
ATOM     45  C   UNL     1     -11.957   0.031  -4.003  1.00  0.00     0.049 A 
ATOM     46  N   UNL     1     -13.525   0.186  -6.577  1.00  0.00    -0.248 NA
ATOM     47  C   UNL     1     -12.351  -1.686  -7.332  1.00  0.00     0.031 C 
ATOM     48  C   UNL     1     -11.230  -0.006  -2.736  1.00  0.00     0.029 A 
ATOM     49  N   UNL     1     -12.869   1.045  -3.839  1.00  0.00    -0.354 N 
ATOM     50  C   UNL     1     -13.985  -0.167  -7.840  1.00  0.00     0.074 A 
ATOM     51  C   UNL     1     -13.210  -1.311  -8.269  1.00  0.00     0.031 C 
ATOM     52  C   UNL     1     -11.707   0.959  -1.931  1.00  0.00     0.029 A 
ATOM     53  C   UNL     1     -12.744   1.708  -2.641  1.00  0.00     0.049 A 
ATOM     54  H   UNL     1     -13.547   1.275  -4.515  1.00  0.00     0.167 HD
ATOM     55  C   UNL     1     -14.966   0.411  -8.574  1.00  0.00     0.037 A 
ATOM     56  C   UNL     1     -13.368   2.812  -2.186  1.00  0.00     0.037 A 
ATOM     57  C   UNL     1     -15.737   1.545  -8.137  1.00  0.00     0.049 A 
ATOM     58  C   UNL     1     -14.406   3.485  -3.048  1.00  0.00     0.074 A 
ATOM     59  C   UNL     1     -16.756   2.200  -8.805  1.00  0.00     0.029 A 
ATOM     60  N   UNL     1     -15.571   2.194  -6.923  1.00  0.00    -0.354 N 
ATOM     61  N   UNL     1     -14.832   3.143  -4.242  1.00  0.00    -0.248 NA
ATOM     62  C   UNL     1     -15.048   4.692  -2.507  1.00  0.00     0.031 C 
ATOM     63  C   UNL     1     -17.177   3.273  -8.013  1.00  0.00     0.029 A 
ATOM     64  C   UNL     1     -16.456   3.254  -6.830  1.00  0.00     0.049 A 
ATOM     65  H   UNL     1     -14.920   1.939  -6.229  1.00  0.00     0.167 HD
ATOM     66  C   UNL     1     -15.814   4.070  -4.576  1.00  0.00     0.074 A 
ATOM     67  C   UNL     1     -15.917   4.991  -3.464  1.00  0.00     0.031 C 
ATOM     68  C   UNL     1     -16.567   4.145  -5.701  1.00  0.00     0.037 A 
BRANCH  55  69
ATOM     69  C   UNL     1     -15.240  -0.153  -9.940  1.00  0.00     0.058 A 
ATOM     70  C   UNL     1     -15.884  -1.387 -10.116  1.00  0.00     0.135 A 
ATOM     71  C   UNL     1     -14.885   0.572 -11.090  1.00  0.00     0.135 A 
ATOM     72  F   UNL     1     -16.230  -2.128  -9.051  1.00  0.00    -0.206 F 
ATOM     73  C   UNL     1     -16.144  -1.896 -11.385  1.00  0.00     0.059 A 
ATOM     74  C   UNL     1     -15.158   0.094 -12.368  1.00  0.00     0.059 A 
ATOM     75  F   UNL     1     -14.266   1.757 -10.977  1.00  0.00    -0.206 F 
ATOM     76  C   UNL     1     -15.775  -1.148 -12.505  1.00  0.00     0.060 A 
BRANCH  76  77
ATOM     77  S   UNL     1     -16.119  -1.820 -14.145  1.00  0.00     0.124 S 
ATOM     78  O   UNL     1     -15.110  -2.870 -14.245  1.00  0.00    -0.237 OA
ATOM     79  O   UNL     1     -17.498  -2.278 -14.014  1.00  0.00    -0.237 OA
ATOM     80  O   UNL     1     -15.923  -0.676 -15.030  1.00  0.00    -0.744 OA
ENDBRANCH  76  77
ENDBRANCH  55  69
BRANCH  56  81
ATOM     81  C   UNL     1     -13.011   3.369  -0.854  1.00  0.00     0.058 A 
ATOM     82  C   UNL     1     -13.906   3.307   0.223  1.00  0.00     0.135 A 
ATOM     83  C   UNL     1     -11.761   3.968  -0.631  1.00  0.00     0.135 A 
ATOM     84  F   UNL     1     -15.118   2.755   0.057  1.00  0.00    -0.206 F 
ATOM     85  C   UNL     1     -13.581   3.826   1.472  1.00  0.00     0.059 A 
ATOM     86  C   UNL     1     -11.403   4.473   0.615  1.00  0.00     0.059 A 
ATOM     87  F   UNL     1     -10.864   4.045  -1.627  1.00  0.00    -0.206 F 
ATOM     88  C   UNL     1     -12.324   4.405   1.659  1.00  0.00     0.060 A 
BRANCH  88  89
ATOM     89  S   UNL     1     -11.891   5.030   3.297  1.00  0.00     0.124 S 
ATOM     90  O   UNL     1     -12.683   6.253   3.364  1.00  0.00    -0.237 OA
ATOM     91  O   UNL     1     -12.322   3.940   4.166  1.00  0.00    -0.237 OA
ATOM     92  O   UNL     1     -10.445   5.219   3.212  1.00  0.00    -0.744 OA
ENDBRANCH  88  89
ENDBRANCH  56  81
BRANCH  68  93
ATOM     93  C   UNL     1     -17.618   5.218  -5.778  1.00  0.00     0.058 A 
ATOM     94  C   UNL     1     -17.293   6.556  -6.039  1.00  0.00     0.135 A 
ATOM     95  C   UNL     1     -18.979   4.875  -5.699  1.00  0.00     0.135 A 
ATOM     96  F   UNL     1     -16.008   6.937  -6.117  1.00  0.00    -0.206 F 
ATOM     97  C   UNL     1     -18.280   7.520  -6.221  1.00  0.00     0.059 A 
ATOM     98  C   UNL     1     -19.982   5.816  -5.900  1.00  0.00     0.059 A 
ATOM     99  F   UNL     1     -19.342   3.604  -5.459  1.00  0.00    -0.206 F 
ATOM    100  C   UNL     1     -19.623   7.138  -6.160  1.00  0.00     0.060 A 
BRANCH 100 101
ATOM    101  S   UNL     1     -20.893   8.380  -6.481  1.00  0.00     0.124 S 
ATOM    102  O   UNL     1     -20.859   9.162  -5.249  1.00  0.00    -0.237 OA
ATOM    103  O   UNL     1     -20.381   9.052  -7.672  1.00  0.00    -0.237 OA
ATOM    104  O   UNL     1     -22.101   7.587  -6.688  1.00  0.00    -0.744 OA
ENDBRANCH 100 101
ENDBRANCH  68  93
ENDBRANCH  42  43
ENDBRANCH  35  37
ENDBRANCH  34  35
ENDBRANCH  33  34
ENDBRANCH  32  33
ENDBRANCH  31  32
ENDBRANCH   1  31
TORSDOF 21
