REMARK SMILES O=C(OCCOCCOC(=O)[C@H]1CC=CC[C@H]1C(=O)Nc1ccc(S(=O)(=O)N2CCc3ccccc32)cc1)c1ccc(-c2c3nc(c(-c4c(F)cc(S(=O)(=O)[O-])cc4F)c4ccc([nH]4)c(-c4c(F)cc(S(=O)(=O)[O-])cc4F)c4nc(c(-c5c(F)cc(S(=O)(=O)[O-])cc5F)c5ccc2[nH]5)C=C4)C=C3)cc1
REMARK SMILES IDX 7 1 6 2 5 3 4 4 3 5 2 6 1 7 39 8 40 9 104 10 41 11 103 12
REMARK SMILES IDX 42 13 43 14 44 15 97 16 45 17 102 18 96 19 98 20 46 21
REMARK SMILES IDX 101 22 95 23 94 24 47 26 81 27 60 28 80 29 61 30 64 31 79 32
REMARK SMILES IDX 99 33 62 34 63 35 78 37 100 38 65 39 48 40 49 41 58 42 50 43
REMARK SMILES IDX 51 44 57 45 59 46 52 47 53 48 54 49 55 50 56 51 82 52 83 53
REMARK SMILES IDX 92 54 84 55 85 56 91 57 93 58 86 59 87 60 88 61 89 62 90 63
REMARK SMILES IDX 66 64 67 65 76 66 68 67 69 68 75 69 77 70 70 71 71 72 72 73
REMARK SMILES IDX 73 74 74 75 8 76 9 77 10 78 11 79 12 80 13 81 17 82 14 83
REMARK SMILES IDX 16 84 15 85 18 86 19 87 20 88 21 90 22 91 38 92 23 93 37 94
REMARK SMILES IDX 24 95 25 96 26 97 27 98 28 99 29 100 36 101 30 102 31 103
REMARK SMILES IDX 35 104 32 105 34 106 33 107
REMARK H PARENT 98 25 64 36 20 89
REMARK Flexibility Score: inf
ROOT
ATOM      1  C   UNL     1       3.694   2.694  -1.374  1.00  0.00     0.202 C 
ENDROOT
BRANCH   1   2
ATOM      2  O   UNL     1       4.846   1.862  -0.396  1.00  0.00    -0.374 OA
BRANCH   2   3
ATOM      3  C   UNL     1       5.451   0.512  -0.439  1.00  0.00     0.202 C 
BRANCH   3   4
ATOM      4  C   UNL     1       5.179  -0.617   0.606  1.00  0.00     0.261 C 
BRANCH   4   5
ATOM      5  O   UNL     1       3.845  -1.201   0.523  1.00  0.00    -0.460 OA
BRANCH   5   6
ATOM      6  C   UNL     1       2.766  -0.884   1.283  1.00  0.00     0.338 C 
ATOM      7  O   UNL     1       1.663  -1.357   1.068  1.00  0.00    -0.246 OA
BRANCH   6   8
ATOM      8  C   UNL     1       2.966   0.121   2.327  1.00  0.00     0.060 A 
ATOM      9  C   UNL     1       3.489   1.303   1.900  1.00  0.00     0.016 A 
ATOM     10  C   UNL     1       2.703  -0.024   3.672  1.00  0.00     0.016 A 
ATOM     11  C   UNL     1       4.368   1.943   2.707  1.00  0.00     0.010 A 
ATOM     12  C   UNL     1       3.154   0.979   4.531  1.00  0.00     0.010 A 
ATOM     13  C   UNL     1       4.144   1.861   4.060  1.00  0.00    -0.014 A 
BRANCH  13  14
ATOM     14  C   UNL     1       5.118   2.537   4.926  1.00  0.00     0.031 A 
ATOM     15  C   UNL     1       5.843   1.674   5.910  1.00  0.00     0.074 A 
ATOM     16  C   UNL     1       5.465   3.820   4.683  1.00  0.00     0.049 A 
ATOM     17  N   UNL     1       6.627   2.019   6.886  1.00  0.00    -0.248 NA
ATOM     18  C   UNL     1       5.640   0.214   5.799  1.00  0.00     0.031 C 
ATOM     19  C   UNL     1       4.943   4.664   3.591  1.00  0.00     0.029 A 
ATOM     20  N   UNL     1       6.391   4.624   5.282  1.00  0.00    -0.354 N 
ATOM     21  C   UNL     1       6.923   0.837   7.550  1.00  0.00     0.074 A 
ATOM     22  C   UNL     1       6.216  -0.232   6.898  1.00  0.00     0.031 C 
ATOM     23  C   UNL     1       5.618   5.821   3.553  1.00  0.00     0.029 A 
ATOM     24  C   UNL     1       6.505   5.867   4.700  1.00  0.00     0.049 A 
ATOM     25  H   UNL     1       6.927   4.342   6.058  1.00  0.00     0.167 HD
ATOM     26  C   UNL     1       7.732   0.674   8.616  1.00  0.00     0.037 A 
ATOM     27  C   UNL     1       7.216   6.935   5.097  1.00  0.00     0.037 A 
ATOM     28  C   UNL     1       8.460   1.771   9.178  1.00  0.00     0.049 A 
ATOM     29  C   UNL     1       8.021   6.758   6.354  1.00  0.00     0.074 A 
ATOM     30  C   UNL     1       9.261   1.797  10.299  1.00  0.00     0.029 A 
ATOM     31  N   UNL     1       8.472   3.051   8.632  1.00  0.00    -0.354 N 
ATOM     32  N   UNL     1       8.194   5.669   7.072  1.00  0.00    -0.248 NA
ATOM     33  C   UNL     1       8.704   7.943   6.874  1.00  0.00     0.031 C 
ATOM     34  C   UNL     1       9.700   3.113  10.470  1.00  0.00     0.029 A 
ATOM     35  C   UNL     1       9.243   3.887   9.409  1.00  0.00     0.049 A 
ATOM     36  H   UNL     1       8.000   3.319   7.811  1.00  0.00     0.167 HD
ATOM     37  C   UNL     1       9.036   6.028   8.113  1.00  0.00     0.074 A 
ATOM     38  C   UNL     1       9.343   7.435   7.918  1.00  0.00     0.031 C 
ATOM     39  C   UNL     1       9.516   5.279   9.137  1.00  0.00     0.037 A 
BRANCH  26  40
ATOM     40  C   UNL     1       7.743  -0.681   9.257  1.00  0.00     0.058 A 
ATOM     41  C   UNL     1       8.287  -1.817   8.635  1.00  0.00     0.135 A 
ATOM     42  C   UNL     1       7.091  -0.857  10.487  1.00  0.00     0.135 A 
ATOM     43  F   UNL     1       8.861  -1.718   7.425  1.00  0.00    -0.206 F 
ATOM     44  C   UNL     1       8.158  -3.084   9.197  1.00  0.00     0.059 A 
ATOM     45  C   UNL     1       6.983  -2.107  11.085  1.00  0.00     0.059 A 
ATOM     46  F   UNL     1       6.516   0.188  11.103  1.00  0.00    -0.206 F 
ATOM     47  C   UNL     1       7.508  -3.216  10.425  1.00  0.00     0.060 A 
BRANCH  47  48
ATOM     48  S   UNL     1       7.360  -4.861  11.152  1.00  0.00     0.124 S 
ATOM     49  O   UNL     1       6.386  -5.486  10.263  1.00  0.00    -0.237 OA
ATOM     50  O   UNL     1       8.726  -5.364  11.051  1.00  0.00    -0.237 OA
ATOM     51  O   UNL     1       6.891  -4.592  12.507  1.00  0.00    -0.744 OA
ENDBRANCH  47  48
ENDBRANCH  26  40
BRANCH  27  52
ATOM     52  C   UNL     1       7.146   8.233   4.366  1.00  0.00     0.058 A 
ATOM     53  C   UNL     1       8.287   8.808   3.785  1.00  0.00     0.135 A 
ATOM     54  C   UNL     1       5.937   8.943   4.245  1.00  0.00     0.135 A 
ATOM     55  F   UNL     1       9.469   8.178   3.866  1.00  0.00    -0.206 F 
ATOM     56  C   UNL     1       8.240  10.043   3.141  1.00  0.00     0.059 A 
ATOM     57  C   UNL     1       5.858  10.162   3.576  1.00  0.00     0.059 A 
ATOM     58  F   UNL     1       4.806   8.444   4.767  1.00  0.00    -0.206 F 
ATOM     59  C   UNL     1       7.020  10.713   3.042  1.00  0.00     0.060 A 
BRANCH  59  60
ATOM     60  S   UNL     1       6.970  12.308   2.195  1.00  0.00     0.124 S 
ATOM     61  O   UNL     1       7.713  13.156   3.120  1.00  0.00    -0.237 OA
ATOM     62  O   UNL     1       7.635  12.003   0.932  1.00  0.00    -0.237 OA
ATOM     63  O   UNL     1       5.541  12.590   2.091  1.00  0.00    -0.744 OA
ENDBRANCH  59  60
ENDBRANCH  27  52
BRANCH  39  64
ATOM     64  C   UNL     1      10.470   5.957  10.069  1.00  0.00     0.058 A 
ATOM     65  C   UNL     1      10.047   6.931  10.983  1.00  0.00     0.135 A 
ATOM     66  C   UNL     1      11.818   5.563  10.086  1.00  0.00     0.135 A 
ATOM     67  F   UNL     1       8.767   7.337  10.998  1.00  0.00    -0.206 F 
ATOM     68  C   UNL     1      10.941   7.521  11.864  1.00  0.00     0.059 A 
ATOM     69  C   UNL     1      12.718   6.108  10.987  1.00  0.00     0.059 A 
ATOM     70  F   UNL     1      12.259   4.618   9.239  1.00  0.00    -0.206 F 
ATOM     71  C   UNL     1      12.272   7.098  11.861  1.00  0.00     0.060 A 
BRANCH  71  72
ATOM     72  S   UNL     1      13.415   7.851  13.032  1.00  0.00     0.124 S 
ATOM     73  O   UNL     1      13.582   9.182  12.459  1.00  0.00    -0.237 OA
ATOM     74  O   UNL     1      12.664   7.785  14.282  1.00  0.00    -0.237 OA
ATOM     75  O   UNL     1      14.588   6.986  12.965  1.00  0.00    -0.744 OA
ENDBRANCH  71  72
ENDBRANCH  39  64
ENDBRANCH  13  14
ENDBRANCH   6   8
ENDBRANCH   5   6
ENDBRANCH   4   5
ENDBRANCH   3   4
ENDBRANCH   2   3
ENDBRANCH   1   2
BRANCH   1  76
ATOM     76  C   UNL     1       2.532   1.974  -3.082  1.00  0.00     0.261 C 
BRANCH  76  77
ATOM     77  O   UNL     1       2.783   0.501  -3.928  1.00  0.00    -0.463 OA
BRANCH  77  78
ATOM     78  C   UNL     1       3.826  -0.383  -4.067  1.00  0.00     0.310 C 
ATOM     79  O   UNL     1       4.202  -1.193  -3.218  1.00  0.00    -0.252 OA
BRANCH  78  80
ATOM     80  C   UNL     1       4.477  -0.347  -5.415  1.00  0.00     0.116 C 
ATOM     81  C   UNL     1       3.772  -1.570  -6.032  1.00  0.00     0.043 C 
ATOM     82  C   UNL     1       4.291   0.970  -6.181  1.00  0.00     0.097 C 
ATOM     83  C   UNL     1       2.327  -1.248  -6.287  1.00  0.00    -0.030 C 
ATOM     84  C   UNL     1       2.823   1.218  -6.607  1.00  0.00     0.041 C 
ATOM     85  C   UNL     1       1.907   0.007  -6.524  1.00  0.00    -0.030 C 
BRANCH  82  86
ATOM     86  C   UNL     1       5.142   2.236  -5.757  1.00  0.00     0.228 C 
ATOM     87  O   UNL     1       6.019   2.611  -6.556  1.00  0.00    -0.274 OA
ATOM     88  N   UNL     1       4.979   3.075  -4.685  1.00  0.00    -0.326 N 
ATOM     89  H   UNL     1       5.372   3.967  -4.825  1.00  0.00     0.169 HD
BRANCH  88  90
ATOM     90  C   UNL     1       4.371   2.928  -3.433  1.00  0.00     0.041 A 
ATOM     91  C   UNL     1       3.131   4.097  -3.014  1.00  0.00     0.027 A 
ATOM     92  C   UNL     1       4.365   1.365  -2.625  1.00  0.00     0.027 A 
ATOM     93  C   UNL     1       1.817   3.669  -1.929  1.00  0.00     0.024 A 
ATOM     94  C   UNL     1       2.921   0.852  -1.505  1.00  0.00     0.024 A 
ATOM     95  C   UNL     1       1.632   2.072  -1.116  1.00  0.00     0.088 A 
BRANCH  95  96
ATOM     96  S   UNL     1      -0.237   1.936  -0.742  1.00  0.00     0.264 S 
ATOM     97  O   UNL     1      -0.533   3.365  -0.742  1.00  0.00    -0.201 OA
ATOM     98  O   UNL     1      -0.786   1.164  -1.836  1.00  0.00    -0.201 OA
BRANCH  96  99
ATOM     99  N   UNL     1      -0.980   1.425   0.694  1.00  0.00    -0.266 N 
ATOM    100  C   UNL     1      -0.931   0.123   1.376  1.00  0.00     0.140 C 
ATOM    101  C   UNL     1      -1.234   2.388   1.707  1.00  0.00     0.055 A 
ATOM    102  C   UNL     1      -0.575   0.464   2.858  1.00  0.00     0.060 C 
ATOM    103  C   UNL     1      -0.699   1.954   2.898  1.00  0.00    -0.022 A 
ATOM    104  C   UNL     1      -1.841   3.619   1.571  1.00  0.00     0.027 A 
ATOM    105  C   UNL     1      -0.308   2.910   3.813  1.00  0.00     0.006 A 
ATOM    106  C   UNL     1      -1.504   4.586   2.499  1.00  0.00     0.002 A 
ATOM    107  C   UNL     1      -0.656   4.249   3.562  1.00  0.00     0.000 A 
ENDBRANCH  96  99
ENDBRANCH  95  96
ENDBRANCH  88  90
ENDBRANCH  82  86
ENDBRANCH  78  80
ENDBRANCH  77  78
ENDBRANCH  76  77
ENDBRANCH   1  76
TORSDOF 21
