REMARK SMILES COc1ccc2[nH]c(C(=O)c3cc(C)ccn3)c(CC(=O)OCCOCCOC(=O)c3ccc(-c4c5nc(c(-c6c(F)cc(S(=O)(=O)[O-])cc6F)c6ccc([nH]6)c(-c6c(F)cc(S(=O)(=O)[O-])cc6F)c6nc(c(-c7c(F)cc(S(=O)(=O)[O-])cc7F)c7ccc4[nH]7)C=C6)C=C5)cc3)c2c1
REMARK SMILES IDX 25 1 24 2 23 3 22 4 20 5 21 6 19 7 18 8 3 9 4 10 98 11 5 12
REMARK SMILES IDX 97 13 6 14 7 15 8 16 2 18 1 19 9 20 10 21 11 22 12 23 17 24
REMARK SMILES IDX 13 25 16 26 14 27 15 28 26 29 27 30 28 31 29 32 30 33 31 34
REMARK SMILES IDX 32 35 96 36 33 37 95 38 34 39 35 40 36 41 89 42 37 43 94 44
REMARK SMILES IDX 88 45 90 46 38 47 93 48 87 49 86 50 39 52 73 53 52 54 72 55
REMARK SMILES IDX 53 56 56 57 71 58 91 59 54 60 55 61 70 63 92 64 57 65 40 66
REMARK SMILES IDX 41 67 50 68 42 69 43 70 49 71 51 72 44 73 45 74 46 75 47 76
REMARK SMILES IDX 48 77 74 78 75 79 84 80 76 81 77 82 83 83 85 84 78 85 79 86
REMARK SMILES IDX 80 87 81 88 82 89 58 90 59 91 68 92 60 93 61 94 67 95 69 96
REMARK SMILES IDX 62 97 63 98 64 99 65 100 66 101
REMARK H PARENT 7 17 90 51 56 62
REMARK Flexibility Score: inf
ROOT
ATOM      1  O   UNL     1      -4.120   8.623   2.058  1.00  0.00    -0.374 OA
ENDROOT
BRANCH   1   2
ATOM      2  C   UNL     1      -4.161   7.349   2.701  1.00  0.00     0.202 C 
BRANCH   2   3
ATOM      3  C   UNL     1      -4.107   6.101   1.806  1.00  0.00     0.261 C 
BRANCH   3   4
ATOM      4  O   UNL     1      -2.973   6.066   0.910  1.00  0.00    -0.463 OA
BRANCH   4   5
ATOM      5  C   UNL     1      -3.263   5.723  -0.377  1.00  0.00     0.310 C 
ATOM      6  O   UNL     1      -4.377   5.361  -0.755  1.00  0.00    -0.252 OA
BRANCH   5   7
ATOM      7  C   UNL     1      -2.142   5.928  -1.377  1.00  0.00     0.161 C 
BRANCH   7   8
ATOM      8  C   UNL     1      -0.722   5.916  -0.877  1.00  0.00     0.000 A 
ATOM      9  C   UNL     1       0.749   2.398  -0.469  1.00  0.00     0.119 A 
ATOM     10  C   UNL     1       2.023   2.817  -0.091  1.00  0.00     0.048 A 
ATOM     11  C   UNL     1      -0.255   3.342  -0.722  1.00  0.00     0.057 A 
ATOM     12  C   UNL     1       2.320   4.179   0.058  1.00  0.00     0.030 A 
ATOM     13  C   UNL     1       0.027   4.720  -0.610  1.00  0.00     0.008 A 
ATOM     14  C   UNL     1       1.306   5.103  -0.223  1.00  0.00     0.046 A 
ATOM     15  N   UNL     1       1.323   6.476  -0.206  1.00  0.00    -0.352 N 
ATOM     16  C   UNL     1       0.170   6.992  -0.767  1.00  0.00     0.093 A 
ATOM     17  H   UNL     1       2.059   7.021   0.156  1.00  0.00     0.167 HD
BRANCH   9  18
ATOM     18  O   UNL     1       0.388   1.097  -0.702  1.00  0.00    -0.497 OA
ATOM     19  C   UNL     1       1.046   0.124   0.102  1.00  0.00     0.278 C 
ENDBRANCH   9  18
BRANCH  16  20
ATOM     20  C   UNL     1      -0.017   8.392  -1.155  1.00  0.00     0.227 C 
ATOM     21  O   UNL     1      -0.986   8.791  -1.799  1.00  0.00    -0.285 OA
BRANCH  20  22
ATOM     22  C   UNL     1       0.992   9.415  -0.742  1.00  0.00     0.113 A 
ATOM     23  C   UNL     1       2.244   9.486  -1.337  1.00  0.00     0.036 A 
ATOM     24  N   UNL     1       0.590  10.248   0.250  1.00  0.00    -0.253 NA
ATOM     25  C   UNL     1       3.139  10.453  -0.864  1.00  0.00    -0.047 A 
ATOM     26  C   UNL     1       1.472  11.154   0.705  1.00  0.00     0.112 A 
ATOM     27  C   UNL     1       4.503  10.624  -1.461  1.00  0.00     0.044 C 
ATOM     28  C   UNL     1       2.745  11.291   0.186  1.00  0.00     0.023 A 
ENDBRANCH  20  22
ENDBRANCH  16  20
ENDBRANCH   7   8
ENDBRANCH   5   7
ENDBRANCH   4   5
ENDBRANCH   3   4
ENDBRANCH   2   3
ENDBRANCH   1   2
BRANCH   1  29
ATOM     29  C   UNL     1      -2.958   8.925   1.293  1.00  0.00     0.202 C 
BRANCH  29  30
ATOM     30  C   UNL     1      -1.631   9.031   2.046  1.00  0.00     0.261 C 
BRANCH  30  31
ATOM     31  O   UNL     1      -1.401   8.024   3.030  1.00  0.00    -0.460 OA
BRANCH  31  32
ATOM     32  C   UNL     1      -0.903   8.489   4.192  1.00  0.00     0.338 C 
ATOM     33  O   UNL     1      -0.561   9.633   4.468  1.00  0.00    -0.246 OA
BRANCH  32  34
ATOM     34  C   UNL     1      -0.894   7.402   5.168  1.00  0.00     0.060 A 
ATOM     35  C   UNL     1      -1.853   7.424   6.183  1.00  0.00     0.016 A 
ATOM     36  C   UNL     1       0.123   6.443   5.145  1.00  0.00     0.016 A 
ATOM     37  C   UNL     1      -1.754   6.516   7.229  1.00  0.00     0.010 A 
ATOM     38  C   UNL     1       0.214   5.527   6.193  1.00  0.00     0.010 A 
ATOM     39  C   UNL     1      -0.696   5.593   7.261  1.00  0.00    -0.014 A 
BRANCH  39  40
ATOM     40  C   UNL     1      -0.487   4.802   8.493  1.00  0.00     0.031 A 
ATOM     41  C   UNL     1       0.539   5.260   9.492  1.00  0.00     0.074 A 
ATOM     42  C   UNL     1      -1.270   3.738   8.743  1.00  0.00     0.049 A 
ATOM     43  N   UNL     1       0.792   4.798  10.688  1.00  0.00    -0.248 NA
ATOM     44  C   UNL     1       1.394   6.390   9.092  1.00  0.00     0.031 C 
ATOM     45  C   UNL     1      -2.290   3.214   7.835  1.00  0.00     0.029 A 
ATOM     46  N   UNL     1      -1.341   2.920   9.839  1.00  0.00    -0.354 N 
ATOM     47  C   UNL     1       1.826   5.582  11.187  1.00  0.00     0.074 A 
ATOM     48  C   UNL     1       2.183   6.523  10.148  1.00  0.00     0.031 C 
ATOM     49  C   UNL     1      -2.899   2.169   8.419  1.00  0.00     0.029 A 
ATOM     50  C   UNL     1      -2.305   1.947   9.736  1.00  0.00     0.049 A 
ATOM     51  H   UNL     1      -0.757   3.020  10.625  1.00  0.00     0.167 HD
ATOM     52  C   UNL     1       2.411   5.529  12.407  1.00  0.00     0.037 A 
ATOM     53  C   UNL     1      -2.671   0.992  10.612  1.00  0.00     0.037 A 
ATOM     54  C   UNL     1       2.041   4.587  13.430  1.00  0.00     0.049 A 
ATOM     55  C   UNL     1      -2.007   0.954  11.962  1.00  0.00     0.074 A 
ATOM     56  C   UNL     1       2.552   4.455  14.709  1.00  0.00     0.029 A 
ATOM     57  N   UNL     1       1.066   3.609  13.286  1.00  0.00    -0.354 N 
ATOM     58  N   UNL     1      -1.063   1.732  12.438  1.00  0.00    -0.248 NA
ATOM     59  C   UNL     1      -2.469  -0.077  12.900  1.00  0.00     0.031 C 
ATOM     60  C   UNL     1       1.913   3.373  15.324  1.00  0.00     0.029 A 
ATOM     61  C   UNL     1       0.972   2.859  14.445  1.00  0.00     0.049 A 
ATOM     62  H   UNL     1       0.522   3.470  12.477  1.00  0.00     0.167 HD
ATOM     63  C   UNL     1      -0.833   1.300  13.739  1.00  0.00     0.074 A 
ATOM     64  C   UNL     1      -1.747   0.200  13.978  1.00  0.00     0.031 C 
ATOM     65  C   UNL     1       0.052   1.768  14.655  1.00  0.00     0.037 A 
BRANCH  52  66
ATOM     66  C   UNL     1       3.520   6.505  12.689  1.00  0.00     0.058 A 
ATOM     67  C   UNL     1       3.270   7.873  12.885  1.00  0.00     0.135 A 
ATOM     68  C   UNL     1       4.851   6.066  12.781  1.00  0.00     0.135 A 
ATOM     69  F   UNL     1       2.019   8.351  12.790  1.00  0.00    -0.206 F 
ATOM     70  C   UNL     1       4.301   8.774  13.134  1.00  0.00     0.059 A 
ATOM     71  C   UNL     1       5.895   6.945  13.052  1.00  0.00     0.059 A 
ATOM     72  F   UNL     1       5.148   4.769  12.598  1.00  0.00    -0.206 F 
ATOM     73  C   UNL     1       5.612   8.301  13.211  1.00  0.00     0.060 A 
BRANCH  73  74
ATOM     74  S   UNL     1       6.942   9.481  13.526  1.00  0.00     0.124 S 
ATOM     75  O   UNL     1       7.051  10.148  12.232  1.00  0.00    -0.237 OA
ATOM     76  O   UNL     1       6.395  10.290  14.611  1.00  0.00    -0.237 OA
ATOM     77  O   UNL     1       8.071   8.631  13.891  1.00  0.00    -0.744 OA
ENDBRANCH  73  74
ENDBRANCH  52  66
BRANCH  53  78
ATOM     78  C   UNL     1      -3.734   0.022  10.242  1.00  0.00     0.058 A 
ATOM     79  C   UNL     1      -5.006   0.073  10.829  1.00  0.00     0.135 A 
ATOM     80  C   UNL     1      -3.504  -0.958   9.263  1.00  0.00     0.135 A 
ATOM     81  F   UNL     1      -5.273   0.990  11.772  1.00  0.00    -0.206 F 
ATOM     82  C   UNL     1      -6.012  -0.818  10.467  1.00  0.00     0.059 A 
ATOM     83  C   UNL     1      -4.500  -1.845   8.867  1.00  0.00     0.059 A 
ATOM     84  F   UNL     1      -2.308  -1.037   8.660  1.00  0.00    -0.206 F 
ATOM     85  C   UNL     1      -5.749  -1.772   9.481  1.00  0.00     0.060 A 
BRANCH  85  86
ATOM     86  S   UNL     1      -7.077  -2.885   8.972  1.00  0.00     0.124 S 
ATOM     87  O   UNL     1      -7.127  -3.815  10.095  1.00  0.00    -0.237 OA
ATOM     88  O   UNL     1      -8.211  -1.975   8.845  1.00  0.00    -0.237 OA
ATOM     89  O   UNL     1      -6.584  -3.439   7.714  1.00  0.00    -0.744 OA
ENDBRANCH  85  86
ENDBRANCH  53  78
BRANCH  65  90
ATOM     90  C   UNL     1       0.054   1.106  16.004  1.00  0.00     0.058 A 
ATOM     91  C   UNL     1       0.594  -0.175  16.194  1.00  0.00     0.135 A 
ATOM     92  C   UNL     1      -0.457   1.779  17.125  1.00  0.00     0.135 A 
ATOM     93  F   UNL     1       1.093  -0.859  15.152  1.00  0.00    -0.206 F 
ATOM     94  C   UNL     1       0.600  -0.780  17.445  1.00  0.00     0.059 A 
ATOM     95  C   UNL     1      -0.440   1.202  18.391  1.00  0.00     0.059 A 
ATOM     96  F   UNL     1      -0.973   3.012  16.998  1.00  0.00    -0.206 F 
ATOM     97  C   UNL     1       0.077  -0.085  18.538  1.00  0.00     0.060 A 
BRANCH  97  98
ATOM     98  S   UNL     1       0.102  -0.874  20.161  1.00  0.00     0.124 S 
ATOM     99  O   UNL     1      -1.009  -1.812  20.047  1.00  0.00    -0.237 OA
ATOM    100  O   UNL     1       1.434  -1.469  20.201  1.00  0.00    -0.237 OA
ATOM    101  O   UNL     1      -0.107   0.240  21.081  1.00  0.00    -0.744 OA
ENDBRANCH  97  98
ENDBRANCH  65  90
ENDBRANCH  39  40
ENDBRANCH  32  34
ENDBRANCH  31  32
ENDBRANCH  30  31
ENDBRANCH  29  30
ENDBRANCH   1  29
TORSDOF 21
