REMARK SMILES C=CCN1C(=O)/C(=C/c2ccc(OCc3cccc(C(=O)OCCOCCOC(=O)c4ccc(-c5c6nc(c(-c7c(F)cc(S(=O)(=O)[O-])cc7F)c7ccc([nH]7)c(-c7c(F)cc(S(=O)(=O)[O-])cc7F)c7nc(c(-c8c(F)cc(S(=O)(=O)[O-])cc8F)c8ccc5[nH]8)C=C7)C=C6)cc4)c3)cc2)C(=O)NC1=S
REMARK SMILES IDX 23 1 22 2 20 3 21 4 19 5 15 6 16 7 97 8 17 9 18 10 14 11
REMARK SMILES IDX 13 12 12 13 9 14 10 15 99 16 11 17 98 18 8 19 4 20 5 21
REMARK SMILES IDX 103 22 6 23 7 24 102 25 104 26 100 27 101 29 3 30 2 31 1 32
REMARK SMILES IDX 24 33 25 34 26 35 27 36 28 37 29 38 30 39 31 40 32 41 96 42
REMARK SMILES IDX 33 43 95 44 34 45 35 46 36 47 89 48 37 49 94 50 88 51 90 52
REMARK SMILES IDX 38 53 93 54 87 55 86 56 39 58 73 59 52 60 72 61 53 62 56 63
REMARK SMILES IDX 71 64 91 65 54 66 55 67 70 69 92 70 57 71 40 72 41 73 50 74
REMARK SMILES IDX 42 75 43 76 49 77 51 78 44 79 45 80 46 81 47 82 48 83 74 84
REMARK SMILES IDX 75 85 84 86 76 87 77 88 83 89 85 90 78 91 79 92 80 93 81 94
REMARK SMILES IDX 82 95 58 96 59 97 68 98 60 99 61 100 67 101 69 102 62 103
REMARK SMILES IDX 63 104 64 105 65 106 66 107
REMARK H PARENT 102 28 90 57 56 68
REMARK Flexibility Score: inf
ROOT
ATOM      1  C   UNL     1     -10.356  -4.010   7.349  1.00  0.00     0.261 C 
ENDROOT
BRANCH   1   2
ATOM      2  O   UNL     1     -10.049  -2.607   7.372  1.00  0.00    -0.460 OA
BRANCH   2   3
ATOM      3  C   UNL     1      -9.225  -2.237   8.380  1.00  0.00     0.338 C 
ATOM      4  O   UNL     1      -8.855  -2.936   9.312  1.00  0.00    -0.246 OA
BRANCH   3   5
ATOM      5  C   UNL     1      -8.656  -0.890   8.135  1.00  0.00     0.060 A 
ATOM      6  C   UNL     1      -8.746   1.413   7.359  1.00  0.00    -0.010 A 
ATOM      7  C   UNL     1      -7.463   1.602   7.907  1.00  0.00     0.007 A 
ATOM      8  C   UNL     1      -9.338   0.142   7.470  1.00  0.00     0.023 A 
ATOM      9  C   UNL     1      -6.756   0.557   8.493  1.00  0.00     0.001 A 
ATOM     10  C   UNL     1      -7.355  -0.686   8.614  1.00  0.00     0.016 A 
BRANCH   6  11
ATOM     11  C   UNL     1      -9.468   2.575   6.693  1.00  0.00     0.265 C 
BRANCH  11  12
ATOM     12  O   UNL     1      -9.332   2.641   5.267  1.00  0.00    -0.489 OA
BRANCH  12  13
ATOM     13  C   UNL     1      -8.119   2.975   4.734  1.00  0.00     0.119 A 
ATOM     14  C   UNL     1      -5.588   3.198   3.554  1.00  0.00    -0.024 A 
ATOM     15  C   UNL     1      -6.666   2.699   2.815  1.00  0.00     0.012 A 
ATOM     16  C   UNL     1      -5.810   3.704   4.832  1.00  0.00     0.012 A 
ATOM     17  C   UNL     1      -7.925   2.584   3.409  1.00  0.00     0.047 A 
ATOM     18  C   UNL     1      -7.085   3.630   5.400  1.00  0.00     0.047 A 
BRANCH  14  19
ATOM     19  C   UNL     1      -4.240   3.141   2.991  1.00  0.00     0.027 C 
ATOM     20  N   UNL     1      -1.789   0.869   1.833  1.00  0.00    -0.281 N 
ATOM     21  C   UNL     1      -2.193   2.130   2.272  1.00  0.00     0.265 C 
ATOM     22  C   UNL     1      -2.098  -0.303   2.517  1.00  0.00     0.183 C 
ATOM     23  O   UNL     1      -1.665   3.184   1.924  1.00  0.00    -0.268 OA
ATOM     24  C   UNL     1      -3.378   2.119   3.159  1.00  0.00     0.106 C 
ATOM     25  N   UNL     1      -2.926  -0.176   3.603  1.00  0.00    -0.298 N 
ATOM     26  S   UNL     1      -1.563  -1.853   2.169  1.00  0.00    -0.040 S 
ATOM     27  C   UNL     1      -3.607   0.938   4.013  1.00  0.00     0.263 C 
ATOM     28  H   UNL     1      -3.046  -0.984   4.154  1.00  0.00     0.172 HD
ATOM     29  O   UNL     1      -4.315   0.916   5.010  1.00  0.00    -0.269 OA
BRANCH  20  30
ATOM     30  C   UNL     1      -1.049   0.868   0.569  1.00  0.00     0.155 C 
BRANCH  30  31
ATOM     31  C   UNL     1       0.433   0.853   0.797  1.00  0.00    -0.013 C 
ATOM     32  C   UNL     1       1.256  -0.046   0.239  1.00  0.00     0.006 C 
ENDBRANCH  30  31
ENDBRANCH  20  30
ENDBRANCH  14  19
ENDBRANCH  12  13
ENDBRANCH  11  12
ENDBRANCH   6  11
ENDBRANCH   3   5
ENDBRANCH   2   3
ENDBRANCH   1   2
BRANCH   1  33
ATOM     33  C   UNL     1      -9.679  -4.720   6.173  1.00  0.00     0.202 C 
BRANCH  33  34
ATOM     34  O   UNL     1      -8.254  -4.667   6.103  1.00  0.00    -0.374 OA
BRANCH  34  35
ATOM     35  C   UNL     1      -7.661  -3.462   5.617  1.00  0.00     0.202 C 
BRANCH  35  36
ATOM     36  C   UNL     1      -7.737  -3.185   4.110  1.00  0.00     0.261 C 
BRANCH  36  37
ATOM     37  O   UNL     1      -9.081  -2.958   3.651  1.00  0.00    -0.460 OA
BRANCH  37  38
ATOM     38  C   UNL     1      -9.607  -3.958   2.904  1.00  0.00     0.338 C 
ATOM     39  O   UNL     1      -9.047  -4.984   2.541  1.00  0.00    -0.246 OA
BRANCH  38  40
ATOM     40  C   UNL     1     -11.054  -3.736   2.732  1.00  0.00     0.060 A 
ATOM     41  C   UNL     1     -11.929  -4.746   3.154  1.00  0.00     0.016 A 
ATOM     42  C   UNL     1     -11.544  -2.580   2.123  1.00  0.00     0.016 A 
ATOM     43  C   UNL     1     -13.299  -4.617   2.938  1.00  0.00     0.010 A 
ATOM     44  C   UNL     1     -12.919  -2.458   1.898  1.00  0.00     0.010 A 
ATOM     45  C   UNL     1     -13.800  -3.487   2.280  1.00  0.00    -0.014 A 
BRANCH  45  46
ATOM     46  C   UNL     1     -15.229  -3.429   1.886  1.00  0.00     0.031 A 
ATOM     47  C   UNL     1     -15.604  -3.689   0.453  1.00  0.00     0.074 A 
ATOM     48  C   UNL     1     -16.178  -3.150   2.797  1.00  0.00     0.049 A 
ATOM     49  N   UNL     1     -16.777  -3.627  -0.120  1.00  0.00    -0.248 NA
ATOM     50  C   UNL     1     -14.509  -4.064  -0.455  1.00  0.00     0.031 C 
ATOM     51  C   UNL     1     -15.938  -2.913   4.220  1.00  0.00     0.029 A 
ATOM     52  N   UNL     1     -17.536  -3.007   2.657  1.00  0.00    -0.354 N 
ATOM     53  C   UNL     1     -16.563  -3.943  -1.457  1.00  0.00     0.074 A 
ATOM     54  C   UNL     1     -15.142  -4.166  -1.615  1.00  0.00     0.031 C 
ATOM     55  C   UNL     1     -17.109  -2.641   4.820  1.00  0.00     0.029 A 
ATOM     56  C   UNL     1     -18.175  -2.648   3.819  1.00  0.00     0.049 A 
ATOM     57  H   UNL     1     -18.007  -3.148   1.804  1.00  0.00     0.167 HD
ATOM     58  C   UNL     1     -17.470  -4.045  -2.458  1.00  0.00     0.037 A 
ATOM     59  C   UNL     1     -19.466  -2.336   4.045  1.00  0.00     0.037 A 
ATOM     60  C   UNL     1     -18.883  -3.819  -2.289  1.00  0.00     0.049 A 
ATOM     61  C   UNL     1     -20.448  -2.394   2.903  1.00  0.00     0.074 A 
ATOM     62  C   UNL     1     -19.888  -3.918  -3.236  1.00  0.00     0.029 A 
ATOM     63  N   UNL     1     -19.490  -3.441  -1.101  1.00  0.00    -0.354 N 
ATOM     64  N   UNL     1     -20.237  -2.717   1.648  1.00  0.00    -0.248 NA
ATOM     65  C   UNL     1     -21.844  -2.049   3.206  1.00  0.00     0.031 C 
ATOM     66  C   UNL     1     -21.093  -3.544  -2.634  1.00  0.00     0.029 A 
ATOM     67  C   UNL     1     -20.852  -3.276  -1.295  1.00  0.00     0.049 A 
ATOM     68  H   UNL     1     -19.022  -3.309  -0.244  1.00  0.00     0.167 HD
ATOM     69  C   UNL     1     -21.478  -2.650   1.022  1.00  0.00     0.074 A 
ATOM     70  C   UNL     1     -22.435  -2.258   2.037  1.00  0.00     0.031 C 
ATOM     71  C   UNL     1     -21.797  -2.897  -0.273  1.00  0.00     0.037 A 
BRANCH  58  72
ATOM     72  C   UNL     1     -16.959  -4.386  -3.832  1.00  0.00     0.058 A 
ATOM     73  C   UNL     1     -16.455  -5.659  -4.142  1.00  0.00     0.135 A 
ATOM     74  C   UNL     1     -17.003  -3.433  -4.863  1.00  0.00     0.135 A 
ATOM     75  F   UNL     1     -16.374  -6.605  -3.192  1.00  0.00    -0.206 F 
ATOM     76  C   UNL     1     -15.985  -5.966  -5.415  1.00  0.00     0.059 A 
ATOM     77  C   UNL     1     -16.567  -3.727  -6.152  1.00  0.00     0.059 A 
ATOM     78  F   UNL     1     -17.474  -2.199  -4.623  1.00  0.00    -0.206 F 
ATOM     79  C   UNL     1     -16.045  -4.992  -6.414  1.00  0.00     0.060 A 
BRANCH  79  80
ATOM     80  S   UNL     1     -15.430  -5.405  -8.060  1.00  0.00     0.124 S 
ATOM     81  O   UNL     1     -13.989  -5.452  -7.829  1.00  0.00    -0.237 OA
ATOM     82  O   UNL     1     -16.072  -6.690  -8.319  1.00  0.00    -0.237 OA
ATOM     83  O   UNL     1     -15.896  -4.296  -8.886  1.00  0.00    -0.744 OA
ENDBRANCH  79  80
ENDBRANCH  58  72
BRANCH  59  84
ATOM     84  C   UNL     1     -19.905  -1.936   5.409  1.00  0.00     0.058 A 
ATOM     85  C   UNL     1     -20.741  -2.763   6.173  1.00  0.00     0.135 A 
ATOM     86  C   UNL     1     -19.486  -0.724   5.980  1.00  0.00     0.135 A 
ATOM     87  F   UNL     1     -21.177  -3.927   5.668  1.00  0.00    -0.206 F 
ATOM     88  C   UNL     1     -21.156  -2.398   7.450  1.00  0.00     0.059 A 
ATOM     89  C   UNL     1     -19.866  -0.350   7.265  1.00  0.00     0.059 A 
ATOM     90  F   UNL     1     -18.677   0.099   5.295  1.00  0.00    -0.206 F 
ATOM     91  C   UNL     1     -20.708  -1.191   7.990  1.00  0.00     0.060 A 
BRANCH  91  92
ATOM     92  S   UNL     1     -21.209  -0.755   9.669  1.00  0.00     0.124 S 
ATOM     93  O   UNL     1     -22.619  -0.437   9.483  1.00  0.00    -0.237 OA
ATOM     94  O   UNL     1     -20.922  -1.985  10.401  1.00  0.00    -0.237 OA
ATOM     95  O   UNL     1     -20.343   0.375   9.995  1.00  0.00    -0.744 OA
ENDBRANCH  91  92
ENDBRANCH  59  84
BRANCH  71  96
ATOM     96  C   UNL     1     -23.247  -2.804  -0.667  1.00  0.00     0.058 A 
ATOM     97  C   UNL     1     -23.915  -1.573  -0.766  1.00  0.00     0.135 A 
ATOM     98  C   UNL     1     -23.960  -3.964  -1.014  1.00  0.00     0.135 A 
ATOM     99  F   UNL     1     -23.284  -0.434  -0.441  1.00  0.00    -0.206 F 
ATOM    100  C   UNL     1     -25.243  -1.498  -1.174  1.00  0.00     0.059 A 
ATOM    101  C   UNL     1     -25.279  -3.909  -1.454  1.00  0.00     0.059 A 
ATOM    102  F   UNL     1     -23.368  -5.167  -0.948  1.00  0.00    -0.206 F 
ATOM    103  C   UNL     1     -25.916  -2.671  -1.521  1.00  0.00     0.060 A 
BRANCH 103 104
ATOM    104  S   UNL     1     -27.625  -2.554  -2.090  1.00  0.00     0.124 S 
ATOM    105  O   UNL     1     -28.327  -2.239  -0.850  1.00  0.00    -0.237 OA
ATOM    106  O   UNL     1     -27.554  -1.475  -3.070  1.00  0.00    -0.237 OA
ATOM    107  O   UNL     1     -27.892  -3.879  -2.643  1.00  0.00    -0.744 OA
ENDBRANCH 103 104
ENDBRANCH  71  96
ENDBRANCH  45  46
ENDBRANCH  38  40
ENDBRANCH  37  38
ENDBRANCH  36  37
ENDBRANCH  35  36
ENDBRANCH  34  35
ENDBRANCH  33  34
ENDBRANCH   1  33
TORSDOF 23
