REMARK SMILES CC(C)c1ccc(NC(=O)C[C@H]2SC[C@@H](C(=O)OCCOCCOC(=O)c3ccc(-c4c5nc(c(-c6c(F)cc(S(=O)(=O)[O-])cc6F)c6ccc([nH]6)c(-c6c(F)cc(S(=O)(=O)[O-])cc6F)c6nc(c(-c7c(F)cc(S(=O)(=O)[O-])cc7F)c7ccc4[nH]7)C=C6)C=C5)cc3)NC2=O)cc1
REMARK SMILES IDX 20 1 19 2 18 3 16 4 17 5 15 6 12 7 13 8 94 9 14 10 93 11
REMARK SMILES IDX 95 12 11 14 9 15 8 16 10 18 7 19 4 20 5 21 97 22 6 23 96 24
REMARK SMILES IDX 2 25 1 26 3 27 21 28 22 29 23 30 24 31 25 32 26 33 27 34
REMARK SMILES IDX 28 35 92 36 29 37 91 38 30 39 31 40 32 41 85 42 33 43 90 44
REMARK SMILES IDX 84 45 86 46 34 47 89 48 83 49 82 50 35 52 69 53 48 54 68 55
REMARK SMILES IDX 49 56 52 57 67 58 87 59 50 60 51 61 66 63 88 64 53 65 36 66
REMARK SMILES IDX 37 67 46 68 38 69 39 70 45 71 47 72 40 73 41 74 42 75 43 76
REMARK SMILES IDX 44 77 70 78 71 79 80 80 72 81 73 82 79 83 81 84 74 85 75 86
REMARK SMILES IDX 76 87 77 88 78 89 54 90 55 91 64 92 56 93 57 94 63 95 65 96
REMARK SMILES IDX 58 97 59 98 60 99 61 100 62 101
REMARK H PARENT 93 13 8 17 86 51 52 62
REMARK Flexibility Score: inf
ROOT
ATOM      1  C   UNL     1       1.254   1.156   3.289  1.00  0.00     0.202 C 
ENDROOT
BRANCH   1   2
ATOM      2  C   UNL     1       0.990  -0.108   2.462  1.00  0.00     0.261 C 
BRANCH   2   3
ATOM      3  O   UNL     1       0.383   0.123   1.181  1.00  0.00    -0.462 OA
BRANCH   3   4
ATOM      4  C   UNL     1      -0.965  -0.028   1.230  1.00  0.00     0.329 C 
ATOM      5  O   UNL     1      -1.587  -0.189   2.275  1.00  0.00    -0.250 OA
BRANCH   4   6
ATOM      6  C   UNL     1      -1.637   0.077  -0.152  1.00  0.00     0.202 C 
ATOM      7  C   UNL     1      -4.390   0.760   0.991  1.00  0.00     0.145 C 
ATOM      8  S   UNL     1      -3.372   2.224   0.454  1.00  0.00    -0.145 SA
ATOM      9  C   UNL     1      -3.730  -0.620   0.838  1.00  0.00     0.234 C 
ATOM     10  C   UNL     1      -2.063   1.471  -0.563  1.00  0.00     0.107 C 
ATOM     11  N   UNL     1      -2.765  -0.829  -0.111  1.00  0.00    -0.341 N 
ATOM     12  O   UNL     1      -4.033  -1.629   1.465  1.00  0.00    -0.274 OA
ATOM     13  H   UNL     1      -2.836  -1.577  -0.747  1.00  0.00     0.164 HD
BRANCH   7  14
ATOM     14  C   UNL     1      -5.038   1.145   2.342  1.00  0.00     0.124 C 
BRANCH  14  15
ATOM     15  C   UNL     1      -5.272   0.147   3.466  1.00  0.00     0.226 C 
ATOM     16  N   UNL     1      -6.030  -0.979   3.353  1.00  0.00    -0.326 N 
ATOM     17  H   UNL     1      -6.173  -1.470   4.194  1.00  0.00     0.169 HD
ATOM     18  O   UNL     1      -4.806   0.389   4.588  1.00  0.00    -0.275 OA
BRANCH  16  19
ATOM     19  C   UNL     1      -6.637  -1.547   2.227  1.00  0.00     0.041 A 
ATOM     20  C   UNL     1      -7.133  -2.736  -0.283  1.00  0.00    -0.045 A 
ATOM     21  C   UNL     1      -7.459  -1.392  -0.033  1.00  0.00     0.006 A 
ATOM     22  C   UNL     1      -6.714  -3.507   0.814  1.00  0.00     0.006 A 
ATOM     23  C   UNL     1      -7.216  -0.802   1.211  1.00  0.00     0.026 A 
ATOM     24  C   UNL     1      -6.492  -2.926   2.065  1.00  0.00     0.026 A 
BRANCH  20  25
ATOM     25  C   UNL     1      -7.257  -3.351  -1.675  1.00  0.00     0.013 C 
ATOM     26  C   UNL     1      -7.221  -2.322  -2.818  1.00  0.00     0.012 C 
ATOM     27  C   UNL     1      -6.175  -4.403  -1.984  1.00  0.00     0.012 C 
ENDBRANCH  20  25
ENDBRANCH  16  19
ENDBRANCH  14  15
ENDBRANCH   7  14
ENDBRANCH   4   6
ENDBRANCH   3   4
ENDBRANCH   2   3
ENDBRANCH   1   2
BRANCH   1  28
ATOM     28  O   UNL     1       0.200   2.060   3.595  1.00  0.00    -0.374 OA
BRANCH  28  29
ATOM     29  C   UNL     1      -0.384   2.836   2.556  1.00  0.00     0.202 C 
BRANCH  29  30
ATOM     30  C   UNL     1       0.444   3.916   1.852  1.00  0.00     0.261 C 
BRANCH  30  31
ATOM     31  O   UNL     1       1.631   3.392   1.236  1.00  0.00    -0.460 OA
BRANCH  31  32
ATOM     32  C   UNL     1       2.780   3.780   1.839  1.00  0.00     0.338 C 
ATOM     33  O   UNL     1       2.896   4.580   2.761  1.00  0.00    -0.246 OA
BRANCH  32  34
ATOM     34  C   UNL     1       3.895   2.932   1.391  1.00  0.00     0.060 A 
ATOM     35  C   UNL     1       4.614   2.243   2.379  1.00  0.00     0.016 A 
ATOM     36  C   UNL     1       4.274   2.861   0.050  1.00  0.00     0.016 A 
ATOM     37  C   UNL     1       5.749   1.521   2.038  1.00  0.00     0.010 A 
ATOM     38  C   UNL     1       5.431   2.153  -0.288  1.00  0.00     0.010 A 
ATOM     39  C   UNL     1       6.192   1.518   0.711  1.00  0.00    -0.014 A 
BRANCH  39  40
ATOM     40  C   UNL     1       7.552   1.014   0.417  1.00  0.00     0.031 A 
ATOM     41  C   UNL     1       8.671   2.010   0.288  1.00  0.00     0.074 A 
ATOM     42  C   UNL     1       7.788  -0.306   0.319  1.00  0.00     0.049 A 
ATOM     43  N   UNL     1       9.932   1.807   0.012  1.00  0.00    -0.248 NA
ATOM     44  C   UNL     1       8.321   3.426   0.494  1.00  0.00     0.031 C 
ATOM     45  C   UNL     1       6.783  -1.357   0.472  1.00  0.00     0.029 A 
ATOM     46  N   UNL     1       8.950  -0.985   0.060  1.00  0.00    -0.354 N 
ATOM     47  C   UNL     1      10.521   3.066  -0.006  1.00  0.00     0.074 A 
ATOM     48  C   UNL     1       9.479   4.029   0.267  1.00  0.00     0.031 C 
ATOM     49  C   UNL     1       7.370  -2.551   0.282  1.00  0.00     0.029 A 
ATOM     50  C   UNL     1       8.782  -2.346  -0.034  1.00  0.00     0.049 A 
ATOM     51  H   UNL     1       9.822  -0.541  -0.048  1.00  0.00     0.167 HD
ATOM     52  C   UNL     1      11.818   3.385  -0.227  1.00  0.00     0.037 A 
ATOM     53  C   UNL     1       9.665  -3.308  -0.366  1.00  0.00     0.037 A 
ATOM     54  C   UNL     1      12.848   2.413  -0.479  1.00  0.00     0.049 A 
ATOM     55  C   UNL     1      11.094  -2.923  -0.649  1.00  0.00     0.074 A 
ATOM     56  C   UNL     1      14.201   2.626  -0.674  1.00  0.00     0.029 A 
ATOM     57  N   UNL     1      12.639   1.045  -0.580  1.00  0.00    -0.354 N 
ATOM     58  N   UNL     1      11.647  -1.733  -0.627  1.00  0.00    -0.248 NA
ATOM     59  C   UNL     1      12.021  -4.009  -0.996  1.00  0.00     0.031 C 
ATOM     60  C   UNL     1      14.800   1.394  -0.951  1.00  0.00     0.029 A 
ATOM     61  C   UNL     1      13.832   0.405  -0.867  1.00  0.00     0.049 A 
ATOM     62  H   UNL     1      11.771   0.596  -0.464  1.00  0.00     0.167 HD
ATOM     63  C   UNL     1      12.991  -1.931  -0.930  1.00  0.00     0.074 A 
ATOM     64  C   UNL     1      13.169  -3.356  -1.118  1.00  0.00     0.031 C 
ATOM     65  C   UNL     1      13.988  -1.018  -1.042  1.00  0.00     0.037 A 
BRANCH  52  66
ATOM     66  C   UNL     1      12.193   4.840  -0.242  1.00  0.00     0.058 A 
ATOM     67  C   UNL     1      12.238   5.612   0.929  1.00  0.00     0.135 A 
ATOM     68  C   UNL     1      12.566   5.458  -1.448  1.00  0.00     0.135 A 
ATOM     69  F   UNL     1      11.871   5.078   2.105  1.00  0.00    -0.206 F 
ATOM     70  C   UNL     1      12.627   6.948   0.905  1.00  0.00     0.059 A 
ATOM     71  C   UNL     1      12.984   6.784  -1.492  1.00  0.00     0.059 A 
ATOM     72  F   UNL     1      12.533   4.768  -2.599  1.00  0.00    -0.206 F 
ATOM     73  C   UNL     1      13.003   7.524  -0.310  1.00  0.00     0.060 A 
BRANCH  73  74
ATOM     74  S   UNL     1      13.534   9.249  -0.321  1.00  0.00     0.124 S 
ATOM     75  O   UNL     1      12.271   9.944  -0.094  1.00  0.00    -0.237 OA
ATOM     76  O   UNL     1      14.487   9.288   0.784  1.00  0.00    -0.237 OA
ATOM     77  O   UNL     1      14.113   9.419  -1.650  1.00  0.00    -0.744 OA
ENDBRANCH  73  74
ENDBRANCH  52  66
BRANCH  53  78
ATOM     78  C   UNL     1       9.217  -4.723  -0.478  1.00  0.00     0.058 A 
ATOM     79  C   UNL     1       9.659  -5.704   0.420  1.00  0.00     0.135 A 
ATOM     80  C   UNL     1       8.340  -5.121  -1.500  1.00  0.00     0.135 A 
ATOM     81  F   UNL     1      10.505  -5.377   1.409  1.00  0.00    -0.206 F 
ATOM     82  C   UNL     1       9.268  -7.034   0.297  1.00  0.00     0.059 A 
ATOM     83  C   UNL     1       7.912  -6.438  -1.627  1.00  0.00     0.059 A 
ATOM     84  F   UNL     1       7.876  -4.218  -2.379  1.00  0.00    -0.206 F 
ATOM     85  C   UNL     1       8.392  -7.391  -0.730  1.00  0.00     0.060 A 
BRANCH  85  86
ATOM     86  S   UNL     1       7.862  -9.112  -0.863  1.00  0.00     0.124 S 
ATOM     87  O   UNL     1       9.068  -9.752  -1.375  1.00  0.00    -0.237 OA
ATOM     88  O   UNL     1       7.505  -9.429   0.517  1.00  0.00    -0.237 OA
ATOM     89  O   UNL     1       6.738  -9.045  -1.793  1.00  0.00    -0.744 OA
ENDBRANCH  85  86
ENDBRANCH  53  78
BRANCH  65  90
ATOM     90  C   UNL     1      15.369  -1.532  -1.345  1.00  0.00     0.058 A 
ATOM     91  C   UNL     1      15.713  -2.025  -2.612  1.00  0.00     0.135 A 
ATOM     92  C   UNL     1      16.377  -1.473  -0.368  1.00  0.00     0.135 A 
ATOM     93  F   UNL     1      14.787  -2.107  -3.580  1.00  0.00    -0.206 F 
ATOM     94  C   UNL     1      17.002  -2.466  -2.894  1.00  0.00     0.059 A 
ATOM     95  C   UNL     1      17.680  -1.880  -0.636  1.00  0.00     0.059 A 
ATOM     96  F   UNL     1      16.104  -0.997   0.858  1.00  0.00    -0.206 F 
ATOM     97  C   UNL     1      17.979  -2.387  -1.899  1.00  0.00     0.060 A 
BRANCH  97  98
ATOM     98  S   UNL     1      19.655  -2.933  -2.288  1.00  0.00     0.124 S 
ATOM     99  O   UNL     1      19.494  -4.383  -2.314  1.00  0.00    -0.237 OA
ATOM    100  O   UNL     1      19.898  -2.299  -3.580  1.00  0.00    -0.237 OA
ATOM    101  O   UNL     1      20.449  -2.409  -1.181  1.00  0.00    -0.744 OA
ENDBRANCH  97  98
ENDBRANCH  65  90
ENDBRANCH  39  40
ENDBRANCH  32  34
ENDBRANCH  31  32
ENDBRANCH  30  31
ENDBRANCH  29  30
ENDBRANCH  28  29
ENDBRANCH   1  28
TORSDOF 21
