REMARK SMILES C[C@@H](C(=O)OCCOCCOC(=O)c1ccc(-c2c3nc(c(-c4c(F)cc(S(=O)(=O)[O-])cc4F)c4ccc([nH]4)c(-c4c(F)cc(S(=O)(=O)[O-])cc4F)c4nc(c(-c5c(F)cc(S(=O)(=O)[O-])cc5F)c5ccc2[nH]5)C=C4)C=C3)cc1)n1ccc(C(=O)N2CC[NH+](Cc3cccc(F)c3)CC2)n1
REMARK SMILES IDX 7 1 6 2 5 3 3 4 4 5 2 6 1 7 80 8 81 9 100 10 82 11 83 12
REMARK SMILES IDX 84 13 85 14 86 15 87 16 99 17 88 18 98 19 89 20 90 22 91 23
REMARK SMILES IDX 92 24 97 25 93 26 95 27 94 28 96 29 8 30 9 31 10 32 11 33
REMARK SMILES IDX 12 34 13 35 14 36 15 37 79 38 16 39 78 40 17 41 18 42 19 43
REMARK SMILES IDX 72 44 20 45 77 46 71 47 73 48 21 49 76 50 70 51 69 52 22 54
REMARK SMILES IDX 56 55 35 56 55 57 36 58 39 59 54 60 74 61 37 62 38 63 53 65
REMARK SMILES IDX 75 66 40 67 23 68 24 69 33 70 25 71 26 72 32 73 34 74 27 75
REMARK SMILES IDX 28 76 29 77 30 78 31 79 57 80 58 81 67 82 59 83 60 84 66 85
REMARK SMILES IDX 68 86 61 87 62 88 63 89 64 90 65 91 41 92 42 93 51 94 43 95
REMARK SMILES IDX 44 96 50 97 52 98 45 99 46 100 47 101 48 102 49 103
REMARK H PARENT 89 21 73 53 39 64
REMARK Flexibility Score: inf
ROOT
ATOM      1  C   UNL     1       2.006   3.769  -2.716  1.00  0.00     0.202 C 
ENDROOT
BRANCH   1   2
ATOM      2  C   UNL     1       2.130   3.892  -1.195  1.00  0.00     0.261 C 
BRANCH   2   3
ATOM      3  O   UNL     1       1.884   2.618  -0.581  1.00  0.00    -0.462 OA
BRANCH   3   4
ATOM      4  C   UNL     1       1.302   2.662   0.651  1.00  0.00     0.330 C 
ATOM      5  O   UNL     1       1.233   3.676   1.335  1.00  0.00    -0.250 OA
BRANCH   4   6
ATOM      6  C   UNL     1       0.712   1.309   1.042  1.00  0.00     0.213 C 
ATOM      7  C   UNL     1       1.519   0.139   0.474  1.00  0.00     0.046 C 
BRANCH   6   8
ATOM      8  N   UNL     1      -0.717   1.242   0.730  1.00  0.00    -0.258 N 
ATOM      9  C   UNL     1      -1.474   0.144   0.416  1.00  0.00     0.110 A 
ATOM     10  N   UNL     1      -1.465   2.345   0.879  1.00  0.00    -0.167 NA
ATOM     11  C   UNL     1      -2.784   0.567   0.403  1.00  0.00     0.056 A 
ATOM     12  C   UNL     1      -2.737   1.951   0.703  1.00  0.00     0.150 A 
BRANCH  12  13
ATOM     13  C   UNL     1      -3.872   2.861   0.932  1.00  0.00     0.274 C 
ATOM     14  O   UNL     1      -4.949   2.433   1.350  1.00  0.00    -0.267 OA
ATOM     15  N   UNL     1      -3.653   4.227   0.713  1.00  0.00    -0.326 N 
ATOM     16  C   UNL     1      -4.579   5.155   1.340  1.00  0.00     0.181 C 
ATOM     17  C   UNL     1      -2.951   4.687  -0.489  1.00  0.00     0.181 C 
ATOM     18  C   UNL     1      -4.123   6.625   1.308  1.00  0.00     0.284 C 
ATOM     19  C   UNL     1      -2.547   6.171  -0.463  1.00  0.00     0.284 C 
ATOM     20  N   UNL     1      -3.563   7.105   0.040  1.00  0.00    -0.328 N 
ATOM     21  H   UNL     1      -3.075   7.974   0.257  1.00  0.00     0.348 HD
BRANCH  20  22
ATOM     22  C   UNL     1      -4.510   7.634  -0.943  1.00  0.00     0.299 C 
BRANCH  22  23
ATOM     23  C   UNL     1      -5.499   6.672  -1.558  1.00  0.00     0.009 A 
ATOM     24  C   UNL     1      -5.212   6.020  -2.768  1.00  0.00     0.010 A 
ATOM     25  C   UNL     1      -6.714   6.390  -0.918  1.00  0.00     0.048 A 
ATOM     26  C   UNL     1      -6.076   5.047  -3.279  1.00  0.00     0.004 A 
ATOM     27  C   UNL     1      -7.559   5.409  -1.425  1.00  0.00     0.123 A 
ATOM     28  C   UNL     1      -7.245   4.726  -2.592  1.00  0.00     0.039 A 
ATOM     29  F   UNL     1      -8.682   5.101  -0.761  1.00  0.00    -0.207 F 
ENDBRANCH  22  23
ENDBRANCH  20  22
ENDBRANCH  12  13
ENDBRANCH   6   8
ENDBRANCH   4   6
ENDBRANCH   3   4
ENDBRANCH   2   3
ENDBRANCH   1   2
BRANCH   1  30
ATOM     30  O   UNL     1       0.726   3.357  -3.202  1.00  0.00    -0.374 OA
BRANCH  30  31
ATOM     31  C   UNL     1       0.347   1.994  -2.999  1.00  0.00     0.202 C 
BRANCH  31  32
ATOM     32  C   UNL     1       1.063   0.943  -3.858  1.00  0.00     0.261 C 
BRANCH  32  33
ATOM     33  O   UNL     1       2.471   0.844  -3.572  1.00  0.00    -0.460 OA
BRANCH  33  34
ATOM     34  C   UNL     1       3.282   1.156  -4.614  1.00  0.00     0.338 C 
ATOM     35  O   UNL     1       2.935   1.442  -5.754  1.00  0.00    -0.246 OA
BRANCH  34  36
ATOM     36  C   UNL     1       4.683   1.281  -4.172  1.00  0.00     0.060 A 
ATOM     37  C   UNL     1       5.345   2.482  -4.458  1.00  0.00     0.016 A 
ATOM     38  C   UNL     1       5.372   0.216  -3.587  1.00  0.00     0.016 A 
ATOM     39  C   UNL     1       6.710   2.608  -4.203  1.00  0.00     0.010 A 
ATOM     40  C   UNL     1       6.746   0.342  -3.340  1.00  0.00     0.010 A 
ATOM     41  C   UNL     1       7.428   1.526  -3.679  1.00  0.00    -0.014 A 
BRANCH  41  42
ATOM     42  C   UNL     1       8.910   1.594  -3.621  1.00  0.00     0.031 A 
ATOM     43  C   UNL     1       9.717   0.954  -4.719  1.00  0.00     0.074 A 
ATOM     44  C   UNL     1       9.532   2.255  -2.628  1.00  0.00     0.049 A 
ATOM     45  N   UNL     1      11.016   0.885  -4.862  1.00  0.00    -0.248 NA
ATOM     46  C   UNL     1       8.958   0.305  -5.801  1.00  0.00     0.031 C 
ATOM     47  C   UNL     1       8.863   2.947  -1.527  1.00  0.00     0.029 A 
ATOM     48  N   UNL     1      10.869   2.448  -2.384  1.00  0.00    -0.354 N 
ATOM     49  C   UNL     1      11.231   0.189  -6.046  1.00  0.00     0.074 A 
ATOM     50  C   UNL     1       9.929  -0.170  -6.567  1.00  0.00     0.031 C 
ATOM     51  C   UNL     1       9.795   3.478  -0.716  1.00  0.00     0.029 A 
ATOM     52  C   UNL     1      11.124   3.144  -1.227  1.00  0.00     0.049 A 
ATOM     53  H   UNL     1      11.578   2.118  -2.982  1.00  0.00     0.167 HD
ATOM     54  C   UNL     1      12.405  -0.114  -6.650  1.00  0.00     0.037 A 
ATOM     55  C   UNL     1      12.294   3.459  -0.637  1.00  0.00     0.037 A 
ATOM     56  C   UNL     1      13.700   0.241  -6.131  1.00  0.00     0.049 A 
ATOM     57  C   UNL     1      13.589   3.062  -1.297  1.00  0.00     0.074 A 
ATOM     58  C   UNL     1      14.946  -0.016  -6.676  1.00  0.00     0.029 A 
ATOM     59  N   UNL     1      13.916   0.926  -4.945  1.00  0.00    -0.354 N 
ATOM     60  N   UNL     1      13.775   2.418  -2.425  1.00  0.00    -0.248 NA
ATOM     61  C   UNL     1      14.832   3.437  -0.607  1.00  0.00     0.031 C 
ATOM     62  C   UNL     1      15.918   0.480  -5.799  1.00  0.00     0.029 A 
ATOM     63  C   UNL     1      15.276   1.084  -4.730  1.00  0.00     0.049 A 
ATOM     64  H   UNL     1      13.208   1.253  -4.344  1.00  0.00     0.167 HD
ATOM     65  C   UNL     1      15.154   2.331  -2.590  1.00  0.00     0.074 A 
ATOM     66  C   UNL     1      15.754   2.997  -1.453  1.00  0.00     0.031 C 
ATOM     67  C   UNL     1      15.859   1.754  -3.595  1.00  0.00     0.037 A 
BRANCH  54  68
ATOM     68  C   UNL     1      12.341  -0.887  -7.938  1.00  0.00     0.058 A 
ATOM     69  C   UNL     1      11.922  -0.287  -9.136  1.00  0.00     0.135 A 
ATOM     70  C   UNL     1      12.728  -2.236  -7.980  1.00  0.00     0.135 A 
ATOM     71  F   UNL     1      11.525   0.995  -9.147  1.00  0.00    -0.206 F 
ATOM     72  C   UNL     1      11.864  -1.005 -10.326  1.00  0.00     0.059 A 
ATOM     73  C   UNL     1      12.700  -2.967  -9.164  1.00  0.00     0.059 A 
ATOM     74  F   UNL     1      13.134  -2.857  -6.862  1.00  0.00    -0.206 F 
ATOM     75  C   UNL     1      12.252  -2.346 -10.329  1.00  0.00     0.060 A 
BRANCH  75  76
ATOM     76  S   UNL     1      12.167  -3.268 -11.879  1.00  0.00     0.124 S 
ATOM     77  O   UNL     1      10.729  -3.481 -12.011  1.00  0.00    -0.237 OA
ATOM     78  O   UNL     1      12.758  -2.334 -12.832  1.00  0.00    -0.237 OA
ATOM     79  O   UNL     1      12.957  -4.464 -11.607  1.00  0.00    -0.744 OA
ENDBRANCH  75  76
ENDBRANCH  54  68
BRANCH  55  80
ATOM     80  C   UNL     1      12.296   4.181   0.663  1.00  0.00     0.058 A 
ATOM     81  C   UNL     1      12.709   5.517   0.753  1.00  0.00     0.135 A 
ATOM     82  C   UNL     1      11.880   3.542   1.842  1.00  0.00     0.135 A 
ATOM     83  F   UNL     1      13.127   6.166  -0.344  1.00  0.00    -0.206 F 
ATOM     84  C   UNL     1      12.720   6.195   1.968  1.00  0.00     0.059 A 
ATOM     85  C   UNL     1      11.860   4.205   3.064  1.00  0.00     0.059 A 
ATOM     86  F   UNL     1      11.466   2.266   1.805  1.00  0.00    -0.206 F 
ATOM     87  C   UNL     1      12.291   5.530   3.119  1.00  0.00     0.060 A 
BRANCH  87  88
ATOM     88  S   UNL     1      12.255   6.432   4.683  1.00  0.00     0.124 S 
ATOM     89  O   UNL     1      13.669   6.463   5.036  1.00  0.00    -0.237 OA
ATOM     90  O   UNL     1      11.665   7.708   4.289  1.00  0.00    -0.237 OA
ATOM     91  O   UNL     1      11.409   5.596   5.530  1.00  0.00    -0.744 OA
ENDBRANCH  87  88
ENDBRANCH  55  80
BRANCH  67  92
ATOM     92  C   UNL     1      17.359   1.837  -3.528  1.00  0.00     0.058 A 
ATOM     93  C   UNL     1      18.102   1.048  -2.637  1.00  0.00     0.135 A 
ATOM     94  C   UNL     1      18.064   2.678  -4.405  1.00  0.00     0.135 A 
ATOM     95  F   UNL     1      17.476   0.232  -1.774  1.00  0.00    -0.206 F 
ATOM     96  C   UNL     1      19.492   1.103  -2.603  1.00  0.00     0.059 A 
ATOM     97  C   UNL     1      19.454   2.732  -4.405  1.00  0.00     0.059 A 
ATOM     98  F   UNL     1      17.401   3.446  -5.285  1.00  0.00    -0.206 F 
ATOM     99  C   UNL     1      20.160   1.948  -3.492  1.00  0.00     0.060 A 
BRANCH  99 100
ATOM    100  S   UNL     1      21.965   1.985  -3.465  1.00  0.00     0.124 S 
ATOM    101  O   UNL     1      22.224   2.782  -2.270  1.00  0.00    -0.237 OA
ATOM    102  O   UNL     1      22.307   0.570  -3.369  1.00  0.00    -0.237 OA
ATOM    103  O   UNL     1      22.310   2.623  -4.732  1.00  0.00    -0.744 OA
ENDBRANCH  99 100
ENDBRANCH  67  92
ENDBRANCH  41  42
ENDBRANCH  34  36
ENDBRANCH  33  34
ENDBRANCH  32  33
ENDBRANCH  31  32
ENDBRANCH  30  31
ENDBRANCH   1  30
TORSDOF 21
