REMARK SMILES C[C@H]1SC[C@H](C(=O)OCCOCCOC(=O)c2ccc(-c3c4nc(c(-c5c(F)cc(S(=O)(=O)[O-])cc5F)c5ccc([nH]5)c(-c5c(F)cc(S(=O)(=O)[O-])cc5F)c5nc(c(-c6c(F)cc(S(=O)(=O)[O-])cc6F)c6ccc3[nH]6)C=C5)C=C4)cc2)N1C(=O)[C@H]1CSc2ccccc21
REMARK SMILES IDX 12 1 11 2 10 3 9 4 8 5 6 6 7 7 5 8 1 9 2 10 3 11 83 12 4 13
REMARK SMILES IDX 84 14 85 15 86 16 87 17 94 18 88 19 89 20 93 21 90 22 92 23
REMARK SMILES IDX 91 24 13 25 14 26 15 27 16 28 17 29 18 30 82 31 19 32 81 33
REMARK SMILES IDX 20 34 21 35 22 36 75 37 23 38 80 39 74 40 76 41 24 42 79 43
REMARK SMILES IDX 73 44 72 45 25 47 59 48 38 49 58 50 39 51 42 52 57 53 77 54
REMARK SMILES IDX 40 55 41 56 56 58 78 59 43 60 26 61 27 62 36 63 28 64 29 65
REMARK SMILES IDX 35 66 37 67 30 68 31 69 32 70 33 71 34 72 60 73 61 74 70 75
REMARK SMILES IDX 62 76 63 77 69 78 71 79 64 80 65 81 66 82 67 83 68 84 44 85
REMARK SMILES IDX 45 86 54 87 46 88 47 89 53 90 55 91 48 92 49 93 50 94 51 95
REMARK SMILES IDX 52 96
REMARK H PARENT 76 46 42 57
REMARK Flexibility Score: inf
ROOT
ATOM      1  C   UNL     1       2.273   0.924   6.878  1.00  0.00     0.202 C 
ENDROOT
BRANCH   1   2
ATOM      2  O   UNL     1       3.155  -0.071   7.388  1.00  0.00    -0.374 OA
BRANCH   2   3
ATOM      3  C   UNL     1       4.272  -0.428   6.573  1.00  0.00     0.202 C 
BRANCH   3   4
ATOM      4  C   UNL     1       4.019  -1.435   5.443  1.00  0.00     0.261 C 
BRANCH   4   5
ATOM      5  O   UNL     1       3.182  -0.902   4.394  1.00  0.00    -0.462 OA
BRANCH   5   6
ATOM      6  C   UNL     1       1.880  -1.292   4.451  1.00  0.00     0.329 C 
ATOM      7  O   UNL     1       1.417  -2.042   5.304  1.00  0.00    -0.250 OA
BRANCH   6   8
ATOM      8  C   UNL     1       0.995  -0.616   3.397  1.00  0.00     0.206 C 
ATOM      9  C   UNL     1      -1.056  -0.645   1.083  1.00  0.00     0.043 C 
ATOM     10  C   UNL     1       0.393  -0.141   1.127  1.00  0.00     0.141 C 
ATOM     11  S   UNL     1       0.390   1.512   1.902  1.00  0.00    -0.135 SA
ATOM     12  N   UNL     1       1.256  -0.938   1.995  1.00  0.00    -0.316 N 
ATOM     13  C   UNL     1       1.102   0.910   3.464  1.00  0.00     0.109 C 
BRANCH  12  14
ATOM     14  C   UNL     1       1.556  -2.234   1.638  1.00  0.00     0.232 C 
ATOM     15  O   UNL     1       0.998  -3.173   2.209  1.00  0.00    -0.274 OA
BRANCH  14  16
ATOM     16  C   UNL     1       2.788  -2.454   0.749  1.00  0.00     0.120 C 
ATOM     17  C   UNL     1       2.612  -3.804   0.022  1.00  0.00     0.093 C 
ATOM     18  C   UNL     1       3.156  -1.406  -0.280  1.00  0.00    -0.021 A 
ATOM     19  S   UNL     1       3.200  -3.652  -1.686  1.00  0.00    -0.125 SA
ATOM     20  C   UNL     1       3.368  -1.901  -1.568  1.00  0.00     0.011 A 
ATOM     21  C   UNL     1       3.411  -0.056  -0.029  1.00  0.00     0.006 A 
ATOM     22  C   UNL     1       3.732  -1.067  -2.618  1.00  0.00     0.015 A 
ATOM     23  C   UNL     1       3.740   0.799  -1.083  1.00  0.00     0.000 A 
ATOM     24  C   UNL     1       3.892   0.296  -2.377  1.00  0.00     0.001 A 
ENDBRANCH  14  16
ENDBRANCH  12  14
ENDBRANCH   6   8
ENDBRANCH   5   6
ENDBRANCH   4   5
ENDBRANCH   3   4
ENDBRANCH   2   3
ENDBRANCH   1   2
BRANCH   1  25
ATOM     25  C   UNL     1       2.712   2.386   7.014  1.00  0.00     0.261 C 
BRANCH  25  26
ATOM     26  O   UNL     1       3.893   2.666   6.243  1.00  0.00    -0.460 OA
BRANCH  26  27
ATOM     27  C   UNL     1       5.014   2.835   6.981  1.00  0.00     0.338 C 
ATOM     28  O   UNL     1       5.090   2.863   8.206  1.00  0.00    -0.246 OA
BRANCH  27  29
ATOM     29  C   UNL     1       6.208   2.792   6.120  1.00  0.00     0.060 A 
ATOM     30  C   UNL     1       7.239   1.922   6.497  1.00  0.00     0.016 A 
ATOM     31  C   UNL     1       6.354   3.626   5.009  1.00  0.00     0.016 A 
ATOM     32  C   UNL     1       8.446   1.926   5.803  1.00  0.00     0.010 A 
ATOM     33  C   UNL     1       7.571   3.634   4.317  1.00  0.00     0.010 A 
ATOM     34  C   UNL     1       8.634   2.814   4.736  1.00  0.00    -0.014 A 
BRANCH  34  35
ATOM     35  C   UNL     1       9.994   2.991   4.171  1.00  0.00     0.031 A 
ATOM     36  C   UNL     1      10.814   4.175   4.606  1.00  0.00     0.074 A 
ATOM     37  C   UNL     1      10.506   2.091   3.313  1.00  0.00     0.049 A 
ATOM     38  N   UNL     1      12.009   4.543   4.223  1.00  0.00    -0.248 NA
ATOM     39  C   UNL     1      10.201   5.064   5.606  1.00  0.00     0.031 C 
ATOM     40  C   UNL     1       9.821   0.887   2.846  1.00  0.00     0.029 A 
ATOM     41  N   UNL     1      11.720   2.059   2.675  1.00  0.00    -0.354 N 
ATOM     42  C   UNL     1      12.292   5.704   4.932  1.00  0.00     0.074 A 
ATOM     43  C   UNL     1      11.128   6.001   5.739  1.00  0.00     0.031 C 
ATOM     44  C   UNL     1      10.619   0.243   1.977  1.00  0.00     0.029 A 
ATOM     45  C   UNL     1      11.857   1.003   1.808  1.00  0.00     0.049 A 
ATOM     46  H   UNL     1      12.426   2.729   2.825  1.00  0.00     0.167 HD
ATOM     47  C   UNL     1      13.424   6.449   4.922  1.00  0.00     0.037 A 
ATOM     48  C   UNL     1      12.855   0.699   0.955  1.00  0.00     0.037 A 
ATOM     49  C   UNL     1      14.575   6.154   4.109  1.00  0.00     0.049 A 
ATOM     50  C   UNL     1      14.081   1.573   0.910  1.00  0.00     0.074 A 
ATOM     51  C   UNL     1      15.772   6.843   4.027  1.00  0.00     0.029 A 
ATOM     52  N   UNL     1      14.670   5.084   3.230  1.00  0.00    -0.354 N 
ATOM     53  N   UNL     1      14.344   2.659   1.598  1.00  0.00    -0.248 NA
ATOM     54  C   UNL     1      15.148   1.178  -0.020  1.00  0.00     0.031 C 
ATOM     55  C   UNL     1      16.572   6.217   3.064  1.00  0.00     0.029 A 
ATOM     56  C   UNL     1      15.896   5.106   2.585  1.00  0.00     0.049 A 
ATOM     57  H   UNL     1      13.969   4.408   3.086  1.00  0.00     0.167 HD
ATOM     58  C   UNL     1      15.614   3.066   1.200  1.00  0.00     0.074 A 
ATOM     59  C   UNL     1      16.070   2.101   0.220  1.00  0.00     0.031 C 
ATOM     60  C   UNL     1      16.336   4.138   1.610  1.00  0.00     0.037 A 
BRANCH  47  61
ATOM     61  C   UNL     1      13.453   7.670   5.800  1.00  0.00     0.058 A 
ATOM     62  C   UNL     1      13.510   7.572   7.200  1.00  0.00     0.135 A 
ATOM     63  C   UNL     1      13.421   8.956   5.236  1.00  0.00     0.135 A 
ATOM     64  F   UNL     1      13.525   6.368   7.794  1.00  0.00    -0.206 F 
ATOM     65  C   UNL     1      13.494   8.703   8.010  1.00  0.00     0.059 A 
ATOM     66  C   UNL     1      13.432  10.101   6.026  1.00  0.00     0.059 A 
ATOM     67  F   UNL     1      13.365   9.108   3.904  1.00  0.00    -0.206 F 
ATOM     68  C   UNL     1      13.448   9.964   7.413  1.00  0.00     0.060 A 
BRANCH  68  69
ATOM     69  S   UNL     1      13.399  11.422   8.476  1.00  0.00     0.124 S 
ATOM     70  O   UNL     1      12.029  11.369   8.978  1.00  0.00    -0.237 OA
ATOM     71  O   UNL     1      14.443  11.133   9.454  1.00  0.00    -0.237 OA
ATOM     72  O   UNL     1      13.689  12.521   7.561  1.00  0.00    -0.744 OA
ENDBRANCH  68  69
ENDBRANCH  47  61
BRANCH  48  73
ATOM     73  C   UNL     1      12.721  -0.482   0.062  1.00  0.00     0.058 A 
ATOM     74  C   UNL     1      13.490  -1.637   0.258  1.00  0.00     0.135 A 
ATOM     75  C   UNL     1      11.791  -0.486  -0.991  1.00  0.00     0.135 A 
ATOM     76  F   UNL     1      14.400  -1.678   1.244  1.00  0.00    -0.206 F 
ATOM     77  C   UNL     1      13.346  -2.755  -0.558  1.00  0.00     0.059 A 
ATOM     78  C   UNL     1      11.611  -1.599  -1.804  1.00  0.00     0.059 A 
ATOM     79  F   UNL     1      11.023   0.592  -1.213  1.00  0.00    -0.206 F 
ATOM     80  C   UNL     1      12.397  -2.728  -1.582  1.00  0.00     0.060 A 
BRANCH  80  81
ATOM     81  S   UNL     1      12.167  -4.210  -2.589  1.00  0.00     0.124 S 
ATOM     82  O   UNL     1      13.375  -4.202  -3.405  1.00  0.00    -0.237 OA
ATOM     83  O   UNL     1      12.088  -5.258  -1.575  1.00  0.00    -0.237 OA
ATOM     84  O   UNL     1      10.921  -3.942  -3.300  1.00  0.00    -0.744 OA
ENDBRANCH  80  81
ENDBRANCH  48  73
BRANCH  60  85
ATOM     85  C   UNL     1      17.711   4.316   1.023  1.00  0.00     0.058 A 
ATOM     86  C   UNL     1      17.899   4.744  -0.300  1.00  0.00     0.135 A 
ATOM     87  C   UNL     1      18.853   4.112   1.815  1.00  0.00     0.135 A 
ATOM     88  F   UNL     1      16.842   4.948  -1.101  1.00  0.00    -0.206 F 
ATOM     89  C   UNL     1      19.173   4.943  -0.825  1.00  0.00     0.059 A 
ATOM     90  C   UNL     1      20.135   4.331   1.319  1.00  0.00     0.059 A 
ATOM     91  F   UNL     1      18.729   3.714   3.091  1.00  0.00    -0.206 F 
ATOM     92  C   UNL     1      20.285   4.737  -0.006  1.00  0.00     0.060 A 
BRANCH  92  93
ATOM     93  S   UNL     1      21.930   5.034  -0.688  1.00  0.00     0.124 S 
ATOM     94  O   UNL     1      22.102   3.876  -1.558  1.00  0.00    -0.237 OA
ATOM     95  O   UNL     1      21.761   6.316  -1.365  1.00  0.00    -0.237 OA
ATOM     96  O   UNL     1      22.787   5.065   0.494  1.00  0.00    -0.744 OA
ENDBRANCH  92  93
ENDBRANCH  60  85
ENDBRANCH  34  35
ENDBRANCH  27  29
ENDBRANCH  26  27
ENDBRANCH  25  26
ENDBRANCH   1  25
TORSDOF 19
