REMARK SMILES Cc1cc2c(c(C)c1Br)C=C(C(=O)OCCOCCOC(=O)c1ccc(-c3c4nc(c(-c5c(F)cc(S(=O)(=O)[O-])cc5F)c5ccc([nH]5)c(-c5c(F)cc(S(=O)(=O)[O-])cc5F)c5nc(c(-c6c(F)cc(S(=O)(=O)[O-])cc6F)c6ccc3[nH]6)C=C5)C=C4)cc1)[C@@H](C(F)(F)F)O2
REMARK SMILES IDX 18 1 17 2 16 3 15 4 14 5 12 6 13 7 11 8 1 9 2 10 3 11 8 12
REMARK SMILES IDX 4 13 6 14 9 15 5 16 94 17 7 18 10 19 89 20 90 21 91 22 92 23
REMARK SMILES IDX 93 24 19 25 20 26 21 27 22 28 23 29 24 30 88 31 25 32 87 33
REMARK SMILES IDX 26 34 27 35 28 36 81 37 29 38 86 39 80 40 82 41 30 42 85 43
REMARK SMILES IDX 79 44 78 45 31 47 65 48 44 49 64 50 45 51 48 52 63 53 83 54
REMARK SMILES IDX 46 55 47 56 62 58 84 59 49 60 32 61 33 62 42 63 34 64 35 65
REMARK SMILES IDX 41 66 43 67 36 68 37 69 38 70 39 71 40 72 66 73 67 74 76 75
REMARK SMILES IDX 68 76 69 77 75 78 77 79 70 80 71 81 72 82 73 83 74 84 50 85
REMARK SMILES IDX 51 86 60 87 52 88 53 89 59 90 61 91 54 92 55 93 56 94 57 95
REMARK SMILES IDX 58 96
REMARK H PARENT 82 46 48 57
REMARK Flexibility Score: inf
ROOT
ATOM      1  C   UNL     1      -0.136  -0.526   8.882  1.00  0.00     0.202 C 
ENDROOT
BRANCH   1   2
ATOM      2  O   UNL     1      -1.246  -0.487   9.780  1.00  0.00    -0.374 OA
BRANCH   2   3
ATOM      3  C   UNL     1      -1.940  -1.706  10.039  1.00  0.00     0.202 C 
BRANCH   3   4
ATOM      4  C   UNL     1      -2.922  -2.188   8.967  1.00  0.00     0.261 C 
BRANCH   4   5
ATOM      5  O   UNL     1      -2.299  -2.302   7.679  1.00  0.00    -0.460 OA
BRANCH   5   6
ATOM      6  C   UNL     1      -2.718  -1.391   6.772  1.00  0.00     0.338 C 
ATOM      7  O   UNL     1      -3.627  -0.585   6.905  1.00  0.00    -0.246 OA
BRANCH   6   8
ATOM      8  C   UNL     1      -1.816  -1.393   5.605  1.00  0.00     0.087 C 
ATOM      9  C   UNL     1       1.069  -0.102  -0.029  1.00  0.00     0.046 C 
ATOM     10  C   UNL     1       0.495  -0.044   1.361  1.00  0.00    -0.033 A 
ATOM     11  C   UNL     1       0.262  -1.256   2.026  1.00  0.00     0.051 A 
ATOM     12  C   UNL     1       0.206   1.165   2.027  1.00  0.00     0.024 A 
ATOM     13  C   UNL     1      -0.337  -1.280   3.283  1.00  0.00     0.128 A 
ATOM     14  C   UNL     1      -0.391   1.161   3.311  1.00  0.00    -0.026 A 
ATOM     15  Br  UNL     1       0.633   2.814   1.151  1.00  0.00    -0.050 Br
ATOM     16  C   UNL     1      -0.706  -0.087   3.909  1.00  0.00     0.021 A 
ATOM     17  O   UNL     1      -0.515  -2.524   3.820  1.00  0.00    -0.475 OA
ATOM     18  C   UNL     1      -0.713   2.434   4.062  1.00  0.00     0.046 C 
ATOM     19  C   UNL     1      -1.475  -0.183   5.145  1.00  0.00     0.027 C 
ATOM     20  C   UNL     1      -1.364  -2.683   4.989  1.00  0.00     0.316 C 
BRANCH  20  21
ATOM     21  C   UNL     1      -2.532  -3.607   4.613  1.00  0.00     0.430 C 
ATOM     22  F   UNL     1      -2.085  -4.738   4.017  1.00  0.00    -0.167 F 
ATOM     23  F   UNL     1      -3.240  -3.989   5.700  1.00  0.00    -0.167 F 
ATOM     24  F   UNL     1      -3.390  -3.008   3.756  1.00  0.00    -0.167 F 
ENDBRANCH  20  21
ENDBRANCH   6   8
ENDBRANCH   5   6
ENDBRANCH   4   5
ENDBRANCH   3   4
ENDBRANCH   2   3
ENDBRANCH   1   2
BRANCH   1  25
ATOM     25  C   UNL     1       1.139  -1.239   9.351  1.00  0.00     0.261 C 
BRANCH  25  26
ATOM     26  O   UNL     1       0.959  -2.663   9.462  1.00  0.00    -0.460 OA
BRANCH  26  27
ATOM     27  C   UNL     1       1.095  -3.155  10.717  1.00  0.00     0.338 C 
ATOM     28  O   UNL     1       1.408  -2.533  11.723  1.00  0.00    -0.246 OA
BRANCH  27  29
ATOM     29  C   UNL     1       0.618  -4.546  10.766  1.00  0.00     0.060 A 
ATOM     30  C   UNL     1      -0.446  -4.839  11.630  1.00  0.00     0.016 A 
ATOM     31  C   UNL     1       1.257  -5.562  10.053  1.00  0.00     0.016 A 
ATOM     32  C   UNL     1      -0.847  -6.158  11.817  1.00  0.00     0.010 A 
ATOM     33  C   UNL     1       0.860  -6.889  10.253  1.00  0.00     0.010 A 
ATOM     34  C   UNL     1      -0.168  -7.195  11.162  1.00  0.00    -0.014 A 
BRANCH  34  35
ATOM     35  C   UNL     1      -0.435  -8.596  11.566  1.00  0.00     0.031 A 
ATOM     36  C   UNL     1       0.485  -9.252  12.560  1.00  0.00     0.074 A 
ATOM     37  C   UNL     1      -1.518  -9.250  11.108  1.00  0.00     0.049 A 
ATOM     38  N   UNL     1       0.426 -10.451  13.077  1.00  0.00    -0.248 NA
ATOM     39  C   UNL     1       1.621  -8.446  13.039  1.00  0.00     0.031 C 
ATOM     40  C   UNL     1      -2.505  -8.700  10.180  1.00  0.00     0.029 A 
ATOM     41  N   UNL     1      -1.973 -10.517  11.372  1.00  0.00    -0.354 N 
ATOM     42  C   UNL     1       1.506 -10.541  13.948  1.00  0.00     0.074 A 
ATOM     43  C   UNL     1       2.229  -9.292  13.858  1.00  0.00     0.031 C 
ATOM     44  C   UNL     1      -3.455  -9.624   9.956  1.00  0.00     0.029 A 
ATOM     45  C   UNL     1      -3.130 -10.839  10.703  1.00  0.00     0.049 A 
ATOM     46  H   UNL     1      -1.514 -11.138  11.982  1.00  0.00     0.167 HD
ATOM     47  C   UNL     1       1.851 -11.565  14.763  1.00  0.00     0.037 A 
ATOM     48  C   UNL     1      -3.839 -11.985  10.689  1.00  0.00     0.037 A 
ATOM     49  C   UNL     1       1.127 -12.805  14.849  1.00  0.00     0.049 A 
ATOM     50  C   UNL     1      -3.379 -13.147  11.532  1.00  0.00     0.074 A 
ATOM     51  C   UNL     1       1.392 -13.899  15.653  1.00  0.00     0.029 A 
ATOM     52  N   UNL     1       0.003 -13.119  14.100  1.00  0.00    -0.354 N 
ATOM     53  N   UNL     1      -2.369 -13.211  12.366  1.00  0.00    -0.248 NA
ATOM     54  C   UNL     1      -4.150 -14.395  11.427  1.00  0.00     0.031 C 
ATOM     55  C   UNL     1       0.455 -14.894  15.356  1.00  0.00     0.029 A 
ATOM     56  C   UNL     1      -0.420 -14.403  14.400  1.00  0.00     0.049 A 
ATOM     57  H   UNL     1      -0.430 -12.518  13.452  1.00  0.00     0.167 HD
ATOM     58  C   UNL     1      -2.392 -14.497  12.896  1.00  0.00     0.074 A 
ATOM     59  C   UNL     1      -3.524 -15.175  12.300  1.00  0.00     0.031 C 
ATOM     60  C   UNL     1      -1.550 -15.065  13.795  1.00  0.00     0.037 A 
BRANCH  47  61
ATOM     61  C   UNL     1       3.069 -11.390  15.625  1.00  0.00     0.058 A 
ATOM     62  C   UNL     1       3.060 -10.542  16.743  1.00  0.00     0.135 A 
ATOM     63  C   UNL     1       4.243 -12.113  15.358  1.00  0.00     0.135 A 
ATOM     64  F   UNL     1       1.970  -9.815  17.032  1.00  0.00    -0.206 F 
ATOM     65  C   UNL     1       4.179 -10.403  17.558  1.00  0.00     0.059 A 
ATOM     66  C   UNL     1       5.366 -12.007  16.173  1.00  0.00     0.059 A 
ATOM     67  F   UNL     1       4.305 -12.934  14.298  1.00  0.00    -0.206 F 
ATOM     68  C   UNL     1       5.327 -11.141  17.265  1.00  0.00     0.060 A 
BRANCH  68  69
ATOM     69  S   UNL     1       6.765 -10.955  18.341  1.00  0.00     0.124 S 
ATOM     70  O   UNL     1       7.201  -9.601  18.012  1.00  0.00    -0.237 OA
ATOM     71  O   UNL     1       6.184 -11.129  19.668  1.00  0.00    -0.237 OA
ATOM     72  O   UNL     1       7.659 -12.024  17.905  1.00  0.00    -0.744 OA
ENDBRANCH  68  69
ENDBRANCH  47  61
BRANCH  48  73
ATOM     73  C   UNL     1      -5.061 -12.091   9.848  1.00  0.00     0.058 A 
ATOM     74  C   UNL     1      -6.335 -12.159  10.430  1.00  0.00     0.135 A 
ATOM     75  C   UNL     1      -4.980 -12.111   8.447  1.00  0.00     0.135 A 
ATOM     76  F   UNL     1      -6.463 -12.156  11.765  1.00  0.00    -0.206 F 
ATOM     77  C   UNL     1      -7.486 -12.246   9.654  1.00  0.00     0.059 A 
ATOM     78  C   UNL     1      -6.118 -12.175   7.649  1.00  0.00     0.059 A 
ATOM     79  F   UNL     1      -3.784 -12.043   7.841  1.00  0.00    -0.206 F 
ATOM     80  C   UNL     1      -7.367 -12.247   8.262  1.00  0.00     0.060 A 
BRANCH  80  81
ATOM     81  S   UNL     1      -8.874 -12.302   7.267  1.00  0.00     0.124 S 
ATOM     82  O   UNL     1      -9.336 -13.663   7.508  1.00  0.00    -0.237 OA
ATOM     83  O   UNL     1      -9.674 -11.239   7.869  1.00  0.00    -0.237 OA
ATOM     84  O   UNL     1      -8.394 -12.027   5.916  1.00  0.00    -0.744 OA
ENDBRANCH  80  81
ENDBRANCH  48  73
BRANCH  60  85
ATOM     85  C   UNL     1      -1.805 -16.491  14.196  1.00  0.00     0.058 A 
ATOM     86  C   UNL     1      -1.488 -17.556  13.340  1.00  0.00     0.135 A 
ATOM     87  C   UNL     1      -2.264 -16.800  15.487  1.00  0.00     0.135 A 
ATOM     88  F   UNL     1      -1.053 -17.314  12.093  1.00  0.00    -0.206 F 
ATOM     89  C   UNL     1      -1.615 -18.879  13.750  1.00  0.00     0.059 A 
ATOM     90  C   UNL     1      -2.376 -18.116  15.927  1.00  0.00     0.059 A 
ATOM     91  F   UNL     1      -2.572 -15.817  16.348  1.00  0.00    -0.206 F 
ATOM     92  C   UNL     1      -2.049 -19.149  15.049  1.00  0.00     0.060 A 
BRANCH  92  93
ATOM     93  S   UNL     1      -2.131 -20.870  15.589  1.00  0.00     0.124 S 
ATOM     94  O   UNL     1      -3.266 -21.367  14.818  1.00  0.00    -0.237 OA
ATOM     95  O   UNL     1      -0.823 -21.382  15.194  1.00  0.00    -0.237 OA
ATOM     96  O   UNL     1      -2.349 -20.766  17.029  1.00  0.00    -0.744 OA
ENDBRANCH  92  93
ENDBRANCH  60  85
ENDBRANCH  34  35
ENDBRANCH  27  29
ENDBRANCH  26  27
ENDBRANCH  25  26
ENDBRANCH   1  25
TORSDOF 18
