REMARK SMILES Cn1cc(C(=O)N2CC[NH+](C)CC2)c(C(=O)OCCOCCOC(=O)c2ccc(-c3c4nc(c(-c5c(F)cc(S(=O)(=O)[O-])cc5F)c5ccc([nH]5)c(-c5c(F)cc(S(=O)(=O)[O-])cc5F)c5nc(c(-c6c(F)cc(S(=O)(=O)[O-])cc6F)c6ccc3[nH]6)C=C5)C=C4)cc2)n1
REMARK SMILES IDX 21 1 20 2 19 3 18 4 17 5 15 6 16 7 14 8 4 9 3 10 2 11 92 12
REMARK SMILES IDX 1 13 5 14 11 15 10 16 9 17 12 18 8 20 13 21 7 22 6 23 22 24
REMARK SMILES IDX 23 25 24 26 25 27 26 28 27 29 91 30 28 31 90 32 29 33 30 34
REMARK SMILES IDX 31 35 84 36 32 37 89 38 83 39 85 40 33 41 88 42 82 43 81 44
REMARK SMILES IDX 34 46 68 47 47 48 67 49 48 50 51 51 66 52 86 53 49 54 50 55
REMARK SMILES IDX 65 57 87 58 52 59 35 60 36 61 45 62 37 63 38 64 44 65 46 66
REMARK SMILES IDX 39 67 40 68 41 69 42 70 43 71 69 72 70 73 79 74 71 75 72 76
REMARK SMILES IDX 78 77 80 78 73 79 74 80 75 81 76 82 77 83 53 84 54 85 63 86
REMARK SMILES IDX 55 87 56 88 62 89 64 90 57 91 58 92 59 93 60 94 61 95
REMARK H PARENT 10 19 85 45 51 56
REMARK Flexibility Score: inf
ROOT
ATOM      1  C   UNL     1      -6.299  -2.127  -2.168  1.00  0.00     0.202 C 
ENDROOT
BRANCH   1   2
ATOM      2  O   UNL     1      -7.404  -1.258  -2.409  1.00  0.00    -0.374 OA
BRANCH   2   3
ATOM      3  C   UNL     1      -7.201   0.146  -2.258  1.00  0.00     0.202 C 
BRANCH   3   4
ATOM      4  C   UNL     1      -7.091   0.692  -0.831  1.00  0.00     0.261 C 
BRANCH   4   5
ATOM      5  O   UNL     1      -5.970   0.121  -0.142  1.00  0.00    -0.458 OA
BRANCH   5   6
ATOM      6  C   UNL     1      -6.275  -0.648   0.946  1.00  0.00     0.359 C 
ATOM      7  O   UNL     1      -7.406  -0.758   1.412  1.00  0.00    -0.244 OA
BRANCH   6   8
ATOM      8  C   UNL     1      -5.137  -1.471   1.396  1.00  0.00     0.183 A 
ATOM      9  C   UNL     1      -3.732  -1.186   1.357  1.00  0.00     0.092 A 
ATOM     10  C   UNL     1      -3.147  -2.290   1.953  1.00  0.00     0.123 A 
ATOM     11  N   UNL     1      -4.146  -3.184   2.175  1.00  0.00    -0.274 N 
ATOM     12  N   UNL     1      -5.357  -2.720   1.863  1.00  0.00    -0.165 NA
ATOM     13  C   UNL     1      -4.016  -4.537   2.657  1.00  0.00     0.173 C 
BRANCH   9  14
ATOM     14  C   UNL     1      -3.094   0.053   0.931  1.00  0.00     0.258 C 
ATOM     15  C   UNL     1       2.393   0.016   0.086  1.00  0.00     0.332 C 
ATOM     16  N   UNL     1       0.985   0.026  -0.306  1.00  0.00    -0.334 N 
ATOM     17  C   UNL     1       0.301   1.222   0.240  1.00  0.00     0.283 C 
ATOM     18  C   UNL     1       0.295  -1.199   0.138  1.00  0.00     0.283 C 
ATOM     19  H   UNL     1       0.948   0.060  -1.325  1.00  0.00     0.347 HD
ATOM     20  C   UNL     1      -1.205   1.255  -0.100  1.00  0.00     0.181 C 
ATOM     21  C   UNL     1      -1.191  -1.184  -0.277  1.00  0.00     0.181 C 
ATOM     22  N   UNL     1      -1.869  -0.002   0.266  1.00  0.00    -0.327 N 
ATOM     23  O   UNL     1      -3.643   1.122   1.185  1.00  0.00    -0.269 OA
ENDBRANCH   9  14
ENDBRANCH   6   8
ENDBRANCH   5   6
ENDBRANCH   4   5
ENDBRANCH   3   4
ENDBRANCH   2   3
ENDBRANCH   1   2
BRANCH   1  24
ATOM     24  C   UNL     1      -5.180  -2.176  -3.217  1.00  0.00     0.261 C 
BRANCH  24  25
ATOM     25  O   UNL     1      -4.490  -0.925  -3.378  1.00  0.00    -0.460 OA
BRANCH  25  26
ATOM     26  C   UNL     1      -4.774  -0.271  -4.532  1.00  0.00     0.338 C 
ATOM     27  O   UNL     1      -5.508  -0.650  -5.432  1.00  0.00    -0.246 OA
BRANCH  26  28
ATOM     28  C   UNL     1      -4.198   1.085  -4.501  1.00  0.00     0.060 A 
ATOM     29  C   UNL     1      -5.063   2.170  -4.701  1.00  0.00     0.016 A 
ATOM     30  C   UNL     1      -2.824   1.286  -4.372  1.00  0.00     0.016 A 
ATOM     31  C   UNL     1      -4.549   3.460  -4.818  1.00  0.00     0.010 A 
ATOM     32  C   UNL     1      -2.310   2.581  -4.500  1.00  0.00     0.010 A 
ATOM     33  C   UNL     1      -3.165   3.668  -4.758  1.00  0.00    -0.014 A 
BRANCH  33  34
ATOM     34  C   UNL     1      -2.595   4.992  -5.115  1.00  0.00     0.031 A 
ATOM     35  C   UNL     1      -1.962   5.166  -6.469  1.00  0.00     0.074 A 
ATOM     36  C   UNL     1      -2.648   6.022  -4.251  1.00  0.00     0.049 A 
ATOM     37  N   UNL     1      -1.306   6.189  -6.953  1.00  0.00    -0.248 NA
ATOM     38  C   UNL     1      -2.079   4.032  -7.402  1.00  0.00     0.031 C 
ATOM     39  C   UNL     1      -3.278   5.989  -2.931  1.00  0.00     0.029 A 
ATOM     40  N   UNL     1      -2.147   7.297  -4.352  1.00  0.00    -0.354 N 
ATOM     41  C   UNL     1      -0.927   5.822  -8.239  1.00  0.00     0.074 A 
ATOM     42  C   UNL     1      -1.396   4.470  -8.450  1.00  0.00     0.031 C 
ATOM     43  C   UNL     1      -3.106   7.183  -2.336  1.00  0.00     0.029 A 
ATOM     44  C   UNL     1      -2.321   8.049  -3.214  1.00  0.00     0.049 A 
ATOM     45  H   UNL     1      -1.704   7.639  -5.162  1.00  0.00     0.167 HD
ATOM     46  C   UNL     1      -0.257   6.551  -9.163  1.00  0.00     0.037 A 
ATOM     47  C   UNL     1      -1.869   9.281  -2.905  1.00  0.00     0.037 A 
ATOM     48  C   UNL     1       0.200   7.899  -8.947  1.00  0.00     0.049 A 
ATOM     49  C   UNL     1      -1.057  10.044  -3.924  1.00  0.00     0.074 A 
ATOM     50  C   UNL     1       0.890   8.723  -9.819  1.00  0.00     0.029 A 
ATOM     51  N   UNL     1       0.011   8.623  -7.779  1.00  0.00    -0.354 N 
ATOM     52  N   UNL     1      -0.705   9.685  -5.136  1.00  0.00    -0.248 NA
ATOM     53  C   UNL     1      -0.583  11.380  -3.535  1.00  0.00     0.031 C 
ATOM     54  C   UNL     1       1.160   9.927  -9.162  1.00  0.00     0.029 A 
ATOM     55  C   UNL     1       0.584   9.878  -7.904  1.00  0.00     0.049 A 
ATOM     56  H   UNL     1      -0.460   8.294  -6.980  1.00  0.00     0.167 HD
ATOM     57  C   UNL     1      -0.010  10.769  -5.668  1.00  0.00     0.074 A 
ATOM     58  C   UNL     1       0.007  11.795  -4.648  1.00  0.00     0.031 C 
ATOM     59  C   UNL     1       0.561  10.903  -6.891  1.00  0.00     0.037 A 
BRANCH  46  60
ATOM     60  C   UNL     1       0.033   5.913 -10.493  1.00  0.00     0.058 A 
ATOM     61  C   UNL     1      -0.979   5.686 -11.439  1.00  0.00     0.135 A 
ATOM     62  C   UNL     1       1.352   5.593 -10.857  1.00  0.00     0.135 A 
ATOM     63  F   UNL     1      -2.260   5.955 -11.136  1.00  0.00    -0.206 F 
ATOM     64  C   UNL     1      -0.697   5.159 -12.695  1.00  0.00     0.059 A 
ATOM     65  C   UNL     1       1.661   5.091 -12.118  1.00  0.00     0.059 A 
ATOM     66  F   UNL     1       2.358   5.784  -9.989  1.00  0.00    -0.206 F 
ATOM     67  C   UNL     1       0.628   4.872 -13.028  1.00  0.00     0.060 A 
BRANCH  67  68
ATOM     68  S   UNL     1       0.981   4.230 -14.678  1.00  0.00     0.124 S 
ATOM     69  O   UNL     1       0.412   2.888 -14.596  1.00  0.00    -0.237 OA
ATOM     70  O   UNL     1       0.267   5.169 -15.536  1.00  0.00    -0.237 OA
ATOM     71  O   UNL     1       2.437   4.288 -14.763  1.00  0.00    -0.744 OA
ENDBRANCH  67  68
ENDBRANCH  46  60
BRANCH  47  72
ATOM     72  C   UNL     1      -2.139   9.871  -1.564  1.00  0.00     0.058 A 
ATOM     73  C   UNL     1      -2.940  11.014  -1.420  1.00  0.00     0.135 A 
ATOM     74  C   UNL     1      -1.561   9.331  -0.404  1.00  0.00     0.135 A 
ATOM     75  F   UNL     1      -3.509  11.574  -2.498  1.00  0.00    -0.206 F 
ATOM     76  C   UNL     1      -3.125  11.624  -0.183  1.00  0.00     0.059 A 
ATOM     77  C   UNL     1      -1.758   9.904   0.848  1.00  0.00     0.059 A 
ATOM     78  F   UNL     1      -0.795   8.231  -0.482  1.00  0.00    -0.206 F 
ATOM     79  C   UNL     1      -2.525  11.064   0.945  1.00  0.00     0.060 A 
BRANCH  79  80
ATOM     80  S   UNL     1      -2.764  11.867   2.545  1.00  0.00     0.124 S 
ATOM     81  O   UNL     1      -1.935  13.058   2.401  1.00  0.00    -0.237 OA
ATOM     82  O   UNL     1      -4.206  12.090   2.563  1.00  0.00    -0.237 OA
ATOM     83  O   UNL     1      -2.279  10.872   3.496  1.00  0.00    -0.744 OA
ENDBRANCH  79  80
ENDBRANCH  47  72
BRANCH  59  84
ATOM     84  C   UNL     1       1.189  12.228  -7.232  1.00  0.00     0.058 A 
ATOM     85  C   UNL     1       2.398  12.650  -6.660  1.00  0.00     0.135 A 
ATOM     86  C   UNL     1       0.601  13.055  -8.205  1.00  0.00     0.135 A 
ATOM     87  F   UNL     1       3.001  11.902  -5.723  1.00  0.00    -0.206 F 
ATOM     88  C   UNL     1       2.993  13.854  -7.026  1.00  0.00     0.059 A 
ATOM     89  C   UNL     1       1.194  14.247  -8.608  1.00  0.00     0.059 A 
ATOM     90  F   UNL     1      -0.551  12.693  -8.793  1.00  0.00    -0.206 F 
ATOM     91  C   UNL     1       2.386  14.643  -8.005  1.00  0.00     0.060 A 
BRANCH  91  92
ATOM     92  S   UNL     1       3.195  16.178  -8.504  1.00  0.00     0.124 S 
ATOM     93  O   UNL     1       2.963  17.025  -7.339  1.00  0.00    -0.237 OA
ATOM     94  O   UNL     1       4.574  15.750  -8.713  1.00  0.00    -0.237 OA
ATOM     95  O   UNL     1       2.475  16.566  -9.714  1.00  0.00    -0.744 OA
ENDBRANCH  91  92
ENDBRANCH  59  84
ENDBRANCH  33  34
ENDBRANCH  26  28
ENDBRANCH  25  26
ENDBRANCH  24  25
ENDBRANCH   1  24
TORSDOF 18
