REMARK SMILES O=C(OCCOCCOC(=O)c1ccc(-c2c3nc(c(-c4c(F)cc(S(=O)(=O)[O-])cc4F)c4ccc([nH]4)c(-c4c(F)cc(S(=O)(=O)[O-])cc4F)c4nc(c(-c5c(F)cc(S(=O)(=O)[O-])cc5F)c5ccc2[nH]5)C=C4)C=C3)cc1)C1=Cc2c(Cl)ccc(Cl)c2O[C@@H]1C(F)(F)F
REMARK SMILES IDX 7 1 6 2 5 3 4 4 3 5 2 6 1 7 78 8 79 9 89 10 80 11 88 12
REMARK SMILES IDX 81 13 87 14 82 15 83 16 85 17 84 18 86 19 90 20 91 21 92 22
REMARK SMILES IDX 93 23 8 24 9 25 10 26 11 27 12 28 13 29 77 30 14 31 76 32
REMARK SMILES IDX 15 33 16 34 17 35 70 36 18 37 75 38 69 39 71 40 19 41 74 42
REMARK SMILES IDX 68 43 67 44 20 46 54 47 33 48 53 49 34 50 37 51 52 52 72 53
REMARK SMILES IDX 35 54 36 55 51 57 73 58 38 59 21 60 22 61 31 62 23 63 24 64
REMARK SMILES IDX 30 65 32 66 25 67 26 68 27 69 28 70 29 71 55 72 56 73 65 74
REMARK SMILES IDX 57 75 58 76 64 77 66 78 59 79 60 80 61 81 62 82 63 83 39 84
REMARK SMILES IDX 40 85 49 86 41 87 42 88 48 89 50 90 43 91 44 92 45 93 46 94
REMARK SMILES IDX 47 95
REMARK H PARENT 71 45 37 56
REMARK Flexibility Score: inf
ROOT
ATOM      1  C   UNL     1       2.688   0.884   2.970  1.00  0.00     0.202 C 
ENDROOT
BRANCH   1   2
ATOM      2  O   UNL     1       3.761   0.044   2.524  1.00  0.00    -0.374 OA
BRANCH   2   3
ATOM      3  C   UNL     1       4.253  -0.485   1.117  1.00  0.00     0.202 C 
BRANCH   3   4
ATOM      4  C   UNL     1       3.339  -0.521  -0.865  1.00  0.00     0.261 C 
BRANCH   4   5
ATOM      5  O   UNL     1       2.421  -1.606  -1.437  1.00  0.00    -0.460 OA
BRANCH   5   6
ATOM      6  C   UNL     1       2.641  -2.808  -0.901  1.00  0.00     0.338 C 
ATOM      7  O   UNL     1       2.034  -3.837  -1.053  1.00  0.00    -0.246 OA
BRANCH   6   8
ATOM      8  C   UNL     1       3.528  -2.343   0.145  1.00  0.00     0.087 C 
ATOM      9  C   UNL     1       4.894  -2.066  -0.382  1.00  0.00     0.029 C 
ATOM     10  C   UNL     1       2.325  -0.994   0.835  1.00  0.00     0.316 C 
ATOM     11  C   UNL     1       5.563  -0.383  -0.646  1.00  0.00     0.037 A 
ATOM     12  O   UNL     1       2.980   0.788   0.512  1.00  0.00    -0.474 OA
ATOM     13  C   UNL     1       6.741  -0.188  -1.330  1.00  0.00     0.052 A 
ATOM     14  C   UNL     1       4.587   1.024  -0.325  1.00  0.00     0.148 A 
ATOM     15  Cl  UNL     1       7.825  -1.456  -1.719  1.00  0.00    -0.084 Cl
ATOM     16  C   UNL     1       6.995   1.128  -1.764  1.00  0.00     0.023 A 
ATOM     17  C   UNL     1       4.837   2.220  -0.939  1.00  0.00     0.083 A 
ATOM     18  C   UNL     1       6.075   2.249  -1.623  1.00  0.00     0.026 A 
ATOM     19  Cl  UNL     1       3.644   3.406  -1.196  1.00  0.00    -0.080 Cl
BRANCH  10  20
ATOM     20  C   UNL     1       1.895  -1.724   2.174  1.00  0.00     0.430 C 
ATOM     21  F   UNL     1       1.035  -1.055   2.961  1.00  0.00    -0.167 F 
ATOM     22  F   UNL     1       1.220  -2.858   1.810  1.00  0.00    -0.167 F 
ATOM     23  F   UNL     1       2.923  -2.181   2.927  1.00  0.00    -0.167 F 
ENDBRANCH  10  20
ENDBRANCH   6   8
ENDBRANCH   5   6
ENDBRANCH   4   5
ENDBRANCH   3   4
ENDBRANCH   2   3
ENDBRANCH   1   2
BRANCH   1  24
ATOM     24  C   UNL     1       2.940   2.301   3.442  1.00  0.00     0.261 C 
BRANCH  24  25
ATOM     25  O   UNL     1       3.465   3.131   2.429  1.00  0.00    -0.460 OA
BRANCH  25  26
ATOM     26  C   UNL     1       4.789   3.367   2.533  1.00  0.00     0.338 C 
ATOM     27  O   UNL     1       5.606   2.776   3.214  1.00  0.00    -0.246 OA
BRANCH  26  28
ATOM     28  C   UNL     1       5.085   4.484   1.627  1.00  0.00     0.060 A 
ATOM     29  C   UNL     1       6.308   4.489   0.951  1.00  0.00     0.016 A 
ATOM     30  C   UNL     1       4.120   5.476   1.395  1.00  0.00     0.016 A 
ATOM     31  C   UNL     1       6.548   5.465  -0.010  1.00  0.00     0.010 A 
ATOM     32  C   UNL     1       4.358   6.447   0.438  1.00  0.00     0.010 A 
ATOM     33  C   UNL     1       5.576   6.445  -0.258  1.00  0.00    -0.014 A 
BRANCH  33  34
ATOM     34  C   UNL     1       5.913   7.647  -1.035  1.00  0.00     0.031 A 
ATOM     35  C   UNL     1       6.392   8.827  -0.249  1.00  0.00     0.074 A 
ATOM     36  C   UNL     1       5.721   7.707  -2.361  1.00  0.00     0.049 A 
ATOM     37  N   UNL     1       6.641  10.042  -0.649  1.00  0.00    -0.248 NA
ATOM     38  C   UNL     1       6.596   8.605   1.194  1.00  0.00     0.031 C 
ATOM     39  C   UNL     1       5.265   6.603  -3.204  1.00  0.00     0.029 A 
ATOM     40  N   UNL     1       5.860   8.760  -3.227  1.00  0.00    -0.354 N 
ATOM     41  C   UNL     1       7.022  10.730   0.494  1.00  0.00     0.074 A 
ATOM     42  C   UNL     1       6.929   9.815   1.607  1.00  0.00     0.031 C 
ATOM     43  C   UNL     1       5.141   7.045  -4.468  1.00  0.00     0.029 A 
ATOM     44  C   UNL     1       5.470   8.469  -4.512  1.00  0.00     0.049 A 
ATOM     45  H   UNL     1       6.207   9.640  -2.954  1.00  0.00     0.167 HD
ATOM     46  C   UNL     1       7.418  12.017   0.599  1.00  0.00     0.037 A 
ATOM     47  C   UNL     1       5.363   9.278  -5.585  1.00  0.00     0.037 A 
ATOM     48  C   UNL     1       7.453  12.920  -0.516  1.00  0.00     0.049 A 
ATOM     49  C   UNL     1       5.739  10.732  -5.435  1.00  0.00     0.074 A 
ATOM     50  C   UNL     1       7.839  14.245  -0.537  1.00  0.00     0.029 A 
ATOM     51  N   UNL     1       7.054  12.592  -1.807  1.00  0.00    -0.354 N 
ATOM     52  N   UNL     1       6.145  11.372  -4.362  1.00  0.00    -0.248 NA
ATOM     53  C   UNL     1       5.648  11.573  -6.635  1.00  0.00     0.031 C 
ATOM     54  C   UNL     1       7.602  14.741  -1.821  1.00  0.00     0.029 A 
ATOM     55  C   UNL     1       7.157  13.701  -2.626  1.00  0.00     0.049 A 
ATOM     56  H   UNL     1       6.745  11.703  -2.095  1.00  0.00     0.167 HD
ATOM     57  C   UNL     1       6.399  12.679  -4.767  1.00  0.00     0.074 A 
ATOM     58  C   UNL     1       6.091  12.739  -6.182  1.00  0.00     0.031 C 
ATOM     59  C   UNL     1       6.858  13.729  -4.039  1.00  0.00     0.037 A 
BRANCH  46  60
ATOM     60  C   UNL     1       7.772  12.509   1.973  1.00  0.00     0.058 A 
ATOM     61  C   UNL     1       8.878  12.008   2.682  1.00  0.00     0.135 A 
ATOM     62  C   UNL     1       6.964  13.462   2.611  1.00  0.00     0.135 A 
ATOM     63  F   UNL     1       9.669  11.072   2.132  1.00  0.00    -0.206 F 
ATOM     64  C   UNL     1       9.137  12.395   3.992  1.00  0.00     0.059 A 
ATOM     65  C   UNL     1       7.229  13.895   3.906  1.00  0.00     0.059 A 
ATOM     66  F   UNL     1       5.888  13.966   1.986  1.00  0.00    -0.206 F 
ATOM     67  C   UNL     1       8.304  13.338   4.596  1.00  0.00     0.060 A 
BRANCH  67  68
ATOM     68  S   UNL     1       8.638  13.810   6.304  1.00  0.00     0.124 S 
ATOM     69  O   UNL     1       8.265  12.594   7.020  1.00  0.00    -0.237 OA
ATOM     70  O   UNL     1      10.065  14.111   6.268  1.00  0.00    -0.237 OA
ATOM     71  O   UNL     1       7.762  14.957   6.518  1.00  0.00    -0.744 OA
ENDBRANCH  67  68
ENDBRANCH  46  60
BRANCH  47  72
ATOM     72  C   UNL     1       4.884   8.728  -6.881  1.00  0.00     0.058 A 
ATOM     73  C   UNL     1       5.748   8.591  -7.977  1.00  0.00     0.135 A 
ATOM     74  C   UNL     1       3.559   8.290  -7.039  1.00  0.00     0.135 A 
ATOM     75  F   UNL     1       7.021   9.007  -7.884  1.00  0.00    -0.206 F 
ATOM     76  C   UNL     1       5.321   8.036  -9.180  1.00  0.00     0.059 A 
ATOM     77  C   UNL     1       3.115   7.707  -8.223  1.00  0.00     0.059 A 
ATOM     78  F   UNL     1       2.691   8.392  -6.021  1.00  0.00    -0.206 F 
ATOM     79  C   UNL     1       4.004   7.584  -9.288  1.00  0.00     0.060 A 
BRANCH  79  80
ATOM     80  S   UNL     1       3.491   6.780 -10.822  1.00  0.00     0.124 S 
ATOM     81  O   UNL     1       3.518   7.893 -11.764  1.00  0.00    -0.237 OA
ATOM     82  O   UNL     1       4.531   5.771 -10.996  1.00  0.00    -0.237 OA
ATOM     83  O   UNL     1       2.166   6.257 -10.502  1.00  0.00    -0.744 OA
ENDBRANCH  79  80
ENDBRANCH  47  72
BRANCH  59  84
ATOM     84  C   UNL     1       7.129  15.023  -4.758  1.00  0.00     0.058 A 
ATOM     85  C   UNL     1       6.100  15.855  -5.221  1.00  0.00     0.135 A 
ATOM     86  C   UNL     1       8.452  15.486  -4.875  1.00  0.00     0.135 A 
ATOM     87  F   UNL     1       4.820  15.459  -5.138  1.00  0.00    -0.206 F 
ATOM     88  C   UNL     1       6.372  17.100  -5.780  1.00  0.00     0.059 A 
ATOM     89  C   UNL     1       8.744  16.740  -5.398  1.00  0.00     0.059 A 
ATOM     90  F   UNL     1       9.474  14.733  -4.438  1.00  0.00    -0.206 F 
ATOM     91  C   UNL     1       7.697  17.539  -5.852  1.00  0.00     0.060 A 
BRANCH  91  92
ATOM     92  S   UNL     1       8.029  19.186  -6.512  1.00  0.00     0.124 S 
ATOM     93  O   UNL     1       7.712  19.006  -7.925  1.00  0.00    -0.237 OA
ATOM     94  O   UNL     1       7.099  20.016  -5.753  1.00  0.00    -0.237 OA
ATOM     95  O   UNL     1       9.441  19.397  -6.208  1.00  0.00    -0.744 OA
ENDBRANCH  91  92
ENDBRANCH  59  84
ENDBRANCH  33  34
ENDBRANCH  26  28
ENDBRANCH  25  26
ENDBRANCH  24  25
ENDBRANCH   1  24
TORSDOF 18
