REMARK SMILES O=C(OCCOCCOC(=O)c1cc(S(=O)(=O)Nc2cccc(Cl)c2)ccc1O)c1ccc(-c2c3nc(c(-c4c(F)cc(S(=O)(=O)[O-])cc4F)c4ccc([nH]4)c(-c4c(F)cc(S(=O)(=O)[O-])cc4F)c4nc(c(-c5c(F)cc(S(=O)(=O)[O-])cc5F)c5ccc2[nH]5)C=C4)C=C3)cc1
REMARK SMILES IDX 6 1 5 2 4 3 3 4 2 5 1 6 30 7 31 8 95 9 32 10 94 11 33 12
REMARK SMILES IDX 34 13 35 14 88 15 36 16 93 17 87 18 89 19 37 20 92 21 86 22
REMARK SMILES IDX 85 23 38 25 72 26 51 27 71 28 52 29 55 30 70 31 90 32 53 33
REMARK SMILES IDX 54 34 69 36 91 37 56 38 39 39 40 40 49 41 41 42 42 43 48 44
REMARK SMILES IDX 50 45 43 46 44 47 45 48 46 49 47 50 73 51 74 52 83 53 75 54
REMARK SMILES IDX 76 55 82 56 84 57 77 58 78 59 79 60 80 61 81 62 57 63 58 64
REMARK SMILES IDX 67 65 59 66 60 67 66 68 68 69 61 70 62 71 63 72 64 73 65 74
REMARK SMILES IDX 7 75 8 76 9 77 10 78 11 79 12 80 13 81 28 82 14 83 27 84
REMARK SMILES IDX 26 85 29 86 15 88 16 89 17 90 18 91 19 93 20 94 25 95 21 96
REMARK SMILES IDX 23 97 22 98 24 99
REMARK H PARENT 89 24 55 35 29 87 18 92
REMARK Flexibility Score: inf
ROOT
ATOM      1  O   UNL     1       4.273   0.678  -1.597  1.00  0.00    -0.374 OA
ENDROOT
BRANCH   1   2
ATOM      2  C   UNL     1       4.327  -0.745  -1.484  1.00  0.00     0.202 C 
BRANCH   2   3
ATOM      3  C   UNL     1       3.906  -1.302  -0.122  1.00  0.00     0.261 C 
BRANCH   3   4
ATOM      4  O   UNL     1       2.530  -0.971   0.142  1.00  0.00    -0.460 OA
BRANCH   4   5
ATOM      5  C   UNL     1       2.028  -0.066   1.013  1.00  0.00     0.338 C 
ATOM      6  O   UNL     1       0.807  -0.014   1.160  1.00  0.00    -0.246 OA
BRANCH   5   7
ATOM      7  C   UNL     1       2.871   0.876   1.812  1.00  0.00     0.060 A 
ATOM      8  C   UNL     1       4.139   1.322   1.442  1.00  0.00     0.016 A 
ATOM      9  C   UNL     1       2.303   1.410   2.983  1.00  0.00     0.016 A 
ATOM     10  C   UNL     1       4.865   2.193   2.243  1.00  0.00     0.010 A 
ATOM     11  C   UNL     1       3.006   2.327   3.772  1.00  0.00     0.010 A 
ATOM     12  C   UNL     1       4.306   2.695   3.415  1.00  0.00    -0.014 A 
BRANCH  12  13
ATOM     13  C   UNL     1       5.174   3.507   4.289  1.00  0.00     0.031 A 
ATOM     14  C   UNL     1       5.779   2.853   5.495  1.00  0.00     0.074 A 
ATOM     15  C   UNL     1       5.530   4.745   3.900  1.00  0.00     0.049 A 
ATOM     16  N   UNL     1       6.620   3.341   6.365  1.00  0.00    -0.248 NA
ATOM     17  C   UNL     1       5.399   1.451   5.744  1.00  0.00     0.031 C 
ATOM     18  C   UNL     1       5.064   5.410   2.680  1.00  0.00     0.029 A 
ATOM     19  N   UNL     1       6.399   5.644   4.458  1.00  0.00    -0.354 N 
ATOM     20  C   UNL     1       6.855   2.317   7.274  1.00  0.00     0.074 A 
ATOM     21  C   UNL     1       6.064   1.182   6.856  1.00  0.00     0.031 C 
ATOM     22  C   UNL     1       5.684   6.595   2.562  1.00  0.00     0.029 A 
ATOM     23  C   UNL     1       6.549   6.794   3.719  1.00  0.00     0.049 A 
ATOM     24  H   UNL     1       6.871   5.482   5.306  1.00  0.00     0.167 HD
ATOM     25  C   UNL     1       7.657   2.333   8.364  1.00  0.00     0.037 A 
ATOM     26  C   UNL     1       7.299   7.886   3.965  1.00  0.00     0.037 A 
ATOM     27  C   UNL     1       8.431   3.479   8.755  1.00  0.00     0.049 A 
ATOM     28  C   UNL     1       8.138   7.899   5.214  1.00  0.00     0.074 A 
ATOM     29  C   UNL     1       9.223   3.650   9.874  1.00  0.00     0.029 A 
ATOM     30  N   UNL     1       8.510   4.657   8.021  1.00  0.00    -0.354 N 
ATOM     31  N   UNL     1       8.300   6.949   6.107  1.00  0.00    -0.248 NA
ATOM     32  C   UNL     1       8.887   9.128   5.500  1.00  0.00     0.031 C 
ATOM     33  C   UNL     1       9.755   4.945   9.834  1.00  0.00     0.029 A 
ATOM     34  C   UNL     1       9.329   5.564   8.668  1.00  0.00     0.049 A 
ATOM     35  H   UNL     1       8.050   4.822   7.166  1.00  0.00     0.167 HD
ATOM     36  C   UNL     1       9.181   7.459   7.052  1.00  0.00     0.074 A 
ATOM     37  C   UNL     1       9.529   8.796   6.612  1.00  0.00     0.031 C 
ATOM     38  C   UNL     1       9.657   6.883   8.184  1.00  0.00     0.037 A 
BRANCH  25  39
ATOM     39  C   UNL     1       7.660   1.103   9.225  1.00  0.00     0.058 A 
ATOM     40  C   UNL     1       8.301  -0.082   8.830  1.00  0.00     0.135 A 
ATOM     41  C   UNL     1       6.965   1.097  10.444  1.00  0.00     0.135 A 
ATOM     42  F   UNL     1       8.954  -0.140   7.659  1.00  0.00    -0.206 F 
ATOM     43  C   UNL     1       8.221  -1.241   9.598  1.00  0.00     0.059 A 
ATOM     44  C   UNL     1       6.889  -0.044  11.238  1.00  0.00     0.059 A 
ATOM     45  F   UNL     1       6.324   2.200  10.863  1.00  0.00    -0.206 F 
ATOM     46  C   UNL     1       7.503  -1.215  10.795  1.00  0.00     0.060 A 
BRANCH  46  47
ATOM     47  S   UNL     1       7.368  -2.734  11.762  1.00  0.00     0.124 S 
ATOM     48  O   UNL     1       6.394  -3.490  10.980  1.00  0.00    -0.237 OA
ATOM     49  O   UNL     1       8.734  -3.247  11.736  1.00  0.00    -0.237 OA
ATOM     50  O   UNL     1       6.902  -2.267  13.064  1.00  0.00    -0.744 OA
ENDBRANCH  46  47
ENDBRANCH  25  39
BRANCH  26  51
ATOM     51  C   UNL     1       7.269   9.047   3.033  1.00  0.00     0.058 A 
ATOM     52  C   UNL     1       8.397   9.415   2.285  1.00  0.00     0.135 A 
ATOM     53  C   UNL     1       6.105   9.815   2.871  1.00  0.00     0.135 A 
ATOM     54  F   UNL     1       9.539   8.720   2.406  1.00  0.00    -0.206 F 
ATOM     55  C   UNL     1       8.378  10.509   1.423  1.00  0.00     0.059 A 
ATOM     56  C   UNL     1       6.052  10.897   1.997  1.00  0.00     0.059 A 
ATOM     57  F   UNL     1       4.992   9.503   3.554  1.00  0.00    -0.206 F 
ATOM     58  C   UNL     1       7.199  11.245   1.287  1.00  0.00     0.060 A 
BRANCH  58  59
ATOM     59  S   UNL     1       7.168  12.646   0.145  1.00  0.00     0.124 S 
ATOM     60  O   UNL     1       7.900  13.655   0.900  1.00  0.00    -0.237 OA
ATOM     61  O   UNL     1       7.849  12.106  -1.027  1.00  0.00    -0.237 OA
ATOM     62  O   UNL     1       5.741  12.901  -0.032  1.00  0.00    -0.744 OA
ENDBRANCH  58  59
ENDBRANCH  26  51
BRANCH  38  63
ATOM     63  C   UNL     1      10.626   7.689   8.997  1.00  0.00     0.058 A 
ATOM     64  C   UNL     1      10.200   8.755   9.803  1.00  0.00     0.135 A 
ATOM     65  C   UNL     1      11.989   7.355   9.006  1.00  0.00     0.135 A 
ATOM     66  F   UNL     1       8.906   9.112   9.822  1.00  0.00    -0.206 F 
ATOM     67  C   UNL     1      11.098   9.481  10.574  1.00  0.00     0.059 A 
ATOM     68  C   UNL     1      12.902   8.053   9.787  1.00  0.00     0.059 A 
ATOM     69  F   UNL     1      12.441   6.334   8.259  1.00  0.00    -0.206 F 
ATOM     70  C   UNL     1      12.448   9.122  10.559  1.00  0.00     0.060 A 
BRANCH  70  71
ATOM     71  S   UNL     1      13.604  10.049  11.589  1.00  0.00     0.124 S 
ATOM     72  O   UNL     1      13.802  11.256  10.793  1.00  0.00    -0.237 OA
ATOM     73  O   UNL     1      12.854  10.223  12.829  1.00  0.00    -0.237 OA
ATOM     74  O   UNL     1      14.759   9.161  11.683  1.00  0.00    -0.744 OA
ENDBRANCH  70  71
ENDBRANCH  38  63
ENDBRANCH  12  13
ENDBRANCH   5   7
ENDBRANCH   4   5
ENDBRANCH   3   4
ENDBRANCH   2   3
ENDBRANCH   1   2
BRANCH   1  75
ATOM     75  C   UNL     1       3.000   1.226  -1.963  1.00  0.00     0.202 C 
BRANCH  75  76
ATOM     76  C   UNL     1       3.174   2.141  -3.178  1.00  0.00     0.261 C 
BRANCH  76  77
ATOM     77  O   UNL     1       3.515   1.313  -4.299  1.00  0.00    -0.460 OA
BRANCH  77  78
ATOM     78  C   UNL     1       4.837   1.164  -4.572  1.00  0.00     0.342 C 
ATOM     79  O   UNL     1       5.753   1.898  -4.243  1.00  0.00    -0.246 OA
BRANCH  78  80
ATOM     80  C   UNL     1       5.014  -0.228  -5.048  1.00  0.00     0.103 A 
ATOM     81  C   UNL     1       6.010  -0.995  -4.424  1.00  0.00     0.041 A 
ATOM     82  C   UNL     1       4.083  -0.843  -5.894  1.00  0.00     0.130 A 
ATOM     83  C   UNL     1       5.965  -2.388  -4.527  1.00  0.00     0.088 A 
ATOM     84  C   UNL     1       4.033  -2.231  -5.983  1.00  0.00     0.048 A 
ATOM     85  C   UNL     1       4.928  -3.002  -5.240  1.00  0.00     0.026 A 
BRANCH  82  86
ATOM     86  O   UNL     1       3.208  -0.087  -6.620  1.00  0.00    -0.507 OA
ATOM     87  H   UNL     1       3.237   0.848  -6.564  1.00  0.00     0.293 HD
ENDBRANCH  82  86
BRANCH  83  88
ATOM     88  S   UNL     1       7.111  -3.377  -3.591  1.00  0.00     0.261 S 
ATOM     89  O   UNL     1       8.108  -2.495  -3.027  1.00  0.00    -0.201 OA
ATOM     90  O   UNL     1       6.303  -4.221  -2.735  1.00  0.00    -0.201 OA
BRANCH  88  91
ATOM     91  N   UNL     1       7.945  -4.441  -4.630  1.00  0.00    -0.280 N 
ATOM     92  H   UNL     1       8.749  -4.912  -4.313  1.00  0.00     0.180 HD
BRANCH  91  93
ATOM     93  C   UNL     1       7.473  -4.647  -5.962  1.00  0.00     0.050 A 
ATOM     94  C   UNL     1       7.691  -3.659  -6.923  1.00  0.00     0.027 A 
ATOM     95  C   UNL     1       6.733  -5.789  -6.277  1.00  0.00     0.047 A 
ATOM     96  C   UNL     1       7.132  -3.788  -8.195  1.00  0.00     0.004 A 
ATOM     97  C   UNL     1       6.185  -5.914  -7.554  1.00  0.00     0.043 A 
ATOM     98  C   UNL     1       6.372  -4.915  -8.510  1.00  0.00     0.020 A 
ATOM     99  Cl  UNL     1       5.238  -7.297  -7.945  1.00  0.00    -0.084 Cl
ENDBRANCH  91  93
ENDBRANCH  88  91
ENDBRANCH  83  88
ENDBRANCH  78  80
ENDBRANCH  77  78
ENDBRANCH  76  77
ENDBRANCH  75  76
ENDBRANCH   1  75
TORSDOF 21
