REMARK SMILES C[C@H](C(=O)OCCOCCOC(=O)c1ccc(-c2c3nc(c(-c4c(F)cc(S(=O)(=O)[O-])cc4F)c4ccc([nH]4)c(-c4c(F)cc(S(=O)(=O)[O-])cc4F)c4nc(c(-c5c(F)cc(S(=O)(=O)[O-])cc5F)c5ccc2[nH]5)C=C4)C=C3)cc1)[C@@H](C(=O)c1ccccc1)c1ccc(F)cc1
REMARK SMILES IDX 8 1 7 2 6 3 5 4 3 5 4 6 2 7 1 8 80 9 81 10 82 11 83 12 84 13
REMARK SMILES IDX 88 14 85 15 87 16 86 17 89 18 90 19 95 20 91 21 94 22 92 23
REMARK SMILES IDX 93 24 9 25 10 26 11 27 12 28 13 29 14 30 15 31 79 32 16 33
REMARK SMILES IDX 78 34 17 35 18 36 19 37 72 38 20 39 77 40 71 41 73 42 21 43
REMARK SMILES IDX 76 44 70 45 69 46 22 48 56 49 35 50 55 51 36 52 39 53 54 54
REMARK SMILES IDX 74 55 37 56 38 57 53 59 75 60 40 61 23 62 24 63 33 64 25 65
REMARK SMILES IDX 26 66 32 67 34 68 27 69 28 70 29 71 30 72 31 73 57 74 58 75
REMARK SMILES IDX 67 76 59 77 60 78 66 79 68 80 61 81 62 82 63 83 64 84 65 85
REMARK SMILES IDX 41 86 42 87 51 88 43 89 44 90 50 91 52 92 45 93 46 94 47 95
REMARK SMILES IDX 48 96 49 97
REMARK H PARENT 73 47 39 58
REMARK Flexibility Score: inf
ROOT
ATOM      1  O   UNL     1       0.711  -1.182   2.577  1.00  0.00    -0.374 OA
ENDROOT
BRANCH   1   2
ATOM      2  C   UNL     1       1.424   0.054   2.530  1.00  0.00     0.202 C 
BRANCH   2   3
ATOM      3  C   UNL     1       2.447   0.064   1.391  1.00  0.00     0.261 C 
BRANCH   3   4
ATOM      4  O   UNL     1       1.864   0.430   0.123  1.00  0.00    -0.463 OA
BRANCH   4   5
ATOM      5  C   UNL     1       1.427  -0.568  -0.683  1.00  0.00     0.309 C 
ATOM      6  O   UNL     1       1.413  -1.756  -0.392  1.00  0.00    -0.252 OA
BRANCH   5   7
ATOM      7  C   UNL     1       0.970  -0.022  -2.031  1.00  0.00     0.111 C 
ATOM      8  C   UNL     1       1.665  -0.920  -3.075  1.00  0.00     0.021 C 
BRANCH   7   9
ATOM      9  C   UNL     1      -0.571  -0.042  -2.112  1.00  0.00     0.105 C 
BRANCH   9  10
ATOM     10  C   UNL     1      -1.472   1.034  -1.435  1.00  0.00     0.171 C 
ATOM     11  O   UNL     1      -2.692   1.005  -1.661  1.00  0.00    -0.293 OA
BRANCH  10  12
ATOM     12  C   UNL     1      -1.049   2.057  -0.440  1.00  0.00     0.018 A 
ATOM     13  C   UNL     1      -2.042   2.451   0.471  1.00  0.00     0.012 A 
ATOM     14  C   UNL     1       0.184   2.705  -0.391  1.00  0.00     0.012 A 
ATOM     15  C   UNL     1      -1.790   3.428   1.425  1.00  0.00     0.001 A 
ATOM     16  C   UNL     1       0.465   3.624   0.628  1.00  0.00     0.001 A 
ATOM     17  C   UNL     1      -0.522   3.980   1.539  1.00  0.00     0.000 A 
ENDBRANCH  10  12
ENDBRANCH   9  10
BRANCH   9  18
ATOM     18  C   UNL     1      -1.086  -0.156  -3.559  1.00  0.00    -0.036 A 
ATOM     19  C   UNL     1      -1.069   0.959  -4.417  1.00  0.00     0.007 A 
ATOM     20  C   UNL     1      -1.717  -1.339  -3.983  1.00  0.00     0.007 A 
ATOM     21  C   UNL     1      -1.720   0.904  -5.651  1.00  0.00     0.039 A 
ATOM     22  C   UNL     1      -2.356  -1.390  -5.221  1.00  0.00     0.039 A 
ATOM     23  C   UNL     1      -2.364  -0.265  -6.036  1.00  0.00     0.123 A 
ATOM     24  F   UNL     1      -3.019  -0.303  -7.204  1.00  0.00    -0.207 F 
ENDBRANCH   9  18
ENDBRANCH   7   9
ENDBRANCH   5   7
ENDBRANCH   4   5
ENDBRANCH   3   4
ENDBRANCH   2   3
ENDBRANCH   1   2
BRANCH   1  25
ATOM     25  C   UNL     1      -0.567  -1.157   1.943  1.00  0.00     0.202 C 
BRANCH  25  26
ATOM     26  C   UNL     1      -1.698  -1.092   2.967  1.00  0.00     0.261 C 
BRANCH  26  27
ATOM     27  O   UNL     1      -1.801   0.234   3.510  1.00  0.00    -0.460 OA
BRANCH  27  28
ATOM     28  C   UNL     1      -1.200   0.447   4.708  1.00  0.00     0.338 C 
ATOM     29  O   UNL     1      -0.630  -0.368   5.405  1.00  0.00    -0.246 OA
BRANCH  28  30
ATOM     30  C   UNL     1      -1.242   1.900   4.998  1.00  0.00     0.060 A 
ATOM     31  C   UNL     1      -0.171   2.488   5.678  1.00  0.00     0.016 A 
ATOM     32  C   UNL     1      -2.316   2.687   4.581  1.00  0.00     0.016 A 
ATOM     33  C   UNL     1      -0.170   3.866   5.929  1.00  0.00     0.010 A 
ATOM     34  C   UNL     1      -2.287   4.068   4.785  1.00  0.00     0.010 A 
ATOM     35  C   UNL     1      -1.227   4.671   5.481  1.00  0.00    -0.014 A 
BRANCH  35  36
ATOM     36  C   UNL     1      -1.304   6.117   5.830  1.00  0.00     0.031 A 
ATOM     37  C   UNL     1      -2.433   6.594   6.712  1.00  0.00     0.074 A 
ATOM     38  C   UNL     1      -0.415   7.008   5.345  1.00  0.00     0.049 A 
ATOM     39  N   UNL     1      -2.715   7.805   7.118  1.00  0.00    -0.248 NA
ATOM     40  C   UNL     1      -3.394   5.575   7.166  1.00  0.00     0.031 C 
ATOM     41  C   UNL     1       0.693   6.703   4.438  1.00  0.00     0.029 A 
ATOM     42  N   UNL     1      -0.309   8.364   5.545  1.00  0.00    -0.354 N 
ATOM     43  C   UNL     1      -3.891   7.692   7.850  1.00  0.00     0.074 A 
ATOM     44  C   UNL     1      -4.314   6.313   7.762  1.00  0.00     0.031 C 
ATOM     45  C   UNL     1       1.370   7.834   4.169  1.00  0.00     0.029 A 
ATOM     46  C   UNL     1       0.751   8.945   4.888  1.00  0.00     0.049 A 
ATOM     47  H   UNL     1      -0.936   8.873   6.108  1.00  0.00     0.167 HD
ATOM     48  C   UNL     1      -4.540   8.632   8.577  1.00  0.00     0.037 A 
ATOM     49  C   UNL     1       1.187  10.221   4.887  1.00  0.00     0.037 A 
ATOM     50  C   UNL     1      -4.087   9.985   8.727  1.00  0.00     0.049 A 
ATOM     51  C   UNL     1       0.482  11.243   5.742  1.00  0.00     0.074 A 
ATOM     52  C   UNL     1      -4.624  10.994   9.505  1.00  0.00     0.029 A 
ATOM     53  N   UNL     1      -2.973  10.514   8.093  1.00  0.00    -0.354 N 
ATOM     54  N   UNL     1      -0.576  11.094   6.504  1.00  0.00    -0.248 NA
ATOM     55  C   UNL     1       1.044  12.602   5.758  1.00  0.00     0.031 C 
ATOM     56  C   UNL     1      -3.843  12.141   9.329  1.00  0.00     0.029 A 
ATOM     57  C   UNL     1      -2.806  11.837   8.462  1.00  0.00     0.049 A 
ATOM     58  H   UNL     1      -2.388  10.022   7.473  1.00  0.00     0.167 HD
ATOM     59  C   UNL     1      -0.779  12.325   7.119  1.00  0.00     0.074 A 
ATOM     60  C   UNL     1       0.264  13.209   6.642  1.00  0.00     0.031 C 
ATOM     61  C   UNL     1      -1.741  12.691   8.002  1.00  0.00     0.037 A 
BRANCH  48  62
ATOM     62  C   UNL     1      -5.791   8.200   9.289  1.00  0.00     0.058 A 
ATOM     63  C   UNL     1      -5.740   7.327  10.389  1.00  0.00     0.135 A 
ATOM     64  C   UNL     1      -7.052   8.633   8.852  1.00  0.00     0.135 A 
ATOM     65  F   UNL     1      -4.559   6.869  10.834  1.00  0.00    -0.206 F 
ATOM     66  C   UNL     1      -6.897   6.854  10.995  1.00  0.00     0.059 A 
ATOM     67  C   UNL     1      -8.223   8.196   9.464  1.00  0.00     0.059 A 
ATOM     68  F   UNL     1      -7.156   9.469   7.807  1.00  0.00    -0.206 F 
ATOM     69  C   UNL     1      -8.135   7.286  10.518  1.00  0.00     0.060 A 
BRANCH  69  70
ATOM     70  S   UNL     1      -9.631   6.632  11.286  1.00  0.00     0.124 S 
ATOM     71  O   UNL     1      -9.708   5.305  10.683  1.00  0.00    -0.237 OA
ATOM     72  O   UNL     1      -9.296   6.663  12.706  1.00  0.00    -0.237 OA
ATOM     73  O   UNL     1     -10.665   7.574  10.868  1.00  0.00    -0.744 OA
ENDBRANCH  69  70
ENDBRANCH  48  62
BRANCH  49  74
ATOM     74  C   UNL     1       2.397  10.603   4.110  1.00  0.00     0.058 A 
ATOM     75  C   UNL     1       3.609  10.877   4.762  1.00  0.00     0.135 A 
ATOM     76  C   UNL     1       2.364  10.727   2.714  1.00  0.00     0.135 A 
ATOM     77  F   UNL     1       3.688  10.779   6.098  1.00  0.00    -0.206 F 
ATOM     78  C   UNL     1       4.739  11.286   4.062  1.00  0.00     0.059 A 
ATOM     79  C   UNL     1       3.488  11.116   1.988  1.00  0.00     0.059 A 
ATOM     80  F   UNL     1       1.234  10.461   2.041  1.00  0.00    -0.206 F 
ATOM     81  C   UNL     1       4.668  11.405   2.674  1.00  0.00     0.060 A 
BRANCH  81  82
ATOM     82  S   UNL     1       6.151  11.906   1.770  1.00  0.00     0.124 S 
ATOM     83  O   UNL     1       6.212  13.331   2.075  1.00  0.00    -0.237 OA
ATOM     84  O   UNL     1       7.181  11.076   2.387  1.00  0.00    -0.237 OA
ATOM     85  O   UNL     1       5.829  11.567   0.387  1.00  0.00    -0.744 OA
ENDBRANCH  81  82
ENDBRANCH  49  74
BRANCH  61  86
ATOM     86  C   UNL     1      -1.692  14.086   8.553  1.00  0.00     0.058 A 
ATOM     87  C   UNL     1      -2.103  15.191   7.794  1.00  0.00     0.135 A 
ATOM     88  C   UNL     1      -1.312  14.307   9.887  1.00  0.00     0.135 A 
ATOM     89  F   UNL     1      -2.470  15.031   6.512  1.00  0.00    -0.206 F 
ATOM     90  C   UNL     1      -2.134  16.471   8.336  1.00  0.00     0.059 A 
ATOM     91  C   UNL     1      -1.356  15.575  10.456  1.00  0.00     0.059 A 
ATOM     92  F   UNL     1      -0.920  13.279  10.657  1.00  0.00    -0.206 F 
ATOM     93  C   UNL     1      -1.763  16.652   9.671  1.00  0.00     0.060 A 
BRANCH  93  94
ATOM     94  S   UNL     1      -1.869  18.308  10.384  1.00  0.00     0.124 S 
ATOM     95  O   UNL     1      -0.677  18.942   9.832  1.00  0.00    -0.237 OA
ATOM     96  O   UNL     1      -3.144  18.793   9.865  1.00  0.00    -0.237 OA
ATOM     97  O   UNL     1      -1.841  18.058  11.822  1.00  0.00    -0.744 OA
ENDBRANCH  93  94
ENDBRANCH  61  86
ENDBRANCH  35  36
ENDBRANCH  28  30
ENDBRANCH  27  28
ENDBRANCH  26  27
ENDBRANCH  25  26
ENDBRANCH   1  25
TORSDOF 21
