REMARK SMILES CCCCCCNC(=O)Nc1cccc(-c2ccc([C@@H](C)C(=O)OCCOCCOC(=O)c3ccc(-c4c5nc(c(-c6c(F)cc(S(=O)(=O)[O-])cc6F)c6ccc([nH]6)c(-c6c(F)cc(S(=O)(=O)[O-])cc6F)c6nc(c(-c7c(F)cc(S(=O)(=O)[O-])cc7F)c7ccc4[nH]7)C=C6)C=C5)cc3)cc2F)c1
REMARK SMILES IDX 25 1 24 2 22 3 23 4 20 5 21 6 19 7 16 8 17 9 100 10 18 11
REMARK SMILES IDX 99 12 101 13 15 14 11 15 12 16 102 17 13 18 14 19 10 20 7 21
REMARK SMILES IDX 8 22 9 24 6 26 5 27 4 28 3 29 2 30 1 31 26 32 27 33 28 34
REMARK SMILES IDX 29 35 30 36 31 37 32 38 33 39 34 40 98 41 35 42 97 43 36 44
REMARK SMILES IDX 37 45 38 46 91 47 39 48 96 49 90 50 92 51 40 52 95 53 89 54
REMARK SMILES IDX 88 55 41 57 75 58 54 59 74 60 55 61 58 62 73 63 93 64 56 65
REMARK SMILES IDX 57 66 72 68 94 69 59 70 42 71 43 72 52 73 44 74 45 75 51 76
REMARK SMILES IDX 53 77 46 78 47 79 48 80 49 81 50 82 76 83 77 84 86 85 78 86
REMARK SMILES IDX 79 87 85 88 87 89 80 90 81 91 82 92 83 93 84 94 60 95 61 96
REMARK SMILES IDX 70 97 62 98 63 99 69 100 71 101 64 102 65 103 66 104 67 105
REMARK SMILES IDX 68 106
REMARK H PARENT 7 23 10 25 92 56 58 67
REMARK Flexibility Score: inf
ROOT
ATOM      1  C   UNL     1       0.331   6.538   0.961  1.00  0.00     0.261 C 
ENDROOT
BRANCH   1   2
ATOM      2  O   UNL     1      -0.909   6.177   0.335  1.00  0.00    -0.463 OA
BRANCH   2   3
ATOM      3  C   UNL     1      -1.566   7.209  -0.259  1.00  0.00     0.313 C 
ATOM      4  O   UNL     1      -1.174   8.374  -0.259  1.00  0.00    -0.252 OA
BRANCH   3   5
ATOM      5  C   UNL     1      -2.886   6.827  -0.900  1.00  0.00     0.126 C 
ATOM      6  C   UNL     1      -4.019   7.184   0.062  1.00  0.00     0.025 C 
BRANCH   5   7
ATOM      7  C   UNL     1      -3.057   5.424  -1.472  1.00  0.00    -0.031 A 
ATOM      8  C   UNL     1      -3.837   2.911  -2.588  1.00  0.00     0.018 A 
ATOM      9  C   UNL     1      -3.574   3.054  -1.215  1.00  0.00     0.012 A 
ATOM     10  C   UNL     1      -3.612   4.033  -3.396  1.00  0.00     0.131 A 
ATOM     11  C   UNL     1      -3.188   4.287  -0.664  1.00  0.00     0.005 A 
ATOM     12  C   UNL     1      -3.229   5.264  -2.856  1.00  0.00     0.044 A 
ATOM     13  F   UNL     1      -3.825   3.970  -4.720  1.00  0.00    -0.206 F 
BRANCH   8  14
ATOM     14  C   UNL     1      -4.393   1.658  -3.136  1.00  0.00    -0.013 A 
ATOM     15  C   UNL     1      -4.345  -0.188  -4.740  1.00  0.00     0.043 A 
ATOM     16  C   UNL     1      -5.516  -0.711  -4.196  1.00  0.00     0.026 A 
ATOM     17  C   UNL     1      -3.821   1.017  -4.247  1.00  0.00     0.035 A 
ATOM     18  C   UNL     1      -6.097  -0.096  -3.091  1.00  0.00     0.003 A 
ATOM     19  C   UNL     1      -5.532   1.067  -2.560  1.00  0.00     0.009 A 
BRANCH  15  20
ATOM     20  N   UNL     1      -3.717  -0.920  -5.759  1.00  0.00    -0.308 N 
ATOM     21  N   UNL     1      -1.430  -0.861  -5.179  1.00  0.00    -0.338 N 
ATOM     22  C   UNL     1      -2.409  -0.991  -6.104  1.00  0.00     0.319 C 
ATOM     23  H   UNL     1      -0.530  -0.716  -5.550  1.00  0.00     0.165 HD
ATOM     24  O   UNL     1      -2.097  -1.275  -7.261  1.00  0.00    -0.249 OA
ATOM     25  H   UNL     1      -4.322  -1.468  -6.309  1.00  0.00     0.171 HD
BRANCH  21  26
ATOM     26  C   UNL     1      -1.491  -0.901  -3.725  1.00  0.00     0.117 C 
BRANCH  26  27
ATOM     27  C   UNL     1      -0.624  -1.992  -3.104  1.00  0.00     0.021 C 
BRANCH  27  28
ATOM     28  C   UNL     1       0.860  -1.952  -3.462  1.00  0.00     0.002 C 
BRANCH  28  29
ATOM     29  C   UNL     1       1.549  -0.600  -3.288  1.00  0.00    -0.000 C 
BRANCH  29  30
ATOM     30  C   UNL     1       1.455   0.013  -1.895  1.00  0.00    -0.003 C 
ATOM     31  C   UNL     1       1.986  -0.883  -0.791  1.00  0.00     0.004 C 
ENDBRANCH  29  30
ENDBRANCH  28  29
ENDBRANCH  27  28
ENDBRANCH  26  27
ENDBRANCH  21  26
ENDBRANCH  15  20
ENDBRANCH   8  14
ENDBRANCH   5   7
ENDBRANCH   3   5
ENDBRANCH   2   3
ENDBRANCH   1   2
BRANCH   1  32
ATOM     32  C   UNL     1       1.588   6.110   0.194  1.00  0.00     0.202 C 
BRANCH  32  33
ATOM     33  O   UNL     1       1.640   6.292  -1.214  1.00  0.00    -0.374 OA
BRANCH  33  34
ATOM     34  C   UNL     1       0.737   5.577  -2.051  1.00  0.00     0.202 C 
BRANCH  34  35
ATOM     35  C   UNL     1       0.735   4.043  -2.047  1.00  0.00     0.261 C 
BRANCH  35  36
ATOM     36  O   UNL     1       0.397   3.437  -0.787  1.00  0.00    -0.460 OA
BRANCH  36  37
ATOM     37  C   UNL     1       1.453   2.881  -0.151  1.00  0.00     0.338 C 
ATOM     38  O   UNL     1       2.628   2.960  -0.507  1.00  0.00    -0.246 OA
BRANCH  37  39
ATOM     39  C   UNL     1       1.082   2.188   1.097  1.00  0.00     0.060 A 
ATOM     40  C   UNL     1       2.065   2.139   2.093  1.00  0.00     0.016 A 
ATOM     41  C   UNL     1      -0.105   1.461   1.241  1.00  0.00     0.016 A 
ATOM     42  C   UNL     1       1.901   1.311   3.196  1.00  0.00     0.010 A 
ATOM     43  C   UNL     1      -0.268   0.624   2.354  1.00  0.00     0.010 A 
ATOM     44  C   UNL     1       0.750   0.522   3.316  1.00  0.00    -0.014 A 
BRANCH  44  45
ATOM     45  C   UNL     1       0.663  -0.411   4.462  1.00  0.00     0.031 A 
ATOM     46  C   UNL     1       1.127  -1.834   4.324  1.00  0.00     0.074 A 
ATOM     47  C   UNL     1       0.271   0.070   5.655  1.00  0.00     0.049 A 
ATOM     48  N   UNL     1       1.227  -2.763   5.239  1.00  0.00    -0.248 NA
ATOM     49  C   UNL     1       1.547  -2.267   2.982  1.00  0.00     0.031 C 
ATOM     50  C   UNL     1      -0.151   1.450   5.905  1.00  0.00     0.029 A 
ATOM     51  N   UNL     1       0.182  -0.536   6.879  1.00  0.00    -0.354 N 
ATOM     52  C   UNL     1       1.751  -3.879   4.596  1.00  0.00     0.074 A 
ATOM     53  C   UNL     1       1.909  -3.525   3.201  1.00  0.00     0.031 C 
ATOM     54  C   UNL     1      -0.457   1.583   7.205  1.00  0.00     0.029 A 
ATOM     55  C   UNL     1      -0.270   0.298   7.872  1.00  0.00     0.049 A 
ATOM     56  H   UNL     1       0.419  -1.479   7.033  1.00  0.00     0.167 HD
ATOM     57  C   UNL     1       2.082  -5.080   5.128  1.00  0.00     0.037 A 
ATOM     58  C   UNL     1      -0.513   0.048   9.172  1.00  0.00     0.037 A 
ATOM     59  C   UNL     1       1.895  -5.426   6.515  1.00  0.00     0.049 A 
ATOM     60  C   UNL     1      -0.216  -1.320   9.719  1.00  0.00     0.074 A 
ATOM     61  C   UNL     1       2.171  -6.624   7.151  1.00  0.00     0.029 A 
ATOM     62  N   UNL     1       1.382  -4.572   7.480  1.00  0.00    -0.354 N 
ATOM     63  N   UNL     1       0.284  -2.363   9.099  1.00  0.00    -0.248 NA
ATOM     64  C   UNL     1      -0.506  -1.545  11.141  1.00  0.00     0.031 C 
ATOM     65  C   UNL     1       1.791  -6.506   8.493  1.00  0.00     0.029 A 
ATOM     66  C   UNL     1       1.318  -5.220   8.702  1.00  0.00     0.049 A 
ATOM     67  H   UNL     1       1.104  -3.641   7.321  1.00  0.00     0.167 HD
ATOM     68  C   UNL     1       0.392  -3.360  10.061  1.00  0.00     0.074 A 
ATOM     69  C   UNL     1      -0.084  -2.791  11.306  1.00  0.00     0.031 C 
ATOM     70  C   UNL     1       0.845  -4.631   9.929  1.00  0.00     0.037 A 
BRANCH  57  71
ATOM     71  C   UNL     1       2.679  -6.118   4.217  1.00  0.00     0.058 A 
ATOM     72  C   UNL     1       4.010  -6.025   3.779  1.00  0.00     0.135 A 
ATOM     73  C   UNL     1       1.945  -7.255   3.843  1.00  0.00     0.135 A 
ATOM     74  F   UNL     1       4.751  -4.952   4.094  1.00  0.00    -0.206 F 
ATOM     75  C   UNL     1       4.591  -7.022   3.001  1.00  0.00     0.059 A 
ATOM     76  C   UNL     1       2.512  -8.274   3.081  1.00  0.00     0.059 A 
ATOM     77  F   UNL     1       0.668  -7.392   4.232  1.00  0.00    -0.206 F 
ATOM     78  C   UNL     1       3.835  -8.145   2.660  1.00  0.00     0.060 A 
BRANCH  78  79
ATOM     79  S   UNL     1       4.614  -9.446   1.678  1.00  0.00     0.124 S 
ATOM     80  O   UNL     1       4.689  -8.814   0.365  1.00  0.00    -0.237 OA
ATOM     81  O   UNL     1       5.889  -9.634   2.364  1.00  0.00    -0.237 OA
ATOM     82  O   UNL     1       3.678 -10.560   1.785  1.00  0.00    -0.744 OA
ENDBRANCH  78  79
ENDBRANCH  57  71
BRANCH  58  83
ATOM     83  C   UNL     1      -1.084   1.113  10.036  1.00  0.00     0.058 A 
ATOM     84  C   UNL     1      -0.333   1.705  11.061  1.00  0.00     0.135 A 
ATOM     85  C   UNL     1      -2.403   1.556   9.848  1.00  0.00     0.135 A 
ATOM     86  F   UNL     1       0.931   1.313  11.279  1.00  0.00    -0.206 F 
ATOM     87  C   UNL     1      -0.877   2.683  11.887  1.00  0.00     0.059 A 
ATOM     88  C   UNL     1      -2.960   2.549  10.644  1.00  0.00     0.059 A 
ATOM     89  F   UNL     1      -3.156   1.034   8.867  1.00  0.00    -0.206 F 
ATOM     90  C   UNL     1      -2.194   3.095  11.673  1.00  0.00     0.060 A 
BRANCH  90  91
ATOM     91  S   UNL     1      -2.890   4.383  12.730  1.00  0.00     0.124 S 
ATOM     92  O   UNL     1      -3.201   3.630  13.939  1.00  0.00    -0.237 OA
ATOM     93  O   UNL     1      -1.785   5.331  12.832  1.00  0.00    -0.237 OA
ATOM     94  O   UNL     1      -4.040   4.854  11.964  1.00  0.00    -0.744 OA
ENDBRANCH  90  91
ENDBRANCH  58  83
BRANCH  70  95
ATOM     95  C   UNL     1       0.871  -5.478  11.169  1.00  0.00     0.058 A 
ATOM     96  C   UNL     1      -0.306  -6.007  11.721  1.00  0.00     0.135 A 
ATOM     97  C   UNL     1       2.089  -5.784  11.795  1.00  0.00     0.135 A 
ATOM     98  F   UNL     1      -1.496  -5.736  11.161  1.00  0.00    -0.206 F 
ATOM     99  C   UNL     1      -0.278  -6.790  12.870  1.00  0.00     0.059 A 
ATOM    100  C   UNL     1       2.142  -6.584  12.932  1.00  0.00     0.059 A 
ATOM    101  F   UNL     1       3.243  -5.309  11.300  1.00  0.00    -0.206 F 
ATOM    102  C   UNL     1       0.951  -7.070  13.470  1.00  0.00     0.060 A 
BRANCH 102 103
ATOM    103  S   UNL     1       0.977  -8.101  14.951  1.00  0.00     0.124 S 
ATOM    104  O   UNL     1       0.529  -7.159  15.971  1.00  0.00    -0.237 OA
ATOM    105  O   UNL     1       0.034  -9.163  14.612  1.00  0.00    -0.237 OA
ATOM    106  O   UNL     1       2.372  -8.519  15.049  1.00  0.00    -0.744 OA
ENDBRANCH 102 103
ENDBRANCH  70  95
ENDBRANCH  44  45
ENDBRANCH  37  39
ENDBRANCH  36  37
ENDBRANCH  35  36
ENDBRANCH  34  35
ENDBRANCH  33  34
ENDBRANCH  32  33
ENDBRANCH   1  32
TORSDOF 25
