REMARK SMILES CS(=O)(=O)c1ccc(-c2cc(Cl)cc3c2O[C@@H](C(F)(F)F)C(C(=O)OCCOCCOC(=O)c2ccc(-c4c5nc(c(-c6c(F)cc(S(=O)(=O)[O-])cc6F)c6ccc([nH]6)c(-c6c(F)cc(S(=O)(=O)[O-])cc6F)c6nc(c(-c7c(F)cc(S(=O)(=O)[O-])cc7F)c7ccc4[nH]7)C=C6)C=C5)cc2)=C3)cc1
REMARK SMILES IDX 29 1 28 2 27 3 26 4 25 5 23 6 24 7 22 8 9 9 10 10 15 11
REMARK SMILES IDX 11 12 14 13 16 14 12 15 13 16 100 17 17 18 8 19 5 20 6 21
REMARK SMILES IDX 102 22 7 23 101 24 2 25 1 26 3 27 4 28 18 29 19 30 20 31
REMARK SMILES IDX 21 32 30 33 31 34 32 35 33 36 34 37 35 38 99 39 36 40 98 41
REMARK SMILES IDX 37 42 38 43 39 44 92 45 40 46 97 47 91 48 93 49 41 50 96 51
REMARK SMILES IDX 90 52 89 53 42 55 76 56 55 57 75 58 56 59 59 60 74 61 94 62
REMARK SMILES IDX 57 63 58 64 73 66 95 67 60 68 43 69 44 70 53 71 45 72 46 73
REMARK SMILES IDX 52 74 54 75 47 76 48 77 49 78 50 79 51 80 77 81 78 82 87 83
REMARK SMILES IDX 79 84 80 85 86 86 88 87 81 88 82 89 83 90 84 91 85 92 61 93
REMARK SMILES IDX 62 94 71 95 63 96 64 97 70 98 72 99 65 100 66 101 67 102
REMARK SMILES IDX 68 103 69 104
REMARK H PARENT 93 54 59 65
REMARK Flexibility Score: inf
ROOT
ATOM      1  C   UNL     1       2.062   1.794  10.925  1.00  0.00     0.202 C 
ENDROOT
BRANCH   1   2
ATOM      2  O   UNL     1       3.460   1.926  11.168  1.00  0.00    -0.374 OA
BRANCH   2   3
ATOM      3  C   UNL     1       3.876   2.643  12.324  1.00  0.00     0.202 C 
BRANCH   3   4
ATOM      4  C   UNL     1       3.574   4.148  12.405  1.00  0.00     0.261 C 
BRANCH   4   5
ATOM      5  O   UNL     1       2.521   4.564  11.521  1.00  0.00    -0.460 OA
BRANCH   5   6
ATOM      6  C   UNL     1       2.709   5.739  10.892  1.00  0.00     0.338 C 
ATOM      7  O   UNL     1       3.626   6.520  11.110  1.00  0.00    -0.246 OA
BRANCH   6   8
ATOM      8  C   UNL     1       1.779   5.934   9.752  1.00  0.00     0.087 C 
ATOM      9  C   UNL     1       1.590   2.800   7.023  1.00  0.00     0.026 A 
ATOM     10  C   UNL     1       2.822   2.123   7.179  1.00  0.00     0.033 A 
ATOM     11  C   UNL     1       1.465   3.992   7.774  1.00  0.00     0.135 A 
ATOM     12  C   UNL     1       3.932   2.761   7.732  1.00  0.00     0.042 A 
ATOM     13  C   UNL     1       2.624   4.728   8.076  1.00  0.00     0.019 A 
ATOM     14  O   UNL     1       0.354   4.176   8.624  1.00  0.00    -0.475 OA
ATOM     15  Cl  UNL     1       5.421   1.916   7.860  1.00  0.00    -0.084 Cl
ATOM     16  C   UNL     1       3.863   4.100   8.085  1.00  0.00     0.032 A 
ATOM     17  C   UNL     1       2.478   6.096   8.617  1.00  0.00     0.027 C 
ATOM     18  C   UNL     1       0.397   5.350   9.550  1.00  0.00     0.316 C 
BRANCH   9  19
ATOM     19  C   UNL     1       0.954   2.562   5.666  1.00  0.00    -0.015 A 
ATOM     20  C   UNL     1       0.561   2.090   2.864  1.00  0.00     0.067 A 
ATOM     21  C   UNL     1       0.649   1.017   3.746  1.00  0.00     0.021 A 
ATOM     22  C   UNL     1       0.613   3.393   3.369  1.00  0.00     0.021 A 
ATOM     23  C   UNL     1       0.826   1.258   5.128  1.00  0.00     0.010 A 
ATOM     24  C   UNL     1       0.799   3.623   4.749  1.00  0.00     0.010 A 
BRANCH  20  25
ATOM     25  S   UNL     1       0.404   1.868   1.099  1.00  0.00     0.175 S 
ATOM     26  C   UNL     1       1.123   0.310   0.656  1.00  0.00     0.163 C 
ATOM     27  O   UNL     1       1.225   2.888   0.471  1.00  0.00    -0.224 OA
ATOM     28  O   UNL     1      -1.018   1.787   0.823  1.00  0.00    -0.224 OA
ENDBRANCH  20  25
ENDBRANCH   9  19
BRANCH  18  29
ATOM     29  C   UNL     1      -0.476   5.275  10.825  1.00  0.00     0.430 C 
ATOM     30  F   UNL     1      -0.788   6.540  11.224  1.00  0.00    -0.167 F 
ATOM     31  F   UNL     1      -1.653   4.650  10.590  1.00  0.00    -0.167 F 
ATOM     32  F   UNL     1       0.095   4.665  11.879  1.00  0.00    -0.167 F 
ENDBRANCH  18  29
ENDBRANCH   6   8
ENDBRANCH   5   6
ENDBRANCH   4   5
ENDBRANCH   3   4
ENDBRANCH   2   3
ENDBRANCH   1   2
BRANCH   1  33
ATOM     33  C   UNL     1       1.211   0.979  11.903  1.00  0.00     0.261 C 
BRANCH  33  34
ATOM     34  O   UNL     1       1.227   1.482  13.247  1.00  0.00    -0.460 OA
BRANCH  34  35
ATOM     35  C   UNL     1       1.811   0.658  14.148  1.00  0.00     0.338 C 
ATOM     36  O   UNL     1       2.319  -0.436  13.931  1.00  0.00    -0.246 OA
BRANCH  35  37
ATOM     37  C   UNL     1       1.911   1.326  15.452  1.00  0.00     0.060 A 
ATOM     38  C   UNL     1       3.187   1.525  15.994  1.00  0.00     0.016 A 
ATOM     39  C   UNL     1       0.765   1.656  16.179  1.00  0.00     0.016 A 
ATOM     40  C   UNL     1       3.321   2.021  17.288  1.00  0.00     0.010 A 
ATOM     41  C   UNL     1       0.903   2.147  17.479  1.00  0.00     0.010 A 
ATOM     42  C   UNL     1       2.179   2.300  18.051  1.00  0.00    -0.014 A 
BRANCH  42  43
ATOM     43  C   UNL     1       2.323   2.628  19.489  1.00  0.00     0.031 A 
ATOM     44  C   UNL     1       2.030   1.568  20.514  1.00  0.00     0.074 A 
ATOM     45  C   UNL     1       2.725   3.853  19.869  1.00  0.00     0.049 A 
ATOM     46  N   UNL     1       2.048   1.648  21.819  1.00  0.00    -0.248 NA
ATOM     47  C   UNL     1       1.660   0.239  19.998  1.00  0.00     0.031 C 
ATOM     48  C   UNL     1       3.060   4.949  18.961  1.00  0.00     0.029 A 
ATOM     49  N   UNL     1       2.907   4.385  21.121  1.00  0.00    -0.354 N 
ATOM     50  C   UNL     1       1.681   0.389  22.281  1.00  0.00     0.074 A 
ATOM     51  C   UNL     1       1.417  -0.428  21.117  1.00  0.00     0.031 C 
ATOM     52  C   UNL     1       3.392   6.030  19.687  1.00  0.00     0.029 A 
ATOM     53  C   UNL     1       3.259   5.713  21.107  1.00  0.00     0.049 A 
ATOM     54  H   UNL     1       2.796   3.864  21.949  1.00  0.00     0.167 HD
ATOM     55  C   UNL     1       1.582  -0.045  23.561  1.00  0.00     0.037 A 
ATOM     56  C   UNL     1       3.427   6.579  22.125  1.00  0.00     0.037 A 
ATOM     57  C   UNL     1       1.849   0.781  24.711  1.00  0.00     0.049 A 
ATOM     58  C   UNL     1       3.264   6.088  23.540  1.00  0.00     0.074 A 
ATOM     59  C   UNL     1       1.808   0.432  26.049  1.00  0.00     0.029 A 
ATOM     60  N   UNL     1       2.193   2.125  24.659  1.00  0.00    -0.354 N 
ATOM     61  N   UNL     1       2.953   4.886  23.965  1.00  0.00    -0.248 NA
ATOM     62  C   UNL     1       3.483   7.067  24.612  1.00  0.00     0.031 C 
ATOM     63  C   UNL     1       2.068   1.579  26.808  1.00  0.00     0.029 A 
ATOM     64  C   UNL     1       2.337   2.628  25.942  1.00  0.00     0.049 A 
ATOM     65  H   UNL     1       2.317   2.645  23.832  1.00  0.00     0.167 HD
ATOM     66  C   UNL     1       2.962   4.958  25.355  1.00  0.00     0.074 A 
ATOM     67  C   UNL     1       3.327   6.319  25.696  1.00  0.00     0.031 C 
ATOM     68  C   UNL     1       2.697   3.988  26.266  1.00  0.00     0.037 A 
BRANCH  55  69
ATOM     69  C   UNL     1       1.132  -1.464  23.784  1.00  0.00     0.058 A 
ATOM     70  C   UNL     1       1.941  -2.564  23.451  1.00  0.00     0.135 A 
ATOM     71  C   UNL     1      -0.121  -1.729  24.360  1.00  0.00     0.135 A 
ATOM     72  F   UNL     1       3.142  -2.373  22.883  1.00  0.00    -0.206 F 
ATOM     73  C   UNL     1       1.510  -3.872  23.650  1.00  0.00     0.059 A 
ATOM     74  C   UNL     1      -0.560  -3.028  24.597  1.00  0.00     0.059 A 
ATOM     75  F   UNL     1      -0.937  -0.718  24.696  1.00  0.00    -0.206 F 
ATOM     76  C   UNL     1       0.256  -4.094  24.223  1.00  0.00     0.060 A 
BRANCH  76  77
ATOM     77  S   UNL     1      -0.291  -5.797  24.470  1.00  0.00     0.124 S 
ATOM     78  O   UNL     1      -0.551  -6.221  23.097  1.00  0.00    -0.237 OA
ATOM     79  O   UNL     1       0.869  -6.407  25.112  1.00  0.00    -0.237 OA
ATOM     80  O   UNL     1      -1.471  -5.657  25.316  1.00  0.00    -0.744 OA
ENDBRANCH  76  77
ENDBRANCH  55  69
BRANCH  56  81
ATOM     81  C   UNL     1       3.753   8.002  21.837  1.00  0.00     0.058 A 
ATOM     82  C   UNL     1       5.008   8.541  22.151  1.00  0.00     0.135 A 
ATOM     83  C   UNL     1       2.815   8.848  21.222  1.00  0.00     0.135 A 
ATOM     84  F   UNL     1       5.936   7.777  22.749  1.00  0.00    -0.206 F 
ATOM     85  C   UNL     1       5.321   9.869  21.877  1.00  0.00     0.059 A 
ATOM     86  C   UNL     1       3.113  10.170  20.911  1.00  0.00     0.059 A 
ATOM     87  F   UNL     1       1.602   8.378  20.890  1.00  0.00    -0.206 F 
ATOM     88  C   UNL     1       4.368  10.674  21.250  1.00  0.00     0.060 A 
BRANCH  88  89
ATOM     89  S   UNL     1       4.805  12.379  20.845  1.00  0.00     0.124 S 
ATOM     90  O   UNL     1       4.828  12.998  22.165  1.00  0.00    -0.237 OA
ATOM     91  O   UNL     1       6.101  12.214  20.194  1.00  0.00    -0.237 OA
ATOM     92  O   UNL     1       3.720  12.804  19.966  1.00  0.00    -0.744 OA
ENDBRANCH  88  89
ENDBRANCH  56  81
BRANCH  68  93
ATOM     93  C   UNL     1       2.822   4.352  27.722  1.00  0.00     0.058 A 
ATOM     94  C   UNL     1       1.903   5.204  28.355  1.00  0.00     0.135 A 
ATOM     95  C   UNL     1       3.854   3.807  28.503  1.00  0.00     0.135 A 
ATOM     96  F   UNL     1       0.900   5.757  27.655  1.00  0.00    -0.206 F 
ATOM     97  C   UNL     1       2.023   5.529  29.703  1.00  0.00     0.059 A 
ATOM     98  C   UNL     1       3.973   4.092  29.860  1.00  0.00     0.059 A 
ATOM     99  F   UNL     1       4.753   2.976  27.953  1.00  0.00    -0.206 F 
ATOM    100  C   UNL     1       3.061   4.967  30.448  1.00  0.00     0.060 A 
BRANCH 100 101
ATOM    101  S   UNL     1       3.194   5.382  32.199  1.00  0.00     0.124 S 
ATOM    102  O   UNL     1       3.670   6.760  32.140  1.00  0.00    -0.237 OA
ATOM    103  O   UNL     1       1.822   5.205  32.667  1.00  0.00    -0.237 OA
ATOM    104  O   UNL     1       4.154   4.408  32.709  1.00  0.00    -0.744 OA
ENDBRANCH 100 101
ENDBRANCH  68  93
ENDBRANCH  42  43
ENDBRANCH  35  37
ENDBRANCH  34  35
ENDBRANCH  33  34
ENDBRANCH   1  33
TORSDOF 20
