REMARK SMILES Cc1ccc(N2C(=O)N[C@@H]3CCN(C(=O)CC4(CC(=O)OCCOCCOC(=O)c5ccc(-c6c7nc(c(-c8c(F)cc(S(=O)(=O)[O-])cc8F)c8ccc([nH]8)c(-c8c(F)cc(S(=O)(=O)[O-])cc8F)c8nc(c(-c9c(F)cc(S(=O)(=O)[O-])cc9F)c9ccc6[nH]9)C=C8)C=C7)cc5)CCCC4)[C@@H]3C2=O)cc1
REMARK SMILES IDX 23 1 22 2 21 3 19 4 20 5 18 6 17 7 96 8 99 9 97 10 98 11
REMARK SMILES IDX 16 12 14 13 15 14 13 15 6 16 7 17 101 18 8 19 9 20 100 21
REMARK SMILES IDX 102 22 10 23 11 25 12 26 5 27 1 28 2 29 3 30 104 31 4 32
REMARK SMILES IDX 103 33 24 34 25 35 26 36 27 37 28 38 29 39 30 40 31 41 95 42
REMARK SMILES IDX 32 43 94 44 33 45 34 46 35 47 88 48 36 49 93 50 87 51 89 52
REMARK SMILES IDX 37 53 92 54 86 55 85 56 38 58 72 59 51 60 71 61 52 62 55 63
REMARK SMILES IDX 70 64 90 65 53 66 54 67 69 69 91 70 56 71 39 72 40 73 49 74
REMARK SMILES IDX 41 75 42 76 48 77 50 78 43 79 44 80 45 81 46 82 47 83 73 84
REMARK SMILES IDX 74 85 83 86 75 87 76 88 82 89 84 90 77 91 78 92 79 93 80 94
REMARK SMILES IDX 81 95 57 96 58 97 67 98 59 99 60 100 66 101 68 102 61 103
REMARK SMILES IDX 62 104 63 105 64 106 65 107
REMARK H PARENT 9 24 89 57 55 68
REMARK Flexibility Score: inf
ROOT
ATOM      1  C   UNL     1      -9.744   2.325  -4.952  1.00  0.00     0.202 C 
ENDROOT
BRANCH   1   2
ATOM      2  C   UNL     1      -9.706   1.226  -5.950  1.00  0.00     0.261 C 
BRANCH   2   3
ATOM      3  O   UNL     1      -8.418   0.614  -6.087  1.00  0.00    -0.463 OA
BRANCH   3   4
ATOM      4  C   UNL     1      -7.329   1.105  -6.742  1.00  0.00     0.306 C 
ATOM      5  O   UNL     1      -7.290   2.003  -7.550  1.00  0.00    -0.252 OA
BRANCH   4   6
ATOM      6  C   UNL     1      -6.120   0.301  -6.252  1.00  0.00     0.130 C 
BRANCH   6   7
ATOM      7  C   UNL     1      -6.269  -0.055  -4.726  1.00  0.00    -0.011 C 
ATOM      8  C   UNL     1      -5.024  -0.795  -4.212  1.00  0.00     0.008 C 
ATOM      9  C   UNL     1      -7.394  -1.158  -4.588  1.00  0.00     0.008 C 
ATOM     10  C   UNL     1      -5.283  -2.267  -4.523  1.00  0.00     0.001 C 
ATOM     11  C   UNL     1      -6.739  -2.455  -4.150  1.00  0.00     0.001 C 
BRANCH   7  12
ATOM     12  C   UNL     1      -6.590   1.302  -4.004  1.00  0.00     0.107 C 
BRANCH  12  13
ATOM     13  C   UNL     1      -5.903   1.766  -2.745  1.00  0.00     0.223 C 
ATOM     14  O   UNL     1      -5.221   2.792  -2.733  1.00  0.00    -0.275 OA
BRANCH  13  15
ATOM     15  N   UNL     1      -6.130   1.048  -1.602  1.00  0.00    -0.328 N 
ATOM     16  N   UNL     1      -3.228   0.138   0.361  1.00  0.00    -0.230 N 
ATOM     17  C   UNL     1      -3.843  -0.398   1.481  1.00  0.00     0.329 C 
ATOM     18  C   UNL     1      -3.898   0.739  -0.699  1.00  0.00     0.260 C 
ATOM     19  O   UNL     1      -3.297  -1.069   2.356  1.00  0.00    -0.248 OA
ATOM     20  N   UNL     1      -5.165  -0.115   1.652  1.00  0.00    -0.332 N 
ATOM     21  C   UNL     1      -5.308   1.264  -0.420  1.00  0.00     0.197 C 
ATOM     22  O   UNL     1      -3.369   0.867  -1.810  1.00  0.00    -0.271 OA
ATOM     23  C   UNL     1      -6.023   0.486   0.674  1.00  0.00     0.118 C 
ATOM     24  H   UNL     1      -5.564  -0.343   2.523  1.00  0.00     0.165 HD
ATOM     25  C   UNL     1      -6.819  -0.579  -0.076  1.00  0.00     0.049 C 
ATOM     26  C   UNL     1      -7.212   0.123  -1.352  1.00  0.00     0.122 C 
BRANCH  16  27
ATOM     27  C   UNL     1      -1.812   0.033   0.226  1.00  0.00     0.054 A 
ATOM     28  C   UNL     1       2.481  -0.106  -0.054  1.00  0.00     0.044 C 
ATOM     29  C   UNL     1       0.986  -0.056   0.023  1.00  0.00    -0.051 A 
ATOM     30  C   UNL     1       0.247  -1.233   0.209  1.00  0.00     0.005 A 
ATOM     31  C   UNL     1       0.313   1.161  -0.108  1.00  0.00     0.005 A 
ATOM     32  C   UNL     1      -1.145  -1.188   0.331  1.00  0.00     0.027 A 
ATOM     33  C   UNL     1      -1.075   1.202  -0.024  1.00  0.00     0.027 A 
ENDBRANCH  16  27
ENDBRANCH  13  15
ENDBRANCH  12  13
ENDBRANCH   7  12
ENDBRANCH   6   7
ENDBRANCH   4   6
ENDBRANCH   3   4
ENDBRANCH   2   3
ENDBRANCH   1   2
BRANCH   1  34
ATOM     34  O   UNL     1      -8.864   3.299  -5.486  1.00  0.00    -0.374 OA
BRANCH  34  35
ATOM     35  C   UNL     1      -8.713   4.511  -4.796  1.00  0.00     0.202 C 
BRANCH  35  36
ATOM     36  C   UNL     1      -9.915   4.978  -3.974  1.00  0.00     0.261 C 
BRANCH  36  37
ATOM     37  O   UNL     1     -11.235   4.722  -4.522  1.00  0.00    -0.460 OA
BRANCH  37  38
ATOM     38  C   UNL     1     -11.719   5.384  -5.598  1.00  0.00     0.338 C 
ATOM     39  O   UNL     1     -12.274   6.468  -5.565  1.00  0.00    -0.246 OA
BRANCH  38  40
ATOM     40  C   UNL     1     -11.553   4.572  -6.823  1.00  0.00     0.060 A 
ATOM     41  C   UNL     1     -12.427   3.533  -7.191  1.00  0.00     0.016 A 
ATOM     42  C   UNL     1     -10.377   4.780  -7.524  1.00  0.00     0.016 A 
ATOM     43  C   UNL     1     -12.062   2.622  -8.201  1.00  0.00     0.010 A 
ATOM     44  C   UNL     1      -9.968   3.817  -8.424  1.00  0.00     0.010 A 
ATOM     45  C   UNL     1     -10.796   2.724  -8.770  1.00  0.00    -0.014 A 
BRANCH  45  46
ATOM     46  C   UNL     1     -10.167   1.813  -9.740  1.00  0.00     0.031 A 
ATOM     47  C   UNL     1      -9.872   2.425 -11.052  1.00  0.00     0.074 A 
ATOM     48  C   UNL     1      -9.544   0.664  -9.371  1.00  0.00     0.049 A 
ATOM     49  N   UNL     1      -9.222   1.855 -11.996  1.00  0.00    -0.248 NA
ATOM     50  C   UNL     1     -10.311   3.772 -11.405  1.00  0.00     0.031 C 
ATOM     51  C   UNL     1      -8.363   0.025  -9.963  1.00  0.00     0.029 A 
ATOM     52  N   UNL     1      -9.863  -0.227  -8.341  1.00  0.00    -0.354 N 
ATOM     53  C   UNL     1      -8.852   2.824 -12.899  1.00  0.00     0.074 A 
ATOM     54  C   UNL     1      -9.650   3.969 -12.546  1.00  0.00     0.031 C 
ATOM     55  C   UNL     1      -8.253  -1.235  -9.498  1.00  0.00     0.029 A 
ATOM     56  C   UNL     1      -9.455  -1.511  -8.729  1.00  0.00     0.049 A 
ATOM     57  H   UNL     1     -10.300   0.008  -7.491  1.00  0.00     0.167 HD
ATOM     58  C   UNL     1      -7.817   2.532 -13.739  1.00  0.00     0.037 A 
ATOM     59  C   UNL     1     -10.417  -2.450  -8.944  1.00  0.00     0.037 A 
ATOM     60  C   UNL     1      -7.509   1.083 -13.655  1.00  0.00     0.049 A 
ATOM     61  C   UNL     1     -10.486  -2.753 -10.422  1.00  0.00     0.074 A 
ATOM     62  C   UNL     1      -6.506   0.304 -13.103  1.00  0.00     0.029 A 
ATOM     63  N   UNL     1      -8.551   0.197 -13.903  1.00  0.00    -0.354 N 
ATOM     64  N   UNL     1      -9.705  -2.183 -11.301  1.00  0.00    -0.248 NA
ATOM     65  C   UNL     1     -11.422  -3.675 -11.047  1.00  0.00     0.031 C 
ATOM     66  C   UNL     1      -7.002  -1.043 -12.977  1.00  0.00     0.029 A 
ATOM     67  C   UNL     1      -8.292  -1.094 -13.482  1.00  0.00     0.049 A 
ATOM     68  H   UNL     1      -9.393   0.463 -14.338  1.00  0.00     0.167 HD
ATOM     69  C   UNL     1     -10.013  -2.577 -12.559  1.00  0.00     0.074 A 
ATOM     70  C   UNL     1     -11.121  -3.507 -12.350  1.00  0.00     0.031 C 
ATOM     71  C   UNL     1      -9.344  -2.104 -13.656  1.00  0.00     0.037 A 
BRANCH  58  72
ATOM     72  C   UNL     1      -6.995   3.555 -14.518  1.00  0.00     0.058 A 
ATOM     73  C   UNL     1      -5.802   3.162 -15.164  1.00  0.00     0.135 A 
ATOM     74  C   UNL     1      -7.268   4.939 -14.634  1.00  0.00     0.135 A 
ATOM     75  F   UNL     1      -5.395   1.885 -15.155  1.00  0.00    -0.206 F 
ATOM     76  C   UNL     1      -4.959   4.057 -15.840  1.00  0.00     0.059 A 
ATOM     77  C   UNL     1      -6.442   5.852 -15.297  1.00  0.00     0.059 A 
ATOM     78  F   UNL     1      -8.356   5.512 -14.124  1.00  0.00    -0.206 F 
ATOM     79  C   UNL     1      -5.287   5.404 -15.902  1.00  0.00     0.060 A 
BRANCH  79  80
ATOM     80  S   UNL     1      -4.214   6.551 -16.783  1.00  0.00     0.124 S 
ATOM     81  O   UNL     1      -2.948   6.395 -16.074  1.00  0.00    -0.237 OA
ATOM     82  O   UNL     1      -4.254   6.021 -18.142  1.00  0.00    -0.237 OA
ATOM     83  O   UNL     1      -4.870   7.845 -16.602  1.00  0.00    -0.744 OA
ENDBRANCH  79  80
ENDBRANCH  58  72
BRANCH  59  84
ATOM     84  C   UNL     1     -11.531  -2.307  -7.934  1.00  0.00     0.058 A 
ATOM     85  C   UNL     1     -11.217  -2.574  -6.578  1.00  0.00     0.135 A 
ATOM     86  C   UNL     1     -12.622  -1.451  -8.162  1.00  0.00     0.135 A 
ATOM     87  F   UNL     1     -10.167  -3.358  -6.276  1.00  0.00    -0.206 F 
ATOM     88  C   UNL     1     -11.846  -1.916  -5.516  1.00  0.00     0.059 A 
ATOM     89  C   UNL     1     -13.260  -0.772  -7.109  1.00  0.00     0.059 A 
ATOM     90  F   UNL     1     -12.974  -1.134  -9.416  1.00  0.00    -0.206 F 
ATOM     91  C   UNL     1     -12.828  -0.969  -5.795  1.00  0.00     0.060 A 
BRANCH  91  92
ATOM     92  S   UNL     1     -13.318   0.188  -4.476  1.00  0.00     0.124 S 
ATOM     93  O   UNL     1     -14.340  -0.571  -3.768  1.00  0.00    -0.237 OA
ATOM     94  O   UNL     1     -12.065   0.391  -3.747  1.00  0.00    -0.237 OA
ATOM     95  O   UNL     1     -13.787   1.355  -5.213  1.00  0.00    -0.744 OA
ENDBRANCH  91  92
ENDBRANCH  59  84
BRANCH  71  96
ATOM     96  C   UNL     1      -9.722  -2.550 -15.038  1.00  0.00     0.058 A 
ATOM     97  C   UNL     1     -10.037  -3.886 -15.326  1.00  0.00     0.135 A 
ATOM     98  C   UNL     1      -9.748  -1.657 -16.132  1.00  0.00     0.135 A 
ATOM     99  F   UNL     1      -9.890  -4.846 -14.399  1.00  0.00    -0.206 F 
ATOM    100  C   UNL     1     -10.515  -4.276 -16.571  1.00  0.00     0.059 A 
ATOM    101  C   UNL     1     -10.146  -2.040 -17.401  1.00  0.00     0.059 A 
ATOM    102  F   UNL     1      -9.430  -0.363 -16.015  1.00  0.00    -0.206 F 
ATOM    103  C   UNL     1     -10.586  -3.337 -17.596  1.00  0.00     0.060 A 
BRANCH 103 104
ATOM    104  S   UNL     1     -11.251  -3.819 -19.190  1.00  0.00     0.124 S 
ATOM    105  O   UNL     1     -10.651  -5.134 -19.393  1.00  0.00    -0.237 OA
ATOM    106  O   UNL     1     -12.685  -3.811 -18.916  1.00  0.00    -0.237 OA
ATOM    107  O   UNL     1     -10.775  -2.772 -20.088  1.00  0.00    -0.744 OA
ENDBRANCH 103 104
ENDBRANCH  71  96
ENDBRANCH  45  46
ENDBRANCH  38  40
ENDBRANCH  37  38
ENDBRANCH  36  37
ENDBRANCH  35  36
ENDBRANCH  34  35
ENDBRANCH   1  34
TORSDOF 22
