REMARK SMILES Cc1cc(C)cc(C2(C(=O)OCCOCCOC(=O)c3ccc(-c4c5nc(c(-c6c(F)cc(S(=O)(=O)[O-])cc6F)c6ccc([nH]6)c(-c6c(F)cc(S(=O)(=O)[O-])cc6F)c6nc(c(-c7c(F)cc(S(=O)(=O)[O-])cc7F)c7ccc4[nH]7)C=C6)C=C5)cc3)CCOCC2)c1
REMARK SMILES IDX 15 1 14 2 13 3 12 4 11 5 9 6 10 7 8 8 86 9 90 10 87 11 89 12
REMARK SMILES IDX 88 13 7 14 1 15 2 16 3 17 91 18 4 19 5 20 6 21 16 22 17 23
REMARK SMILES IDX 18 24 19 25 20 26 21 27 85 28 22 29 84 30 23 31 24 32 25 33
REMARK SMILES IDX 78 34 26 35 83 36 77 37 79 38 27 39 82 40 76 41 75 42 28 44
REMARK SMILES IDX 62 45 41 46 61 47 42 48 45 49 60 50 80 51 43 52 44 53 59 55
REMARK SMILES IDX 81 56 46 57 29 58 30 59 39 60 31 61 32 62 38 63 40 64 33 65
REMARK SMILES IDX 34 66 35 67 36 68 37 69 63 70 64 71 73 72 65 73 66 74 72 75
REMARK SMILES IDX 74 76 67 77 68 78 69 79 70 80 71 81 47 82 48 83 57 84 49 85
REMARK SMILES IDX 50 86 56 87 58 88 51 89 52 90 53 91 54 92 55 93
REMARK H PARENT 79 43 45 54
REMARK Flexibility Score: inf
ROOT
ATOM      1  C   UNL     1      -3.109  -2.496   2.041  1.00  0.00     0.202 C 
ENDROOT
BRANCH   1   2
ATOM      2  O   UNL     1      -4.279  -2.602   1.230  1.00  0.00    -0.374 OA
BRANCH   2   3
ATOM      3  C   UNL     1      -4.544  -3.855   0.601  1.00  0.00     0.202 C 
BRANCH   3   4
ATOM      4  C   UNL     1      -3.612  -4.279  -0.539  1.00  0.00     0.261 C 
BRANCH   4   5
ATOM      5  O   UNL     1      -2.230  -4.207  -0.157  1.00  0.00    -0.463 OA
BRANCH   5   6
ATOM      6  C   UNL     1      -1.393  -3.729  -1.116  1.00  0.00     0.316 C 
ATOM      7  O   UNL     1      -1.723  -3.566  -2.288  1.00  0.00    -0.251 OA
BRANCH   6   8
ATOM      8  C   UNL     1      -0.003  -3.316  -0.565  1.00  0.00     0.097 C 
ATOM      9  C   UNL     1       0.321  -3.852   0.857  1.00  0.00     0.052 C 
ATOM     10  C   UNL     1       1.005  -3.980  -1.542  1.00  0.00     0.052 C 
ATOM     11  C   UNL     1       0.418  -5.369   0.920  1.00  0.00     0.161 C 
ATOM     12  C   UNL     1       0.980  -5.501  -1.377  1.00  0.00     0.161 C 
ATOM     13  O   UNL     1       1.349  -5.848  -0.044  1.00  0.00    -0.381 OA
BRANCH   8  14
ATOM     14  C   UNL     1       0.102  -1.765  -0.504  1.00  0.00    -0.030 A 
ATOM     15  C   UNL     1       2.768   0.950  -0.059  1.00  0.00     0.044 C 
ATOM     16  C   UNL     1       1.437   0.272  -0.193  1.00  0.00    -0.051 A 
ATOM     17  C   UNL     1       0.268   1.037  -0.121  1.00  0.00     0.006 A 
ATOM     18  C   UNL     1       1.346  -1.118  -0.381  1.00  0.00     0.008 A 
ATOM     19  C   UNL     1      -0.983   0.430  -0.233  1.00  0.00    -0.051 A 
ATOM     20  C   UNL     1      -2.234   1.254  -0.134  1.00  0.00     0.044 C 
ATOM     21  C   UNL     1      -1.052  -0.954  -0.445  1.00  0.00     0.008 A 
ENDBRANCH   8  14
ENDBRANCH   6   8
ENDBRANCH   5   6
ENDBRANCH   4   5
ENDBRANCH   3   4
ENDBRANCH   2   3
ENDBRANCH   1   2
BRANCH   1  22
ATOM     22  C   UNL     1      -3.024  -3.338   3.321  1.00  0.00     0.261 C 
BRANCH  22  23
ATOM     23  O   UNL     1      -3.003  -4.756   3.069  1.00  0.00    -0.460 OA
BRANCH  23  24
ATOM     24  C   UNL     1      -4.053  -5.434   3.595  1.00  0.00     0.338 C 
ATOM     25  O   UNL     1      -4.960  -4.971   4.277  1.00  0.00    -0.246 OA
BRANCH  24  26
ATOM     26  C   UNL     1      -4.091  -6.813   3.084  1.00  0.00     0.060 A 
ATOM     27  C   UNL     1      -5.228  -7.206   2.364  1.00  0.00     0.016 A 
ATOM     28  C   UNL     1      -3.100  -7.739   3.410  1.00  0.00     0.016 A 
ATOM     29  C   UNL     1      -5.402  -8.540   2.009  1.00  0.00     0.010 A 
ATOM     30  C   UNL     1      -3.283  -9.083   3.064  1.00  0.00     0.010 A 
ATOM     31  C   UNL     1      -4.453  -9.494   2.398  1.00  0.00    -0.014 A 
BRANCH  31  32
ATOM     32  C   UNL     1      -4.776 -10.933   2.251  1.00  0.00     0.031 A 
ATOM     33  C   UNL     1      -5.320 -11.681   3.439  1.00  0.00     0.074 A 
ATOM     34  C   UNL     1      -4.633 -11.551   1.065  1.00  0.00     0.049 A 
ATOM     35  N   UNL     1      -5.663 -12.938   3.541  1.00  0.00    -0.248 NA
ATOM     36  C   UNL     1      -5.506 -10.904   4.676  1.00  0.00     0.031 C 
ATOM     37  C   UNL     1      -4.157 -10.917  -0.164  1.00  0.00     0.029 A 
ATOM     38  N   UNL     1      -4.874 -12.851   0.702  1.00  0.00    -0.354 N 
ATOM     39  C   UNL     1      -6.099 -13.106   4.850  1.00  0.00     0.074 A 
ATOM     40  C   UNL     1      -5.953 -11.829   5.513  1.00  0.00     0.031 C 
ATOM     41  C   UNL     1      -4.129 -11.836  -1.145  1.00  0.00     0.029 A 
ATOM     42  C   UNL     1      -4.559 -13.125  -0.607  1.00  0.00     0.049 A 
ATOM     43  H   UNL     1      -5.238 -13.525   1.321  1.00  0.00     0.167 HD
ATOM     44  C   UNL     1      -6.586 -14.223   5.443  1.00  0.00     0.037 A 
ATOM     45  C   UNL     1      -4.595 -14.289  -1.285  1.00  0.00     0.037 A 
ATOM     46  C   UNL     1      -6.728 -15.491   4.777  1.00  0.00     0.049 A 
ATOM     47  C   UNL     1      -5.077 -15.534  -0.587  1.00  0.00     0.074 A 
ATOM     48  C   UNL     1      -7.226 -16.679   5.283  1.00  0.00     0.029 A 
ATOM     49  N   UNL     1      -6.365 -15.738   3.461  1.00  0.00    -0.354 N 
ATOM     50  N   UNL     1      -5.507 -15.674   0.646  1.00  0.00    -0.248 NA
ATOM     51  C   UNL     1      -5.082 -16.777  -1.369  1.00  0.00     0.031 C 
ATOM     52  C   UNL     1      -7.121 -17.656   4.287  1.00  0.00     0.029 A 
ATOM     53  C   UNL     1      -6.603 -17.065   3.144  1.00  0.00     0.049 A 
ATOM     54  H   UNL     1      -5.993 -15.068   2.842  1.00  0.00     0.167 HD
ATOM     55  C   UNL     1      -5.852 -17.015   0.779  1.00  0.00     0.074 A 
ATOM     56  C   UNL     1      -5.594 -17.640  -0.502  1.00  0.00     0.031 C 
ATOM     57  C   UNL     1      -6.340 -17.670   1.862  1.00  0.00     0.037 A 
BRANCH  44  58
ATOM     58  C   UNL     1      -6.974 -14.127   6.893  1.00  0.00     0.058 A 
ATOM     59  C   UNL     1      -8.125 -13.438   7.306  1.00  0.00     0.135 A 
ATOM     60  C   UNL     1      -6.198 -14.756   7.880  1.00  0.00     0.135 A 
ATOM     61  F   UNL     1      -8.893 -12.803   6.406  1.00  0.00    -0.206 F 
ATOM     62  C   UNL     1      -8.479 -13.353   8.649  1.00  0.00     0.059 A 
ATOM     63  C   UNL     1      -6.546 -14.705   9.226  1.00  0.00     0.059 A 
ATOM     64  F   UNL     1      -5.085 -15.426   7.539  1.00  0.00    -0.206 F 
ATOM     65  C   UNL     1      -7.681 -13.989   9.602  1.00  0.00     0.060 A 
BRANCH  65  66
ATOM     66  S   UNL     1      -8.153 -13.871  11.341  1.00  0.00     0.124 S 
ATOM     67  O   UNL     1      -7.795 -12.488  11.646  1.00  0.00    -0.237 OA
ATOM     68  O   UNL     1      -9.582 -14.160  11.299  1.00  0.00    -0.237 OA
ATOM     69  O   UNL     1      -7.329 -14.888  11.987  1.00  0.00    -0.744 OA
ENDBRANCH  65  66
ENDBRANCH  44  58
BRANCH  45  70
ATOM     70  C   UNL     1      -4.146 -14.335  -2.702  1.00  0.00     0.058 A 
ATOM     71  C   UNL     1      -5.058 -14.541  -3.747  1.00  0.00     0.135 A 
ATOM     72  C   UNL     1      -2.793 -14.168  -3.038  1.00  0.00     0.135 A 
ATOM     73  F   UNL     1      -6.360 -14.717  -3.476  1.00  0.00    -0.206 F 
ATOM     74  C   UNL     1      -4.645 -14.591  -5.075  1.00  0.00     0.059 A 
ATOM     75  C   UNL     1      -2.359 -14.190  -4.360  1.00  0.00     0.059 A 
ATOM     76  F   UNL     1      -1.882 -13.959  -2.075  1.00  0.00    -0.206 F 
ATOM     77  C   UNL     1      -3.292 -14.411  -5.371  1.00  0.00     0.060 A 
BRANCH  77  78
ATOM     78  S   UNL     1      -2.773 -14.425  -7.101  1.00  0.00     0.124 S 
ATOM     79  O   UNL     1      -2.854 -15.845  -7.421  1.00  0.00    -0.237 OA
ATOM     80  O   UNL     1      -3.776 -13.570  -7.729  1.00  0.00    -0.237 OA
ATOM     81  O   UNL     1      -1.426 -13.864  -7.051  1.00  0.00    -0.744 OA
ENDBRANCH  77  78
ENDBRANCH  45  70
BRANCH  57  82
ATOM     82  C   UNL     1      -6.650 -19.133   1.705  1.00  0.00     0.058 A 
ATOM     83  C   UNL     1      -5.634 -20.097   1.635  1.00  0.00     0.135 A 
ATOM     84  C   UNL     1      -7.982 -19.579   1.678  1.00  0.00     0.135 A 
ATOM     85  F   UNL     1      -4.345 -19.723   1.650  1.00  0.00    -0.206 F 
ATOM     86  C   UNL     1      -5.925 -21.453   1.522  1.00  0.00     0.059 A 
ATOM     87  C   UNL     1      -8.297 -20.931   1.592  1.00  0.00     0.059 A 
ATOM     88  F   UNL     1      -8.992 -18.698   1.754  1.00  0.00    -0.206 F 
ATOM     89  C   UNL     1      -7.261 -21.860   1.503  1.00  0.00     0.060 A 
BRANCH  89  90
ATOM     90  S   UNL     1      -7.627 -23.625   1.390  1.00  0.00     0.124 S 
ATOM     91  O   UNL     1      -7.336 -23.896  -0.014  1.00  0.00    -0.237 OA
ATOM     92  O   UNL     1      -6.694 -24.201   2.353  1.00  0.00    -0.237 OA
ATOM     93  O   UNL     1      -9.035 -23.704   1.766  1.00  0.00    -0.744 OA
ENDBRANCH  89  90
ENDBRANCH  57  82
ENDBRANCH  31  32
ENDBRANCH  24  26
ENDBRANCH  23  24
ENDBRANCH  22  23
ENDBRANCH   1  22
TORSDOF 18
