REMARK SMILES O=C(OCCOCCOC(=O)C1CCN(C(=O)CSCc2ccccc2)CC1)c1ccc(-c2c3nc(c(-c4c(F)cc(S(=O)(=O)[O-])cc4F)c4ccc([nH]4)c(-c4c(F)cc(S(=O)(=O)[O-])cc4F)c4nc(c(-c5c(F)cc(S(=O)(=O)[O-])cc5F)c5ccc2[nH]5)C=C4)C=C3)cc1
REMARK SMILES IDX 7 1 6 2 5 3 4 4 3 5 2 6 1 7 29 8 30 9 94 10 31 11 93 12
REMARK SMILES IDX 32 13 33 14 34 15 87 16 35 17 92 18 86 19 88 20 36 21 91 22
REMARK SMILES IDX 85 23 84 24 37 26 71 27 50 28 70 29 51 30 54 31 69 32 89 33
REMARK SMILES IDX 52 34 53 35 68 37 90 38 55 39 38 40 39 41 48 42 40 43 41 44
REMARK SMILES IDX 47 45 49 46 42 47 43 48 44 49 45 50 46 51 72 52 73 53 82 54
REMARK SMILES IDX 74 55 75 56 81 57 83 58 76 59 77 60 78 61 79 62 80 63 56 64
REMARK SMILES IDX 57 65 66 66 58 67 59 68 65 69 67 70 60 71 61 72 62 73 63 74
REMARK SMILES IDX 64 75 8 76 9 77 10 78 11 79 12 80 13 81 28 82 14 83 27 84
REMARK SMILES IDX 15 85 16 86 17 87 18 88 19 89 20 90 21 91 22 92 26 93 23 94
REMARK SMILES IDX 25 95 24 96
REMARK H PARENT 88 25 54 36
REMARK Flexibility Score: inf
ROOT
ATOM      1  C   UNL     1       2.265  -0.838   2.068  1.00  0.00     0.202 C 
ENDROOT
BRANCH   1   2
ATOM      2  O   UNL     1       3.562  -1.071   1.528  1.00  0.00    -0.374 OA
BRANCH   2   3
ATOM      3  C   UNL     1       4.264   0.053   1.030  1.00  0.00     0.202 C 
BRANCH   3   4
ATOM      4  C   UNL     1       3.857   0.697  -0.301  1.00  0.00     0.261 C 
BRANCH   4   5
ATOM      5  O   UNL     1       2.427   0.746  -0.486  1.00  0.00    -0.460 OA
BRANCH   5   6
ATOM      6  C   UNL     1       1.733  -0.080  -1.321  1.00  0.00     0.338 C 
ATOM      7  O   UNL     1       0.542   0.104  -1.557  1.00  0.00    -0.246 OA
BRANCH   6   8
ATOM      8  C   UNL     1       2.461  -1.195  -1.960  1.00  0.00     0.060 A 
ATOM      9  C   UNL     1       3.276  -1.990  -1.175  1.00  0.00     0.016 A 
ATOM     10  C   UNL     1       2.377  -1.470  -3.318  1.00  0.00     0.016 A 
ATOM     11  C   UNL     1       4.258  -2.769  -1.713  1.00  0.00     0.010 A 
ATOM     12  C   UNL     1       3.156  -2.511  -3.840  1.00  0.00     0.010 A 
ATOM     13  C   UNL     1       4.114  -3.151  -3.031  1.00  0.00    -0.014 A 
BRANCH  13  14
ATOM     14  C   UNL     1       4.950  -4.282  -3.465  1.00  0.00     0.031 A 
ATOM     15  C   UNL     1       5.895  -4.076  -4.595  1.00  0.00     0.074 A 
ATOM     16  C   UNL     1       4.902  -5.434  -2.757  1.00  0.00     0.049 A 
ATOM     17  N   UNL     1       6.575  -4.966  -5.255  1.00  0.00    -0.248 NA
ATOM     18  C   UNL     1       6.100  -2.690  -5.055  1.00  0.00     0.031 C 
ATOM     19  C   UNL     1       4.092  -5.664  -1.547  1.00  0.00     0.029 A 
ATOM     20  N   UNL     1       5.565  -6.620  -2.918  1.00  0.00    -0.354 N 
ATOM     21  C   UNL     1       7.224  -4.265  -6.259  1.00  0.00     0.074 A 
ATOM     22  C   UNL     1       6.889  -2.869  -6.104  1.00  0.00     0.031 C 
ATOM     23  C   UNL     1       4.348  -6.882  -1.054  1.00  0.00     0.029 A 
ATOM     24  C   UNL     1       5.203  -7.578  -1.995  1.00  0.00     0.049 A 
ATOM     25  H   UNL     1       6.234  -6.775  -3.623  1.00  0.00     0.167 HD
ATOM     26  C   UNL     1       8.001  -4.779  -7.235  1.00  0.00     0.037 A 
ATOM     27  C   UNL     1       5.453  -8.898  -1.971  1.00  0.00     0.037 A 
ATOM     28  C   UNL     1       8.321  -6.178  -7.312  1.00  0.00     0.049 A 
ATOM     29  C   UNL     1       6.253  -9.448  -3.115  1.00  0.00     0.074 A 
ATOM     30  C   UNL     1       9.082  -6.837  -8.257  1.00  0.00     0.029 A 
ATOM     31  N   UNL     1       7.892  -7.133  -6.397  1.00  0.00    -0.354 N 
ATOM     32  N   UNL     1       6.815  -8.796  -4.108  1.00  0.00    -0.248 NA
ATOM     33  C   UNL     1       6.426 -10.901  -3.167  1.00  0.00     0.031 C 
ATOM     34  C   UNL     1       9.064  -8.199  -7.945  1.00  0.00     0.029 A 
ATOM     35  C   UNL     1       8.342  -8.383  -6.773  1.00  0.00     0.049 A 
ATOM     36  H   UNL     1       7.347  -6.945  -5.599  1.00  0.00     0.167 HD
ATOM     37  C   UNL     1       7.410  -9.760  -4.905  1.00  0.00     0.074 A 
ATOM     38  C   UNL     1       7.170 -11.036  -4.256  1.00  0.00     0.031 C 
ATOM     39  C   UNL     1       8.080  -9.617  -6.075  1.00  0.00     0.037 A 
BRANCH  26  40
ATOM     40  C   UNL     1       8.465  -3.857  -8.320  1.00  0.00     0.058 A 
ATOM     41  C   UNL     1       9.474  -2.904  -8.122  1.00  0.00     0.135 A 
ATOM     42  C   UNL     1       7.895  -3.954  -9.601  1.00  0.00     0.135 A 
ATOM     43  F   UNL     1      10.019  -2.738  -6.907  1.00  0.00    -0.206 F 
ATOM     44  C   UNL     1       9.911  -2.086  -9.160  1.00  0.00     0.059 A 
ATOM     45  C   UNL     1       8.331  -3.164 -10.658  1.00  0.00     0.059 A 
ATOM     46  F   UNL     1       6.904  -4.829  -9.834  1.00  0.00    -0.206 F 
ATOM     47  C   UNL     1       9.341  -2.232 -10.427  1.00  0.00     0.060 A 
BRANCH  47  48
ATOM     48  S   UNL     1       9.962  -1.207 -11.776  1.00  0.00     0.124 S 
ATOM     49  O   UNL     1       9.457   0.110 -11.399  1.00  0.00    -0.237 OA
ATOM     50  O   UNL     1      11.405  -1.389 -11.662  1.00  0.00    -0.237 OA
ATOM     51  O   UNL     1       9.349  -1.796 -12.962  1.00  0.00    -0.744 OA
ENDBRANCH  47  48
ENDBRANCH  26  40
BRANCH  27  52
ATOM     52  C   UNL     1       4.841  -9.782  -0.938  1.00  0.00     0.058 A 
ATOM     53  C   UNL     1       5.632 -10.536  -0.059  1.00  0.00     0.135 A 
ATOM     54  C   UNL     1       3.444  -9.918  -0.827  1.00  0.00     0.135 A 
ATOM     55  F   UNL     1       6.969 -10.446  -0.118  1.00  0.00    -0.206 F 
ATOM     56  C   UNL     1       5.068 -11.419   0.858  1.00  0.00     0.059 A 
ATOM     57  C   UNL     1       2.856 -10.764   0.107  1.00  0.00     0.059 A 
ATOM     58  F   UNL     1       2.630  -9.213  -1.628  1.00  0.00    -0.206 F 
ATOM     59  C   UNL     1       3.678 -11.532   0.928  1.00  0.00     0.060 A 
BRANCH  59  60
ATOM     60  S   UNL     1       2.954 -12.699   2.100  1.00  0.00     0.124 S 
ATOM     61  O   UNL     1       3.261 -13.976   1.466  1.00  0.00    -0.237 OA
ATOM     62  O   UNL     1       3.690 -12.402   3.325  1.00  0.00    -0.237 OA
ATOM     63  O   UNL     1       1.543 -12.326   2.119  1.00  0.00    -0.744 OA
ENDBRANCH  59  60
ENDBRANCH  27  52
BRANCH  39  64
ATOM     64  C   UNL     1       8.611 -10.871  -6.696  1.00  0.00     0.058 A 
ATOM     65  C   UNL     1       7.759 -11.787  -7.331  1.00  0.00     0.135 A 
ATOM     66  C   UNL     1       9.991 -11.117  -6.715  1.00  0.00     0.135 A 
ATOM     67  F   UNL     1       6.431 -11.595  -7.322  1.00  0.00    -0.206 F 
ATOM     68  C   UNL     1       8.262 -12.917  -7.958  1.00  0.00     0.059 A 
ATOM     69  C   UNL     1      10.518 -12.223  -7.366  1.00  0.00     0.059 A 
ATOM     70  F   UNL     1      10.841 -10.261  -6.125  1.00  0.00    -0.206 F 
ATOM     71  C   UNL     1       9.644 -13.121  -7.979  1.00  0.00     0.060 A 
BRANCH  71  72
ATOM     72  S   UNL     1      10.286 -14.560  -8.853  1.00  0.00     0.124 S 
ATOM     73  O   UNL     1       9.907 -15.643  -7.953  1.00  0.00    -0.237 OA
ATOM     74  O   UNL     1       9.561 -14.502 -10.119  1.00  0.00    -0.237 OA
ATOM     75  O   UNL     1      11.718 -14.290  -8.945  1.00  0.00    -0.744 OA
ENDBRANCH  71  72
ENDBRANCH  39  64
ENDBRANCH  13  14
ENDBRANCH   6   8
ENDBRANCH   5   6
ENDBRANCH   4   5
ENDBRANCH   3   4
ENDBRANCH   2   3
ENDBRANCH   1   2
BRANCH   1  76
ATOM     76  C   UNL     1       2.299  -1.140   3.561  1.00  0.00     0.261 C 
BRANCH  76  77
ATOM     77  O   UNL     1       3.051  -0.091   4.203  1.00  0.00    -0.463 OA
BRANCH  77  78
ATOM     78  C   UNL     1       4.397  -0.280   4.255  1.00  0.00     0.309 C 
ATOM     79  O   UNL     1       4.957  -1.355   4.091  1.00  0.00    -0.252 OA
BRANCH  78  80
ATOM     80  C   UNL     1       5.135   1.009   4.610  1.00  0.00     0.103 C 
ATOM     81  C   UNL     1       4.442   2.328   4.211  1.00  0.00     0.037 C 
ATOM     82  C   UNL     1       6.603   0.950   4.162  1.00  0.00     0.037 C 
ATOM     83  C   UNL     1       4.920   3.040   2.943  1.00  0.00     0.120 C 
ATOM     84  C   UNL     1       6.842   1.491   2.765  1.00  0.00     0.120 C 
ATOM     85  N   UNL     1       6.328   2.846   2.621  1.00  0.00    -0.342 N 
ATOM     86  C   UNL     1       7.004   3.896   2.001  1.00  0.00     0.232 C 
ATOM     87  O   UNL     1       6.445   4.980   1.801  1.00  0.00    -0.274 OA
BRANCH  86  88
ATOM     88  C   UNL     1       8.435   3.703   1.514  1.00  0.00     0.169 C 
BRANCH  88  89
ATOM     89  S   UNL     1       9.636   3.221   2.801  1.00  0.00    -0.147 SA
BRANCH  89  90
ATOM     90  C   UNL     1       9.138   4.318   4.164  1.00  0.00     0.105 C 
BRANCH  90  91
ATOM     91  C   UNL     1       9.588   5.735   3.947  1.00  0.00    -0.038 A 
ATOM     92  C   UNL     1      10.941   6.020   3.703  1.00  0.00     0.004 A 
ATOM     93  C   UNL     1       8.670   6.791   3.998  1.00  0.00     0.004 A 
ATOM     94  C   UNL     1      11.362   7.327   3.479  1.00  0.00     0.000 A 
ATOM     95  C   UNL     1       9.098   8.103   3.792  1.00  0.00     0.000 A 
ATOM     96  C   UNL     1      10.440   8.368   3.526  1.00  0.00     0.000 A 
ENDBRANCH  90  91
ENDBRANCH  89  90
ENDBRANCH  88  89
ENDBRANCH  86  88
ENDBRANCH  78  80
ENDBRANCH  77  78
ENDBRANCH  76  77
ENDBRANCH   1  76
TORSDOF 21
