REMARK SMILES O=C(OCCOCCOC(=O)c1ccc(-c2c3nc(c(-c4c(F)cc(S(=O)(=O)[O-])cc4F)c4ccc([nH]4)c(-c4c(F)cc(S(=O)(=O)[O-])cc4F)c4nc(c(-c5c(F)cc(S(=O)(=O)[O-])cc5F)c5ccc2[nH]5)C=C4)C=C3)cc1)c1ccc(C[C@H]2CCN(C(=O)Cc3cccc(O)c3)C2)cc1
REMARK SMILES IDX 4 1 3 2 2 3 1 4 78 5 79 6 99 7 80 8 98 9 81 10 82 11 83 12
REMARK SMILES IDX 84 13 97 14 85 15 86 16 87 17 88 18 89 19 90 20 91 21 96 22
REMARK SMILES IDX 92 23 94 24 93 25 95 26 5 28 6 29 7 30 8 31 9 32 10 33 11 34
REMARK SMILES IDX 12 35 13 36 77 37 14 38 76 39 15 40 16 41 17 42 70 43 18 44
REMARK SMILES IDX 75 45 69 46 71 47 19 48 74 49 68 50 67 51 20 53 54 54 33 55
REMARK SMILES IDX 53 56 34 57 37 58 52 59 72 60 35 61 36 62 51 64 73 65 38 66
REMARK SMILES IDX 21 67 22 68 31 69 23 70 24 71 30 72 32 73 25 74 26 75 27 76
REMARK SMILES IDX 28 77 29 78 55 79 56 80 65 81 57 82 58 83 64 84 66 85 59 86
REMARK SMILES IDX 60 87 61 88 62 89 63 90 39 91 40 92 49 93 41 94 42 95 48 96
REMARK SMILES IDX 50 97 43 98 44 99 45 100 46 101 47 102
REMARK H PARENT 95 27 71 52 37 63
REMARK Flexibility Score: inf
ROOT
ATOM      1  C   UNL     1       7.050   8.590   1.972  1.00  0.00     0.261 C 
ENDROOT
BRANCH   1   2
ATOM      2  O   UNL     1       7.063   9.403   3.165  1.00  0.00    -0.460 OA
BRANCH   2   3
ATOM      3  C   UNL     1       7.065   8.941   4.438  1.00  0.00     0.338 C 
ATOM      4  O   UNL     1       7.035   9.705   5.396  1.00  0.00    -0.246 OA
BRANCH   3   5
ATOM      5  C   UNL     1       7.063   7.486   4.692  1.00  0.00     0.060 A 
ATOM      6  C   UNL     1       8.144   6.683   4.331  1.00  0.00     0.016 A 
ATOM      7  C   UNL     1       5.990   6.930   5.394  1.00  0.00     0.016 A 
ATOM      8  C   UNL     1       8.120   5.319   4.598  1.00  0.00     0.004 A 
ATOM      9  C   UNL     1       5.965   5.556   5.657  1.00  0.00     0.004 A 
ATOM     10  C   UNL     1       7.020   4.736   5.237  1.00  0.00    -0.048 A 
BRANCH  10  11
ATOM     11  C   UNL     1       6.976   3.238   5.418  1.00  0.00     0.041 C 
BRANCH  11  12
ATOM     12  C   UNL     1       6.440   2.512   4.179  1.00  0.00     0.015 C 
ATOM     13  C   UNL     1       7.218   2.792   2.886  1.00  0.00     0.027 C 
ATOM     14  C   UNL     1       6.542   0.985   4.297  1.00  0.00     0.123 C 
ATOM     15  C   UNL     1       6.846   1.618   2.009  1.00  0.00     0.120 C 
ATOM     16  N   UNL     1       6.755   0.508   2.938  1.00  0.00    -0.342 N 
BRANCH  16  17
ATOM     17  C   UNL     1       6.839  -0.838   2.652  1.00  0.00     0.227 C 
ATOM     18  O   UNL     1       6.739  -1.692   3.537  1.00  0.00    -0.275 OA
BRANCH  17  19
ATOM     19  C   UNL     1       7.071  -1.253   1.203  1.00  0.00     0.135 C 
BRANCH  19  20
ATOM     20  C   UNL     1       5.789  -1.353   0.411  1.00  0.00    -0.035 A 
ATOM     21  C   UNL     1       5.326  -0.271  -0.351  1.00  0.00     0.004 A 
ATOM     22  C   UNL     1       5.017  -2.522   0.464  1.00  0.00     0.050 A 
ATOM     23  C   UNL     1       4.090  -0.328  -0.996  1.00  0.00     0.004 A 
ATOM     24  C   UNL     1       3.804  -2.583  -0.218  1.00  0.00     0.115 A 
ATOM     25  C   UNL     1       3.325  -1.488  -0.925  1.00  0.00     0.046 A 
BRANCH  24  26
ATOM     26  O   UNL     1       3.046  -3.718  -0.214  1.00  0.00    -0.508 OA
ATOM     27  H   UNL     1       2.233  -3.740  -0.678  1.00  0.00     0.293 HD
ENDBRANCH  24  26
ENDBRANCH  19  20
ENDBRANCH  17  19
ENDBRANCH  16  17
ENDBRANCH  11  12
ENDBRANCH  10  11
ENDBRANCH   3   5
ENDBRANCH   2   3
ENDBRANCH   1   2
BRANCH   1  28
ATOM     28  C   UNL     1       8.356   8.777   1.202  1.00  0.00     0.202 C 
BRANCH  28  29
ATOM     29  O   UNL     1       9.498   8.382   1.965  1.00  0.00    -0.374 OA
BRANCH  29  30
ATOM     30  C   UNL     1      10.068   9.424   2.772  1.00  0.00     0.202 C 
BRANCH  30  31
ATOM     31  C   UNL     1      11.581   9.464   2.552  1.00  0.00     0.261 C 
BRANCH  31  32
ATOM     32  O   UNL     1      11.824   9.961   1.229  1.00  0.00    -0.460 OA
BRANCH  32  33
ATOM     33  C   UNL     1      11.781   9.023   0.251  1.00  0.00     0.338 C 
ATOM     34  O   UNL     1      11.987   7.825   0.366  1.00  0.00    -0.246 OA
BRANCH  33  35
ATOM     35  C   UNL     1      11.211   9.661  -0.957  1.00  0.00     0.060 A 
ATOM     36  C   UNL     1      10.396   8.889  -1.796  1.00  0.00     0.016 A 
ATOM     37  C   UNL     1      11.411  11.020  -1.223  1.00  0.00     0.016 A 
ATOM     38  C   UNL     1       9.783   9.472  -2.905  1.00  0.00     0.010 A 
ATOM     39  C   UNL     1      10.800  11.601  -2.330  1.00  0.00     0.010 A 
ATOM     40  C   UNL     1       9.999  10.827  -3.184  1.00  0.00    -0.014 A 
BRANCH  40  41
ATOM     41  C   UNL     1       9.517  11.439  -4.440  1.00  0.00     0.031 A 
ATOM     42  C   UNL     1      10.491  11.579  -5.573  1.00  0.00     0.074 A 
ATOM     43  C   UNL     1       8.270  11.935  -4.526  1.00  0.00     0.049 A 
ATOM     44  N   UNL     1      10.363  12.230  -6.696  1.00  0.00    -0.248 NA
ATOM     45  C   UNL     1      11.793  10.910  -5.407  1.00  0.00     0.031 C 
ATOM     46  C   UNL     1       7.249  11.846  -3.481  1.00  0.00     0.029 A 
ATOM     47  N   UNL     1       7.664  12.651  -5.527  1.00  0.00    -0.354 N 
ATOM     48  C   UNL     1      11.571  12.068  -7.362  1.00  0.00     0.074 A 
ATOM     49  C   UNL     1      12.426  11.268  -6.514  1.00  0.00     0.031 C 
ATOM     50  C   UNL     1       6.154  12.518  -3.882  1.00  0.00     0.029 A 
ATOM     51  C   UNL     1       6.412  13.111  -5.192  1.00  0.00     0.049 A 
ATOM     52  H   UNL     1       8.085  12.819  -6.401  1.00  0.00     0.167 HD
ATOM     53  C   UNL     1      11.930  12.548  -8.575  1.00  0.00     0.037 A 
ATOM     54  C   UNL     1       5.592  13.952  -5.854  1.00  0.00     0.037 A 
ATOM     55  C   UNL     1      11.064  13.335  -9.409  1.00  0.00     0.049 A 
ATOM     56  C   UNL     1       6.036  14.510  -7.183  1.00  0.00     0.074 A 
ATOM     57  C   UNL     1      11.304  13.816 -10.683  1.00  0.00     0.029 A 
ATOM     58  N   UNL     1       9.798  13.768  -9.046  1.00  0.00    -0.354 N 
ATOM     59  N   UNL     1       7.155  14.295  -7.835  1.00  0.00    -0.248 NA
ATOM     60  C   UNL     1       5.113  15.430  -7.864  1.00  0.00     0.031 C 
ATOM     61  C   UNL     1      10.201  14.582 -11.072  1.00  0.00     0.029 A 
ATOM     62  C   UNL     1       9.257  14.540 -10.057  1.00  0.00     0.049 A 
ATOM     63  H   UNL     1       9.350  13.556  -8.195  1.00  0.00     0.167 HD
ATOM     64  C   UNL     1       7.063  15.040  -9.006  1.00  0.00     0.074 A 
ATOM     65  C   UNL     1       5.772  15.695  -8.983  1.00  0.00     0.031 C 
ATOM     66  C   UNL     1       7.965  15.176 -10.010  1.00  0.00     0.037 A 
BRANCH  53  67
ATOM     67  C   UNL     1      13.315  12.251  -9.069  1.00  0.00     0.058 A 
ATOM     68  C   UNL     1      13.671  10.977  -9.538  1.00  0.00     0.135 A 
ATOM     69  C   UNL     1      14.277  13.271  -9.139  1.00  0.00     0.135 A 
ATOM     70  F   UNL     1      12.796   9.962  -9.470  1.00  0.00    -0.206 F 
ATOM     71  C   UNL     1      14.935  10.726 -10.061  1.00  0.00     0.059 A 
ATOM     72  C   UNL     1      15.539  13.047  -9.678  1.00  0.00     0.059 A 
ATOM     73  F   UNL     1      13.988  14.503  -8.690  1.00  0.00    -0.206 F 
ATOM     74  C   UNL     1      15.860  11.770 -10.135  1.00  0.00     0.060 A 
BRANCH  74  75
ATOM     75  S   UNL     1      17.476  11.438 -10.866  1.00  0.00     0.124 S 
ATOM     76  O   UNL     1      18.107  10.632  -9.825  1.00  0.00    -0.237 OA
ATOM     77  O   UNL     1      17.123  10.726 -12.090  1.00  0.00    -0.237 OA
ATOM     78  O   UNL     1      18.043  12.769 -11.059  1.00  0.00    -0.744 OA
ENDBRANCH  74  75
ENDBRANCH  53  67
BRANCH  54  79
ATOM     79  C   UNL     1       4.290  14.363  -5.260  1.00  0.00     0.058 A 
ATOM     80  C   UNL     1       3.074  13.959  -5.830  1.00  0.00     0.135 A 
ATOM     81  C   UNL     1       4.237  15.198  -4.132  1.00  0.00     0.135 A 
ATOM     82  F   UNL     1       3.072  13.169  -6.914  1.00  0.00    -0.206 F 
ATOM     83  C   UNL     1       1.852  14.389  -5.322  1.00  0.00     0.059 A 
ATOM     84  C   UNL     1       3.027  15.620  -3.591  1.00  0.00     0.059 A 
ATOM     85  F   UNL     1       5.371  15.604  -3.541  1.00  0.00    -0.206 F 
ATOM     86  C   UNL     1       1.839  15.224  -4.204  1.00  0.00     0.060 A 
BRANCH  86  87
ATOM     87  S   UNL     1       0.248  15.764  -3.541  1.00  0.00     0.124 S 
ATOM     88  O   UNL     1      -0.147  16.774  -4.515  1.00  0.00    -0.237 OA
ATOM     89  O   UNL     1      -0.526  14.526  -3.553  1.00  0.00    -0.237 OA
ATOM     90  O   UNL     1       0.592  16.264  -2.213  1.00  0.00    -0.744 OA
ENDBRANCH  86  87
ENDBRANCH  54  79
BRANCH  66  91
ATOM     91  C   UNL     1       7.584  16.052 -11.169  1.00  0.00     0.058 A 
ATOM     92  C   UNL     1       7.588  17.450 -11.061  1.00  0.00     0.135 A 
ATOM     93  C   UNL     1       7.287  15.488 -12.420  1.00  0.00     0.135 A 
ATOM     94  F   UNL     1       7.859  18.036  -9.884  1.00  0.00    -0.206 F 
ATOM     95  C   UNL     1       7.297  18.262 -12.152  1.00  0.00     0.059 A 
ATOM     96  C   UNL     1       7.018  16.280 -13.531  1.00  0.00     0.059 A 
ATOM     97  F   UNL     1       7.282  14.154 -12.577  1.00  0.00    -0.206 F 
ATOM     98  C   UNL     1       7.017  17.667 -13.384  1.00  0.00     0.060 A 
BRANCH  98  99
ATOM     99  S   UNL     1       6.691  18.733 -14.804  1.00  0.00     0.124 S 
ATOM    100  O   UNL     1       5.341  19.203 -14.514  1.00  0.00    -0.237 OA
ATOM    101  O   UNL     1       7.748  19.733 -14.696  1.00  0.00    -0.237 OA
ATOM    102  O   UNL     1       6.808  17.826 -15.943  1.00  0.00    -0.744 OA
ENDBRANCH  98  99
ENDBRANCH  66  91
ENDBRANCH  40  41
ENDBRANCH  33  35
ENDBRANCH  32  33
ENDBRANCH  31  32
ENDBRANCH  30  31
ENDBRANCH  29  30
ENDBRANCH  28  29
ENDBRANCH   1  28
TORSDOF 23
