REMARK SMILES O=C(OCCOCCOC(=O)c1ccc(N2C(=O)C[C@H](c3c[nH]c4ccccc34)C2=O)cc1O)c1ccc(-c2c3nc(c(-c4c(F)cc(S(=O)(=O)[O-])cc4F)c4ccc([nH]4)c(-c4c(F)cc(S(=O)(=O)[O-])cc4F)c4nc(c(-c5c(F)cc(S(=O)(=O)[O-])cc5F)c5ccc2[nH]5)C=C4)C=C3)cc1
REMARK SMILES IDX 5 1 4 2 3 3 2 4 1 5 35 6 36 7 100 8 37 9 99 10 38 11 39 12
REMARK SMILES IDX 40 13 93 14 41 15 98 16 92 17 94 18 42 19 97 20 91 21 90 22
REMARK SMILES IDX 43 24 77 25 56 26 76 27 57 28 60 29 75 30 95 31 58 32 59 33
REMARK SMILES IDX 74 35 96 36 61 37 44 38 45 39 54 40 46 41 47 42 53 43 55 44
REMARK SMILES IDX 48 45 49 46 50 47 51 48 52 49 78 50 79 51 88 52 80 53 81 54
REMARK SMILES IDX 87 55 89 56 82 57 83 58 84 59 85 60 86 61 62 62 63 63 72 64
REMARK SMILES IDX 64 65 65 66 71 67 73 68 66 69 67 70 68 71 69 72 70 73 6 74
REMARK SMILES IDX 7 75 8 76 9 77 10 78 11 79 12 80 13 81 33 82 14 83 32 84
REMARK SMILES IDX 15 85 34 86 16 88 17 89 30 90 18 91 19 92 20 93 31 94 21 95
REMARK SMILES IDX 22 96 29 97 23 98 24 99 28 100 25 102 27 103 26 104
REMARK H PARENT 94 23 60 34 34 87 23 101
REMARK Flexibility Score: inf
ROOT
ATOM      1  C   UNL     1       4.246  -0.060  -1.745  1.00  0.00     0.202 C 
ENDROOT
BRANCH   1   2
ATOM      2  C   UNL     1       3.900  -1.220  -0.808  1.00  0.00     0.261 C 
BRANCH   2   3
ATOM      3  O   UNL     1       2.525  -1.142  -0.401  1.00  0.00    -0.460 OA
BRANCH   3   4
ATOM      4  C   UNL     1       2.026  -0.729   0.787  1.00  0.00     0.338 C 
ATOM      5  O   UNL     1       0.810  -0.789   0.963  1.00  0.00    -0.246 OA
BRANCH   4   6
ATOM      6  C   UNL     1       2.870  -0.208   1.905  1.00  0.00     0.060 A 
ATOM      7  C   UNL     1       4.100   0.432   1.746  1.00  0.00     0.016 A 
ATOM      8  C   UNL     1       2.339  -0.294   3.204  1.00  0.00     0.016 A 
ATOM      9  C   UNL     1       4.819   0.910   2.829  1.00  0.00     0.010 A 
ATOM     10  C   UNL     1       3.035   0.225   4.301  1.00  0.00     0.010 A 
ATOM     11  C   UNL     1       4.290   0.813   4.111  1.00  0.00    -0.014 A 
BRANCH  11  12
ATOM     12  C   UNL     1       5.144   1.250   5.226  1.00  0.00     0.031 A 
ATOM     13  C   UNL     1       5.846   0.202   6.032  1.00  0.00     0.074 A 
ATOM     14  C   UNL     1       5.401   2.562   5.380  1.00  0.00     0.049 A 
ATOM     15  N   UNL     1       6.660   0.343   7.040  1.00  0.00    -0.248 NA
ATOM     16  C   UNL     1       5.613  -1.197   5.634  1.00  0.00     0.031 C 
ATOM     17  C   UNL     1       4.854   3.631   4.537  1.00  0.00     0.029 A 
ATOM     18  N   UNL     1       6.218   3.219   6.258  1.00  0.00    -0.354 N 
ATOM     19  C   UNL     1       7.016  -0.946   7.416  1.00  0.00     0.074 A 
ATOM     20  C   UNL     1       6.330  -1.858   6.530  1.00  0.00     0.031 C 
ATOM     21  C   UNL     1       5.382   4.805   4.918  1.00  0.00     0.029 A 
ATOM     22  C   UNL     1       6.246   4.581   6.070  1.00  0.00     0.049 A 
ATOM     23  H   UNL     1       6.737   2.760   6.958  1.00  0.00     0.167 HD
ATOM     24  C   UNL     1       7.837  -1.322   8.423  1.00  0.00     0.037 A 
ATOM     25  C   UNL     1       6.885   5.534   6.775  1.00  0.00     0.037 A 
ATOM     26  C   UNL     1       8.498  -0.381   9.285  1.00  0.00     0.049 A 
ATOM     27  C   UNL     1       7.716   5.091   7.949  1.00  0.00     0.074 A 
ATOM     28  C   UNL     1       9.294  -0.624  10.388  1.00  0.00     0.029 A 
ATOM     29  N   UNL     1       8.434   1.000   9.130  1.00  0.00    -0.354 N 
ATOM     30  N   UNL     1       7.983   3.870   8.354  1.00  0.00    -0.248 NA
ATOM     31  C   UNL     1       8.315   6.146   8.773  1.00  0.00     0.031 C 
ATOM     32  C   UNL     1       9.676   0.611  10.924  1.00  0.00     0.029 A 
ATOM     33  C   UNL     1       9.161   1.624  10.127  1.00  0.00     0.049 A 
ATOM     34  H   UNL     1       7.942   1.465   8.415  1.00  0.00     0.167 HD
ATOM     35  C   UNL     1       8.794   4.007   9.473  1.00  0.00     0.074 A 
ATOM     36  C   UNL     1       8.987   5.432   9.668  1.00  0.00     0.031 C 
ATOM     37  C   UNL     1       9.329   3.050  10.273  1.00  0.00     0.037 A 
BRANCH  24  38
ATOM     38  C   UNL     1       7.973  -2.797   8.676  1.00  0.00     0.058 A 
ATOM     39  C   UNL     1       8.681  -3.644   7.809  1.00  0.00     0.135 A 
ATOM     40  C   UNL     1       7.326  -3.382   9.777  1.00  0.00     0.135 A 
ATOM     41  F   UNL     1       9.291  -3.144   6.723  1.00  0.00    -0.206 F 
ATOM     42  C   UNL     1       8.710  -5.023   8.002  1.00  0.00     0.059 A 
ATOM     43  C   UNL     1       7.361  -4.755  10.003  1.00  0.00     0.059 A 
ATOM     44  F   UNL     1       6.623  -2.621  10.630  1.00  0.00    -0.206 F 
ATOM     45  C   UNL     1       8.038  -5.570   9.097  1.00  0.00     0.060 A 
BRANCH  45  46
ATOM     46  S   UNL     1       8.040  -7.363   9.310  1.00  0.00     0.124 S 
ATOM     47  O   UNL     1       7.116  -7.782   8.261  1.00  0.00    -0.237 OA
ATOM     48  O   UNL     1       9.442  -7.703   9.091  1.00  0.00    -0.237 OA
ATOM     49  O   UNL     1       7.561  -7.544  10.677  1.00  0.00    -0.744 OA
ENDBRANCH  45  46
ENDBRANCH  24  38
BRANCH  25  50
ATOM     50  C   UNL     1       6.725   6.972   6.423  1.00  0.00     0.058 A 
ATOM     51  C   UNL     1       7.808   7.739   5.969  1.00  0.00     0.135 A 
ATOM     52  C   UNL     1       5.479   7.612   6.535  1.00  0.00     0.135 A 
ATOM     53  F   UNL     1       9.022   7.182   5.851  1.00  0.00    -0.206 F 
ATOM     54  C   UNL     1       7.666   9.089   5.653  1.00  0.00     0.059 A 
ATOM     55  C   UNL     1       5.306   8.952   6.198  1.00  0.00     0.059 A 
ATOM     56  F   UNL     1       4.405   6.927   6.957  1.00  0.00    -0.206 F 
ATOM     57  C   UNL     1       6.410   9.687   5.771  1.00  0.00     0.060 A 
BRANCH  57  58
ATOM     58  S   UNL     1       6.228  11.431   5.338  1.00  0.00     0.124 S 
ATOM     59  O   UNL     1       6.879  12.084   6.467  1.00  0.00    -0.237 OA
ATOM     60  O   UNL     1       6.933  11.508   4.062  1.00  0.00    -0.237 OA
ATOM     61  O   UNL     1       4.781  11.608   5.256  1.00  0.00    -0.744 OA
ENDBRANCH  57  58
ENDBRANCH  25  50
BRANCH  37  62
ATOM     62  C   UNL     1      10.194   3.523  11.402  1.00  0.00     0.058 A 
ATOM     63  C   UNL     1       9.646   4.107  12.554  1.00  0.00     0.135 A 
ATOM     64  C   UNL     1      11.585   3.337  11.350  1.00  0.00     0.135 A 
ATOM     65  F   UNL     1       8.322   4.311  12.644  1.00  0.00    -0.206 F 
ATOM     66  C   UNL     1      10.452   4.513  13.610  1.00  0.00     0.059 A 
ATOM     67  C   UNL     1      12.406   3.711  12.406  1.00  0.00     0.059 A 
ATOM     68  F   UNL     1      12.152   2.771  10.273  1.00  0.00    -0.206 F 
ATOM     69  C   UNL     1      11.832   4.308  13.527  1.00  0.00     0.060 A 
BRANCH  69  70
ATOM     70  S   UNL     1      12.865   4.803  14.921  1.00  0.00     0.124 S 
ATOM     71  O   UNL     1      12.912   6.251  14.751  1.00  0.00    -0.237 OA
ATOM     72  O   UNL     1      12.098   4.322  16.066  1.00  0.00    -0.237 OA
ATOM     73  O   UNL     1      14.121   4.100  14.677  1.00  0.00    -0.744 OA
ENDBRANCH  69  70
ENDBRANCH  37  62
ENDBRANCH  11  12
ENDBRANCH   4   6
ENDBRANCH   3   4
ENDBRANCH   2   3
ENDBRANCH   1   2
BRANCH   1  74
ATOM     74  O   UNL     1       4.063   1.239  -1.183  1.00  0.00    -0.374 OA
BRANCH  74  75
ATOM     75  C   UNL     1       2.740   1.782  -1.279  1.00  0.00     0.202 C 
BRANCH  75  76
ATOM     76  C   UNL     1       2.804   3.167  -1.924  1.00  0.00     0.261 C 
BRANCH  76  77
ATOM     77  O   UNL     1       3.286   2.999  -3.264  1.00  0.00    -0.460 OA
BRANCH  77  78
ATOM     78  C   UNL     1       4.631   3.094  -3.406  1.00  0.00     0.341 C 
ATOM     79  O   UNL     1       5.438   3.570  -2.624  1.00  0.00    -0.246 OA
BRANCH  78  80
ATOM     80  C   UNL     1       5.018   2.258  -4.556  1.00  0.00     0.101 A 
ATOM     81  C   UNL     1       5.995   1.276  -4.338  1.00  0.00     0.022 A 
ATOM     82  C   UNL     1       4.418   2.374  -5.807  1.00  0.00     0.132 A 
ATOM     83  C   UNL     1       6.338   0.384  -5.353  1.00  0.00     0.028 A 
ATOM     84  C   UNL     1       4.818   1.535  -6.844  1.00  0.00     0.074 A 
ATOM     85  C   UNL     1       5.783   0.537  -6.628  1.00  0.00     0.055 A 
BRANCH  82  86
ATOM     86  O   UNL     1       3.466   3.325  -6.035  1.00  0.00    -0.507 OA
ATOM     87  H   UNL     1       3.193   3.892  -5.341  1.00  0.00     0.293 HD
ENDBRANCH  82  86
BRANCH  85  88
ATOM     88  N   UNL     1       6.288  -0.208  -7.716  1.00  0.00    -0.250 N 
ATOM     89  C   UNL     1       6.632   0.386  -8.904  1.00  0.00     0.234 C 
ATOM     90  C   UNL     1       6.623  -1.543  -7.681  1.00  0.00     0.241 C 
ATOM     91  O   UNL     1       6.434   1.537  -9.269  1.00  0.00    -0.274 OA
ATOM     92  C   UNL     1       7.466  -0.572  -9.685  1.00  0.00     0.119 C 
ATOM     93  C   UNL     1       7.213  -1.920  -9.024  1.00  0.00     0.121 C 
ATOM     94  O   UNL     1       6.451  -2.329  -6.757  1.00  0.00    -0.273 OA
BRANCH  93  95
ATOM     95  C   UNL     1       6.360  -2.804  -9.894  1.00  0.00    -0.010 A 
ATOM     96  C   UNL     1       5.107  -3.333  -9.653  1.00  0.00     0.088 A 
ATOM     97  C   UNL     1       6.740  -3.246 -11.210  1.00  0.00     0.003 A 
ATOM     98  N   UNL     1       4.720  -4.055 -10.754  1.00  0.00    -0.361 N 
ATOM     99  C   UNL     1       5.691  -4.002 -11.727  1.00  0.00     0.046 A 
ATOM    100  C   UNL     1       7.882  -3.042 -12.014  1.00  0.00     0.010 A 
ATOM    101  H   UNL     1       3.869  -4.543 -10.835  1.00  0.00     0.166 HD
ATOM    102  C   UNL     1       5.723  -4.560 -13.011  1.00  0.00     0.026 A 
ATOM    103  C   UNL     1       7.928  -3.582 -13.303  1.00  0.00     0.001 A 
ATOM    104  C   UNL     1       6.862  -4.330 -13.792  1.00  0.00     0.002 A 
ENDBRANCH  93  95
ENDBRANCH  85  88
ENDBRANCH  78  80
ENDBRANCH  77  78
ENDBRANCH  76  77
ENDBRANCH  75  76
ENDBRANCH  74  75
ENDBRANCH   1  74
TORSDOF 20
