REMARK SMILES CC(C)c1cc(N2CCC(C(=O)OCCOCCOC(=O)c3ccc(-c4c5nc(c(-c6c(F)cc(S(=O)(=O)[O-])cc6F)c6ccc([nH]6)c(-c6c(F)cc(S(=O)(=O)[O-])cc6F)c6nc(c(-c7c(F)cc(S(=O)(=O)[O-])cc7F)c7ccc4[nH]7)C=C6)C=C5)cc3)CC2)nc(-c2ccc(F)cc2)n1
REMARK SMILES IDX 17 1 16 2 15 3 14 4 13 5 11 6 12 7 10 8 7 9 8 10 89 11 9 12
REMARK SMILES IDX 88 13 6 14 4 15 5 16 99 17 91 18 90 19 2 20 1 21 3 22 92 23
REMARK SMILES IDX 93 24 98 25 94 26 97 27 95 28 96 29 18 30 19 31 20 32 21 33
REMARK SMILES IDX 22 34 23 35 87 36 24 37 86 38 25 39 26 40 27 41 80 42 28 43
REMARK SMILES IDX 85 44 79 45 81 46 29 47 84 48 78 49 77 50 30 52 64 53 43 54
REMARK SMILES IDX 63 55 44 56 47 57 62 58 82 59 45 60 46 61 61 63 83 64 48 65
REMARK SMILES IDX 31 66 32 67 41 68 33 69 34 70 40 71 42 72 35 73 36 74 37 75
REMARK SMILES IDX 38 76 39 77 65 78 66 79 75 80 67 81 68 82 74 83 76 84 69 85
REMARK SMILES IDX 70 86 71 87 72 88 73 89 49 90 50 91 59 92 51 93 52 94 58 95
REMARK SMILES IDX 60 96 53 97 54 98 55 99 56 100 57 101
REMARK H PARENT 81 51 47 62
REMARK Flexibility Score: inf
ROOT
ATOM      1  C   UNL     1      -9.078  -6.281  -2.240  1.00  0.00     0.202 C 
ENDROOT
BRANCH   1   2
ATOM      2  O   UNL     1     -10.164  -6.644  -1.391  1.00  0.00    -0.374 OA
BRANCH   2   3
ATOM      3  C   UNL     1     -10.374  -5.841  -0.226  1.00  0.00     0.202 C 
BRANCH   3   4
ATOM      4  C   UNL     1      -9.386  -6.060   0.924  1.00  0.00     0.261 C 
BRANCH   4   5
ATOM      5  O   UNL     1      -8.090  -5.529   0.590  1.00  0.00    -0.463 OA
BRANCH   5   6
ATOM      6  C   UNL     1      -7.048  -6.395   0.638  1.00  0.00     0.309 C 
ATOM      7  O   UNL     1      -7.105  -7.551   1.040  1.00  0.00    -0.252 OA
BRANCH   6   8
ATOM      8  C   UNL     1      -5.756  -5.782   0.137  1.00  0.00     0.103 C 
ATOM      9  N   UNL     1      -3.756  -3.797  -0.108  1.00  0.00    -0.356 N 
ATOM     10  C   UNL     1      -4.579  -4.057  -1.273  1.00  0.00     0.119 C 
ATOM     11  C   UNL     1      -3.542  -4.844   0.872  1.00  0.00     0.119 C 
ATOM     12  C   UNL     1      -5.929  -4.605  -0.834  1.00  0.00     0.037 C 
ATOM     13  C   UNL     1      -4.896  -5.374   1.335  1.00  0.00     0.037 C 
BRANCH   9  14
ATOM     14  C   UNL     1      -3.033  -2.629  -0.086  1.00  0.00     0.132 A 
ATOM     15  C   UNL     1      -0.989  -1.436  -0.044  1.00  0.00     0.049 A 
ATOM     16  C   UNL     1      -1.653  -2.648  -0.041  1.00  0.00     0.071 A 
ATOM     17  N   UNL     1      -1.662  -0.271  -0.088  1.00  0.00    -0.233 NA
ATOM     18  C   UNL     1      -3.005  -0.343  -0.104  1.00  0.00     0.161 A 
ATOM     19  N   UNL     1      -3.717  -1.479  -0.127  1.00  0.00    -0.211 NA
BRANCH  15  20
ATOM     20  C   UNL     1       0.531  -1.391  -0.031  1.00  0.00     0.032 C 
ATOM     21  C   UNL     1       1.083   0.039   0.002  1.00  0.00     0.014 C 
ATOM     22  C   UNL     1       1.116  -2.182   1.145  1.00  0.00     0.014 C 
ENDBRANCH  15  20
BRANCH  18  23
ATOM     23  C   UNL     1      -3.747   0.919  -0.050  1.00  0.00     0.019 A 
ATOM     24  C   UNL     1      -3.491   1.949  -0.973  1.00  0.00     0.015 A 
ATOM     25  C   UNL     1      -4.721   1.141   0.943  1.00  0.00     0.015 A 
ATOM     26  C   UNL     1      -4.183   3.161  -0.904  1.00  0.00     0.040 A 
ATOM     27  C   UNL     1      -5.400   2.359   1.024  1.00  0.00     0.040 A 
ATOM     28  C   UNL     1      -5.125   3.357   0.099  1.00  0.00     0.123 A 
ATOM     29  F   UNL     1      -5.770   4.527   0.175  1.00  0.00    -0.207 F 
ENDBRANCH  18  23
ENDBRANCH   9  14
ENDBRANCH   6   8
ENDBRANCH   5   6
ENDBRANCH   4   5
ENDBRANCH   3   4
ENDBRANCH   2   3
ENDBRANCH   1   2
BRANCH   1  30
ATOM     30  C   UNL     1      -9.315  -5.101  -3.192  1.00  0.00     0.261 C 
BRANCH  30  31
ATOM     31  O   UNL     1      -9.633  -3.880  -2.502  1.00  0.00    -0.460 OA
BRANCH  31  32
ATOM     32  C   UNL     1     -10.908  -3.455  -2.681  1.00  0.00     0.338 C 
ATOM     33  O   UNL     1     -11.746  -3.947  -3.425  1.00  0.00    -0.246 OA
BRANCH  32  34
ATOM     34  C   UNL     1     -11.249  -2.389  -1.721  1.00  0.00     0.060 A 
ATOM     35  C   UNL     1     -12.395  -2.581  -0.941  1.00  0.00     0.016 A 
ATOM     36  C   UNL     1     -10.535  -1.190  -1.645  1.00  0.00     0.016 A 
ATOM     37  C   UNL     1     -12.864  -1.556  -0.124  1.00  0.00     0.010 A 
ATOM     38  C   UNL     1     -11.012  -0.157  -0.826  1.00  0.00     0.010 A 
ATOM     39  C   UNL     1     -12.199  -0.322  -0.089  1.00  0.00    -0.014 A 
BRANCH  39  40
ATOM     40  C   UNL     1     -12.838   0.810   0.630  1.00  0.00     0.031 A 
ATOM     41  C   UNL     1     -13.636   1.824  -0.147  1.00  0.00     0.074 A 
ATOM     42  C   UNL     1     -12.782   0.882   1.973  1.00  0.00     0.049 A 
ATOM     43  N   UNL     1     -14.336   2.839   0.292  1.00  0.00    -0.248 NA
ATOM     44  C   UNL     1     -13.655   1.671  -1.611  1.00  0.00     0.031 C 
ATOM     45  C   UNL     1     -12.064  -0.054   2.839  1.00  0.00     0.029 A 
ATOM     46  N   UNL     1     -13.349   1.777   2.845  1.00  0.00    -0.354 N 
ATOM     47  C   UNL     1     -14.888   3.437  -0.836  1.00  0.00     0.074 A 
ATOM     48  C   UNL     1     -14.411   2.694  -1.983  1.00  0.00     0.031 C 
ATOM     49  C   UNL     1     -12.237   0.316   4.120  1.00  0.00     0.029 A 
ATOM     50  C   UNL     1     -13.062   1.522   4.164  1.00  0.00     0.049 A 
ATOM     51  H   UNL     1     -13.910   2.532   2.552  1.00  0.00     0.167 HD
ATOM     52  C   UNL     1     -15.728   4.497  -0.909  1.00  0.00     0.037 A 
ATOM     53  C   UNL     1     -13.418   2.188   5.280  1.00  0.00     0.037 A 
ATOM     54  C   UNL     1     -16.200   5.240   0.232  1.00  0.00     0.049 A 
ATOM     55  C   UNL     1     -14.310   3.398   5.166  1.00  0.00     0.074 A 
ATOM     56  C   UNL     1     -17.058   6.327   0.258  1.00  0.00     0.029 A 
ATOM     57  N   UNL     1     -15.855   4.975   1.548  1.00  0.00    -0.354 N 
ATOM     58  N   UNL     1     -14.842   3.934   4.093  1.00  0.00    -0.248 NA
ATOM     59  C   UNL     1     -14.655   4.089   6.417  1.00  0.00     0.031 C 
ATOM     60  C   UNL     1     -17.201   6.742   1.587  1.00  0.00     0.029 A 
ATOM     61  C   UNL     1     -16.467   5.888   2.392  1.00  0.00     0.049 A 
ATOM     62  H   UNL     1     -15.261   4.245   1.841  1.00  0.00     0.167 HD
ATOM     63  C   UNL     1     -15.600   5.011   4.542  1.00  0.00     0.074 A 
ATOM     64  C   UNL     1     -15.475   5.037   5.985  1.00  0.00     0.031 C 
ATOM     65  C   UNL     1     -16.331   5.902   3.827  1.00  0.00     0.037 A 
BRANCH  52  66
ATOM     66  C   UNL     1     -16.194   4.927  -2.272  1.00  0.00     0.058 A 
ATOM     67  C   UNL     1     -17.152   4.189  -2.985  1.00  0.00     0.135 A 
ATOM     68  C   UNL     1     -15.726   6.120  -2.845  1.00  0.00     0.135 A 
ATOM     69  F   UNL     1     -17.620   3.033  -2.490  1.00  0.00    -0.206 F 
ATOM     70  C   UNL     1     -17.622   4.614  -4.223  1.00  0.00     0.059 A 
ATOM     71  C   UNL     1     -16.198   6.575  -4.074  1.00  0.00     0.059 A 
ATOM     72  F   UNL     1     -14.807   6.861  -2.207  1.00  0.00    -0.206 F 
ATOM     73  C   UNL     1     -17.141   5.810  -4.759  1.00  0.00     0.060 A 
BRANCH  73  74
ATOM     74  S   UNL     1     -17.784   6.363  -6.353  1.00  0.00     0.124 S 
ATOM     75  O   UNL     1     -17.131   5.432  -7.269  1.00  0.00    -0.237 OA
ATOM     76  O   UNL     1     -19.223   6.185  -6.189  1.00  0.00    -0.237 OA
ATOM     77  O   UNL     1     -17.333   7.748  -6.440  1.00  0.00    -0.744 OA
ENDBRANCH  73  74
ENDBRANCH  52  66
BRANCH  53  78
ATOM     78  C   UNL     1     -12.926   1.741   6.610  1.00  0.00     0.058 A 
ATOM     79  C   UNL     1     -13.797   1.200   7.567  1.00  0.00     0.135 A 
ATOM     80  C   UNL     1     -11.574   1.880   6.962  1.00  0.00     0.135 A 
ATOM     81  F   UNL     1     -15.101   1.056   7.282  1.00  0.00    -0.206 F 
ATOM     82  C   UNL     1     -13.353   0.838   8.835  1.00  0.00     0.059 A 
ATOM     83  C   UNL     1     -11.101   1.502   8.214  1.00  0.00     0.059 A 
ATOM     84  F   UNL     1     -10.697   2.381   6.078  1.00  0.00    -0.206 F 
ATOM     85  C   UNL     1     -12.002   0.997   9.150  1.00  0.00     0.060 A 
BRANCH  85  86
ATOM     86  S   UNL     1     -11.425   0.505  10.789  1.00  0.00     0.124 S 
ATOM     87  O   UNL     1     -11.888   1.618  11.609  1.00  0.00    -0.237 OA
ATOM     88  O   UNL     1     -12.113  -0.767  10.991  1.00  0.00    -0.237 OA
ATOM     89  O   UNL     1      -9.979   0.404  10.616  1.00  0.00    -0.744 OA
ENDBRANCH  85  86
ENDBRANCH  53  78
BRANCH  65  90
ATOM     90  C   UNL     1     -17.068   6.962   4.599  1.00  0.00     0.058 A 
ATOM     91  C   UNL     1     -16.393   8.031   5.208  1.00  0.00     0.135 A 
ATOM     92  C   UNL     1     -18.466   6.914   4.722  1.00  0.00     0.135 A 
ATOM     93  F   UNL     1     -15.056   8.122   5.123  1.00  0.00    -0.206 F 
ATOM     94  C   UNL     1     -17.073   8.994   5.946  1.00  0.00     0.059 A 
ATOM     95  C   UNL     1     -19.170   7.881   5.433  1.00  0.00     0.059 A 
ATOM     96  F   UNL     1     -19.162   5.920   4.147  1.00  0.00    -0.206 F 
ATOM     97  C   UNL     1     -18.462   8.906   6.059  1.00  0.00     0.060 A 
BRANCH  97  98
ATOM     98  S   UNL     1     -19.336  10.158   7.023  1.00  0.00     0.124 S 
ATOM     99  O   UNL     1     -19.062   9.721   8.388  1.00  0.00    -0.237 OA
ATOM    100  O   UNL     1     -18.678  11.393   6.609  1.00  0.00    -0.237 OA
ATOM    101  O   UNL     1     -20.721  10.016   6.584  1.00  0.00    -0.744 OA
ENDBRANCH  97  98
ENDBRANCH  65  90
ENDBRANCH  39  40
ENDBRANCH  32  34
ENDBRANCH  31  32
ENDBRANCH  30  31
ENDBRANCH   1  30
TORSDOF 20
