REMARK SMILES O=C(OCCOCCOC(=O)[C@H]1CC[C@@H](CNC(=O)[C@@H]2C[C@H]3CC[C@@H]2[NH2+]3)O1)c1ccc(-c2c3nc(c(-c4c(F)cc(S(=O)(=O)[O-])cc4F)c4ccc([nH]4)c(-c4c(F)cc(S(=O)(=O)[O-])cc4F)c4nc(c(-c5c(F)cc(S(=O)(=O)[O-])cc5F)c5ccc2[nH]5)C=C4)C=C3)cc1
REMARK SMILES IDX 6 1 5 2 4 3 3 4 2 5 1 6 28 7 29 8 93 9 30 10 92 11 31 12
REMARK SMILES IDX 32 13 33 14 86 15 34 16 91 17 85 18 87 19 35 20 90 21 84 22
REMARK SMILES IDX 83 23 36 25 70 26 49 27 69 28 50 29 53 30 68 31 88 32 51 33
REMARK SMILES IDX 52 34 67 36 89 37 54 38 37 39 38 40 47 41 39 42 40 43 46 44
REMARK SMILES IDX 48 45 41 46 42 47 43 48 44 49 45 50 71 51 72 52 81 53 73 54
REMARK SMILES IDX 74 55 80 56 82 57 75 58 76 59 77 60 78 61 79 62 55 63 56 64
REMARK SMILES IDX 65 65 57 66 58 67 64 68 66 69 59 70 60 71 61 72 62 73 63 74
REMARK SMILES IDX 7 75 8 76 9 77 10 78 11 79 12 80 13 81 27 82 14 83 15 84
REMARK SMILES IDX 16 85 17 86 18 87 19 89 20 90 21 91 25 92 22 93 24 94 26 95
REMARK SMILES IDX 23 96
REMARK H PARENT 87 24 53 35 17 88 26 97 26 98
REMARK Flexibility Score: inf
ROOT
ATOM      1  O   UNL     1       7.136   2.485  -1.572  1.00  0.00    -0.374 OA
ENDROOT
BRANCH   1   2
ATOM      2  C   UNL     1       5.824   2.827  -2.021  1.00  0.00     0.202 C 
BRANCH   2   3
ATOM      3  C   UNL     1       5.645   2.682  -3.534  1.00  0.00     0.261 C 
BRANCH   3   4
ATOM      4  O   UNL     1       6.131   1.402  -3.969  1.00  0.00    -0.460 OA
BRANCH   4   5
ATOM      5  C   UNL     1       7.383   1.099  -4.391  1.00  0.00     0.338 C 
ATOM      6  O   UNL     1       7.655  -0.079  -4.620  1.00  0.00    -0.246 OA
BRANCH   5   7
ATOM      7  C   UNL     1       8.434   2.129  -4.670  1.00  0.00     0.060 A 
ATOM      8  C   UNL     1       8.552   3.353  -4.012  1.00  0.00     0.016 A 
ATOM      9  C   UNL     1       9.421   1.799  -5.617  1.00  0.00     0.016 A 
ATOM     10  C   UNL     1       9.562   4.248  -4.314  1.00  0.00     0.010 A 
ATOM     11  C   UNL     1      10.484   2.671  -5.886  1.00  0.00     0.010 A 
ATOM     12  C   UNL     1      10.550   3.903  -5.231  1.00  0.00    -0.014 A 
BRANCH  12  13
ATOM     13  C   UNL     1      11.603   4.904  -5.475  1.00  0.00     0.031 A 
ATOM     14  C   UNL     1      11.554   5.710  -6.733  1.00  0.00     0.074 A 
ATOM     15  C   UNL     1      12.453   5.196  -4.471  1.00  0.00     0.049 A 
ATOM     16  N   UNL     1      12.349   6.665  -7.127  1.00  0.00    -0.248 NA
ATOM     17  C   UNL     1      10.449   5.419  -7.663  1.00  0.00     0.031 C 
ATOM     18  C   UNL     1      12.473   4.524  -3.165  1.00  0.00     0.029 A 
ATOM     19  N   UNL     1      13.417   6.159  -4.359  1.00  0.00    -0.354 N 
ATOM     20  C   UNL     1      11.855   7.079  -8.357  1.00  0.00     0.074 A 
ATOM     21  C   UNL     1      10.692   6.271  -8.648  1.00  0.00     0.031 C 
ATOM     22  C   UNL     1      13.370   5.129  -2.371  1.00  0.00     0.029 A 
ATOM     23  C   UNL     1      14.040   6.174  -3.132  1.00  0.00     0.049 A 
ATOM     24  H   UNL     1      13.644   6.782  -5.086  1.00  0.00     0.167 HD
ATOM     25  C   UNL     1      12.344   8.047  -9.165  1.00  0.00     0.037 A 
ATOM     26  C   UNL     1      15.063   6.931  -2.693  1.00  0.00     0.037 A 
ATOM     27  C   UNL     1      13.510   8.824  -8.841  1.00  0.00     0.049 A 
ATOM     28  C   UNL     1      15.636   7.944  -3.646  1.00  0.00     0.074 A 
ATOM     29  C   UNL     1      14.177   9.753  -9.616  1.00  0.00     0.029 A 
ATOM     30  N   UNL     1      14.178   8.761  -7.623  1.00  0.00    -0.354 N 
ATOM     31  N   UNL     1      15.229   8.254  -4.856  1.00  0.00    -0.248 NA
ATOM     32  C   UNL     1      16.814   8.691  -3.194  1.00  0.00     0.031 C 
ATOM     33  C   UNL     1      15.265  10.232  -8.876  1.00  0.00     0.029 A 
ATOM     34  C   UNL     1      15.252   9.631  -7.625  1.00  0.00     0.049 A 
ATOM     35  H   UNL     1      13.923   8.181  -6.870  1.00  0.00     0.167 HD
ATOM     36  C   UNL     1      16.105   9.228  -5.314  1.00  0.00     0.074 A 
ATOM     37  C   UNL     1      17.040   9.483  -4.233  1.00  0.00     0.031 C 
ATOM     38  C   UNL     1      16.153   9.846  -6.521  1.00  0.00     0.037 A 
BRANCH  25  39
ATOM     39  C   UNL     1      11.653   8.256 -10.481  1.00  0.00     0.058 A 
ATOM     40  C   UNL     1      10.411   8.903 -10.572  1.00  0.00     0.135 A 
ATOM     41  C   UNL     1      12.232   7.777 -11.667  1.00  0.00     0.135 A 
ATOM     42  F   UNL     1       9.798   9.349  -9.465  1.00  0.00    -0.206 F 
ATOM     43  C   UNL     1       9.758   9.053 -11.793  1.00  0.00     0.059 A 
ATOM     44  C   UNL     1      11.606   7.933 -12.901  1.00  0.00     0.059 A 
ATOM     45  F   UNL     1      13.410   7.136 -11.633  1.00  0.00    -0.206 F 
ATOM     46  C   UNL     1      10.363   8.561 -12.951  1.00  0.00     0.060 A 
BRANCH  46  47
ATOM     47  S   UNL     1       9.501   8.754 -14.527  1.00  0.00     0.124 S 
ATOM     48  O   UNL     1       8.431   7.770 -14.396  1.00  0.00    -0.237 OA
ATOM     49  O   UNL     1       9.084  10.152 -14.485  1.00  0.00    -0.237 OA
ATOM     50  O   UNL     1      10.526   8.439 -15.516  1.00  0.00    -0.744 OA
ENDBRANCH  46  47
ENDBRANCH  25  39
BRANCH  26  51
ATOM     51  C   UNL     1      15.653   6.704  -1.344  1.00  0.00     0.058 A 
ATOM     52  C   UNL     1      15.620   7.689  -0.345  1.00  0.00     0.135 A 
ATOM     53  C   UNL     1      16.288   5.489  -1.033  1.00  0.00     0.135 A 
ATOM     54  F   UNL     1      15.031   8.870  -0.588  1.00  0.00    -0.206 F 
ATOM     55  C   UNL     1      16.217   7.490   0.898  1.00  0.00     0.059 A 
ATOM     56  C   UNL     1      16.863   5.255   0.211  1.00  0.00     0.059 A 
ATOM     57  F   UNL     1      16.343   4.505  -1.944  1.00  0.00    -0.206 F 
ATOM     58  C   UNL     1      16.841   6.270   1.165  1.00  0.00     0.060 A 
BRANCH  58  59
ATOM     59  S   UNL     1      17.611   6.010   2.778  1.00  0.00     0.124 S 
ATOM     60  O   UNL     1      18.851   6.764   2.634  1.00  0.00    -0.237 OA
ATOM     61  O   UNL     1      16.622   6.575   3.691  1.00  0.00    -0.237 OA
ATOM     62  O   UNL     1      17.759   4.559   2.847  1.00  0.00    -0.744 OA
ENDBRANCH  58  59
ENDBRANCH  26  51
BRANCH  38  63
ATOM     63  C   UNL     1      17.246  10.854  -6.710  1.00  0.00     0.058 A 
ATOM     64  C   UNL     1      18.577  10.457  -6.909  1.00  0.00     0.135 A 
ATOM     65  C   UNL     1      16.953  12.225  -6.720  1.00  0.00     0.135 A 
ATOM     66  F   UNL     1      18.903   9.155  -6.899  1.00  0.00    -0.206 F 
ATOM     67  C   UNL     1      19.590  11.391  -7.082  1.00  0.00     0.059 A 
ATOM     68  C   UNL     1      17.946  13.176  -6.918  1.00  0.00     0.059 A 
ATOM     69  F   UNL     1      15.691  12.649  -6.544  1.00  0.00    -0.206 F 
ATOM     70  C   UNL     1      19.264  12.749  -7.082  1.00  0.00     0.060 A 
BRANCH  70  71
ATOM     71  S   UNL     1      20.582  13.956  -7.328  1.00  0.00     0.124 S 
ATOM     72  O   UNL     1      21.203  13.982  -6.008  1.00  0.00    -0.237 OA
ATOM     73  O   UNL     1      21.374  13.346  -8.391  1.00  0.00    -0.237 OA
ATOM     74  O   UNL     1      19.862  15.168  -7.709  1.00  0.00    -0.744 OA
ENDBRANCH  70  71
ENDBRANCH  38  63
ENDBRANCH  12  13
ENDBRANCH   5   7
ENDBRANCH   4   5
ENDBRANCH   3   4
ENDBRANCH   2   3
ENDBRANCH   1   2
BRANCH   1  75
ATOM     75  C   UNL     1       7.208   1.264  -0.842  1.00  0.00     0.202 C 
BRANCH  75  76
ATOM     76  C   UNL     1       7.065   1.513   0.660  1.00  0.00     0.261 C 
BRANCH  76  77
ATOM     77  O   UNL     1       5.799   2.141   0.941  1.00  0.00    -0.461 OA
BRANCH  77  78
ATOM     78  C   UNL     1       5.838   3.487   1.178  1.00  0.00     0.335 C 
ATOM     79  O   UNL     1       6.856   4.149   1.331  1.00  0.00    -0.249 OA
BRANCH  78  80
ATOM     80  C   UNL     1       4.412   4.059   1.202  1.00  0.00     0.228 C 
ATOM     81  C   UNL     1       4.375   5.467   1.786  1.00  0.00     0.047 C 
ATOM     82  O   UNL     1       3.831   4.139  -0.119  1.00  0.00    -0.361 OA
ATOM     83  C   UNL     1       4.362   6.331   0.551  1.00  0.00     0.037 C 
ATOM     84  C   UNL     1       3.489   5.516  -0.388  1.00  0.00     0.138 C 
BRANCH  84  85
ATOM     85  C   UNL     1       3.733   5.920  -1.845  1.00  0.00     0.147 C 
BRANCH  85  86
ATOM     86  N   UNL     1       2.830   5.294  -2.799  1.00  0.00    -0.353 N 
ATOM     87  C   UNL     1       1.974   5.814  -3.716  1.00  0.00     0.229 C 
ATOM     88  H   UNL     1       2.842   4.310  -2.776  1.00  0.00     0.163 HD
ATOM     89  O   UNL     1       1.451   5.005  -4.495  1.00  0.00    -0.275 OA
BRANCH  87  90
ATOM     90  C   UNL     1       1.529   7.276  -3.772  1.00  0.00     0.142 C 
ATOM     91  C   UNL     1       2.547   8.406  -3.598  1.00  0.00     0.084 C 
ATOM     92  C   UNL     1       0.512   7.569  -2.663  1.00  0.00     0.195 C 
ATOM     93  C   UNL     1       2.050   9.106  -2.316  1.00  0.00     0.183 C 
ATOM     94  C   UNL     1      -0.235   8.881  -2.957  1.00  0.00     0.072 C 
ATOM     95  N   UNL     1       1.413   8.000  -1.574  1.00  0.00    -0.341 N 
ATOM     96  C   UNL     1       0.816   9.951  -2.630  1.00  0.00     0.071 C 
ATOM     97  H   UNL     1       0.906   8.322  -0.749  1.00  0.00     0.346 HD
ATOM     98  H   UNL     1       2.032   7.292  -1.179  1.00  0.00     0.346 HD
ENDBRANCH  87  90
ENDBRANCH  85  86
ENDBRANCH  84  85
ENDBRANCH  78  80
ENDBRANCH  77  78
ENDBRANCH  76  77
ENDBRANCH  75  76
ENDBRANCH   1  75
TORSDOF 20
