REMARK SMILES C[C@@H]1[C@H](C(=O)OCCOCCOC(=O)c2ccc(-c3c4nc(c(-c5c(F)cc(S(=O)(=O)[O-])cc5F)c5ccc([nH]5)c(-c5c(F)cc(S(=O)(=O)[O-])cc5F)c5nc(c(-c6c(F)cc(S(=O)(=O)[O-])cc6F)c6ccc3[nH]6)C=C5)C=C4)cc2)CCN1C(=O)[C@H]1CC[C@@H](C(C)(C)C)CC1
REMARK SMILES IDX 9 1 8 2 7 3 6 4 4 5 5 6 3 7 1 8 2 9 83 10 81 11 82 12 84 13
REMARK SMILES IDX 85 14 86 15 87 16 95 17 88 18 94 19 89 20 90 21 91 22 92 23
REMARK SMILES IDX 93 24 10 25 11 26 12 27 13 28 14 29 15 30 16 31 80 32 17 33
REMARK SMILES IDX 79 34 18 35 19 36 20 37 73 38 21 39 78 40 72 41 74 42 22 43
REMARK SMILES IDX 77 44 71 45 70 46 23 48 57 49 36 50 56 51 37 52 40 53 55 54
REMARK SMILES IDX 75 55 38 56 39 57 54 59 76 60 41 61 24 62 25 63 34 64 26 65
REMARK SMILES IDX 27 66 33 67 35 68 28 69 29 70 30 71 31 72 32 73 58 74 59 75
REMARK SMILES IDX 68 76 60 77 61 78 67 79 69 80 62 81 63 82 64 83 65 84 66 85
REMARK SMILES IDX 42 86 43 87 52 88 44 89 45 90 51 91 53 92 46 93 47 94 48 95
REMARK SMILES IDX 49 96 50 97
REMARK H PARENT 74 47 40 58
REMARK Flexibility Score: inf
ROOT
ATOM      1  O   UNL     1       2.009   4.824  -0.906  1.00  0.00    -0.374 OA
ENDROOT
BRANCH   1   2
ATOM      2  C   UNL     1       2.079   4.798   0.520  1.00  0.00     0.202 C 
BRANCH   2   3
ATOM      3  C   UNL     1       0.854   4.179   1.190  1.00  0.00     0.261 C 
BRANCH   3   4
ATOM      4  O   UNL     1       0.683   2.793   0.830  1.00  0.00    -0.463 OA
BRANCH   4   5
ATOM      5  C   UNL     1      -0.475   2.479   0.206  1.00  0.00     0.311 C 
ATOM      6  O   UNL     1      -1.347   3.291  -0.089  1.00  0.00    -0.252 OA
BRANCH   5   7
ATOM      7  C   UNL     1      -0.657   1.007  -0.095  1.00  0.00     0.123 C 
ATOM      8  C   UNL     1       1.228   0.080   1.407  1.00  0.00     0.032 C 
ATOM      9  C   UNL     1       0.442  -0.058   0.100  1.00  0.00     0.096 C 
ATOM     10  N   UNL     1      -0.340  -1.319   0.085  1.00  0.00    -0.339 N 
ATOM     11  C   UNL     1      -1.803   0.445   0.744  1.00  0.00     0.039 C 
ATOM     12  C   UNL     1      -1.723  -1.046   0.470  1.00  0.00     0.121 C 
BRANCH  10  13
ATOM     13  C   UNL     1      -0.044  -2.616  -0.294  1.00  0.00     0.225 C 
ATOM     14  O   UNL     1      -0.915  -3.491  -0.165  1.00  0.00    -0.275 OA
BRANCH  13  15
ATOM     15  C   UNL     1       1.282  -3.056  -0.940  1.00  0.00     0.078 C 
ATOM     16  C   UNL     1       1.502  -2.462  -2.332  1.00  0.00     0.014 C 
ATOM     17  C   UNL     1       2.498  -3.037  -0.019  1.00  0.00     0.014 C 
ATOM     18  C   UNL     1       2.824  -2.901  -2.964  1.00  0.00     0.005 C 
ATOM     19  C   UNL     1       3.803  -3.419  -0.721  1.00  0.00     0.005 C 
ATOM     20  C   UNL     1       4.069  -2.715  -2.072  1.00  0.00    -0.006 C 
BRANCH  20  21
ATOM     21  C   UNL     1       4.663  -1.256  -2.008  1.00  0.00    -0.035 C 
ATOM     22  C   UNL     1       5.915  -1.210  -1.104  1.00  0.00     0.011 C 
ATOM     23  C   UNL     1       5.102  -0.784  -3.414  1.00  0.00     0.011 C 
ATOM     24  C   UNL     1       3.694  -0.205  -1.480  1.00  0.00     0.011 C 
ENDBRANCH  20  21
ENDBRANCH  13  15
ENDBRANCH  10  13
ENDBRANCH   5   7
ENDBRANCH   4   5
ENDBRANCH   3   4
ENDBRANCH   2   3
ENDBRANCH   1   2
BRANCH   1  25
ATOM     25  C   UNL     1       2.430   3.638  -1.587  1.00  0.00     0.202 C 
BRANCH  25  26
ATOM     26  C   UNL     1       3.938   3.399  -1.518  1.00  0.00     0.261 C 
BRANCH  26  27
ATOM     27  O   UNL     1       4.270   2.854  -0.226  1.00  0.00    -0.460 OA
BRANCH  27  28
ATOM     28  C   UNL     1       5.532   3.102   0.179  1.00  0.00     0.338 C 
ATOM     29  O   UNL     1       6.435   3.591  -0.489  1.00  0.00    -0.246 OA
BRANCH  28  30
ATOM     30  C   UNL     1       5.635   2.848   1.623  1.00  0.00     0.060 A 
ATOM     31  C   UNL     1       5.751   3.954   2.471  1.00  0.00     0.016 A 
ATOM     32  C   UNL     1       5.721   1.549   2.131  1.00  0.00     0.016 A 
ATOM     33  C   UNL     1       6.023   3.762   3.825  1.00  0.00     0.010 A 
ATOM     34  C   UNL     1       5.991   1.361   3.493  1.00  0.00     0.010 A 
ATOM     35  C   UNL     1       6.190   2.467   4.338  1.00  0.00    -0.014 A 
BRANCH  35  36
ATOM     36  C   UNL     1       6.713   2.299   5.720  1.00  0.00     0.031 A 
ATOM     37  C   UNL     1       8.175   1.997   5.924  1.00  0.00     0.074 A 
ATOM     38  C   UNL     1       5.912   2.478   6.787  1.00  0.00     0.049 A 
ATOM     39  N   UNL     1       8.850   1.884   7.040  1.00  0.00    -0.248 NA
ATOM     40  C   UNL     1       8.985   1.800   4.711  1.00  0.00     0.031 C 
ATOM     41  C   UNL     1       4.485   2.789   6.729  1.00  0.00     0.029 A 
ATOM     42  N   UNL     1       6.192   2.431   8.130  1.00  0.00    -0.354 N 
ATOM     43  C   UNL     1      10.161   1.610   6.666  1.00  0.00     0.074 A 
ATOM     44  C   UNL     1      10.179   1.534   5.221  1.00  0.00     0.031 C 
ATOM     45  C   UNL     1       4.014   2.908   7.983  1.00  0.00     0.029 A 
ATOM     46  C   UNL     1       5.101   2.666   8.931  1.00  0.00     0.049 A 
ATOM     47  H   UNL     1       7.091   2.245   8.487  1.00  0.00     0.167 HD
ATOM     48  C   UNL     1      11.254   1.452   7.451  1.00  0.00     0.037 A 
ATOM     49  C   UNL     1       4.987   2.682  10.275  1.00  0.00     0.037 A 
ATOM     50  C   UNL     1      11.241   1.531   8.889  1.00  0.00     0.049 A 
ATOM     51  C   UNL     1       6.208   2.457  11.129  1.00  0.00     0.074 A 
ATOM     52  C   UNL     1      12.306   1.413   9.766  1.00  0.00     0.029 A 
ATOM     53  N   UNL     1      10.110   1.738   9.662  1.00  0.00    -0.354 N 
ATOM     54  N   UNL     1       7.447   2.245  10.757  1.00  0.00    -0.248 NA
ATOM     55  C   UNL     1       6.014   2.482  12.587  1.00  0.00     0.031 C 
ATOM     56  C   UNL     1      11.812   1.507  11.072  1.00  0.00     0.029 A 
ATOM     57  C   UNL     1      10.445   1.728  11.006  1.00  0.00     0.049 A 
ATOM     58  H   UNL     1       9.201   1.873   9.308  1.00  0.00     0.167 HD
ATOM     59  C   UNL     1       8.184   2.136  11.933  1.00  0.00     0.074 A 
ATOM     60  C   UNL     1       7.254   2.316  13.028  1.00  0.00     0.031 C 
ATOM     61  C   UNL     1       9.513   1.911  12.090  1.00  0.00     0.037 A 
BRANCH  48  62
ATOM     62  C   UNL     1      12.563   1.169   6.769  1.00  0.00     0.058 A 
ATOM     63  C   UNL     1      13.257   2.167   6.067  1.00  0.00     0.135 A 
ATOM     64  C   UNL     1      13.148  -0.105   6.851  1.00  0.00     0.135 A 
ATOM     65  F   UNL     1      12.734   3.397   5.947  1.00  0.00    -0.206 F 
ATOM     66  C   UNL     1      14.476   1.905   5.449  1.00  0.00     0.059 A 
ATOM     67  C   UNL     1      14.377  -0.382   6.259  1.00  0.00     0.059 A 
ATOM     68  F   UNL     1      12.525  -1.094   7.509  1.00  0.00    -0.206 F 
ATOM     69  C   UNL     1      15.027   0.626   5.549  1.00  0.00     0.060 A 
BRANCH  69  70
ATOM     70  S   UNL     1      16.609   0.302   4.742  1.00  0.00     0.124 S 
ATOM     71  O   UNL     1      16.211   0.234   3.340  1.00  0.00    -0.237 OA
ATOM     72  O   UNL     1      17.400   1.469   5.121  1.00  0.00    -0.237 OA
ATOM     73  O   UNL     1      17.039  -0.961   5.334  1.00  0.00    -0.744 OA
ENDBRANCH  69  70
ENDBRANCH  48  62
BRANCH  49  74
ATOM     74  C   UNL     1       3.662   2.925  10.902  1.00  0.00     0.058 A 
ATOM     75  C   UNL     1       3.384   4.125  11.572  1.00  0.00     0.135 A 
ATOM     76  C   UNL     1       2.647   1.958  10.841  1.00  0.00     0.135 A 
ATOM     77  F   UNL     1       4.327   5.074  11.667  1.00  0.00    -0.206 F 
ATOM     78  C   UNL     1       2.149   4.354  12.171  1.00  0.00     0.059 A 
ATOM     79  C   UNL     1       1.397   2.173  11.412  1.00  0.00     0.059 A 
ATOM     80  F   UNL     1       2.861   0.797  10.201  1.00  0.00    -0.206 F 
ATOM     81  C   UNL     1       1.161   3.372  12.084  1.00  0.00     0.060 A 
BRANCH  81  82
ATOM     82  S   UNL     1      -0.458   3.699  12.815  1.00  0.00     0.124 S 
ATOM     83  O   UNL     1      -0.180   3.520  14.235  1.00  0.00    -0.237 OA
ATOM     84  O   UNL     1      -0.719   5.069  12.382  1.00  0.00    -0.237 OA
ATOM     85  O   UNL     1      -1.311   2.685  12.203  1.00  0.00    -0.744 OA
ENDBRANCH  81  82
ENDBRANCH  49  74
BRANCH  61  86
ATOM     86  C   UNL     1      10.051   1.872  13.493  1.00  0.00     0.058 A 
ATOM     87  C   UNL     1       9.821   0.777  14.340  1.00  0.00     0.135 A 
ATOM     88  C   UNL     1      10.851   2.919  13.979  1.00  0.00     0.135 A 
ATOM     89  F   UNL     1       9.059  -0.248  13.927  1.00  0.00    -0.206 F 
ATOM     90  C   UNL     1      10.347   0.731  15.628  1.00  0.00     0.059 A 
ATOM     91  C   UNL     1      11.407   2.883  15.255  1.00  0.00     0.059 A 
ATOM     92  F   UNL     1      11.112   3.985  13.206  1.00  0.00    -0.206 F 
ATOM     93  C   UNL     1      11.139   1.790  16.077  1.00  0.00     0.060 A 
BRANCH  93  94
ATOM     94  S   UNL     1      11.842   1.705  17.738  1.00  0.00     0.124 S 
ATOM     95  O   UNL     1      10.681   2.019  18.564  1.00  0.00    -0.237 OA
ATOM     96  O   UNL     1      12.317   0.327  17.809  1.00  0.00    -0.237 OA
ATOM     97  O   UNL     1      12.890   2.722  17.715  1.00  0.00    -0.744 OA
ENDBRANCH  93  94
ENDBRANCH  61  86
ENDBRANCH  35  36
ENDBRANCH  28  30
ENDBRANCH  27  28
ENDBRANCH  26  27
ENDBRANCH  25  26
ENDBRANCH   1  25
TORSDOF 20
