REMARK SMILES O=C(N[C@@H](Cc1ccccc1)C(=O)N[C@@H](CS)C(=O)N[C@@H](CO)C(=O)OCCOCCOC(=O)c1ccc(-c2c3nc(c(-c4c(F)cc(S(=O)(=O)[O-])cc4F)c4ccc([nH]4)c(-c4c(F)cc(S(=O)(=O)[O-])cc4F)c4nc(c(-c5c(F)cc(S(=O)(=O)[O-])cc5F)c5ccc2[nH]5)C=C4)C=C3)cc1)c1ccc(F)cc1
REMARK SMILES IDX 27 1 26 2 24 3 25 4 21 5 20 6 18 7 19 8 15 10 14 11 12 12
REMARK SMILES IDX 13 13 4 15 3 16 1 17 2 18 101 20 102 21 107 22 103 23 106 24
REMARK SMILES IDX 104 25 105 26 5 27 6 28 7 29 11 30 8 31 10 32 9 33 16 34
REMARK SMILES IDX 17 35 22 37 23 38 28 40 29 41 30 42 31 43 32 44 33 45 34 46
REMARK SMILES IDX 35 47 36 48 100 49 37 50 99 51 38 52 39 53 40 54 93 55 41 56
REMARK SMILES IDX 98 57 92 58 94 59 42 60 97 61 91 62 90 63 43 65 77 66 56 67
REMARK SMILES IDX 76 68 57 69 60 70 75 71 95 72 58 73 59 74 74 76 96 77 61 78
REMARK SMILES IDX 44 79 45 80 54 81 46 82 47 83 53 84 55 85 48 86 49 87 50 88
REMARK SMILES IDX 51 89 52 90 78 91 79 92 88 93 80 94 81 95 87 96 89 97 82 98
REMARK SMILES IDX 83 99 84 100 85 101 86 102 62 103 63 104 72 105 64 106
REMARK SMILES IDX 65 107 71 108 73 109 66 110 67 111 68 112 69 113 70 114
REMARK H PARENT 20 9 14 14 3 19 17 36 23 39 94 64 60 75
REMARK Flexibility Score: inf
ROOT
ATOM      1  C   UNL     1       3.409  -9.119  -4.315  1.00  0.00     0.261 C 
ENDROOT
BRANCH   1   2
ATOM      2  O   UNL     1       4.108  -8.115  -3.559  1.00  0.00    -0.462 OA
BRANCH   2   3
ATOM      3  C   UNL     1       4.643  -7.091  -4.279  1.00  0.00     0.331 C 
ATOM      4  O   UNL     1       4.672  -7.031  -5.502  1.00  0.00    -0.250 OA
BRANCH   3   5
ATOM      5  C   UNL     1       5.258  -6.012  -3.365  1.00  0.00     0.218 C 
BRANCH   5   6
ATOM      6  N   UNL     1       4.875  -6.180  -1.952  1.00  0.00    -0.339 N 
ATOM      7  C   UNL     1       3.949  -5.542  -1.190  1.00  0.00     0.244 C 
ATOM      8  O   UNL     1       3.370  -6.234  -0.345  1.00  0.00    -0.273 OA
ATOM      9  H   UNL     1       5.380  -6.878  -1.476  1.00  0.00     0.164 HD
BRANCH   7  10
ATOM     10  C   UNL     1       3.497  -4.080  -1.388  1.00  0.00     0.181 C 
BRANCH  10  11
ATOM     11  N   UNL     1       4.524  -3.152  -1.853  1.00  0.00    -0.342 N 
ATOM     12  C   UNL     1       5.096  -2.083  -1.234  1.00  0.00     0.243 C 
ATOM     13  O   UNL     1       6.157  -1.679  -1.726  1.00  0.00    -0.273 OA
ATOM     14  H   UNL     1       4.858  -3.329  -2.762  1.00  0.00     0.164 HD
BRANCH  12  15
ATOM     15  C   UNL     1       4.542  -1.408   0.045  1.00  0.00     0.176 C 
BRANCH  15  16
ATOM     16  N   UNL     1       3.091  -1.196   0.030  1.00  0.00    -0.340 N 
ATOM     17  O   UNL     1       1.145  -0.074   0.038  1.00  0.00    -0.269 OA
ATOM     18  C   UNL     1       2.372  -0.028  -0.005  1.00  0.00     0.251 C 
ATOM     19  H   UNL     1       2.550  -2.018   0.048  1.00  0.00     0.164 HD
BRANCH  18  20
ATOM     20  C   UNL     1       3.045   1.290  -0.009  1.00  0.00     0.040 A 
ATOM     21  C   UNL     1       3.995   1.641  -0.976  1.00  0.00     0.017 A 
ATOM     22  C   UNL     1       2.681   2.210   0.985  1.00  0.00     0.017 A 
ATOM     23  C   UNL     1       4.634   2.881  -0.899  1.00  0.00     0.040 A 
ATOM     24  C   UNL     1       3.312   3.454   1.048  1.00  0.00     0.040 A 
ATOM     25  C   UNL     1       4.292   3.772   0.114  1.00  0.00     0.123 A 
ATOM     26  F   UNL     1       4.912   4.956   0.189  1.00  0.00    -0.207 F 
ENDBRANCH  18  20
ENDBRANCH  15  16
BRANCH  15  27
ATOM     27  C   UNL     1       5.098  -1.951   1.373  1.00  0.00     0.070 C 
BRANCH  27  28
ATOM     28  C   UNL     1       4.682  -3.324   1.832  1.00  0.00    -0.045 A 
ATOM     29  C   UNL     1       3.407  -3.553   2.370  1.00  0.00     0.004 A 
ATOM     30  C   UNL     1       5.596  -4.387   1.781  1.00  0.00     0.004 A 
ATOM     31  C   UNL     1       3.046  -4.825   2.820  1.00  0.00     0.000 A 
ATOM     32  C   UNL     1       5.240  -5.652   2.250  1.00  0.00     0.000 A 
ATOM     33  C   UNL     1       3.963  -5.872   2.763  1.00  0.00     0.000 A 
ENDBRANCH  27  28
ENDBRANCH  15  27
ENDBRANCH  12  15
ENDBRANCH  10  11
BRANCH  10  34
ATOM     34  C   UNL     1       2.151  -3.976  -2.122  1.00  0.00     0.101 C 
BRANCH  34  35
ATOM     35  S   UNL     1       2.190  -4.285  -3.913  1.00  0.00    -0.177 SA
ATOM     36  H   UNL     1       2.953  -3.337  -4.519  1.00  0.00     0.102 HD
ENDBRANCH  34  35
ENDBRANCH  10  34
ENDBRANCH   7  10
ENDBRANCH   5   6
BRANCH   5  37
ATOM     37  C   UNL     1       6.778  -6.060  -3.534  1.00  0.00     0.193 C 
BRANCH  37  38
ATOM     38  O   UNL     1       7.336  -7.201  -2.886  1.00  0.00    -0.394 OA
ATOM     39  H   UNL     1       7.143  -7.160  -1.936  1.00  0.00     0.210 HD
ENDBRANCH  37  38
ENDBRANCH   5  37
ENDBRANCH   3   5
ENDBRANCH   2   3
ENDBRANCH   1   2
BRANCH   1  40
ATOM     40  C   UNL     1       2.329  -9.780  -3.451  1.00  0.00     0.202 C 
BRANCH  40  41
ATOM     41  O   UNL     1       1.229  -8.919  -3.131  1.00  0.00    -0.374 OA
BRANCH  41  42
ATOM     42  C   UNL     1       1.452  -8.008  -2.050  1.00  0.00     0.202 C 
BRANCH  42  43
ATOM     43  C   UNL     1       1.245  -8.614  -0.659  1.00  0.00     0.261 C 
BRANCH  43  44
ATOM     44  O   UNL     1       2.281  -9.566  -0.357  1.00  0.00    -0.460 OA
BRANCH  44  45
ATOM     45  C   UNL     1       1.835 -10.777   0.039  1.00  0.00     0.338 C 
ATOM     46  O   UNL     1       0.683 -11.094   0.304  1.00  0.00    -0.246 OA
BRANCH  45  47
ATOM     47  C   UNL     1       2.924 -11.761  -0.050  1.00  0.00     0.060 A 
ATOM     48  C   UNL     1       2.738 -12.844  -0.916  1.00  0.00     0.016 A 
ATOM     49  C   UNL     1       4.055 -11.685   0.767  1.00  0.00     0.016 A 
ATOM     50  C   UNL     1       3.656 -13.891  -0.923  1.00  0.00     0.010 A 
ATOM     51  C   UNL     1       4.973 -12.742   0.762  1.00  0.00     0.010 A 
ATOM     52  C   UNL     1       4.754 -13.868  -0.052  1.00  0.00    -0.014 A 
BRANCH  52  53
ATOM     53  C   UNL     1       5.571 -15.096   0.104  1.00  0.00     0.031 A 
ATOM     54  C   UNL     1       5.268 -16.035   1.240  1.00  0.00     0.074 A 
ATOM     55  C   UNL     1       6.530 -15.401  -0.789  1.00  0.00     0.049 A 
ATOM     56  N   UNL     1       5.821 -17.183   1.537  1.00  0.00    -0.248 NA
ATOM     57  C   UNL     1       4.196 -15.627   2.163  1.00  0.00     0.031 C 
ATOM     58  C   UNL     1       6.897 -14.584  -1.944  1.00  0.00     0.029 A 
ATOM     59  N   UNL     1       7.367 -16.485  -0.862  1.00  0.00    -0.354 N 
ATOM     60  C   UNL     1       5.165 -17.636   2.676  1.00  0.00     0.074 A 
ATOM     61  C   UNL     1       4.194 -16.625   3.035  1.00  0.00     0.031 C 
ATOM     62  C   UNL     1       7.891 -15.195  -2.611  1.00  0.00     0.029 A 
ATOM     63  C   UNL     1       8.240 -16.437  -1.922  1.00  0.00     0.049 A 
ATOM     64  H   UNL     1       7.344 -17.229  -0.217  1.00  0.00     0.167 HD
ATOM     65  C   UNL     1       5.347 -18.794   3.355  1.00  0.00     0.037 A 
ATOM     66  C   UNL     1       9.214 -17.292  -2.288  1.00  0.00     0.037 A 
ATOM     67  C   UNL     1       6.314 -19.798   2.997  1.00  0.00     0.049 A 
ATOM     68  C   UNL     1       9.431 -18.552  -1.493  1.00  0.00     0.074 A 
ATOM     69  C   UNL     1       6.561 -21.014   3.608  1.00  0.00     0.029 A 
ATOM     70  N   UNL     1       7.201 -19.697   1.935  1.00  0.00    -0.354 N 
ATOM     71  N   UNL     1       8.781 -18.982  -0.437  1.00  0.00    -0.248 NA
ATOM     72  C   UNL     1      10.508 -19.446  -1.941  1.00  0.00     0.031 C 
ATOM     73  C   UNL     1       7.623 -21.633   2.938  1.00  0.00     0.029 A 
ATOM     74  C   UNL     1       8.012 -20.819   1.887  1.00  0.00     0.049 A 
ATOM     75  H   UNL     1       7.247 -18.940   1.307  1.00  0.00     0.167 HD
ATOM     76  C   UNL     1       9.358 -20.203  -0.105  1.00  0.00     0.074 A 
ATOM     77  C   UNL     1      10.403 -20.449  -1.079  1.00  0.00     0.031 C 
ATOM     78  C   UNL     1       9.050 -21.045   0.912  1.00  0.00     0.037 A 
BRANCH  65  79
ATOM     79  C   UNL     1       4.493 -19.022   4.569  1.00  0.00     0.058 A 
ATOM     80  C   UNL     1       3.132 -19.350   4.461  1.00  0.00     0.135 A 
ATOM     81  C   UNL     1       5.043 -18.919   5.856  1.00  0.00     0.135 A 
ATOM     82  F   UNL     1       2.553 -19.443   3.254  1.00  0.00    -0.206 F 
ATOM     83  C   UNL     1       2.339 -19.541   5.589  1.00  0.00     0.059 A 
ATOM     84  C   UNL     1       4.274 -19.127   6.998  1.00  0.00     0.059 A 
ATOM     85  F   UNL     1       6.338 -18.605   6.015  1.00  0.00    -0.206 F 
ATOM     86  C   UNL     1       2.918 -19.420   6.853  1.00  0.00     0.060 A 
BRANCH  86  87
ATOM     87  S   UNL     1       1.877 -19.654   8.310  1.00  0.00     0.124 S 
ATOM     88  O   UNL     1       1.146 -18.391   8.349  1.00  0.00    -0.237 OA
ATOM     89  O   UNL     1       1.091 -20.830   7.951  1.00  0.00    -0.237 OA
ATOM     90  O   UNL     1       2.842 -19.855   9.387  1.00  0.00    -0.744 OA
ENDBRANCH  86  87
ENDBRANCH  65  79
BRANCH  66  91
ATOM     91  C   UNL     1      10.061 -16.980  -3.468  1.00  0.00     0.058 A 
ATOM     92  C   UNL     1       9.922 -17.687  -4.670  1.00  0.00     0.135 A 
ATOM     93  C   UNL     1      11.010 -15.946  -3.421  1.00  0.00     0.135 A 
ATOM     94  F   UNL     1       9.036 -18.691  -4.759  1.00  0.00    -0.206 F 
ATOM     95  C   UNL     1      10.696 -17.384  -5.786  1.00  0.00     0.059 A 
ATOM     96  C   UNL     1      11.781 -15.611  -4.529  1.00  0.00     0.059 A 
ATOM     97  F   UNL     1      11.173 -15.235  -2.295  1.00  0.00    -0.206 F 
ATOM     98  C   UNL     1      11.620 -16.340  -5.707  1.00  0.00     0.060 A 
BRANCH  98  99
ATOM     99  S   UNL     1      12.570 -15.904  -7.180  1.00  0.00     0.124 S 
ATOM    100  O   UNL     1      13.563 -16.971  -7.215  1.00  0.00    -0.237 OA
ATOM    101  O   UNL     1      11.552 -15.945  -8.226  1.00  0.00    -0.237 OA
ATOM    102  O   UNL     1      13.080 -14.573  -6.866  1.00  0.00    -0.744 OA
ENDBRANCH  98  99
ENDBRANCH  66  91
BRANCH  78 103
ATOM    103  C   UNL     1       9.840 -22.319   1.018  1.00  0.00     0.058 A 
ATOM    104  C   UNL     1      11.154 -22.327   1.509  1.00  0.00     0.135 A 
ATOM    105  C   UNL     1       9.259 -23.549   0.672  1.00  0.00     0.135 A 
ATOM    106  F   UNL     1      11.756 -21.176   1.848  1.00  0.00    -0.206 F 
ATOM    107  C   UNL     1      11.873 -23.511   1.637  1.00  0.00     0.059 A 
ATOM    108  C   UNL     1       9.953 -24.748   0.812  1.00  0.00     0.059 A 
ATOM    109  F   UNL     1       8.001 -23.596   0.206  1.00  0.00    -0.206 F 
ATOM    110  C   UNL     1      11.264 -24.717   1.285  1.00  0.00     0.060 A 
BRANCH 110 111
ATOM    111  S   UNL     1      12.193 -26.252   1.485  1.00  0.00     0.124 S 
ATOM    112  O   UNL     1      13.075 -26.215   0.323  1.00  0.00    -0.237 OA
ATOM    113  O   UNL     1      12.842 -26.063   2.779  1.00  0.00    -0.237 OA
ATOM    114  O   UNL     1      11.158 -27.281   1.456  1.00  0.00    -0.744 OA
ENDBRANCH 110 111
ENDBRANCH  78 103
ENDBRANCH  52  53
ENDBRANCH  45  47
ENDBRANCH  44  45
ENDBRANCH  43  44
ENDBRANCH  42  43
ENDBRANCH  41  42
ENDBRANCH  40  41
ENDBRANCH   1  40
TORSDOF 29
