REMARK SMILES Cc1cc2c(c(C)c1Cl)C=C(C(=O)OCCOCCOC(=O)c1ccc(-c3c4nc(c(-c5c(F)cc(S(=O)(=O)[O-])cc5F)c5ccc([nH]5)c(-c5c(F)cc(S(=O)(=O)[O-])cc5F)c5nc(c(-c6c(F)cc(S(=O)(=O)[O-])cc6F)c6ccc3[nH]6)C=C5)C=C4)cc1)[C@@H](C(F)(F)F)O2
REMARK SMILES IDX 18 1 17 2 16 3 15 4 14 5 12 6 13 7 11 8 1 9 2 10 3 11 8 12
REMARK SMILES IDX 4 13 6 14 9 15 5 16 94 17 7 18 10 19 89 20 90 21 91 22 92 23
REMARK SMILES IDX 93 24 19 25 20 26 21 27 22 28 23 29 24 30 88 31 25 32 87 33
REMARK SMILES IDX 26 34 27 35 28 36 81 37 29 38 86 39 80 40 82 41 30 42 85 43
REMARK SMILES IDX 79 44 78 45 31 47 65 48 44 49 64 50 45 51 48 52 63 53 83 54
REMARK SMILES IDX 46 55 47 56 62 58 84 59 49 60 32 61 33 62 42 63 34 64 35 65
REMARK SMILES IDX 41 66 43 67 36 68 37 69 38 70 39 71 40 72 66 73 67 74 76 75
REMARK SMILES IDX 68 76 69 77 75 78 77 79 70 80 71 81 72 82 73 83 74 84 50 85
REMARK SMILES IDX 51 86 60 87 52 88 53 89 59 90 61 91 54 92 55 93 56 94 57 95
REMARK SMILES IDX 58 96
REMARK H PARENT 82 46 48 57
REMARK Flexibility Score: inf
ROOT
ATOM      1  C   UNL     1       0.476  -2.598   8.483  1.00  0.00     0.202 C 
ENDROOT
BRANCH   1   2
ATOM      2  O   UNL     1      -0.553  -2.984   9.395  1.00  0.00    -0.374 OA
BRANCH   2   3
ATOM      3  C   UNL     1      -0.988  -4.343   9.371  1.00  0.00     0.202 C 
BRANCH   3   4
ATOM      4  C   UNL     1      -1.948  -4.741   8.246  1.00  0.00     0.261 C 
BRANCH   4   5
ATOM      5  O   UNL     1      -1.395  -4.461   6.951  1.00  0.00    -0.460 OA
BRANCH   5   6
ATOM      6  C   UNL     1      -2.026  -3.477   6.271  1.00  0.00     0.338 C 
ATOM      7  O   UNL     1      -3.059  -2.907   6.591  1.00  0.00    -0.246 OA
BRANCH   6   8
ATOM      8  C   UNL     1      -1.207  -3.060   5.118  1.00  0.00     0.087 C 
ATOM      9  C   UNL     1       1.148  -0.077  -0.112  1.00  0.00     0.046 C 
ATOM     10  C   UNL     1       0.614  -0.429   1.250  1.00  0.00    -0.028 A 
ATOM     11  C   UNL     1       0.641  -1.775   1.638  1.00  0.00     0.052 A 
ATOM     12  C   UNL     1       0.132   0.532   2.162  1.00  0.00     0.047 A 
ATOM     13  C   UNL     1       0.110  -2.179   2.861  1.00  0.00     0.128 A 
ATOM     14  C   UNL     1      -0.404   0.142   3.411  1.00  0.00    -0.021 A 
ATOM     15  Cl  UNL     1       0.203   2.212   1.721  1.00  0.00    -0.084 Cl
ATOM     16  C   UNL     1      -0.451  -1.239   3.730  1.00  0.00     0.022 A 
ATOM     17  O   UNL     1       0.192  -3.519   3.118  1.00  0.00    -0.475 OA
ATOM     18  C   UNL     1      -0.928   1.152   4.407  1.00  0.00     0.047 C 
ATOM     19  C   UNL     1      -1.126  -1.737   4.923  1.00  0.00     0.027 C 
ATOM     20  C   UNL     1      -0.552  -4.079   4.235  1.00  0.00     0.316 C 
BRANCH  20  21
ATOM     21  C   UNL     1      -1.542  -5.114   3.682  1.00  0.00     0.430 C 
ATOM     22  F   UNL     1      -0.922  -5.987   2.852  1.00  0.00    -0.167 F 
ATOM     23  F   UNL     1      -2.109  -5.845   4.669  1.00  0.00    -0.167 F 
ATOM     24  F   UNL     1      -2.541  -4.528   2.983  1.00  0.00    -0.167 F 
ENDBRANCH  20  21
ENDBRANCH   6   8
ENDBRANCH   5   6
ENDBRANCH   4   5
ENDBRANCH   3   4
ENDBRANCH   2   3
ENDBRANCH   1   2
BRANCH   1  25
ATOM     25  C   UNL     1       1.899  -3.096   8.766  1.00  0.00     0.261 C 
BRANCH  25  26
ATOM     26  O   UNL     1       2.025  -4.520   8.597  1.00  0.00    -0.460 OA
BRANCH  26  27
ATOM     27  C   UNL     1       2.303  -5.203   9.734  1.00  0.00     0.338 C 
ATOM     28  O   UNL     1       2.507  -4.733  10.845  1.00  0.00    -0.246 OA
BRANCH  27  29
ATOM     29  C   UNL     1       2.140  -6.649   9.506  1.00  0.00     0.060 A 
ATOM     30  C   UNL     1       1.222  -7.335  10.312  1.00  0.00     0.016 A 
ATOM     31  C   UNL     1       2.931  -7.336   8.583  1.00  0.00     0.016 A 
ATOM     32  C   UNL     1       1.121  -8.721  10.227  1.00  0.00     0.010 A 
ATOM     33  C   UNL     1       2.837  -8.730   8.509  1.00  0.00     0.010 A 
ATOM     34  C   UNL     1       1.956  -9.430   9.353  1.00  0.00    -0.014 A 
BRANCH  34  35
ATOM     35  C   UNL     1       2.005 -10.910   9.437  1.00  0.00     0.031 A 
ATOM     36  C   UNL     1       3.103 -11.558  10.235  1.00  0.00     0.074 A 
ATOM     37  C   UNL     1       1.056 -11.662   8.851  1.00  0.00     0.049 A 
ATOM     38  N   UNL     1       3.340 -12.827  10.438  1.00  0.00    -0.248 NA
ATOM     39  C   UNL     1       4.059 -10.654  10.897  1.00  0.00     0.031 C 
ATOM     40  C   UNL     1      -0.083 -11.143   8.096  1.00  0.00     0.029 A 
ATOM     41  N   UNL     1       0.898 -13.024   8.806  1.00  0.00    -0.354 N 
ATOM     42  C   UNL     1       4.464 -12.877  11.255  1.00  0.00     0.074 A 
ATOM     43  C   UNL     1       4.884 -11.511  11.480  1.00  0.00     0.031 C 
ATOM     44  C   UNL     1      -0.826 -12.176   7.663  1.00  0.00     0.029 A 
ATOM     45  C   UNL     1      -0.199 -13.428   8.084  1.00  0.00     0.049 A 
ATOM     46  H   UNL     1       1.512 -13.652   9.250  1.00  0.00     0.167 HD
ATOM     47  C   UNL     1       5.079 -13.962  11.781  1.00  0.00     0.037 A 
ATOM     48  C   UNL     1      -0.639 -14.668   7.787  1.00  0.00     0.037 A 
ATOM     49  C   UNL     1       4.658 -15.319  11.550  1.00  0.00     0.049 A 
ATOM     50  C   UNL     1       0.115 -15.863   8.309  1.00  0.00     0.074 A 
ATOM     51  C   UNL     1       5.218 -16.487  12.036  1.00  0.00     0.029 A 
ATOM     52  N   UNL     1       3.577 -15.690  10.764  1.00  0.00    -0.354 N 
ATOM     53  N   UNL     1       1.175 -15.895   9.082  1.00  0.00    -0.248 NA
ATOM     54  C   UNL     1      -0.383 -17.189   7.918  1.00  0.00     0.031 C 
ATOM     55  C   UNL     1       4.503 -17.566  11.508  1.00  0.00     0.029 A 
ATOM     56  C   UNL     1       3.466 -17.070  10.733  1.00  0.00     0.049 A 
ATOM     57  H   UNL     1       2.976 -15.064  10.298  1.00  0.00     0.167 HD
ATOM     58  C   UNL     1       1.456 -17.242   9.288  1.00  0.00     0.074 A 
ATOM     59  C   UNL     1       0.451 -17.993   8.566  1.00  0.00     0.031 C 
ATOM     60  C   UNL     1       2.456 -17.804  10.012  1.00  0.00     0.037 A 
BRANCH  47  61
ATOM     61  C   UNL     1       6.282 -13.729  12.651  1.00  0.00     0.058 A 
ATOM     62  C   UNL     1       6.159 -13.210  13.950  1.00  0.00     0.135 A 
ATOM     63  C   UNL     1       7.567 -14.073  12.202  1.00  0.00     0.135 A 
ATOM     64  F   UNL     1       4.955 -12.846  14.421  1.00  0.00    -0.206 F 
ATOM     65  C   UNL     1       7.269 -13.026  14.767  1.00  0.00     0.059 A 
ATOM     66  C   UNL     1       8.689 -13.921  13.011  1.00  0.00     0.059 A 
ATOM     67  F   UNL     1       7.740 -14.569  10.967  1.00  0.00    -0.206 F 
ATOM     68  C   UNL     1       8.530 -13.387  14.290  1.00  0.00     0.060 A 
BRANCH  68  69
ATOM     69  S   UNL     1       9.958 -13.155  15.370  1.00  0.00     0.124 S 
ATOM     70  O   UNL     1      10.070 -11.700  15.396  1.00  0.00    -0.237 OA
ATOM     71  O   UNL     1       9.512 -13.778  16.612  1.00  0.00    -0.237 OA
ATOM     72  O   UNL     1      11.032 -13.853  14.671  1.00  0.00    -0.744 OA
ENDBRANCH  68  69
ENDBRANCH  47  61
BRANCH  48  73
ATOM     73  C   UNL     1      -1.859 -14.840   6.955  1.00  0.00     0.058 A 
ATOM     74  C   UNL     1      -3.050 -15.328   7.511  1.00  0.00     0.135 A 
ATOM     75  C   UNL     1      -1.863 -14.503   5.592  1.00  0.00     0.135 A 
ATOM     76  F   UNL     1      -3.091 -15.676   8.806  1.00  0.00    -0.206 F 
ATOM     77  C   UNL     1      -4.202 -15.480   6.747  1.00  0.00     0.059 A 
ATOM     78  C   UNL     1      -3.009 -14.624   4.812  1.00  0.00     0.059 A 
ATOM     79  F   UNL     1      -0.751 -14.024   5.014  1.00  0.00    -0.206 F 
ATOM     80  C   UNL     1      -4.173 -15.119   5.398  1.00  0.00     0.060 A 
BRANCH  80  81
ATOM     81  S   UNL     1      -5.693 -15.264   4.433  1.00  0.00     0.124 S 
ATOM     82  O   UNL     1      -5.833 -16.711   4.321  1.00  0.00    -0.237 OA
ATOM     83  O   UNL     1      -6.663 -14.592   5.292  1.00  0.00    -0.237 OA
ATOM     84  O   UNL     1      -5.372 -14.562   3.194  1.00  0.00    -0.744 OA
ENDBRANCH  80  81
ENDBRANCH  48  73
BRANCH  60  85
ATOM     85  C   UNL     1       2.512 -19.305  10.084  1.00  0.00     0.058 A 
ATOM     86  C   UNL     1       2.954 -20.075   8.998  1.00  0.00     0.135 A 
ATOM     87  C   UNL     1       2.205 -19.973  11.281  1.00  0.00     0.135 A 
ATOM     88  F   UNL     1       3.253 -19.487   7.829  1.00  0.00    -0.206 F 
ATOM     89  C   UNL     1       3.084 -21.457   9.094  1.00  0.00     0.059 A 
ATOM     90  C   UNL     1       2.352 -21.350  11.407  1.00  0.00     0.059 A 
ATOM     91  F   UNL     1       1.787 -19.280  12.353  1.00  0.00    -0.206 F 
ATOM     92  C   UNL     1       2.788 -22.085  10.305  1.00  0.00     0.060 A 
BRANCH  92  93
ATOM     93  S   UNL     1       3.019 -23.871  10.430  1.00  0.00     0.124 S 
ATOM     94  O   UNL     1       1.917 -24.369   9.613  1.00  0.00    -0.237 OA
ATOM     95  O   UNL     1       4.355 -24.052   9.871  1.00  0.00    -0.237 OA
ATOM     96  O   UNL     1       2.904 -24.131  11.862  1.00  0.00    -0.744 OA
ENDBRANCH  92  93
ENDBRANCH  60  85
ENDBRANCH  34  35
ENDBRANCH  27  29
ENDBRANCH  26  27
ENDBRANCH  25  26
ENDBRANCH   1  25
TORSDOF 18
