REMARK SMILES Cc1cccc(OC2(C(=O)OCCOCCOC(=O)c3ccc(-c4c5nc(c(-c6c(F)cc(S(=O)(=O)[O-])cc6F)c6ccc([nH]6)c(-c6c(F)cc(S(=O)(=O)[O-])cc6F)c6nc(c(-c7c(F)cc(S(=O)(=O)[O-])cc7F)c7ccc4[nH]7)C=C6)C=C5)cc3)CCN(C(=O)c3cnc[nH]c3=O)CC2)c1
REMARK SMILES IDX 15 1 14 2 13 3 12 4 11 5 9 6 10 7 8 8 86 9 99 10 87 11 98 12
REMARK SMILES IDX 88 13 89 14 90 15 7 16 6 17 1 18 2 19 3 20 100 21 4 22 5 23
REMARK SMILES IDX 91 24 92 25 96 26 93 27 95 28 97 29 94 30 16 32 17 33 18 34
REMARK SMILES IDX 19 35 20 36 21 37 85 38 22 39 84 40 23 41 24 42 25 43 78 44
REMARK SMILES IDX 26 45 83 46 77 47 79 48 27 49 82 50 76 51 75 52 28 54 62 55
REMARK SMILES IDX 41 56 61 57 42 58 45 59 60 60 80 61 43 62 44 63 59 65 81 66
REMARK SMILES IDX 46 67 29 68 30 69 39 70 31 71 32 72 38 73 40 74 33 75 34 76
REMARK SMILES IDX 35 77 36 78 37 79 63 80 64 81 73 82 65 83 66 84 72 85 74 86
REMARK SMILES IDX 67 87 68 88 69 89 70 90 71 91 47 92 48 93 57 94 49 95 50 96
REMARK SMILES IDX 56 97 58 98 51 99 52 100 53 101 54 102 55 103
REMARK H PARENT 95 31 79 53 45 64
REMARK Flexibility Score: inf
ROOT
ATOM      1  C   UNL     1       1.292   0.958  -2.604  1.00  0.00     0.202 C 
ENDROOT
BRANCH   1   2
ATOM      2  O   UNL     1       0.620   2.194  -2.555  1.00  0.00    -0.374 OA
BRANCH   2   3
ATOM      3  C   UNL     1       1.453   3.331  -2.415  1.00  0.00     0.202 C 
BRANCH   3   4
ATOM      4  C   UNL     1       0.557   4.476  -2.056  1.00  0.00     0.261 C 
BRANCH   4   5
ATOM      5  O   UNL     1      -0.782   4.075  -1.535  1.00  0.00    -0.460 OA
BRANCH   5   6
ATOM      6  C   UNL     1      -1.312   3.308  -0.553  1.00  0.00     0.350 C 
ATOM      7  O   UNL     1      -2.430   2.814  -0.717  1.00  0.00    -0.247 OA
BRANCH   6   8
ATOM      8  C   UNL     1      -0.618   3.211   0.822  1.00  0.00     0.209 C 
ATOM      9  C   UNL     1       0.849   3.610   0.698  1.00  0.00     0.082 C 
ATOM     10  C   UNL     1      -1.302   4.212   1.790  1.00  0.00     0.082 C 
ATOM     11  C   UNL     1       1.636   3.929   1.930  1.00  0.00     0.124 C 
ATOM     12  C   UNL     1      -0.497   4.267   3.095  1.00  0.00     0.124 C 
ATOM     13  N   UNL     1       0.846   4.759   2.798  1.00  0.00    -0.338 N 
ATOM     14  C   UNL     1       1.372   5.966   3.229  1.00  0.00     0.261 C 
ATOM     15  O   UNL     1       2.174   6.642   2.629  1.00  0.00    -0.269 OA
BRANCH   8  16
ATOM     16  O   UNL     1      -0.900   1.960   1.499  1.00  0.00    -0.475 OA
BRANCH  16  17
ATOM     17  C   UNL     1      -0.450   0.806   0.945  1.00  0.00     0.121 A 
ATOM     18  C   UNL     1       2.876  -0.876   0.443  1.00  0.00     0.044 C 
ATOM     19  C   UNL     1       1.392  -0.695   0.499  1.00  0.00    -0.047 A 
ATOM     20  C   UNL     1       0.495  -1.637  -0.006  1.00  0.00     0.003 A 
ATOM     21  C   UNL     1       0.893   0.485   1.046  1.00  0.00     0.050 A 
ATOM     22  C   UNL     1      -0.876  -1.360  -0.022  1.00  0.00     0.004 A 
ATOM     23  C   UNL     1      -1.349  -0.128   0.440  1.00  0.00     0.046 A 
ENDBRANCH  16  17
ENDBRANCH   8  16
BRANCH  14  24
ATOM     24  C   UNL     1       0.971   6.298   4.603  1.00  0.00     0.123 A 
ATOM     25  C   UNL     1       0.257   7.396   4.867  1.00  0.00     0.132 A 
ATOM     26  C   UNL     1       1.285   5.385   5.714  1.00  0.00     0.263 A 
ATOM     27  N   UNL     1      -0.232   7.721   6.112  1.00  0.00    -0.246 NA
ATOM     28  N   UNL     1       0.747   5.743   6.913  1.00  0.00    -0.312 N 
ATOM     29  O   UNL     1       1.966   4.369   5.601  1.00  0.00    -0.269 OA
ATOM     30  C   UNL     1       0.021   6.887   7.063  1.00  0.00     0.199 A 
ATOM     31  H   UNL     1       0.887   5.159   7.693  1.00  0.00     0.171 HD
ENDBRANCH  14  24
ENDBRANCH   6   8
ENDBRANCH   5   6
ENDBRANCH   4   5
ENDBRANCH   3   4
ENDBRANCH   2   3
ENDBRANCH   1   2
BRANCH   1  32
ATOM     32  C   UNL     1       2.397   0.873  -3.656  1.00  0.00     0.261 C 
BRANCH  32  33
ATOM     33  O   UNL     1       1.873   0.722  -4.992  1.00  0.00    -0.460 OA
BRANCH  33  34
ATOM     34  C   UNL     1       1.868   1.845  -5.770  1.00  0.00     0.338 C 
ATOM     35  O   UNL     1       2.754   2.120  -6.561  1.00  0.00    -0.246 OA
BRANCH  34  36
ATOM     36  C   UNL     1       0.591   2.595  -5.639  1.00  0.00     0.060 A 
ATOM     37  C   UNL     1       0.524   3.975  -5.906  1.00  0.00     0.016 A 
ATOM     38  C   UNL     1      -0.512   1.935  -5.104  1.00  0.00     0.016 A 
ATOM     39  C   UNL     1      -0.615   4.710  -5.541  1.00  0.00     0.010 A 
ATOM     40  C   UNL     1      -1.573   2.680  -4.635  1.00  0.00     0.010 A 
ATOM     41  C   UNL     1      -1.643   4.065  -4.862  1.00  0.00    -0.014 A 
BRANCH  41  42
ATOM     42  C   UNL     1      -2.872   4.678  -4.355  1.00  0.00     0.031 A 
ATOM     43  C   UNL     1      -4.146   4.212  -4.929  1.00  0.00     0.074 A 
ATOM     44  C   UNL     1      -2.874   5.370  -3.195  1.00  0.00     0.049 A 
ATOM     45  N   UNL     1      -5.292   4.693  -4.607  1.00  0.00    -0.248 NA
ATOM     46  C   UNL     1      -4.240   3.200  -5.981  1.00  0.00     0.031 C 
ATOM     47  C   UNL     1      -3.912   5.437  -2.168  1.00  0.00     0.029 A 
ATOM     48  N   UNL     1      -1.837   6.105  -2.633  1.00  0.00    -0.354 N 
ATOM     49  C   UNL     1      -6.241   3.812  -5.060  1.00  0.00     0.074 A 
ATOM     50  C   UNL     1      -5.564   3.048  -6.072  1.00  0.00     0.031 C 
ATOM     51  C   UNL     1      -3.564   6.340  -1.230  1.00  0.00     0.029 A 
ATOM     52  C   UNL     1      -2.345   6.993  -1.683  1.00  0.00     0.049 A 
ATOM     53  H   UNL     1      -0.886   6.013  -2.869  1.00  0.00     0.167 HD
ATOM     54  C   UNL     1      -7.418   3.743  -4.374  1.00  0.00     0.037 A 
ATOM     55  C   UNL     1      -2.114   8.324  -1.832  1.00  0.00     0.037 A 
ATOM     56  C   UNL     1      -7.492   4.852  -3.393  1.00  0.00     0.049 A 
ATOM     57  C   UNL     1      -3.431   8.949  -2.184  1.00  0.00     0.074 A 
ATOM     58  C   UNL     1      -7.480   4.916  -2.009  1.00  0.00     0.029 A 
ATOM     59  N   UNL     1      -7.261   6.166  -3.830  1.00  0.00    -0.354 N 
ATOM     60  N   UNL     1      -4.400   8.270  -2.743  1.00  0.00    -0.248 NA
ATOM     61  C   UNL     1      -3.841  10.285  -1.776  1.00  0.00     0.031 C 
ATOM     62  C   UNL     1      -7.154   6.257  -1.630  1.00  0.00     0.029 A 
ATOM     63  C   UNL     1      -6.992   7.024  -2.777  1.00  0.00     0.049 A 
ATOM     64  H   UNL     1      -7.288   6.444  -4.774  1.00  0.00     0.167 HD
ATOM     65  C   UNL     1      -5.557   8.975  -2.652  1.00  0.00     0.074 A 
ATOM     66  C   UNL     1      -5.150  10.255  -2.089  1.00  0.00     0.031 C 
ATOM     67  C   UNL     1      -6.768   8.456  -3.005  1.00  0.00     0.037 A 
BRANCH  54  68
ATOM     68  C   UNL     1      -8.403   2.573  -4.439  1.00  0.00     0.058 A 
ATOM     69  C   UNL     1      -9.557   2.562  -3.623  1.00  0.00     0.135 A 
ATOM     70  C   UNL     1      -8.261   1.403  -5.225  1.00  0.00     0.135 A 
ATOM     71  F   UNL     1      -9.826   3.575  -2.788  1.00  0.00    -0.206 F 
ATOM     72  C   UNL     1     -10.485   1.507  -3.608  1.00  0.00     0.059 A 
ATOM     73  C   UNL     1      -9.188   0.357  -5.254  1.00  0.00     0.059 A 
ATOM     74  F   UNL     1      -7.195   1.163  -5.989  1.00  0.00    -0.206 F 
ATOM     75  C   UNL     1     -10.301   0.412  -4.441  1.00  0.00     0.060 A 
BRANCH  75  76
ATOM     76  S   UNL     1     -11.511  -0.922  -4.462  1.00  0.00     0.124 S 
ATOM     77  O   UNL     1     -11.409  -1.449  -3.105  1.00  0.00    -0.237 OA
ATOM     78  O   UNL     1     -12.746  -0.212  -4.779  1.00  0.00    -0.237 OA
ATOM     79  O   UNL     1     -11.023  -1.813  -5.511  1.00  0.00    -0.744 OA
ENDBRANCH  75  76
ENDBRANCH  54  68
BRANCH  55  80
ATOM     80  C   UNL     1      -0.723   8.601  -2.325  1.00  0.00     0.058 A 
ATOM     81  C   UNL     1       0.320   8.422  -1.385  1.00  0.00     0.135 A 
ATOM     82  C   UNL     1      -0.368   8.480  -3.680  1.00  0.00     0.135 A 
ATOM     83  F   UNL     1       0.050   8.504  -0.071  1.00  0.00    -0.206 F 
ATOM     84  C   UNL     1       1.598   7.988  -1.751  1.00  0.00     0.059 A 
ATOM     85  C   UNL     1       0.902   8.021  -4.068  1.00  0.00     0.059 A 
ATOM     86  F   UNL     1      -1.296   8.634  -4.635  1.00  0.00    -0.206 F 
ATOM     87  C   UNL     1       1.858   7.720  -3.093  1.00  0.00     0.060 A 
BRANCH  87  88
ATOM     88  S   UNL     1       3.301   6.690  -3.512  1.00  0.00     0.124 S 
ATOM     89  O   UNL     1       4.368   7.675  -3.622  1.00  0.00    -0.237 OA
ATOM     90  O   UNL     1       3.386   5.781  -2.369  1.00  0.00    -0.237 OA
ATOM     91  O   UNL     1       2.893   6.042  -4.753  1.00  0.00    -0.744 OA
ENDBRANCH  87  88
ENDBRANCH  55  80
BRANCH  67  92
ATOM     92  C   UNL     1      -7.876   9.314  -3.555  1.00  0.00     0.058 A 
ATOM     93  C   UNL     1      -7.668  10.609  -4.066  1.00  0.00     0.135 A 
ATOM     94  C   UNL     1      -9.166   8.775  -3.768  1.00  0.00     0.135 A 
ATOM     95  F   UNL     1      -6.463  11.195  -4.061  1.00  0.00    -0.206 F 
ATOM     96  C   UNL     1      -8.684  11.351  -4.654  1.00  0.00     0.059 A 
ATOM     97  C   UNL     1     -10.172   9.469  -4.428  1.00  0.00     0.059 A 
ATOM     98  F   UNL     1      -9.495   7.539  -3.368  1.00  0.00    -0.206 F 
ATOM     99  C   UNL     1      -9.932  10.772  -4.833  1.00  0.00     0.060 A 
BRANCH  99 100
ATOM    100  S   UNL     1     -11.223  11.731  -5.626  1.00  0.00     0.124 S 
ATOM    101  O   UNL     1     -11.679  12.564  -4.518  1.00  0.00    -0.237 OA
ATOM    102  O   UNL     1     -10.495  12.428  -6.683  1.00  0.00    -0.237 OA
ATOM    103  O   UNL     1     -12.165  10.717  -6.086  1.00  0.00    -0.744 OA
ENDBRANCH  99 100
ENDBRANCH  67  92
ENDBRANCH  41  42
ENDBRANCH  34  36
ENDBRANCH  33  34
ENDBRANCH  32  33
ENDBRANCH   1  32
TORSDOF 20
