REMARK SMILES C[C@H]1[C@@H](C(=O)OCCOCCOC(=O)c2ccc(-c3c4nc(c(-c5c(F)cc(S(=O)(=O)[O-])cc5F)c5ccc([nH]5)c(-c5c(F)cc(S(=O)(=O)[O-])cc5F)c5nc(c(-c6c(F)cc(S(=O)(=O)[O-])cc6F)c6ccc3[nH]6)C=C5)C=C4)cc2)CCN1S(=O)(=O)Cc1cccc(C#N)c1
REMARK SMILES IDX 8 1 7 2 6 3 4 4 5 5 3 6 1 7 2 8 83 9 81 10 82 11 84 12 85 13
REMARK SMILES IDX 86 14 87 15 88 16 89 17 95 18 90 19 92 20 91 21 93 22 94 23
REMARK SMILES IDX 9 24 10 25 11 26 12 27 13 28 14 29 15 30 16 31 80 32 17 33
REMARK SMILES IDX 79 34 18 35 19 36 20 37 73 38 21 39 78 40 72 41 74 42 22 43
REMARK SMILES IDX 77 44 71 45 70 46 23 48 57 49 36 50 56 51 37 52 40 53 55 54
REMARK SMILES IDX 75 55 38 56 39 57 54 59 76 60 41 61 24 62 25 63 34 64 26 65
REMARK SMILES IDX 27 66 33 67 35 68 28 69 29 70 30 71 31 72 32 73 58 74 59 75
REMARK SMILES IDX 68 76 60 77 61 78 67 79 69 80 62 81 63 82 64 83 65 84 66 85
REMARK SMILES IDX 42 86 43 87 52 88 44 89 45 90 51 91 53 92 46 93 47 94 48 95
REMARK SMILES IDX 49 96 50 97
REMARK H PARENT 74 47 40 58
REMARK Flexibility Score: inf
ROOT
ATOM      1  C   UNL     1       1.400   2.476  -3.591  1.00  0.00     0.202 C 
ENDROOT
BRANCH   1   2
ATOM      2  C   UNL     1       1.653   3.259  -2.296  1.00  0.00     0.261 C 
BRANCH   2   3
ATOM      3  O   UNL     1       1.438   2.418  -1.144  1.00  0.00    -0.463 OA
BRANCH   3   4
ATOM      4  C   UNL     1       0.316   2.620  -0.423  1.00  0.00     0.310 C 
ATOM      5  O   UNL     1      -0.427   3.585  -0.567  1.00  0.00    -0.252 OA
BRANCH   4   6
ATOM      6  C   UNL     1      -0.007   1.496   0.557  1.00  0.00     0.118 C 
ATOM      7  C   UNL     1       1.926  -0.067  -0.342  1.00  0.00     0.027 C 
ATOM      8  C   UNL     1       0.865   0.230   0.711  1.00  0.00     0.084 C 
ATOM      9  N   UNL     1      -0.076  -0.947   0.724  1.00  0.00    -0.198 NA
ATOM     10  C   UNL     1      -1.432   0.986   0.309  1.00  0.00     0.034 C 
ATOM     11  C   UNL     1      -1.325  -0.504   0.054  1.00  0.00     0.103 C 
BRANCH   9  12
ATOM     12  S   UNL     1      -0.352  -1.761   2.188  1.00  0.00     0.218 S 
ATOM     13  O   UNL     1      -0.798  -0.746   3.124  1.00  0.00    -0.212 OA
ATOM     14  O   UNL     1      -1.214  -2.890   1.901  1.00  0.00    -0.212 OA
BRANCH  12  15
ATOM     15  C   UNL     1       1.250  -2.361   2.762  1.00  0.00     0.189 C 
BRANCH  15  16
ATOM     16  C   UNL     1       1.863  -3.419   1.881  1.00  0.00    -0.030 A 
ATOM     17  C   UNL     1       1.349  -4.723   1.835  1.00  0.00     0.005 A 
ATOM     18  C   UNL     1       3.029  -3.142   1.150  1.00  0.00     0.024 A 
ATOM     19  C   UNL     1       1.961  -5.708   1.053  1.00  0.00     0.002 A 
ATOM     20  C   UNL     1       3.618  -4.113   0.329  1.00  0.00     0.052 A 
ATOM     21  C   UNL     1       3.086  -5.401   0.289  1.00  0.00     0.019 A 
BRANCH  20  22
ATOM     22  C   UNL     1       4.746  -3.769  -0.482  1.00  0.00     0.099 C 
ATOM     23  N   UNL     1       5.640  -3.465  -1.158  1.00  0.00    -0.192 NA
ENDBRANCH  20  22
ENDBRANCH  15  16
ENDBRANCH  12  15
ENDBRANCH   9  12
ENDBRANCH   4   6
ENDBRANCH   3   4
ENDBRANCH   2   3
ENDBRANCH   1   2
BRANCH   1  24
ATOM     24  O   UNL     1       0.035   2.174  -3.893  1.00  0.00    -0.374 OA
BRANCH  24  25
ATOM     25  C   UNL     1      -0.541   1.048  -3.237  1.00  0.00     0.202 C 
BRANCH  25  26
ATOM     26  C   UNL     1      -0.285  -0.338  -3.843  1.00  0.00     0.261 C 
BRANCH  26  27
ATOM     27  O   UNL     1       1.107  -0.679  -3.844  1.00  0.00    -0.460 OA
BRANCH  27  28
ATOM     28  C   UNL     1       1.714  -0.454  -5.032  1.00  0.00     0.338 C 
ATOM     29  O   UNL     1       1.182  -0.086  -6.066  1.00  0.00    -0.246 OA
BRANCH  28  30
ATOM     30  C   UNL     1       3.177  -0.537  -4.878  1.00  0.00     0.060 A 
ATOM     31  C   UNL     1       3.929   0.455  -5.517  1.00  0.00     0.016 A 
ATOM     32  C   UNL     1       3.805  -1.588  -4.206  1.00  0.00     0.016 A 
ATOM     33  C   UNL     1       5.309   0.336  -5.589  1.00  0.00     0.010 A 
ATOM     34  C   UNL     1       5.197  -1.698  -4.269  1.00  0.00     0.010 A 
ATOM     35  C   UNL     1       5.945  -0.775  -5.019  1.00  0.00    -0.014 A 
BRANCH  35  36
ATOM     36  C   UNL     1       7.358  -1.042  -5.380  1.00  0.00     0.031 A 
ATOM     37  C   UNL     1       7.666  -2.142  -6.364  1.00  0.00     0.074 A 
ATOM     38  C   UNL     1       8.338  -0.250  -4.911  1.00  0.00     0.049 A 
ATOM     39  N   UNL     1       8.815  -2.496  -6.879  1.00  0.00    -0.248 NA
ATOM     40  C   UNL     1       6.527  -2.950  -6.832  1.00  0.00     0.031 C 
ATOM     41  C   UNL     1       8.150   0.860  -3.977  1.00  0.00     0.029 A 
ATOM     42  N   UNL     1       9.685  -0.249  -5.169  1.00  0.00    -0.354 N 
ATOM     43  C   UNL     1       8.539  -3.567  -7.723  1.00  0.00     0.074 A 
ATOM     44  C   UNL     1       7.123  -3.835  -7.617  1.00  0.00     0.031 C 
ATOM     45  C   UNL     1       9.338   1.444  -3.750  1.00  0.00     0.029 A 
ATOM     46  C   UNL     1      10.373   0.729  -4.493  1.00  0.00     0.049 A 
ATOM     47  H   UNL     1      10.117  -0.887  -5.781  1.00  0.00     0.167 HD
ATOM     48  C   UNL     1       9.388  -4.254  -8.524  1.00  0.00     0.037 A 
ATOM     49  C   UNL     1      11.691   1.005  -4.467  1.00  0.00     0.037 A 
ATOM     50  C   UNL     1      10.799  -3.977  -8.617  1.00  0.00     0.049 A 
ATOM     51  C   UNL     1      12.623   0.191  -5.324  1.00  0.00     0.074 A 
ATOM     52  C   UNL     1      11.746  -4.598  -9.411  1.00  0.00     0.029 A 
ATOM     53  N   UNL     1      11.467  -3.006  -7.884  1.00  0.00    -0.354 N 
ATOM     54  N   UNL     1      12.345  -0.797  -6.144  1.00  0.00    -0.248 NA
ATOM     55  C   UNL     1      14.049   0.537  -5.264  1.00  0.00     0.031 C 
ATOM     56  C   UNL     1      12.997  -4.051  -9.107  1.00  0.00     0.029 A 
ATOM     57  C   UNL     1      12.819  -3.032  -8.184  1.00  0.00     0.049 A 
ATOM     58  H   UNL     1      11.043  -2.389  -7.245  1.00  0.00     0.167 HD
ATOM     59  C   UNL     1      13.556  -1.167  -6.721  1.00  0.00     0.074 A 
ATOM     60  C   UNL     1      14.563  -0.283  -6.170  1.00  0.00     0.031 C 
ATOM     61  C   UNL     1      13.812  -2.145  -7.626  1.00  0.00     0.037 A 
BRANCH  48  62
ATOM     62  C   UNL     1       8.822  -5.388  -9.339  1.00  0.00     0.058 A 
ATOM     63  C   UNL     1       7.935  -5.171 -10.407  1.00  0.00     0.135 A 
ATOM     64  C   UNL     1       9.204  -6.714  -9.072  1.00  0.00     0.135 A 
ATOM     65  F   UNL     1       7.519  -3.929 -10.700  1.00  0.00    -0.206 F 
ATOM     66  C   UNL     1       7.427  -6.227 -11.159  1.00  0.00     0.059 A 
ATOM     67  C   UNL     1       8.736  -7.781  -9.833  1.00  0.00     0.059 A 
ATOM     68  F   UNL     1      10.047  -6.984  -8.062  1.00  0.00    -0.206 F 
ATOM     69  C   UNL     1       7.837  -7.529 -10.867  1.00  0.00     0.060 A 
BRANCH  69  70
ATOM     70  S   UNL     1       7.180  -8.884 -11.862  1.00  0.00     0.124 S 
ATOM     71  O   UNL     1       5.782  -8.905 -11.442  1.00  0.00    -0.237 OA
ATOM     72  O   UNL     1       7.425  -8.417 -13.223  1.00  0.00    -0.237 OA
ATOM     73  O   UNL     1       7.976 -10.033 -11.443  1.00  0.00    -0.744 OA
ENDBRANCH  69  70
ENDBRANCH  48  62
BRANCH  49  74
ATOM     74  C   UNL     1      12.203   2.101  -3.600  1.00  0.00     0.058 A 
ATOM     75  C   UNL     1      12.768   3.263  -4.146  1.00  0.00     0.135 A 
ATOM     76  C   UNL     1      12.135   2.005  -2.200  1.00  0.00     0.135 A 
ATOM     77  F   UNL     1      12.864   3.401  -5.477  1.00  0.00    -0.206 F 
ATOM     78  C   UNL     1      13.265   4.281  -3.338  1.00  0.00     0.059 A 
ATOM     79  C   UNL     1      12.594   3.024  -1.373  1.00  0.00     0.059 A 
ATOM     80  F   UNL     1      11.592   0.921  -1.625  1.00  0.00    -0.206 F 
ATOM     81  C   UNL     1      13.168   4.154  -1.951  1.00  0.00     0.060 A 
BRANCH  81  82
ATOM     82  S   UNL     1      13.772   5.502  -0.914  1.00  0.00     0.124 S 
ATOM     83  O   UNL     1      15.214   5.402  -1.110  1.00  0.00    -0.237 OA
ATOM     84  O   UNL     1      13.124   6.662  -1.517  1.00  0.00    -0.237 OA
ATOM     85  O   UNL     1      13.290   5.144   0.417  1.00  0.00    -0.744 OA
ENDBRANCH  81  82
ENDBRANCH  49  74
BRANCH  61  86
ATOM     86  C   UNL     1      15.231  -2.279  -8.116  1.00  0.00     0.058 A 
ATOM     87  C   UNL     1      16.273  -2.713  -7.280  1.00  0.00     0.135 A 
ATOM     88  C   UNL     1      15.549  -1.986  -9.453  1.00  0.00     0.135 A 
ATOM     89  F   UNL     1      16.030  -3.007  -5.992  1.00  0.00    -0.206 F 
ATOM     90  C   UNL     1      17.584  -2.801  -7.737  1.00  0.00     0.059 A 
ATOM     91  C   UNL     1      16.845  -2.107  -9.942  1.00  0.00     0.059 A 
ATOM     92  F   UNL     1      14.591  -1.583 -10.304  1.00  0.00    -0.206 F 
ATOM     93  C   UNL     1      17.860  -2.493  -9.070  1.00  0.00     0.060 A 
BRANCH  93  94
ATOM     94  S   UNL     1      19.566  -2.609  -9.649  1.00  0.00     0.124 S 
ATOM     95  O   UNL     1      20.181  -1.467  -8.980  1.00  0.00    -0.237 OA
ATOM     96  O   UNL     1      19.971  -3.924  -9.162  1.00  0.00    -0.237 OA
ATOM     97  O   UNL     1      19.443  -2.495 -11.099  1.00  0.00    -0.744 OA
ENDBRANCH  93  94
ENDBRANCH  61  86
ENDBRANCH  35  36
ENDBRANCH  28  30
ENDBRANCH  27  28
ENDBRANCH  26  27
ENDBRANCH  25  26
ENDBRANCH  24  25
ENDBRANCH   1  24
TORSDOF 21
