REMARK SMILES O=C(OCCOCCOC(=O)c1ccnc(-c2ccnc(COc3ccccc3)n2)c1)c1ccc(-c2c3nc(c(-c4c(F)cc(S(=O)(=O)[O-])cc4F)c4ccc([nH]4)c(-c4c(F)cc(S(=O)(=O)[O-])cc4F)c4nc(c(-c5c(F)cc(S(=O)(=O)[O-])cc5F)c5ccc2[nH]5)C=C4)C=C3)cc1
REMARK SMILES IDX 7 1 6 2 5 3 4 4 3 5 2 6 1 7 32 8 33 9 97 10 34 11 96 12
REMARK SMILES IDX 35 13 36 14 37 15 90 16 38 17 95 18 89 19 91 20 39 21 94 22
REMARK SMILES IDX 88 23 87 24 40 26 74 27 53 28 73 29 54 30 57 31 72 32 92 33
REMARK SMILES IDX 55 34 56 35 71 37 93 38 58 39 41 40 42 41 51 42 43 43 44 44
REMARK SMILES IDX 50 45 52 46 45 47 46 48 47 49 48 50 49 51 75 52 76 53 85 54
REMARK SMILES IDX 77 55 78 56 84 57 86 58 79 59 80 60 81 61 82 62 83 63 59 64
REMARK SMILES IDX 60 65 69 66 61 67 62 68 68 69 70 70 63 71 64 72 65 73 66 74
REMARK SMILES IDX 67 75 8 76 9 77 10 78 11 79 12 80 13 81 31 82 14 83 16 84
REMARK SMILES IDX 15 85 17 86 18 87 30 88 19 89 21 90 20 91 22 92 23 93 24 94
REMARK SMILES IDX 25 95 29 96 26 97 28 98 27 99
REMARK H PARENT 91 25 57 36
REMARK Flexibility Score: inf
ROOT
ATOM      1  C   UNL     1       2.820  -2.205  -0.499  1.00  0.00     0.202 C 
ENDROOT
BRANCH   1   2
ATOM      2  O   UNL     1       4.148  -1.742  -0.221  1.00  0.00    -0.374 OA
BRANCH   2   3
ATOM      3  C   UNL     1       4.364  -1.195   1.077  1.00  0.00     0.202 C 
BRANCH   3   4
ATOM      4  C   UNL     1       4.030   0.291   1.214  1.00  0.00     0.261 C 
BRANCH   4   5
ATOM      5  O   UNL     1       2.626   0.494   0.989  1.00  0.00    -0.460 OA
BRANCH   5   6
ATOM      6  C   UNL     1       2.026   1.065  -0.080  1.00  0.00     0.338 C 
ATOM      7  O   UNL     1       0.806   1.211  -0.060  1.00  0.00    -0.246 OA
BRANCH   6   8
ATOM      8  C   UNL     1       2.774   1.540  -1.281  1.00  0.00     0.060 A 
ATOM      9  C   UNL     1       3.939   0.950  -1.778  1.00  0.00     0.016 A 
ATOM     10  C   UNL     1       2.199   2.590  -2.014  1.00  0.00     0.016 A 
ATOM     11  C   UNL     1       4.559   1.419  -2.926  1.00  0.00     0.010 A 
ATOM     12  C   UNL     1       2.791   3.042  -3.195  1.00  0.00     0.010 A 
ATOM     13  C   UNL     1       3.982   2.461  -3.643  1.00  0.00    -0.014 A 
BRANCH  13  14
ATOM     14  C   UNL     1       4.687   2.975  -4.827  1.00  0.00     0.031 A 
ATOM     15  C   UNL     1       5.432   4.264  -4.706  1.00  0.00     0.074 A 
ATOM     16  C   UNL     1       4.699   2.246  -5.956  1.00  0.00     0.049 A 
ATOM     17  N   UNL     1       6.031   4.961  -5.629  1.00  0.00    -0.248 NA
ATOM     18  C   UNL     1       5.517   4.843  -3.354  1.00  0.00     0.031 C 
ATOM     19  C   UNL     1       4.081   0.926  -6.111  1.00  0.00     0.029 A 
ATOM     20  N   UNL     1       5.249   2.505  -7.181  1.00  0.00    -0.354 N 
ATOM     21  C   UNL     1       6.532   6.082  -4.982  1.00  0.00     0.074 A 
ATOM     22  C   UNL     1       6.174   5.968  -3.585  1.00  0.00     0.031 C 
ATOM     23  C   UNL     1       4.277   0.497  -7.367  1.00  0.00     0.029 A 
ATOM     24  C   UNL     1       4.973   1.537  -8.117  1.00  0.00     0.049 A 
ATOM     25  H   UNL     1       5.788   3.305  -7.374  1.00  0.00     0.167 HD
ATOM     26  C   UNL     1       7.212   7.119  -5.523  1.00  0.00     0.037 A 
ATOM     27  C   UNL     1       5.212   1.526  -9.442  1.00  0.00     0.037 A 
ATOM     28  C   UNL     1       7.531   7.195  -6.922  1.00  0.00     0.049 A 
ATOM     29  C   UNL     1       5.912   2.715 -10.039  1.00  0.00     0.074 A 
ATOM     30  C   UNL     1       8.168   8.208  -7.612  1.00  0.00     0.029 A 
ATOM     31  N   UNL     1       7.222   6.206  -7.850  1.00  0.00    -0.354 N 
ATOM     32  N   UNL     1       6.343   3.799  -9.435  1.00  0.00    -0.248 NA
ATOM     33  C   UNL     1       6.149   2.696 -11.486  1.00  0.00     0.031 C 
ATOM     34  C   UNL     1       8.205   7.849  -8.964  1.00  0.00     0.029 A 
ATOM     35  C   UNL     1       7.636   6.591  -9.111  1.00  0.00     0.049 A 
ATOM     36  H   UNL     1       6.772   5.356  -7.639  1.00  0.00     0.167 HD
ATOM     37  C   UNL     1       6.911   4.590 -10.424  1.00  0.00     0.074 A 
ATOM     38  C   UNL     1       6.777   3.852 -11.667  1.00  0.00     0.031 C 
ATOM     39  C   UNL     1       7.489   5.813 -10.319  1.00  0.00     0.037 A 
BRANCH  26  40
ATOM     40  C   UNL     1       7.548   8.261  -4.606  1.00  0.00     0.058 A 
ATOM     41  C   UNL     1       8.517   8.148  -3.596  1.00  0.00     0.135 A 
ATOM     42  C   UNL     1       6.824   9.461  -4.686  1.00  0.00     0.135 A 
ATOM     43  F   UNL     1       9.219   7.013  -3.455  1.00  0.00    -0.206 F 
ATOM     44  C   UNL     1       8.716   9.163  -2.663  1.00  0.00     0.059 A 
ATOM     45  C   UNL     1       7.023  10.498  -3.780  1.00  0.00     0.059 A 
ATOM     46  F   UNL     1       5.880   9.619  -5.627  1.00  0.00    -0.206 F 
ATOM     47  C   UNL     1       7.951  10.327  -2.754  1.00  0.00     0.060 A 
BRANCH  47  48
ATOM     48  S   UNL     1       8.154  11.601  -1.490  1.00  0.00     0.124 S 
ATOM     49  O   UNL     1       7.448  11.002  -0.361  1.00  0.00    -0.237 OA
ATOM     50  O   UNL     1       9.604  11.684  -1.356  1.00  0.00    -0.237 OA
ATOM     51  O   UNL     1       7.513  12.771  -2.081  1.00  0.00    -0.744 OA
ENDBRANCH  47  48
ENDBRANCH  26  40
BRANCH  27  52
ATOM     52  C   UNL     1       4.730   0.384 -10.264  1.00  0.00     0.058 A 
ATOM     53  C   UNL     1       5.617  -0.546 -10.822  1.00  0.00     0.135 A 
ATOM     54  C   UNL     1       3.353   0.156 -10.440  1.00  0.00     0.135 A 
ATOM     55  F   UNL     1       6.941  -0.372 -10.691  1.00  0.00    -0.206 F 
ATOM     56  C   UNL     1       5.160  -1.667 -11.513  1.00  0.00     0.059 A 
ATOM     57  C   UNL     1       2.872  -0.967 -11.105  1.00  0.00     0.059 A 
ATOM     58  F   UNL     1       2.459   1.009  -9.915  1.00  0.00    -0.206 F 
ATOM     59  C   UNL     1       3.784  -1.874 -11.640  1.00  0.00     0.060 A 
BRANCH  59  60
ATOM     60  S   UNL     1       3.199  -3.376 -12.456  1.00  0.00     0.124 S 
ATOM     61  O   UNL     1       3.482  -3.080 -13.856  1.00  0.00    -0.237 OA
ATOM     62  O   UNL     1       4.032  -4.405 -11.841  1.00  0.00    -0.237 OA
ATOM     63  O   UNL     1       1.786  -3.427 -12.094  1.00  0.00    -0.744 OA
ENDBRANCH  59  60
ENDBRANCH  27  52
BRANCH  39  64
ATOM     64  C   UNL     1       8.043   6.419 -11.574  1.00  0.00     0.058 A 
ATOM     65  C   UNL     1       7.209   7.033 -12.518  1.00  0.00     0.135 A 
ATOM     66  C   UNL     1       9.432   6.493 -11.764  1.00  0.00     0.135 A 
ATOM     67  F   UNL     1       5.875   6.980 -12.380  1.00  0.00    -0.206 F 
ATOM     68  C   UNL     1       7.736   7.712 -13.611  1.00  0.00     0.059 A 
ATOM     69  C   UNL     1       9.980   7.184 -12.837  1.00  0.00     0.059 A 
ATOM     70  F   UNL     1      10.267   5.925 -10.879  1.00  0.00    -0.206 F 
ATOM     71  C   UNL     1       9.124   7.792 -13.754  1.00  0.00     0.060 A 
BRANCH  71  72
ATOM     72  S   UNL     1       9.797   8.759 -15.121  1.00  0.00     0.124 S 
ATOM     73  O   UNL     1       9.561   7.870 -16.253  1.00  0.00    -0.237 OA
ATOM     74  O   UNL     1       8.979   9.967 -15.081  1.00  0.00    -0.237 OA
ATOM     75  O   UNL     1      11.196   8.945 -14.748  1.00  0.00    -0.744 OA
ENDBRANCH  71  72
ENDBRANCH  39  64
ENDBRANCH  13  14
ENDBRANCH   6   8
ENDBRANCH   5   6
ENDBRANCH   4   5
ENDBRANCH   3   4
ENDBRANCH   2   3
ENDBRANCH   1   2
BRANCH   1  76
ATOM     76  C   UNL     1       2.893  -3.613  -1.100  1.00  0.00     0.261 C 
BRANCH  76  77
ATOM     77  O   UNL     1       3.373  -4.512  -0.085  1.00  0.00    -0.460 OA
BRANCH  77  78
ATOM     78  C   UNL     1       4.724  -4.606   0.010  1.00  0.00     0.338 C 
ATOM     79  O   UNL     1       5.556  -4.344  -0.840  1.00  0.00    -0.246 OA
BRANCH  78  80
ATOM     80  C   UNL     1       5.036  -4.812   1.437  1.00  0.00     0.063 A 
ATOM     81  C   UNL     1       4.250  -5.641   2.232  1.00  0.00     0.036 A 
ATOM     82  C   UNL     1       6.042  -4.028   2.004  1.00  0.00     0.046 A 
ATOM     83  C   UNL     1       4.479  -5.619   3.590  1.00  0.00     0.112 A 
ATOM     84  C   UNL     1       6.168  -4.034   3.383  1.00  0.00     0.090 A 
ATOM     85  N   UNL     1       5.389  -4.816   4.178  1.00  0.00    -0.255 NA
BRANCH  84  86
ATOM     86  C   UNL     1       7.066  -3.116   4.090  1.00  0.00     0.092 A 
ATOM     87  C   UNL     1       6.727  -1.791   4.300  1.00  0.00     0.051 A 
ATOM     88  N   UNL     1       8.174  -3.669   4.624  1.00  0.00    -0.228 NA
ATOM     89  C   UNL     1       7.580  -1.064   5.093  1.00  0.00     0.115 A 
ATOM     90  C   UNL     1       8.908  -2.898   5.446  1.00  0.00     0.166 A 
ATOM     91  N   UNL     1       8.667  -1.591   5.682  1.00  0.00    -0.238 NA
BRANCH  90  92
ATOM     92  C   UNL     1       9.949  -3.580   6.307  1.00  0.00     0.306 C 
BRANCH  92  93
ATOM     93  O   UNL     1       9.545  -4.856   6.844  1.00  0.00    -0.486 OA
BRANCH  93  94
ATOM     94  C   UNL     1       8.730  -4.811   7.943  1.00  0.00     0.119 A 
ATOM     95  C   UNL     1       9.079  -5.654   8.998  1.00  0.00     0.046 A 
ATOM     96  C   UNL     1       7.543  -4.082   8.019  1.00  0.00     0.046 A 
ATOM     97  C   UNL     1       8.273  -5.732  10.136  1.00  0.00     0.004 A 
ATOM     98  C   UNL     1       6.735  -4.158   9.155  1.00  0.00     0.004 A 
ATOM     99  C   UNL     1       7.102  -4.980  10.217  1.00  0.00     0.000 A 
ENDBRANCH  93  94
ENDBRANCH  92  93
ENDBRANCH  90  92
ENDBRANCH  84  86
ENDBRANCH  78  80
ENDBRANCH  77  78
ENDBRANCH  76  77
ENDBRANCH   1  76
TORSDOF 21
