REMARK SMILES COc1cc(/C=C/C(=O)OCCOCCOC(=O)c2ccc(-c3c4nc(c(-c5c(F)cc(S(=O)(=O)[O-])cc5F)c5ccc([nH]5)c(-c5c(F)cc(S(=O)(=O)[O-])cc5F)c5nc(c(-c6c(F)cc(S(=O)(=O)[O-])cc6F)c6ccc3[nH]6)C=C5)C=C4)cc2)cc(OC)c1O
REMARK SMILES IDX 14 1 13 2 12 3 11 4 10 5 8 6 9 7 7 8 6 9 5 10 3 11 4 12
REMARK SMILES IDX 89 13 86 14 85 15 2 16 1 17 90 18 87 20 88 21 15 22 16 23
REMARK SMILES IDX 17 24 18 25 19 26 20 27 84 28 21 29 83 30 22 31 23 32 24 33
REMARK SMILES IDX 77 34 25 35 82 36 76 37 78 38 26 39 81 40 75 41 74 42 27 44
REMARK SMILES IDX 61 45 40 46 60 47 41 48 44 49 59 50 79 51 42 52 43 53 58 55
REMARK SMILES IDX 80 56 45 57 28 58 29 59 38 60 30 61 31 62 37 63 39 64 32 65
REMARK SMILES IDX 33 66 34 67 35 68 36 69 62 70 63 71 72 72 64 73 65 74 71 75
REMARK SMILES IDX 73 76 66 77 67 78 68 79 69 80 70 81 46 82 47 83 56 84 48 85
REMARK SMILES IDX 49 86 55 87 57 88 50 89 51 90 52 91 53 92 54 93
REMARK H PARENT 90 19 78 43 44 54
REMARK Flexibility Score: inf
ROOT
ATOM      1  C   UNL     1      -0.186   0.139   8.640  1.00  0.00     0.202 C 
ENDROOT
BRANCH   1   2
ATOM      2  O   UNL     1      -1.260   0.339   9.562  1.00  0.00    -0.374 OA
BRANCH   2   3
ATOM      3  C   UNL     1      -2.062  -0.801   9.871  1.00  0.00     0.202 C 
BRANCH   3   4
ATOM      4  C   UNL     1      -3.158  -1.140   8.858  1.00  0.00     0.261 C 
BRANCH   4   5
ATOM      5  O   UNL     1      -2.608  -1.456   7.566  1.00  0.00    -0.460 OA
BRANCH   5   6
ATOM      6  C   UNL     1      -2.905  -0.574   6.583  1.00  0.00     0.330 C 
ATOM      7  O   UNL     1      -3.647   0.395   6.672  1.00  0.00    -0.247 OA
BRANCH   6   8
ATOM      8  C   UNL     1      -2.158  -0.834   5.335  1.00  0.00     0.094 C 
ATOM      9  C   UNL     1      -1.358  -1.879   5.069  1.00  0.00     0.016 C 
BRANCH   9  10
ATOM     10  C   UNL     1      -0.643  -2.014   3.785  1.00  0.00    -0.018 A 
ATOM     11  C   UNL     1       0.567  -1.063   1.896  1.00  0.00     0.165 A 
ATOM     12  C   UNL     1      -0.112  -0.907   3.108  1.00  0.00     0.058 A 
ATOM     13  C   UNL     1       0.776  -2.346   1.370  1.00  0.00     0.200 A 
ATOM     14  C   UNL     1       0.252  -3.466   2.025  1.00  0.00     0.165 A 
ATOM     15  C   UNL     1      -0.439  -3.287   3.236  1.00  0.00     0.058 A 
BRANCH  11  16
ATOM     16  O   UNL     1       1.081   0.087   1.351  1.00  0.00    -0.493 OA
ATOM     17  C   UNL     1       0.795   0.276  -0.036  1.00  0.00     0.278 C 
ENDBRANCH  11  16
BRANCH  13  18
ATOM     18  O   UNL     1       1.573  -2.488   0.266  1.00  0.00    -0.502 OA
ATOM     19  H   UNL     1       1.917  -1.730  -0.164  1.00  0.00     0.293 HD
ENDBRANCH  13  18
BRANCH  14  20
ATOM     20  O   UNL     1       0.371  -4.783   1.666  1.00  0.00    -0.493 OA
ATOM     21  C   UNL     1       0.805  -5.080   0.346  1.00  0.00     0.278 C 
ENDBRANCH  14  20
ENDBRANCH   9  10
ENDBRANCH   6   8
ENDBRANCH   5   6
ENDBRANCH   4   5
ENDBRANCH   3   4
ENDBRANCH   2   3
ENDBRANCH   1   2
BRANCH   1  22
ATOM     22  C   UNL     1       1.081  -0.512   9.211  1.00  0.00     0.261 C 
BRANCH  22  23
ATOM     23  O   UNL     1       0.859  -1.881   9.597  1.00  0.00    -0.460 OA
BRANCH  23  24
ATOM     24  C   UNL     1       0.891  -2.103  10.932  1.00  0.00     0.338 C 
ATOM     25  O   UNL     1       1.173  -1.292  11.806  1.00  0.00    -0.246 OA
BRANCH  24  26
ATOM     26  C   UNL     1       0.357  -3.443  11.245  1.00  0.00     0.060 A 
ATOM     27  C   UNL     1      -0.614  -3.526  12.251  1.00  0.00     0.016 A 
ATOM     28  C   UNL     1       0.843  -4.602  10.634  1.00  0.00     0.016 A 
ATOM     29  C   UNL     1      -1.052  -4.770  12.698  1.00  0.00     0.010 A 
ATOM     30  C   UNL     1       0.404  -5.852  11.088  1.00  0.00     0.010 A 
ATOM     31  C   UNL     1      -0.511  -5.942  12.152  1.00  0.00    -0.014 A 
BRANCH  31  32
ATOM     32  C   UNL     1      -0.791  -7.239  12.818  1.00  0.00     0.031 A 
ATOM     33  C   UNL     1       0.235  -7.811  13.761  1.00  0.00     0.074 A 
ATOM     34  C   UNL     1      -1.968  -7.865  12.641  1.00  0.00     0.049 A 
ATOM     35  N   UNL     1       0.183  -8.900  14.483  1.00  0.00    -0.248 NA
ATOM     36  C   UNL     1       1.488  -7.052  13.908  1.00  0.00     0.031 C 
ATOM     37  C   UNL     1      -3.052  -7.399  11.777  1.00  0.00     0.029 A 
ATOM     38  N   UNL     1      -2.450  -9.028  13.187  1.00  0.00    -0.354 N 
ATOM     39  C   UNL     1       1.391  -8.959  15.170  1.00  0.00     0.074 A 
ATOM     40  C   UNL     1       2.171  -7.815  14.749  1.00  0.00     0.031 C 
ATOM     41  C   UNL     1      -4.074  -8.269  11.850  1.00  0.00     0.029 A 
ATOM     42  C   UNL     1      -3.710  -9.362  12.751  1.00  0.00     0.049 A 
ATOM     43  H   UNL     1      -1.942  -9.572  13.831  1.00  0.00     0.167 HD
ATOM     44  C   UNL     1       1.807  -9.873  16.079  1.00  0.00     0.037 A 
ATOM     45  C   UNL     1      -4.478 -10.431  13.041  1.00  0.00     0.037 A 
ATOM     46  C   UNL     1       1.029 -11.009  16.498  1.00  0.00     0.049 A 
ATOM     47  C   UNL     1      -3.977 -11.457  14.024  1.00  0.00     0.074 A 
ATOM     48  C   UNL     1       1.355 -11.982  17.427  1.00  0.00     0.029 A 
ATOM     49  N   UNL     1      -0.231 -11.328  16.013  1.00  0.00    -0.354 N 
ATOM     50  N   UNL     1      -2.844 -11.483  14.686  1.00  0.00    -0.248 NA
ATOM     51  C   UNL     1      -4.864 -12.594  14.306  1.00  0.00     0.031 C 
ATOM     52  C   UNL     1       0.311 -12.913  17.471  1.00  0.00     0.029 A 
ATOM     53  C   UNL     1      -0.687 -12.494  16.607  1.00  0.00     0.049 A 
ATOM     54  H   UNL     1      -0.729 -10.803  15.345  1.00  0.00     0.167 HD
ATOM     55  C   UNL     1      -2.893 -12.624  15.481  1.00  0.00     0.074 A 
ATOM     56  C   UNL     1      -4.175 -13.252  15.228  1.00  0.00     0.031 C 
ATOM     57  C   UNL     1      -1.964 -13.109  16.343  1.00  0.00     0.037 A 
BRANCH  44  58
ATOM     58  C   UNL     1       3.179  -9.688  16.667  1.00  0.00     0.058 A 
ATOM     59  C   UNL     1       3.457  -8.665  17.588  1.00  0.00     0.135 A 
ATOM     60  C   UNL     1       4.225 -10.560  16.322  1.00  0.00     0.135 A 
ATOM     61  F   UNL     1       2.499  -7.793  17.939  1.00  0.00    -0.206 F 
ATOM     62  C   UNL     1       4.730  -8.496  18.125  1.00  0.00     0.059 A 
ATOM     63  C   UNL     1       5.499 -10.425  16.866  1.00  0.00     0.059 A 
ATOM     64  F   UNL     1       4.015 -11.553  15.444  1.00  0.00    -0.206 F 
ATOM     65  C   UNL     1       5.745  -9.380  17.756  1.00  0.00     0.060 A 
BRANCH  65  66
ATOM     66  S   UNL     1       7.392  -9.147  18.459  1.00  0.00     0.124 S 
ATOM     67  O   UNL     1       7.857  -7.973  17.728  1.00  0.00    -0.237 OA
ATOM     68  O   UNL     1       7.101  -8.938  19.874  1.00  0.00    -0.237 OA
ATOM     69  O   UNL     1       8.077 -10.396  18.141  1.00  0.00    -0.744 OA
ENDBRANCH  65  66
ENDBRANCH  44  58
BRANCH  45  70
ATOM     70  C   UNL     1      -5.809 -10.586  12.395  1.00  0.00     0.058 A 
ATOM     71  C   UNL     1      -6.995 -10.447  13.129  1.00  0.00     0.135 A 
ATOM     72  C   UNL     1      -5.917 -10.882  11.027  1.00  0.00     0.135 A 
ATOM     73  F   UNL     1      -6.943 -10.176  14.442  1.00  0.00    -0.206 F 
ATOM     74  C   UNL     1      -8.243 -10.609  12.536  1.00  0.00     0.059 A 
ATOM     75  C   UNL     1      -7.154 -11.024  10.405  1.00  0.00     0.059 A 
ATOM     76  F   UNL     1      -4.812 -11.015  10.278  1.00  0.00    -0.206 F 
ATOM     77  C   UNL     1      -8.312 -10.896  11.171  1.00  0.00     0.060 A 
BRANCH  77  78
ATOM     78  S   UNL     1      -9.936 -11.056  10.398  1.00  0.00     0.124 S 
ATOM     79  O   UNL     1     -10.367 -12.361  10.886  1.00  0.00    -0.237 OA
ATOM     80  O   UNL     1     -10.649  -9.903  10.940  1.00  0.00    -0.237 OA
ATOM     81  O   UNL     1      -9.636 -10.983   8.971  1.00  0.00    -0.744 OA
ENDBRANCH  77  78
ENDBRANCH  45  70
BRANCH  57  82
ATOM     82  C   UNL     1      -2.313 -14.364  17.096  1.00  0.00     0.058 A 
ATOM     83  C   UNL     1      -2.364 -15.616  16.462  1.00  0.00     0.135 A 
ATOM     84  C   UNL     1      -2.582 -14.317  18.474  1.00  0.00     0.135 A 
ATOM     85  F   UNL     1      -2.119 -15.717  15.146  1.00  0.00    -0.206 F 
ATOM     86  C   UNL     1      -2.709 -16.770  17.159  1.00  0.00     0.059 A 
ATOM     87  C   UNL     1      -2.901 -15.462  19.196  1.00  0.00     0.059 A 
ATOM     88  F   UNL     1      -2.532 -13.148  19.133  1.00  0.00    -0.206 F 
ATOM     89  C   UNL     1      -2.982 -16.682  18.525  1.00  0.00     0.060 A 
BRANCH  89  90
ATOM     90  S   UNL     1      -3.431 -18.184  19.420  1.00  0.00     0.124 S 
ATOM     91  O   UNL     1      -4.814 -18.375  18.997  1.00  0.00    -0.237 OA
ATOM     92  O   UNL     1      -2.471 -19.156  18.906  1.00  0.00    -0.237 OA
ATOM     93  O   UNL     1      -3.247 -17.812  20.820  1.00  0.00    -0.744 OA
ENDBRANCH  89  90
ENDBRANCH  57  82
ENDBRANCH  31  32
ENDBRANCH  24  26
ENDBRANCH  23  24
ENDBRANCH  22  23
ENDBRANCH   1  22
TORSDOF 21
