REMARK SMILES CC(C)(C)Nc1ncnc(N2CCC(C(=O)OCCOCCOC(=O)c3ccc(-c4c5nc(c(-c6c(F)cc(S(=O)(=O)[O-])cc6F)c6ccc([nH]6)c(-c6c(F)cc(S(=O)(=O)[O-])cc6F)c6nc(c(-c7c(F)cc(S(=O)(=O)[O-])cc7F)c7ccc4[nH]7)C=C6)C=C5)cc3)CC2)c1N
REMARK SMILES IDX 20 1 19 2 18 3 17 4 15 5 16 6 14 7 11 8 12 9 93 10 13 11
REMARK SMILES IDX 92 12 10 13 6 14 7 15 94 16 8 17 9 18 5 19 2 21 1 22 3 23
REMARK SMILES IDX 4 24 95 25 21 28 22 29 23 30 24 31 25 32 26 33 27 34 91 35
REMARK SMILES IDX 28 36 90 37 29 38 30 39 31 40 84 41 32 42 89 43 83 44 85 45
REMARK SMILES IDX 33 46 88 47 82 48 81 49 34 51 68 52 47 53 67 54 48 55 51 56
REMARK SMILES IDX 66 57 86 58 49 59 50 60 65 62 87 63 52 64 35 65 36 66 45 67
REMARK SMILES IDX 37 68 38 69 44 70 46 71 39 72 40 73 41 74 42 75 43 76 69 77
REMARK SMILES IDX 70 78 79 79 71 80 72 81 78 82 80 83 73 84 74 85 75 86 76 87
REMARK SMILES IDX 77 88 53 89 54 90 63 91 55 92 56 93 62 94 64 95 57 96 58 97
REMARK SMILES IDX 59 98 60 99 61 100
REMARK H PARENT 5 20 95 26 95 27 85 50 51 61
REMARK Flexibility Score: inf
ROOT
ATOM      1  O   UNL     1      10.033   3.136   6.206  1.00  0.00    -0.374 OA
ENDROOT
BRANCH   1   2
ATOM      2  C   UNL     1      10.070   4.347   5.450  1.00  0.00     0.202 C 
BRANCH   2   3
ATOM      3  C   UNL     1      10.021   4.214   3.927  1.00  0.00     0.261 C 
BRANCH   3   4
ATOM      4  O   UNL     1       8.771   3.664   3.484  1.00  0.00    -0.463 OA
BRANCH   4   5
ATOM      5  C   UNL     1       8.831   2.409   2.977  1.00  0.00     0.309 C 
ATOM      6  O   UNL     1       9.854   1.753   2.818  1.00  0.00    -0.252 OA
BRANCH   5   7
ATOM      7  C   UNL     1       7.475   1.876   2.585  1.00  0.00     0.103 C 
ATOM      8  N   UNL     1       4.875   1.810   1.474  1.00  0.00    -0.355 N 
ATOM      9  C   UNL     1       4.995   1.733   2.920  1.00  0.00     0.119 C 
ATOM     10  C   UNL     1       6.002   1.464   0.621  1.00  0.00     0.119 C 
ATOM     11  C   UNL     1       6.282   2.398   3.394  1.00  0.00     0.037 C 
ATOM     12  C   UNL     1       7.262   2.159   1.104  1.00  0.00     0.037 C 
BRANCH   8  13
ATOM     13  C   UNL     1       3.717   2.343   0.927  1.00  0.00     0.157 A 
ATOM     14  C   UNL     1       1.909   2.352  -0.617  1.00  0.00     0.155 A 
ATOM     15  N   UNL     1       1.449   3.503  -0.107  1.00  0.00    -0.217 NA
ATOM     16  C   UNL     1       3.088   1.742  -0.174  1.00  0.00     0.118 A 
ATOM     17  C   UNL     1       2.141   3.999   0.927  1.00  0.00     0.226 A 
ATOM     18  N   UNL     1       3.219   3.452   1.504  1.00  0.00    -0.217 NA
BRANCH  14  19
ATOM     19  N   UNL     1       1.102   1.788  -1.602  1.00  0.00    -0.364 N 
ATOM     20  H   UNL     1       1.025   2.254  -2.466  1.00  0.00     0.162 HD
BRANCH  19  21
ATOM     21  C   UNL     1       0.354   0.526  -1.416  1.00  0.00     0.030 C 
ATOM     22  C   UNL     1       0.583  -0.193  -0.076  1.00  0.00     0.034 C 
ATOM     23  C   UNL     1       0.704  -0.413  -2.582  1.00  0.00     0.034 C 
ATOM     24  C   UNL     1      -1.150   0.858  -1.506  1.00  0.00     0.034 C 
ENDBRANCH  19  21
ENDBRANCH  14  19
BRANCH  16  25
ATOM     25  N   UNL     1       3.616   0.623  -0.831  1.00  0.00    -0.393 N 
ATOM     26  H   UNL     1       3.140   0.234  -1.599  1.00  0.00     0.156 HD
ATOM     27  H   UNL     1       4.463   0.226  -0.523  1.00  0.00     0.156 HD
ENDBRANCH  16  25
ENDBRANCH   8  13
ENDBRANCH   5   7
ENDBRANCH   4   5
ENDBRANCH   3   4
ENDBRANCH   2   3
ENDBRANCH   1   2
BRANCH   1  28
ATOM     28  C   UNL     1       8.772   2.486   6.353  1.00  0.00     0.202 C 
BRANCH  28  29
ATOM     29  C   UNL     1       7.755   3.128   7.306  1.00  0.00     0.261 C 
BRANCH  29  30
ATOM     30  O   UNL     1       7.278   4.401   6.833  1.00  0.00    -0.460 OA
BRANCH  30  31
ATOM     31  C   UNL     1       7.649   5.460   7.591  1.00  0.00     0.338 C 
ATOM     32  O   UNL     1       8.273   5.427   8.646  1.00  0.00    -0.246 OA
BRANCH  31  33
ATOM     33  C   UNL     1       7.366   6.723   6.889  1.00  0.00     0.060 A 
ATOM     34  C   UNL     1       8.441   7.594   6.671  1.00  0.00     0.016 A 
ATOM     35  C   UNL     1       6.067   7.098   6.541  1.00  0.00     0.016 A 
ATOM     36  C   UNL     1       8.216   8.865   6.149  1.00  0.00     0.010 A 
ATOM     37  C   UNL     1       5.840   8.381   6.029  1.00  0.00     0.010 A 
ATOM     38  C   UNL     1       6.909   9.282   5.866  1.00  0.00    -0.014 A 
BRANCH  38  39
ATOM     39  C   UNL     1       6.658  10.710   5.553  1.00  0.00     0.031 A 
ATOM     40  C   UNL     1       6.209  11.629   6.657  1.00  0.00     0.074 A 
ATOM     41  C   UNL     1       6.886  11.194   4.319  1.00  0.00     0.049 A 
ATOM     42  N   UNL     1       5.926  12.905   6.610  1.00  0.00    -0.248 NA
ATOM     43  C   UNL     1       6.067  11.031   7.996  1.00  0.00     0.031 C 
ATOM     44  C   UNL     1       7.376  10.413   3.184  1.00  0.00     0.029 A 
ATOM     45  N   UNL     1       6.739  12.463   3.816  1.00  0.00    -0.354 N 
ATOM     46  C   UNL     1       5.579  13.264   7.907  1.00  0.00     0.074 A 
ATOM     47  C   UNL     1       5.654  12.065   8.714  1.00  0.00     0.031 C 
ATOM     48  C   UNL     1       7.490  11.221   2.116  1.00  0.00     0.029 A 
ATOM     49  C   UNL     1       7.052  12.567   2.482  1.00  0.00     0.049 A 
ATOM     50  H   UNL     1       6.438  13.226   4.360  1.00  0.00     0.167 HD
ATOM     51  C   UNL     1       5.240  14.485   8.384  1.00  0.00     0.037 A 
ATOM     52  C   UNL     1       6.978  13.625   1.649  1.00  0.00     0.037 A 
ATOM     53  C   UNL     1       5.164  15.674   7.577  1.00  0.00     0.049 A 
ATOM     54  C   UNL     1       6.515  14.955   2.185  1.00  0.00     0.074 A 
ATOM     55  C   UNL     1       4.819  16.957   7.966  1.00  0.00     0.029 A 
ATOM     56  N   UNL     1       5.436  15.728   6.218  1.00  0.00    -0.354 N 
ATOM     57  N   UNL     1       6.180  15.278   3.412  1.00  0.00    -0.248 NA
ATOM     58  C   UNL     1       6.418  16.064   1.225  1.00  0.00     0.031 C 
ATOM     59  C   UNL     1       4.842  17.778   6.834  1.00  0.00     0.029 A 
ATOM     60  C   UNL     1       5.249  17.017   5.749  1.00  0.00     0.049 A 
ATOM     61  H   UNL     1       5.720  14.962   5.668  1.00  0.00     0.167 HD
ATOM     62  C   UNL     1       5.859  16.632   3.376  1.00  0.00     0.074 A 
ATOM     63  C   UNL     1       6.048  17.069   2.008  1.00  0.00     0.031 C 
ATOM     64  C   UNL     1       5.448  17.439   4.385  1.00  0.00     0.037 A 
BRANCH  51  65
ATOM     65  C   UNL     1       4.914  14.600   9.847  1.00  0.00     0.058 A 
ATOM     66  C   UNL     1       5.915  14.546  10.829  1.00  0.00     0.135 A 
ATOM     67  C   UNL     1       3.594  14.827  10.268  1.00  0.00     0.135 A 
ATOM     68  F   UNL     1       7.191  14.310  10.482  1.00  0.00    -0.206 F 
ATOM     69  C   UNL     1       5.618  14.703  12.179  1.00  0.00     0.059 A 
ATOM     70  C   UNL     1       3.277  15.011  11.611  1.00  0.00     0.059 A 
ATOM     71  F   UNL     1       2.598  14.883   9.370  1.00  0.00    -0.206 F 
ATOM     72  C   UNL     1       4.296  14.941  12.560  1.00  0.00     0.060 A 
BRANCH  72  73
ATOM     73  S   UNL     1       3.933  15.172  14.313  1.00  0.00     0.124 S 
ATOM     74  O   UNL     1       4.140  13.824  14.834  1.00  0.00    -0.237 OA
ATOM     75  O   UNL     1       4.928  16.163  14.708  1.00  0.00    -0.237 OA
ATOM     76  O   UNL     1       2.550  15.638  14.317  1.00  0.00    -0.744 OA
ENDBRANCH  72  73
ENDBRANCH  51  65
BRANCH  52  77
ATOM     77  C   UNL     1       7.351  13.470   0.218  1.00  0.00     0.058 A 
ATOM     78  C   UNL     1       8.508  14.071  -0.298  1.00  0.00     0.135 A 
ATOM     79  C   UNL     1       6.561  12.712  -0.661  1.00  0.00     0.135 A 
ATOM     80  F   UNL     1       9.289  14.817   0.499  1.00  0.00    -0.206 F 
ATOM     81  C   UNL     1       8.867  13.934  -1.635  1.00  0.00     0.059 A 
ATOM     82  C   UNL     1       6.911  12.539  -1.996  1.00  0.00     0.059 A 
ATOM     83  F   UNL     1       5.447  12.111  -0.215  1.00  0.00    -0.206 F 
ATOM     84  C   UNL     1       8.063  13.161  -2.476  1.00  0.00     0.060 A 
BRANCH  84  85
ATOM     85  S   UNL     1       8.569  12.945  -4.197  1.00  0.00     0.124 S 
ATOM     86  O   UNL     1       8.315  14.272  -4.746  1.00  0.00    -0.237 OA
ATOM     87  O   UNL     1       9.972  12.569  -4.057  1.00  0.00    -0.237 OA
ATOM     88  O   UNL     1       7.688  11.884  -4.676  1.00  0.00    -0.744 OA
ENDBRANCH  84  85
ENDBRANCH  52  77
BRANCH  64  89
ATOM     89  C   UNL     1       5.201  18.888   4.065  1.00  0.00     0.058 A 
ATOM     90  C   UNL     1       4.067  19.301   3.349  1.00  0.00     0.135 A 
ATOM     91  C   UNL     1       6.071  19.880   4.545  1.00  0.00     0.135 A 
ATOM     92  F   UNL     1       3.206  18.392   2.864  1.00  0.00    -0.206 F 
ATOM     93  C   UNL     1       3.812  20.647   3.107  1.00  0.00     0.059 A 
ATOM     94  C   UNL     1       5.822  21.233   4.337  1.00  0.00     0.059 A 
ATOM     95  F   UNL     1       7.165  19.539   5.245  1.00  0.00    -0.206 F 
ATOM     96  C   UNL     1       4.694  21.607   3.610  1.00  0.00     0.060 A 
BRANCH  96  97
ATOM     97  S   UNL     1       4.325  23.351   3.324  1.00  0.00     0.124 S 
ATOM     98  O   UNL     1       4.613  23.483   1.900  1.00  0.00    -0.237 OA
ATOM     99  O   UNL     1       2.917  23.438   3.697  1.00  0.00    -0.237 OA
ATOM    100  O   UNL     1       5.248  24.045   4.218  1.00  0.00    -0.744 OA
ENDBRANCH  96  97
ENDBRANCH  64  89
ENDBRANCH  38  39
ENDBRANCH  31  33
ENDBRANCH  30  31
ENDBRANCH  29  30
ENDBRANCH  28  29
ENDBRANCH   1  28
TORSDOF 21
