REMARK SMILES CC[C@@](C)(NC(=O)c1cccc2ccccc12)C(=O)OCCOCCOC(=O)c1ccc(-c2c3nc(c(-c4c(F)cc(S(=O)(=O)[O-])cc4F)c4ccc([nH]4)c(-c4c(F)cc(S(=O)(=O)[O-])cc4F)c4nc(c(-c5c(F)cc(S(=O)(=O)[O-])cc5F)c5ccc2[nH]5)C=C4)C=C3)cc1
REMARK SMILES IDX 24 1 23 2 22 3 21 4 20 5 18 6 19 7 3 8 4 9 2 10 1 11 5 12
REMARK SMILES IDX 6 13 7 15 8 16 9 17 17 18 10 19 12 20 16 21 11 22 13 23
REMARK SMILES IDX 15 24 14 25 25 26 26 27 27 28 28 29 29 30 30 31 94 32 31 33
REMARK SMILES IDX 93 34 32 35 33 36 34 37 87 38 35 39 92 40 86 41 88 42 36 43
REMARK SMILES IDX 91 44 85 45 84 46 37 48 71 49 50 50 70 51 51 52 54 53 69 54
REMARK SMILES IDX 89 55 52 56 53 57 68 59 90 60 55 61 38 62 39 63 48 64 40 65
REMARK SMILES IDX 41 66 47 67 49 68 42 69 43 70 44 71 45 72 46 73 72 74 73 75
REMARK SMILES IDX 82 76 74 77 75 78 81 79 83 80 76 81 77 82 78 83 79 84 80 85
REMARK SMILES IDX 56 86 57 87 66 88 58 89 59 90 65 91 67 92 60 93 61 94 62 95
REMARK SMILES IDX 63 96 64 97
REMARK H PARENT 5 14 88 47 54 58
REMARK Flexibility Score: inf
ROOT
ATOM      1  C   UNL     1       2.480  -1.450   3.412  1.00  0.00     0.202 C 
ENDROOT
BRANCH   1   2
ATOM      2  O   UNL     1       3.785  -1.079   2.971  1.00  0.00    -0.374 OA
BRANCH   2   3
ATOM      3  C   UNL     1       4.196  -1.137   1.595  1.00  0.00     0.202 C 
BRANCH   3   4
ATOM      4  C   UNL     1       4.547   0.236   0.950  1.00  0.00     0.261 C 
BRANCH   4   5
ATOM      5  O   UNL     1       3.615   1.243   1.312  1.00  0.00    -0.462 OA
BRANCH   5   6
ATOM      6  C   UNL     1       2.422   1.214   0.688  1.00  0.00     0.331 C 
ATOM      7  O   UNL     1       2.301   1.091  -0.514  1.00  0.00    -0.249 OA
BRANCH   6   8
ATOM      8  C   UNL     1       1.293   1.407   1.726  1.00  0.00     0.135 C 
ATOM      9  C   UNL     1       0.651   2.791   1.533  1.00  0.00     0.047 C 
BRANCH   8  10
ATOM     10  C   UNL     1       0.115   0.354   1.455  1.00  0.00     0.037 C 
ATOM     11  C   UNL     1      -0.125  -0.112   0.013  1.00  0.00     0.007 C 
ENDBRANCH   8  10
BRANCH   8  12
ATOM     12  N   UNL     1       1.834   1.249   3.172  1.00  0.00    -0.336 N 
ATOM     13  C   UNL     1       2.912   1.875   3.859  1.00  0.00     0.252 C 
ATOM     14  H   UNL     1       1.339   0.594   3.716  1.00  0.00     0.165 HD
ATOM     15  O   UNL     1       2.583   2.884   4.497  1.00  0.00    -0.269 OA
BRANCH  13  16
ATOM     16  C   UNL     1       4.456   1.415   3.954  1.00  0.00     0.047 A 
ATOM     17  C   UNL     1       5.207   2.517   3.523  1.00  0.00     0.014 A 
ATOM     18  C   UNL     1       5.252   0.191   4.533  1.00  0.00    -0.006 A 
ATOM     19  C   UNL     1       6.593   2.481   3.490  1.00  0.00     0.001 A 
ATOM     20  C   UNL     1       6.666   0.220   4.404  1.00  0.00    -0.018 A 
ATOM     21  C   UNL     1       4.925  -1.047   5.286  1.00  0.00     0.009 A 
ATOM     22  C   UNL     1       7.293   1.345   3.882  1.00  0.00     0.009 A 
ATOM     23  C   UNL     1       7.533  -0.826   4.857  1.00  0.00     0.009 A 
ATOM     24  C   UNL     1       5.763  -2.074   5.758  1.00  0.00     0.001 A 
ATOM     25  C   UNL     1       7.097  -1.965   5.522  1.00  0.00     0.001 A 
ENDBRANCH  13  16
ENDBRANCH   8  12
ENDBRANCH   6   8
ENDBRANCH   5   6
ENDBRANCH   4   5
ENDBRANCH   3   4
ENDBRANCH   2   3
ENDBRANCH   1   2
BRANCH   1  26
ATOM     26  C   UNL     1       1.899  -0.981   4.922  1.00  0.00     0.261 C 
BRANCH  26  27
ATOM     27  O   UNL     1       2.463   0.241   5.632  1.00  0.00    -0.460 OA
BRANCH  27  28
ATOM     28  C   UNL     1       2.717   0.375   6.990  1.00  0.00     0.338 C 
ATOM     29  O   UNL     1       2.351  -0.455   7.811  1.00  0.00    -0.246 OA
BRANCH  28  30
ATOM     30  C   UNL     1       3.577   1.605   7.415  1.00  0.00     0.060 A 
ATOM     31  C   UNL     1       4.954   1.691   7.154  1.00  0.00     0.016 A 
ATOM     32  C   UNL     1       3.113   2.596   8.289  1.00  0.00     0.016 A 
ATOM     33  C   UNL     1       5.793   2.770   7.532  1.00  0.00     0.010 A 
ATOM     34  C   UNL     1       3.974   3.645   8.775  1.00  0.00     0.010 A 
ATOM     35  C   UNL     1       5.326   3.760   8.386  1.00  0.00    -0.014 A 
BRANCH  35  36
ATOM     36  C   UNL     1       6.316   4.681   9.066  1.00  0.00     0.031 A 
ATOM     37  C   UNL     1       6.937   4.216  10.370  1.00  0.00     0.074 A 
ATOM     38  C   UNL     1       6.770   5.845   8.545  1.00  0.00     0.049 A 
ATOM     39  N   UNL     1       7.674   4.866  11.237  1.00  0.00    -0.248 NA
ATOM     40  C   UNL     1       6.702   2.809  10.727  1.00  0.00     0.031 C 
ATOM     41  C   UNL     1       6.445   6.370   7.221  1.00  0.00     0.029 A 
ATOM     42  N   UNL     1       7.614   6.807   9.076  1.00  0.00    -0.354 N 
ATOM     43  C   UNL     1       7.940   3.965  12.266  1.00  0.00     0.074 A 
ATOM     44  C   UNL     1       7.314   2.714  11.897  1.00  0.00     0.031 C 
ATOM     45  C   UNL     1       7.051   7.564   7.056  1.00  0.00     0.029 A 
ATOM     46  C   UNL     1       7.767   7.926   8.281  1.00  0.00     0.049 A 
ATOM     47  H   UNL     1       8.066   6.701   9.944  1.00  0.00     0.167 HD
ATOM     48  C   UNL     1       8.617   4.161  13.426  1.00  0.00     0.037 A 
ATOM     49  C   UNL     1       8.368   9.116   8.524  1.00  0.00     0.037 A 
ATOM     50  C   UNL     1       9.256   5.399  13.794  1.00  0.00     0.049 A 
ATOM     51  C   UNL     1       9.029   9.361   9.867  1.00  0.00     0.074 A 
ATOM     52  C   UNL     1       9.916   5.715  14.970  1.00  0.00     0.029 A 
ATOM     53  N   UNL     1       9.322   6.526  12.988  1.00  0.00    -0.354 N 
ATOM     54  N   UNL     1       9.172   8.541  10.881  1.00  0.00    -0.248 NA
ATOM     55  C   UNL     1       9.599  10.699  10.104  1.00  0.00     0.031 C 
ATOM     56  C   UNL     1      10.338   7.047  14.894  1.00  0.00     0.029 A 
ATOM     57  C   UNL     1       9.999   7.541  13.645  1.00  0.00     0.049 A 
ATOM     58  H   UNL     1       8.942   6.595  12.082  1.00  0.00     0.167 HD
ATOM     59  C   UNL     1       9.877   9.248  11.854  1.00  0.00     0.074 A 
ATOM     60  C   UNL     1      10.136  10.562  11.309  1.00  0.00     0.031 C 
ATOM     61  C   UNL     1      10.276   8.842  13.087  1.00  0.00     0.037 A 
BRANCH  48  62
ATOM     62  C   UNL     1       8.617   3.033  14.427  1.00  0.00     0.058 A 
ATOM     63  C   UNL     1       9.352   1.852  14.238  1.00  0.00     0.135 A 
ATOM     64  C   UNL     1       7.856   3.144  15.603  1.00  0.00     0.135 A 
ATOM     65  F   UNL     1      10.082   1.681  13.124  1.00  0.00    -0.206 F 
ATOM     66  C   UNL     1       9.300   0.807  15.158  1.00  0.00     0.059 A 
ATOM     67  C   UNL     1       7.814   2.126  16.551  1.00  0.00     0.059 A 
ATOM     68  F   UNL     1       7.134   4.251  15.839  1.00  0.00    -0.206 F 
ATOM     69  C   UNL     1       8.524   0.952  16.310  1.00  0.00     0.060 A 
BRANCH  69  70
ATOM     70  S   UNL     1       8.451  -0.416  17.487  1.00  0.00     0.124 S 
ATOM     71  O   UNL     1       7.630  -1.381  16.763  1.00  0.00    -0.237 OA
ATOM     72  O   UNL     1       9.858  -0.772  17.640  1.00  0.00    -0.237 OA
ATOM     73  O   UNL     1       7.827   0.179  18.665  1.00  0.00    -0.744 OA
ENDBRANCH  69  70
ENDBRANCH  48  62
BRANCH  49  74
ATOM     74  C   UNL     1       8.335  10.218   7.507  1.00  0.00     0.058 A 
ATOM     75  C   UNL     1       9.509  10.706   6.906  1.00  0.00     0.135 A 
ATOM     76  C   UNL     1       7.129  10.845   7.152  1.00  0.00     0.135 A 
ATOM     77  F   UNL     1      10.699  10.178   7.232  1.00  0.00    -0.206 F 
ATOM     78  C   UNL     1       9.488  11.766   5.998  1.00  0.00     0.059 A 
ATOM     79  C   UNL     1       7.079  11.884   6.224  1.00  0.00     0.059 A 
ATOM     80  F   UNL     1       5.975  10.441   7.705  1.00  0.00    -0.206 F 
ATOM     81  C   UNL     1       8.265  12.343   5.656  1.00  0.00     0.060 A 
BRANCH  81  82
ATOM     82  S   UNL     1       8.239  13.669   4.426  1.00  0.00     0.124 S 
ATOM     83  O   UNL     1       8.821  14.779   5.171  1.00  0.00    -0.237 OA
ATOM     84  O   UNL     1       9.066  13.114   3.359  1.00  0.00    -0.237 OA
ATOM     85  O   UNL     1       6.821  13.801   4.103  1.00  0.00    -0.744 OA
ENDBRANCH  81  82
ENDBRANCH  49  74
BRANCH  61  86
ATOM     86  C   UNL     1      11.106   9.795  13.908  1.00  0.00     0.058 A 
ATOM     87  C   UNL     1      10.565  10.948  14.499  1.00  0.00     0.135 A 
ATOM     88  C   UNL     1      12.466   9.523  14.140  1.00  0.00     0.135 A 
ATOM     89  F   UNL     1       9.271  11.258  14.314  1.00  0.00    -0.206 F 
ATOM     90  C   UNL     1      11.348  11.816  15.257  1.00  0.00     0.059 A 
ATOM     91  C   UNL     1      13.260  10.360  14.918  1.00  0.00     0.059 A 
ATOM     92  F   UNL     1      13.034   8.426  13.615  1.00  0.00    -0.206 F 
ATOM     93  C   UNL     1      12.697  11.515  15.457  1.00  0.00     0.060 A 
BRANCH  93  94
ATOM     94  S   UNL     1      13.704  12.644  16.443  1.00  0.00     0.124 S 
ATOM     95  O   UNL     1      13.890  13.757  15.518  1.00  0.00    -0.237 OA
ATOM     96  O   UNL     1      12.844  12.912  17.592  1.00  0.00    -0.237 OA
ATOM     97  O   UNL     1      14.903  11.864  16.735  1.00  0.00    -0.744 OA
ENDBRANCH  93  94
ENDBRANCH  61  86
ENDBRANCH  35  36
ENDBRANCH  28  30
ENDBRANCH  27  28
ENDBRANCH  26  27
ENDBRANCH   1  26
TORSDOF 20
