REMARK SMILES O=C(CCC(=O)OCCOCCOC(=O)c1ccc(-c2c3nc(c(-c4c(F)cc(S(=O)(=O)[O-])cc4F)c4ccc([nH]4)c(-c4c(F)cc(S(=O)(=O)[O-])cc4F)c4nc(c(-c5c(F)cc(S(=O)(=O)[O-])cc5F)c5ccc2[nH]5)C=C4)C=C3)cc1)Nc1ccc2nc(-c3ccccc3)oc2c1
REMARK SMILES IDX 9 1 8 2 7 3 5 4 6 5 4 6 3 7 2 8 1 9 82 10 83 12 84 13 97 14
REMARK SMILES IDX 85 15 96 16 86 17 95 18 87 19 88 20 89 21 90 22 94 23 91 24
REMARK SMILES IDX 93 25 92 26 10 27 11 28 12 29 13 30 14 31 15 32 16 33 17 34
REMARK SMILES IDX 81 35 18 36 80 37 19 38 20 39 21 40 74 41 22 42 79 43 73 44
REMARK SMILES IDX 75 45 23 46 78 47 72 48 71 49 24 51 58 52 37 53 57 54 38 55
REMARK SMILES IDX 41 56 56 57 76 58 39 59 40 60 55 62 77 63 42 64 25 65 26 66
REMARK SMILES IDX 35 67 27 68 28 69 34 70 36 71 29 72 30 73 31 74 32 75 33 76
REMARK SMILES IDX 59 77 60 78 69 79 61 80 62 81 68 82 70 83 63 84 64 85 65 86
REMARK SMILES IDX 66 87 67 88 43 89 44 90 53 91 45 92 46 93 52 94 54 95 47 96
REMARK SMILES IDX 48 97 49 98 50 99 51 100
REMARK H PARENT 82 11 75 50 41 61
REMARK Flexibility Score: inf
ROOT
ATOM      1  C   UNL     1       6.529   1.028   1.715  1.00  0.00     0.202 C 
ENDROOT
BRANCH   1   2
ATOM      2  C   UNL     1       5.847   2.186   0.980  1.00  0.00     0.261 C 
BRANCH   2   3
ATOM      3  O   UNL     1       4.637   1.738   0.322  1.00  0.00    -0.463 OA
BRANCH   3   4
ATOM      4  C   UNL     1       4.561   1.924  -1.025  1.00  0.00     0.306 C 
ATOM      5  O   UNL     1       5.433   2.439  -1.711  1.00  0.00    -0.252 OA
BRANCH   4   6
ATOM      6  C   UNL     1       3.229   1.456  -1.583  1.00  0.00     0.132 C 
BRANCH   6   7
ATOM      7  C   UNL     1       2.839   0.009  -1.262  1.00  0.00     0.112 C 
BRANCH   7   8
ATOM      8  C   UNL     1       1.857  -0.106  -0.100  1.00  0.00     0.224 C 
ATOM      9  O   UNL     1       0.706  -0.488  -0.264  1.00  0.00    -0.275 OA
ATOM     10  N   UNL     1       2.413   0.321   1.082  1.00  0.00    -0.326 N 
ATOM     11  H   UNL     1       3.390   0.444   1.089  1.00  0.00     0.169 HD
BRANCH  10  12
ATOM     12  C   UNL     1       1.739   0.600   2.280  1.00  0.00     0.045 A 
ATOM     13  C   UNL     1       2.237   1.732   2.944  1.00  0.00     0.028 A 
ATOM     14  C   UNL     1       0.666  -0.153   2.799  1.00  0.00     0.075 A 
ATOM     15  C   UNL     1       1.635   2.212   4.096  1.00  0.00     0.034 A 
ATOM     16  C   UNL     1       0.174   0.291   4.033  1.00  0.00     0.157 A 
ATOM     17  C   UNL     1       0.604   1.457   4.647  1.00  0.00     0.110 A 
ATOM     18  O   UNL     1      -0.748  -0.295   4.887  1.00  0.00    -0.436 OA
ATOM     19  N   UNL     1      -0.085   1.679   5.785  1.00  0.00    -0.209 NA
ATOM     20  C   UNL     1      -0.826   0.602   5.937  1.00  0.00     0.227 A 
BRANCH  20  21
ATOM     21  C   UNL     1      -1.679   0.346   7.094  1.00  0.00     0.037 A 
ATOM     22  C   UNL     1      -1.852  -0.903   7.693  1.00  0.00     0.014 A 
ATOM     23  C   UNL     1      -2.220   1.475   7.737  1.00  0.00     0.014 A 
ATOM     24  C   UNL     1      -2.520  -1.000   8.926  1.00  0.00     0.001 A 
ATOM     25  C   UNL     1      -2.880   1.382   8.959  1.00  0.00     0.001 A 
ATOM     26  C   UNL     1      -3.022   0.140   9.560  1.00  0.00     0.000 A 
ENDBRANCH  20  21
ENDBRANCH  10  12
ENDBRANCH   7   8
ENDBRANCH   6   7
ENDBRANCH   4   6
ENDBRANCH   3   4
ENDBRANCH   2   3
ENDBRANCH   1   2
BRANCH   1  27
ATOM     27  O   UNL     1       7.236   0.106   0.885  1.00  0.00    -0.374 OA
BRANCH  27  28
ATOM     28  C   UNL     1       6.456  -0.805   0.117  1.00  0.00     0.202 C 
BRANCH  28  29
ATOM     29  C   UNL     1       5.942  -2.050   0.852  1.00  0.00     0.261 C 
BRANCH  29  30
ATOM     30  O   UNL     1       5.109  -1.730   1.980  1.00  0.00    -0.460 OA
BRANCH  30  31
ATOM     31  C   UNL     1       5.714  -1.884   3.183  1.00  0.00     0.338 C 
ATOM     32  O   UNL     1       6.854  -2.293   3.382  1.00  0.00    -0.246 OA
BRANCH  31  33
ATOM     33  C   UNL     1       4.879  -1.330   4.266  1.00  0.00     0.060 A 
ATOM     34  C   UNL     1       5.483  -0.446   5.170  1.00  0.00     0.016 A 
ATOM     35  C   UNL     1       3.554  -1.722   4.448  1.00  0.00     0.016 A 
ATOM     36  C   UNL     1       4.779   0.016   6.285  1.00  0.00     0.010 A 
ATOM     37  C   UNL     1       2.851  -1.250   5.564  1.00  0.00     0.010 A 
ATOM     38  C   UNL     1       3.462  -0.401   6.511  1.00  0.00    -0.014 A 
BRANCH  38  39
ATOM     39  C   UNL     1       2.760  -0.083   7.789  1.00  0.00     0.031 A 
ATOM     40  C   UNL     1       2.440  -1.207   8.741  1.00  0.00     0.074 A 
ATOM     41  C   UNL     1       2.392   1.175   8.109  1.00  0.00     0.049 A 
ATOM     42  N   UNL     1       1.758  -1.185   9.857  1.00  0.00    -0.248 NA
ATOM     43  C   UNL     1       2.974  -2.535   8.394  1.00  0.00     0.031 C 
ATOM     44  C   UNL     1       2.693   2.373   7.330  1.00  0.00     0.029 A 
ATOM     45  N   UNL     1       1.628   1.647   9.151  1.00  0.00    -0.354 N 
ATOM     46  C   UNL     1       1.806  -2.480  10.357  1.00  0.00     0.074 A 
ATOM     47  C   UNL     1       2.500  -3.285   9.376  1.00  0.00     0.031 C 
ATOM     48  C   UNL     1       2.029   3.420   7.850  1.00  0.00     0.029 A 
ATOM     49  C   UNL     1       1.276   2.972   9.016  1.00  0.00     0.049 A 
ATOM     50  H   UNL     1       1.359   1.092   9.919  1.00  0.00     0.167 HD
ATOM     51  C   UNL     1       1.364  -2.948  11.549  1.00  0.00     0.037 A 
ATOM     52  C   UNL     1       0.428   3.735   9.735  1.00  0.00     0.037 A 
ATOM     53  C   UNL     1       0.686  -2.140  12.528  1.00  0.00     0.049 A 
ATOM     54  C   UNL     1      -0.195   3.158  10.979  1.00  0.00     0.074 A 
ATOM     55  C   UNL     1       0.269  -2.497  13.798  1.00  0.00     0.029 A 
ATOM     56  N   UNL     1       0.315  -0.816  12.342  1.00  0.00    -0.354 N 
ATOM     57  N   UNL     1      -0.072   1.953  11.482  1.00  0.00    -0.248 NA
ATOM     58  C   UNL     1      -1.031   4.060  11.784  1.00  0.00     0.031 C 
ATOM     59  C   UNL     1      -0.397  -1.403  14.362  1.00  0.00     0.029 A 
ATOM     60  C   UNL     1      -0.349  -0.349  13.464  1.00  0.00     0.049 A 
ATOM     61  H   UNL     1       0.496  -0.287  11.532  1.00  0.00     0.167 HD
ATOM     62  C   UNL     1      -0.754   1.972  12.693  1.00  0.00     0.074 A 
ATOM     63  C   UNL     1      -1.308   3.303  12.837  1.00  0.00     0.031 C 
ATOM     64  C   UNL     1      -0.880   0.984  13.613  1.00  0.00     0.037 A 
BRANCH  51  65
ATOM     65  C   UNL     1       1.625  -4.397  11.860  1.00  0.00     0.058 A 
ATOM     66  C   UNL     1       2.926  -4.877  12.087  1.00  0.00     0.135 A 
ATOM     67  C   UNL     1       0.568  -5.316  11.935  1.00  0.00     0.135 A 
ATOM     68  F   UNL     1       3.977  -4.043  12.017  1.00  0.00    -0.206 F 
ATOM     69  C   UNL     1       3.175  -6.223  12.330  1.00  0.00     0.059 A 
ATOM     70  C   UNL     1       0.790  -6.664  12.208  1.00  0.00     0.059 A 
ATOM     71  F   UNL     1      -0.696  -4.913  11.731  1.00  0.00    -0.206 F 
ATOM     72  C   UNL     1       2.100  -7.111  12.381  1.00  0.00     0.060 A 
BRANCH  72  73
ATOM     73  S   UNL     1       2.441  -8.860  12.669  1.00  0.00     0.124 S 
ATOM     74  O   UNL     1       3.001  -9.261  11.382  1.00  0.00    -0.237 OA
ATOM     75  O   UNL     1       3.382  -8.816  13.783  1.00  0.00    -0.237 OA
ATOM     76  O   UNL     1       1.128  -9.415  12.983  1.00  0.00    -0.744 OA
ENDBRANCH  72  73
ENDBRANCH  51  65
BRANCH  52  77
ATOM     77  C   UNL     1       0.151   5.142   9.328  1.00  0.00     0.058 A 
ATOM     78  C   UNL     1       0.685   6.222  10.043  1.00  0.00     0.135 A 
ATOM     79  C   UNL     1      -0.659   5.439   8.221  1.00  0.00     0.135 A 
ATOM     80  F   UNL     1       1.462   5.997  11.113  1.00  0.00    -0.206 F 
ATOM     81  C   UNL     1       0.412   7.541   9.688  1.00  0.00     0.059 A 
ATOM     82  C   UNL     1      -0.938   6.748   7.837  1.00  0.00     0.059 A 
ATOM     83  F   UNL     1      -1.186   4.454   7.484  1.00  0.00    -0.206 F 
ATOM     84  C   UNL     1      -0.402   7.794   8.582  1.00  0.00     0.060 A 
BRANCH  84  85
ATOM     85  S   UNL     1      -0.716   9.508   8.107  1.00  0.00     0.124 S 
ATOM     86  O   UNL     1      -1.540   9.976   9.216  1.00  0.00    -0.237 OA
ATOM     87  O   UNL     1       0.635  10.054   8.039  1.00  0.00    -0.237 OA
ATOM     88  O   UNL     1      -1.400   9.383   6.823  1.00  0.00    -0.744 OA
ENDBRANCH  84  85
ENDBRANCH  52  77
BRANCH  64  89
ATOM     89  C   UNL     1      -1.575   1.321  14.904  1.00  0.00     0.058 A 
ATOM     90  C   UNL     1      -2.963   1.512  14.976  1.00  0.00     0.135 A 
ATOM     91  C   UNL     1      -0.839   1.413  16.098  1.00  0.00     0.135 A 
ATOM     92  F   UNL     1      -3.713   1.442  13.864  1.00  0.00    -0.206 F 
ATOM     93  C   UNL     1      -3.594   1.807  16.181  1.00  0.00     0.059 A 
ATOM     94  C   UNL     1      -1.452   1.677  17.318  1.00  0.00     0.059 A 
ATOM     95  F   UNL     1       0.491   1.229  16.088  1.00  0.00    -0.206 F 
ATOM     96  C   UNL     1      -2.829   1.886  17.348  1.00  0.00     0.060 A 
BRANCH  96  97
ATOM     97  S   UNL     1      -3.663   2.238  18.910  1.00  0.00     0.124 S 
ATOM     98  O   UNL     1      -3.958   3.661  18.771  1.00  0.00    -0.237 OA
ATOM     99  O   UNL     1      -4.816   1.344  18.858  1.00  0.00    -0.237 OA
ATOM    100  O   UNL     1      -2.660   1.900  19.915  1.00  0.00    -0.744 OA
ENDBRANCH  96  97
ENDBRANCH  64  89
ENDBRANCH  38  39
ENDBRANCH  31  33
ENDBRANCH  30  31
ENDBRANCH  29  30
ENDBRANCH  28  29
ENDBRANCH  27  28
ENDBRANCH   1  27
TORSDOF 21
