REMARK SMILES COc1cccc([C@@H]2C[N@@H+](Cc3nccn3C)C[C@H]2C(=O)OCCOCCOC(=O)c2ccc(-c3c4nc(c(-c5c(F)cc(S(=O)(=O)[O-])cc5F)c5ccc([nH]5)c(-c5c(F)cc(S(=O)(=O)[O-])cc5F)c5nc(c(-c6c(F)cc(S(=O)(=O)[O-])cc6F)c6ccc3[nH]6)C=C5)C=C4)cc2)c1
REMARK SMILES IDX 26 1 25 2 24 3 23 4 22 5 20 6 21 7 19 8 8 9 9 10 10 11 18 12
REMARK SMILES IDX 7 14 3 15 4 16 97 17 5 18 6 19 2 20 1 21 11 22 12 23 13 24
REMARK SMILES IDX 16 25 14 26 15 27 17 28 27 29 28 30 29 31 30 32 31 33 32 34
REMARK SMILES IDX 96 35 33 36 95 37 34 38 35 39 36 40 89 41 37 42 94 43 88 44
REMARK SMILES IDX 90 45 38 46 93 47 87 48 86 49 39 51 73 52 52 53 72 54 53 55
REMARK SMILES IDX 56 56 71 57 91 58 54 59 55 60 70 62 92 63 57 64 40 65 41 66
REMARK SMILES IDX 50 67 42 68 43 69 49 70 51 71 44 72 45 73 46 74 47 75 48 76
REMARK SMILES IDX 74 77 75 78 84 79 76 80 77 81 83 82 85 83 78 84 79 85 80 86
REMARK SMILES IDX 81 87 82 88 58 89 59 90 68 91 60 92 61 93 67 94 69 95 62 96
REMARK SMILES IDX 63 97 64 98 65 99 66 100
REMARK H PARENT 10 13 90 50 56 61
REMARK Flexibility Score: inf
ROOT
ATOM      1  C   UNL     1       1.334  -1.888   5.695  1.00  0.00     0.202 C 
ENDROOT
BRANCH   1   2
ATOM      2  O   UNL     1       1.853  -2.952   6.487  1.00  0.00    -0.374 OA
BRANCH   2   3
ATOM      3  C   UNL     1       3.104  -2.733   7.138  1.00  0.00     0.202 C 
BRANCH   3   4
ATOM      4  C   UNL     1       4.316  -2.553   6.224  1.00  0.00     0.261 C 
BRANCH   4   5
ATOM      5  O   UNL     1       4.272  -1.320   5.472  1.00  0.00    -0.463 OA
BRANCH   5   6
ATOM      6  C   UNL     1       4.609  -1.431   4.164  1.00  0.00     0.315 C 
ATOM      7  O   UNL     1       4.951  -2.482   3.627  1.00  0.00    -0.252 OA
BRANCH   6   8
ATOM      8  C   UNL     1       4.638  -0.134   3.389  1.00  0.00     0.167 C 
ATOM      9  C   UNL     1       3.958   1.125   3.939  1.00  0.00     0.094 C 
ATOM     10  C   UNL     1       4.885   2.243   3.429  1.00  0.00     0.272 C 
ATOM     11  N   UNL     1       6.243   1.685   3.411  1.00  0.00    -0.327 N 
ATOM     12  C   UNL     1       6.108   0.246   3.197  1.00  0.00     0.278 C 
ATOM     13  H   UNL     1       6.778   2.098   2.647  1.00  0.00     0.348 HD
BRANCH   9  14
ATOM     14  C   UNL     1       2.521   1.417   3.524  1.00  0.00    -0.035 A 
ATOM     15  C   UNL     1       0.665   1.343   1.934  1.00  0.00     0.119 A 
ATOM     16  C   UNL     1      -0.119   2.087   2.814  1.00  0.00     0.046 A 
ATOM     17  C   UNL     1       1.983   1.029   2.284  1.00  0.00     0.050 A 
ATOM     18  C   UNL     1       0.405   2.515   4.032  1.00  0.00     0.004 A 
ATOM     19  C   UNL     1       1.717   2.188   4.380  1.00  0.00     0.004 A 
BRANCH  15  20
ATOM     20  O   UNL     1       0.051   1.004   0.758  1.00  0.00    -0.497 OA
ATOM     21  C   UNL     1       0.710   0.035  -0.047  1.00  0.00     0.278 C 
ENDBRANCH  15  20
ENDBRANCH   9  14
BRANCH  11  22
ATOM     22  C   UNL     1       7.066   2.053   4.579  1.00  0.00     0.339 C 
BRANCH  22  23
ATOM     23  C   UNL     1       6.426   1.886   5.927  1.00  0.00     0.164 A 
ATOM     24  N   UNL     1       5.591   2.760   6.463  1.00  0.00    -0.236 NA
ATOM     25  N   UNL     1       6.624   0.831   6.789  1.00  0.00    -0.333 N 
ATOM     26  C   UNL     1       5.242   2.255   7.681  1.00  0.00     0.131 A 
ATOM     27  C   UNL     1       5.838   1.038   7.890  1.00  0.00     0.107 A 
ATOM     28  C   UNL     1       7.510  -0.294   6.621  1.00  0.00     0.151 C 
ENDBRANCH  22  23
ENDBRANCH  11  22
ENDBRANCH   6   8
ENDBRANCH   5   6
ENDBRANCH   4   5
ENDBRANCH   3   4
ENDBRANCH   2   3
ENDBRANCH   1   2
BRANCH   1  29
ATOM     29  C   UNL     1       0.744  -0.686   6.443  1.00  0.00     0.261 C 
BRANCH  29  30
ATOM     30  O   UNL     1       1.605  -0.124   7.448  1.00  0.00    -0.460 OA
BRANCH  30  31
ATOM     31  C   UNL     1       1.189  -0.348   8.718  1.00  0.00     0.338 C 
ATOM     32  O   UNL     1       0.169  -0.932   9.066  1.00  0.00    -0.246 OA
BRANCH  31  33
ATOM     33  C   UNL     1       2.194   0.090   9.702  1.00  0.00     0.060 A 
ATOM     34  C   UNL     1       2.670  -0.861  10.611  1.00  0.00     0.016 A 
ATOM     35  C   UNL     1       2.550   1.433   9.836  1.00  0.00     0.016 A 
ATOM     36  C   UNL     1       3.455  -0.464  11.693  1.00  0.00     0.010 A 
ATOM     37  C   UNL     1       3.350   1.829  10.918  1.00  0.00     0.010 A 
ATOM     38  C   UNL     1       3.767   0.891  11.881  1.00  0.00    -0.014 A 
BRANCH  38  39
ATOM     39  C   UNL     1       4.364   1.326  13.173  1.00  0.00     0.031 A 
ATOM     40  C   UNL     1       3.483   1.992  14.201  1.00  0.00     0.074 A 
ATOM     41  C   UNL     1       5.654   1.072  13.465  1.00  0.00     0.049 A 
ATOM     42  N   UNL     1       3.777   2.398  15.410  1.00  0.00    -0.248 NA
ATOM     43  C   UNL     1       2.084   2.238  13.811  1.00  0.00     0.031 C 
ATOM     44  C   UNL     1       6.612   0.425  12.571  1.00  0.00     0.029 A 
ATOM     45  N   UNL     1       6.377   1.323  14.606  1.00  0.00    -0.354 N 
ATOM     46  C   UNL     1       2.607   2.947  15.923  1.00  0.00     0.074 A 
ATOM     47  C   UNL     1       1.609   2.864  14.878  1.00  0.00     0.031 C 
ATOM     48  C   UNL     1       7.796   0.320  13.201  1.00  0.00     0.029 A 
ATOM     49  C   UNL     1       7.685   0.906  14.536  1.00  0.00     0.049 A 
ATOM     50  H   UNL     1       5.994   1.760  15.401  1.00  0.00     0.167 HD
ATOM     51  C   UNL     1       2.371   3.455  17.156  1.00  0.00     0.037 A 
ATOM     52  C   UNL     1       8.680   0.987  15.443  1.00  0.00     0.037 A 
ATOM     53  C   UNL     1       3.353   3.527  18.206  1.00  0.00     0.049 A 
ATOM     54  C   UNL     1       8.403   1.581  16.801  1.00  0.00     0.074 A 
ATOM     55  C   UNL     1       3.203   4.006  19.496  1.00  0.00     0.029 A 
ATOM     56  N   UNL     1       4.670   3.108  18.087  1.00  0.00    -0.354 N 
ATOM     57  N   UNL     1       7.280   2.062  17.279  1.00  0.00    -0.248 NA
ATOM     58  C   UNL     1       9.527   1.629  17.748  1.00  0.00     0.031 C 
ATOM     59  C   UNL     1       4.438   3.910  20.146  1.00  0.00     0.029 A 
ATOM     60  C   UNL     1       5.346   3.331  19.276  1.00  0.00     0.049 A 
ATOM     61  H   UNL     1       5.066   2.712  17.278  1.00  0.00     0.167 HD
ATOM     62  C   UNL     1       7.556   2.444  18.589  1.00  0.00     0.074 A 
ATOM     63  C   UNL     1       8.948   2.127  18.832  1.00  0.00     0.031 C 
ATOM     64  C   UNL     1       6.730   3.002  19.509  1.00  0.00     0.037 A 
BRANCH  51  65
ATOM     65  C   UNL     1       0.991   3.984  17.433  1.00  0.00     0.058 A 
ATOM     66  C   UNL     1      -0.109   3.125  17.589  1.00  0.00     0.135 A 
ATOM     67  C   UNL     1       0.767   5.364  17.559  1.00  0.00     0.135 A 
ATOM     68  F   UNL     1       0.046   1.798  17.461  1.00  0.00    -0.206 F 
ATOM     69  C   UNL     1      -1.388   3.618  17.827  1.00  0.00     0.059 A 
ATOM     70  C   UNL     1      -0.499   5.878  17.823  1.00  0.00     0.059 A 
ATOM     71  F   UNL     1       1.784   6.229  17.419  1.00  0.00    -0.206 F 
ATOM     72  C   UNL     1      -1.574   4.997  17.938  1.00  0.00     0.060 A 
BRANCH  72  73
ATOM     73  S   UNL     1      -3.240   5.623  18.240  1.00  0.00     0.124 S 
ATOM     74  O   UNL     1      -3.855   5.454  16.927  1.00  0.00    -0.237 OA
ATOM     75  O   UNL     1      -3.726   4.731  19.287  1.00  0.00    -0.237 OA
ATOM     76  O   UNL     1      -3.014   7.005  18.653  1.00  0.00    -0.744 OA
ENDBRANCH  72  73
ENDBRANCH  51  65
BRANCH  52  77
ATOM     77  C   UNL     1      10.036   0.477  15.107  1.00  0.00     0.058 A 
ATOM     78  C   UNL     1      10.544  -0.684  15.709  1.00  0.00     0.135 A 
ATOM     79  C   UNL     1      10.853   1.145  14.182  1.00  0.00     0.135 A 
ATOM     80  F   UNL     1       9.806  -1.351  16.609  1.00  0.00    -0.206 F 
ATOM     81  C   UNL     1      11.819  -1.159  15.417  1.00  0.00     0.059 A 
ATOM     82  C   UNL     1      12.122   0.677  13.856  1.00  0.00     0.059 A 
ATOM     83  F   UNL     1      10.409   2.254  13.571  1.00  0.00    -0.206 F 
ATOM     84  C   UNL     1      12.600  -0.471  14.486  1.00  0.00     0.060 A 
BRANCH  84  85
ATOM     85  S   UNL     1      14.231  -1.125  14.067  1.00  0.00     0.124 S 
ATOM     86  O   UNL     1      15.006  -0.758  15.246  1.00  0.00    -0.237 OA
ATOM     87  O   UNL     1      13.956  -2.549  13.900  1.00  0.00    -0.237 OA
ATOM     88  O   UNL     1      14.570  -0.414  12.838  1.00  0.00    -0.744 OA
ENDBRANCH  84  85
ENDBRANCH  52  77
BRANCH  64  89
ATOM     89  C   UNL     1       7.295   3.273  20.877  1.00  0.00     0.058 A 
ATOM     90  C   UNL     1       8.199   4.320  21.111  1.00  0.00     0.135 A 
ATOM     91  C   UNL     1       6.892   2.498  21.977  1.00  0.00     0.135 A 
ATOM     92  F   UNL     1       8.619   5.089  20.094  1.00  0.00    -0.206 F 
ATOM     93  C   UNL     1       8.708   4.572  22.381  1.00  0.00     0.059 A 
ATOM     94  C   UNL     1       7.368   2.747  23.261  1.00  0.00     0.059 A 
ATOM     95  F   UNL     1       6.019   1.491  21.812  1.00  0.00    -0.206 F 
ATOM     96  C   UNL     1       8.288   3.777  23.451  1.00  0.00     0.060 A 
BRANCH  96  97
ATOM     97  S   UNL     1       8.940   4.123  25.099  1.00  0.00     0.124 S 
ATOM     98  O   UNL     1      10.282   3.557  25.008  1.00  0.00    -0.237 OA
ATOM     99  O   UNL     1       8.869   5.579  25.167  1.00  0.00    -0.237 OA
ATOM    100  O   UNL     1       8.018   3.416  25.983  1.00  0.00    -0.744 OA
ENDBRANCH  96  97
ENDBRANCH  64  89
ENDBRANCH  38  39
ENDBRANCH  31  33
ENDBRANCH  30  31
ENDBRANCH  29  30
ENDBRANCH   1  29
TORSDOF 21
