REMARK SMILES CC(C)(C)N(CC(=O)OCCOCCOC(=O)c1ccc(-c2c3nc(c(-c4c(F)cc(S(=O)(=O)[O-])cc4F)c4ccc([nH]4)c(-c4c(F)cc(S(=O)(=O)[O-])cc4F)c4nc(c(-c5c(F)cc(S(=O)(=O)[O-])cc5F)c5ccc2[nH]5)C=C4)C=C3)cc1)C(=O)NC[C@H]1CCOC1
REMARK SMILES IDX 11 1 10 2 9 3 7 4 8 5 6 6 5 7 2 8 1 9 3 10 4 11 84 12 85 13
REMARK SMILES IDX 86 14 87 16 88 17 89 18 92 19 90 20 91 21 12 22 13 23 14 24
REMARK SMILES IDX 15 25 16 26 17 27 18 28 19 29 83 30 20 31 82 32 21 33 22 34
REMARK SMILES IDX 23 35 76 36 24 37 81 38 75 39 77 40 25 41 80 42 74 43 73 44
REMARK SMILES IDX 26 46 60 47 39 48 59 49 40 50 43 51 58 52 78 53 41 54 42 55
REMARK SMILES IDX 57 57 79 58 44 59 27 60 28 61 37 62 29 63 30 64 36 65 38 66
REMARK SMILES IDX 31 67 32 68 33 69 34 70 35 71 61 72 62 73 71 74 63 75 64 76
REMARK SMILES IDX 70 77 72 78 65 79 66 80 67 81 68 82 69 83 45 84 46 85 55 86
REMARK SMILES IDX 47 87 48 88 54 89 56 90 49 91 50 92 51 93 52 94 53 95
REMARK H PARENT 86 15 77 45 43 56
REMARK Flexibility Score: inf
ROOT
ATOM      1  C   UNL     1       5.675  -8.440   2.270  1.00  0.00     0.202 C 
ENDROOT
BRANCH   1   2
ATOM      2  C   UNL     1       6.150  -8.274   0.811  1.00  0.00     0.261 C 
BRANCH   2   3
ATOM      3  O   UNL     1       6.738  -6.973   0.589  1.00  0.00    -0.462 OA
BRANCH   3   4
ATOM      4  C   UNL     1       6.375  -6.332  -0.553  1.00  0.00     0.325 C 
ATOM      5  O   UNL     1       5.843  -6.881  -1.514  1.00  0.00    -0.250 OA
BRANCH   4   6
ATOM      6  C   UNL     1       6.772  -4.849  -0.584  1.00  0.00     0.244 C 
BRANCH   6   7
ATOM      7  N   UNL     1       7.022  -4.119   0.669  1.00  0.00    -0.309 N 
BRANCH   7   8
ATOM      8  C   UNL     1       8.467  -4.068   1.201  1.00  0.00     0.037 C 
ATOM      9  C   UNL     1       9.484  -4.861   0.335  1.00  0.00     0.034 C 
ATOM     10  C   UNL     1       8.602  -4.676   2.618  1.00  0.00     0.034 C 
ATOM     11  C   UNL     1       8.997  -2.616   1.263  1.00  0.00     0.034 C 
ENDBRANCH   7   8
BRANCH   7  12
ATOM     12  C   UNL     1       6.035  -3.408   1.328  1.00  0.00     0.318 C 
ATOM     13  O   UNL     1       6.307  -2.616   2.236  1.00  0.00    -0.249 OA
ATOM     14  N   UNL     1       4.696  -3.566   1.150  1.00  0.00    -0.338 N 
ATOM     15  H   UNL     1       4.218  -3.229   1.942  1.00  0.00     0.165 HD
BRANCH  14  16
ATOM     16  C   UNL     1       3.728  -4.071   0.171  1.00  0.00     0.123 C 
BRANCH  16  17
ATOM     17  C   UNL     1       2.558  -4.993   0.590  1.00  0.00     0.036 C 
ATOM     18  C   UNL     1       2.705  -6.437   0.122  1.00  0.00     0.036 C 
ATOM     19  C   UNL     1       2.106  -5.198   2.017  1.00  0.00     0.165 C 
ATOM     20  C   UNL     1       1.769  -7.233   1.023  1.00  0.00     0.160 C 
ATOM     21  O   UNL     1       1.160  -6.280   1.905  1.00  0.00    -0.381 OA
ENDBRANCH  16  17
ENDBRANCH  14  16
ENDBRANCH   7  12
ENDBRANCH   6   7
ENDBRANCH   4   6
ENDBRANCH   3   4
ENDBRANCH   2   3
ENDBRANCH   1   2
BRANCH   1  22
ATOM     22  O   UNL     1       4.835  -7.387   2.785  1.00  0.00    -0.374 OA
BRANCH  22  23
ATOM     23  C   UNL     1       5.537  -6.147   2.893  1.00  0.00     0.202 C 
BRANCH  23  24
ATOM     24  C   UNL     1       5.092  -5.134   3.964  1.00  0.00     0.261 C 
BRANCH  24  25
ATOM     25  O   UNL     1       5.360  -5.628   5.261  1.00  0.00    -0.460 OA
BRANCH  25  26
ATOM     26  C   UNL     1       4.590  -6.698   5.533  1.00  0.00     0.338 C 
ATOM     27  O   UNL     1       3.393  -6.810   5.326  1.00  0.00    -0.246 OA
BRANCH  26  28
ATOM     28  C   UNL     1       5.514  -7.777   5.908  1.00  0.00     0.060 A 
ATOM     29  C   UNL     1       5.066  -9.091   5.762  1.00  0.00     0.016 A 
ATOM     30  C   UNL     1       6.811  -7.492   6.366  1.00  0.00     0.016 A 
ATOM     31  C   UNL     1       5.853 -10.121   6.240  1.00  0.00     0.010 A 
ATOM     32  C   UNL     1       7.613  -8.521   6.814  1.00  0.00     0.010 A 
ATOM     33  C   UNL     1       7.078  -9.813   6.846  1.00  0.00    -0.014 A 
BRANCH  33  34
ATOM     34  C   UNL     1       7.653 -10.775   7.791  1.00  0.00     0.031 A 
ATOM     35  C   UNL     1       7.387 -10.549   9.253  1.00  0.00     0.074 A 
ATOM     36  C   UNL     1       8.365 -11.808   7.328  1.00  0.00     0.049 A 
ATOM     37  N   UNL     1       7.785 -11.242  10.282  1.00  0.00    -0.248 NA
ATOM     38  C   UNL     1       6.580  -9.364   9.604  1.00  0.00     0.031 C 
ATOM     39  C   UNL     1       8.650 -12.068   5.917  1.00  0.00     0.029 A 
ATOM     40  N   UNL     1       8.979 -12.822   7.999  1.00  0.00    -0.354 N 
ATOM     41  C   UNL     1       7.292 -10.571  11.397  1.00  0.00     0.074 A 
ATOM     42  C   UNL     1       6.613  -9.389  10.925  1.00  0.00     0.031 C 
ATOM     43  C   UNL     1       9.397 -13.180   5.828  1.00  0.00     0.029 A 
ATOM     44  C   UNL     1       9.655 -13.683   7.175  1.00  0.00     0.049 A 
ATOM     45  H   UNL     1       8.941 -12.927   8.977  1.00  0.00     0.167 HD
ATOM     46  C   UNL     1       7.392 -10.928  12.697  1.00  0.00     0.037 A 
ATOM     47  C   UNL     1      10.409 -14.749   7.493  1.00  0.00     0.037 A 
ATOM     48  C   UNL     1       8.082 -12.117  13.118  1.00  0.00     0.049 A 
ATOM     49  C   UNL     1      10.508 -15.133   8.942  1.00  0.00     0.074 A 
ATOM     50  C   UNL     1       8.238 -12.622  14.394  1.00  0.00     0.029 A 
ATOM     51  N   UNL     1       8.744 -12.985  12.256  1.00  0.00    -0.354 N 
ATOM     52  N   UNL     1      10.008 -14.521   9.993  1.00  0.00    -0.248 NA
ATOM     53  C   UNL     1      11.246 -16.360   9.249  1.00  0.00     0.031 C 
ATOM     54  C   UNL     1       9.047 -13.761  14.309  1.00  0.00     0.029 A 
ATOM     55  C   UNL     1       9.332 -14.010  12.973  1.00  0.00     0.049 A 
ATOM     56  H   UNL     1       8.787 -12.884  11.278  1.00  0.00     0.167 HD
ATOM     57  C   UNL     1      10.347 -15.304  11.089  1.00  0.00     0.074 A 
ATOM     58  C   UNL     1      11.086 -16.439  10.564  1.00  0.00     0.031 C 
ATOM     59  C   UNL     1      10.071 -15.115  12.406  1.00  0.00     0.037 A 
BRANCH  46  60
ATOM     60  C   UNL     1       6.791 -10.001  13.722  1.00  0.00     0.058 A 
ATOM     61  C   UNL     1       5.407  -9.769  13.809  1.00  0.00     0.135 A 
ATOM     62  C   UNL     1       7.620  -9.302  14.614  1.00  0.00     0.135 A 
ATOM     63  F   UNL     1       4.562 -10.390  12.969  1.00  0.00    -0.206 F 
ATOM     64  C   UNL     1       4.874  -8.844  14.704  1.00  0.00     0.059 A 
ATOM     65  C   UNL     1       7.107  -8.400  15.542  1.00  0.00     0.059 A 
ATOM     66  F   UNL     1       8.951  -9.475  14.577  1.00  0.00    -0.206 F 
ATOM     67  C   UNL     1       5.734  -8.160  15.564  1.00  0.00     0.060 A 
BRANCH  67  68
ATOM     68  S   UNL     1       5.035  -6.946  16.702  1.00  0.00     0.124 S 
ATOM     69  O   UNL     1       4.678  -5.863  15.791  1.00  0.00    -0.237 OA
ATOM     70  O   UNL     1       3.916  -7.676  17.288  1.00  0.00    -0.237 OA
ATOM     71  O   UNL     1       6.138  -6.659  17.614  1.00  0.00    -0.744 OA
ENDBRANCH  67  68
ENDBRANCH  46  60
BRANCH  47  72
ATOM     72  C   UNL     1      11.078 -15.508   6.408  1.00  0.00     0.058 A 
ATOM     73  C   UNL     1      10.623 -16.774   6.018  1.00  0.00     0.135 A 
ATOM     74  C   UNL     1      12.125 -14.931   5.671  1.00  0.00     0.135 A 
ATOM     75  F   UNL     1       9.621 -17.363   6.689  1.00  0.00    -0.206 F 
ATOM     76  C   UNL     1      11.179 -17.443   4.932  1.00  0.00     0.059 A 
ATOM     77  C   UNL     1      12.679 -15.568   4.567  1.00  0.00     0.059 A 
ATOM     78  F   UNL     1      12.577 -13.707   5.989  1.00  0.00    -0.206 F 
ATOM     79  C   UNL     1      12.199 -16.825   4.205  1.00  0.00     0.060 A 
BRANCH  79  80
ATOM     80  S   UNL     1      12.844 -17.660   2.740  1.00  0.00     0.124 S 
ATOM     81  O   UNL     1      13.574 -18.774   3.333  1.00  0.00    -0.237 OA
ATOM     82  O   UNL     1      11.620 -18.005   2.023  1.00  0.00    -0.237 OA
ATOM     83  O   UNL     1      13.665 -16.634   2.103  1.00  0.00    -0.744 OA
ENDBRANCH  79  80
ENDBRANCH  47  72
BRANCH  59  84
ATOM     84  C   UNL     1      10.537 -16.184  13.354  1.00  0.00     0.058 A 
ATOM     85  C   UNL     1      11.896 -16.379  13.645  1.00  0.00     0.135 A 
ATOM     86  C   UNL     1       9.600 -17.006  14.001  1.00  0.00     0.135 A 
ATOM     87  F   UNL     1      12.831 -15.620  13.051  1.00  0.00    -0.206 F 
ATOM     88  C   UNL     1      12.313 -17.386  14.507  1.00  0.00     0.059 A 
ATOM     89  C   UNL     1       9.992 -17.992  14.897  1.00  0.00     0.059 A 
ATOM     90  F   UNL     1       8.287 -16.847  13.772  1.00  0.00    -0.206 F 
ATOM     91  C   UNL     1      11.353 -18.189  15.126  1.00  0.00     0.060 A 
BRANCH  91  92
ATOM     92  S   UNL     1      11.906 -19.496  16.238  1.00  0.00     0.124 S 
ATOM     93  O   UNL     1      12.447 -20.471  15.297  1.00  0.00    -0.237 OA
ATOM     94  O   UNL     1      12.888 -18.804  17.068  1.00  0.00    -0.237 OA
ATOM     95  O   UNL     1      10.683 -19.898  16.927  1.00  0.00    -0.744 OA
ENDBRANCH  91  92
ENDBRANCH  59  84
ENDBRANCH  33  34
ENDBRANCH  26  28
ENDBRANCH  25  26
ENDBRANCH  24  25
ENDBRANCH  23  24
ENDBRANCH  22  23
ENDBRANCH   1  22
TORSDOF 22
