REMARK SMILES CC(C)CCc1cc2c(cc1Cl)C=C(C(=O)OCCOCCOC(=O)c1ccc(-c3c4nc(c(-c5c(F)cc(S(=O)(=O)[O-])cc5F)c5ccc([nH]5)c(-c5c(F)cc(S(=O)(=O)[O-])cc5F)c5nc(c(-c6c(F)cc(S(=O)(=O)[O-])cc6F)c6ccc3[nH]6)C=C5)C=C4)cc1)[C@H](C(F)(F)F)O2
REMARK SMILES IDX 20 1 19 2 18 3 17 4 15 5 16 6 14 7 6 8 7 9 11 10 8 11 10 12
REMARK SMILES IDX 12 13 9 14 97 15 13 16 92 17 5 18 4 19 2 20 1 21 3 22 93 23
REMARK SMILES IDX 94 24 95 25 96 26 21 27 22 28 23 29 24 30 25 31 26 32 27 33
REMARK SMILES IDX 91 34 28 35 90 36 29 37 30 38 31 39 84 40 32 41 89 42 83 43
REMARK SMILES IDX 85 44 33 45 88 46 82 47 81 48 34 50 68 51 47 52 67 53 48 54
REMARK SMILES IDX 51 55 66 56 86 57 49 58 50 59 65 61 87 62 52 63 35 64 36 65
REMARK SMILES IDX 45 66 37 67 38 68 44 69 46 70 39 71 40 72 41 73 42 74 43 75
REMARK SMILES IDX 69 76 70 77 79 78 71 79 72 80 78 81 80 82 73 83 74 84 75 85
REMARK SMILES IDX 76 86 77 87 53 88 54 89 63 90 55 91 56 92 62 93 64 94 57 95
REMARK SMILES IDX 58 96 59 97 60 98 61 99
REMARK H PARENT 85 49 51 60
REMARK Flexibility Score: inf
ROOT
ATOM      1  O   UNL     1       0.009  -4.479  10.617  1.00  0.00    -0.374 OA
ENDROOT
BRANCH   1   2
ATOM      2  C   UNL     1       0.979  -3.643  11.251  1.00  0.00     0.202 C 
BRANCH   2   3
ATOM      3  C   UNL     1       2.189  -3.246  10.400  1.00  0.00     0.261 C 
BRANCH   3   4
ATOM      4  O   UNL     1       1.780  -2.466   9.264  1.00  0.00    -0.460 OA
BRANCH   4   5
ATOM      5  C   UNL     1       1.838  -3.109   8.081  1.00  0.00     0.338 C 
ATOM      6  O   UNL     1       2.357  -4.194   7.870  1.00  0.00    -0.246 OA
BRANCH   5   7
ATOM      7  C   UNL     1       1.052  -2.378   7.070  1.00  0.00     0.087 C 
ATOM      8  C   UNL     1      -1.214  -1.261   2.726  1.00  0.00    -0.026 A 
ATOM      9  C   UNL     1      -0.658  -0.512   3.779  1.00  0.00     0.052 A 
ATOM     10  C   UNL     1      -1.361  -2.647   2.917  1.00  0.00     0.045 A 
ATOM     11  C   UNL     1      -0.126  -1.134   4.905  1.00  0.00     0.128 A 
ATOM     12  C   UNL     1      -0.873  -3.267   4.071  1.00  0.00     0.032 A 
ATOM     13  Cl  UNL     1      -2.110  -3.660   1.732  1.00  0.00    -0.084 Cl
ATOM     14  C   UNL     1      -0.219  -2.513   5.048  1.00  0.00     0.019 A 
ATOM     15  O   UNL     1       0.563  -0.327   5.764  1.00  0.00    -0.475 OA
ATOM     16  C   UNL     1       0.462  -3.158   6.152  1.00  0.00     0.027 C 
ATOM     17  C   UNL     1       0.969  -0.871   7.054  1.00  0.00     0.316 C 
BRANCH   8  18
ATOM     18  C   UNL     1      -1.620  -0.597   1.425  1.00  0.00     0.037 C 
BRANCH  18  19
ATOM     19  C   UNL     1      -0.994   0.775   1.107  1.00  0.00     0.008 C 
BRANCH  19  20
ATOM     20  C   UNL     1       0.550   0.803   1.029  1.00  0.00    -0.017 C 
ATOM     21  C   UNL     1       1.093  -0.015  -0.141  1.00  0.00     0.007 C 
ATOM     22  C   UNL     1       1.036   2.251   0.937  1.00  0.00     0.007 C 
ENDBRANCH  19  20
ENDBRANCH  18  19
ENDBRANCH   8  18
BRANCH  17  23
ATOM     23  C   UNL     1       0.062  -0.254   8.140  1.00  0.00     0.430 C 
ATOM     24  F   UNL     1      -1.070  -0.973   8.326  1.00  0.00    -0.167 F 
ATOM     25  F   UNL     1       0.686  -0.151   9.334  1.00  0.00    -0.167 F 
ATOM     26  F   UNL     1      -0.326   1.003   7.805  1.00  0.00    -0.167 F 
ENDBRANCH  17  23
ENDBRANCH   5   7
ENDBRANCH   4   5
ENDBRANCH   3   4
ENDBRANCH   2   3
ENDBRANCH   1   2
BRANCH   1  27
ATOM     27  C   UNL     1      -0.984  -3.835   9.816  1.00  0.00     0.202 C 
BRANCH  27  28
ATOM     28  C   UNL     1      -2.138  -3.145  10.556  1.00  0.00     0.261 C 
BRANCH  28  29
ATOM     29  O   UNL     1      -1.700  -1.962  11.245  1.00  0.00    -0.460 OA
BRANCH  29  30
ATOM     30  C   UNL     1      -1.621  -2.072  12.594  1.00  0.00     0.338 C 
ATOM     31  O   UNL     1      -1.952  -3.034  13.270  1.00  0.00    -0.246 OA
BRANCH  30  32
ATOM     32  C   UNL     1      -0.869  -0.921  13.140  1.00  0.00     0.060 A 
ATOM     33  C   UNL     1      -1.092   0.385  12.699  1.00  0.00     0.016 A 
ATOM     34  C   UNL     1       0.085  -1.176  14.134  1.00  0.00     0.016 A 
ATOM     35  C   UNL     1      -0.380   1.437  13.284  1.00  0.00     0.010 A 
ATOM     36  C   UNL     1       0.785  -0.123  14.725  1.00  0.00     0.010 A 
ATOM     37  C   UNL     1       0.545   1.196  14.318  1.00  0.00    -0.014 A 
BRANCH  37  38
ATOM     38  C   UNL     1       1.169   2.339  15.035  1.00  0.00     0.031 A 
ATOM     39  C   UNL     1       2.625   2.667  14.877  1.00  0.00     0.074 A 
ATOM     40  C   UNL     1       0.394   3.089  15.844  1.00  0.00     0.049 A 
ATOM     41  N   UNL     1       3.288   3.695  15.344  1.00  0.00    -0.248 NA
ATOM     42  C   UNL     1       3.446   1.722  14.107  1.00  0.00     0.031 C 
ATOM     43  C   UNL     1      -1.020   2.832  16.123  1.00  0.00     0.029 A 
ATOM     44  N   UNL     1       0.674   4.224  16.563  1.00  0.00    -0.354 N 
ATOM     45  C   UNL     1       4.596   3.537  14.905  1.00  0.00     0.074 A 
ATOM     46  C   UNL     1       4.648   2.280  14.188  1.00  0.00     0.031 C 
ATOM     47  C   UNL     1      -1.496   3.807  16.912  1.00  0.00     0.029 A 
ATOM     48  C   UNL     1      -0.418   4.742  17.219  1.00  0.00     0.049 A 
ATOM     49  H   UNL     1       1.571   4.628  16.605  1.00  0.00     0.167 HD
ATOM     50  C   UNL     1       5.647   4.379  15.060  1.00  0.00     0.037 A 
ATOM     51  C   UNL     1      -0.543   5.852  17.974  1.00  0.00     0.037 A 
ATOM     52  C   UNL     1       5.588   5.624  15.785  1.00  0.00     0.049 A 
ATOM     53  C   UNL     1       0.650   6.747  18.169  1.00  0.00     0.074 A 
ATOM     54  C   UNL     1       6.587   6.567  15.954  1.00  0.00     0.029 A 
ATOM     55  N   UNL     1       4.479   6.092  16.474  1.00  0.00    -0.354 N 
ATOM     56  N   UNL     1       1.853   6.637  17.657  1.00  0.00    -0.248 NA
ATOM     57  C   UNL     1       0.473   7.915  19.043  1.00  0.00     0.031 C 
ATOM     58  C   UNL     1       6.102   7.575  16.791  1.00  0.00     0.029 A 
ATOM     59  C   UNL     1       4.782   7.290  17.103  1.00  0.00     0.049 A 
ATOM     60  H   UNL     1       3.605   5.641  16.512  1.00  0.00     0.167 HD
ATOM     61  C   UNL     1       2.573   7.724  18.141  1.00  0.00     0.074 A 
ATOM     62  C   UNL     1       1.663   8.495  18.962  1.00  0.00     0.031 C 
ATOM     63  C   UNL     1       3.872   8.047  17.928  1.00  0.00     0.037 A 
BRANCH  50  64
ATOM     64  C   UNL     1       6.953   3.999  14.416  1.00  0.00     0.058 A 
ATOM     65  C   UNL     1       7.112   4.027  13.021  1.00  0.00     0.135 A 
ATOM     66  C   UNL     1       8.076   3.675  15.194  1.00  0.00     0.135 A 
ATOM     67  F   UNL     1       6.070   4.322  12.227  1.00  0.00    -0.206 F 
ATOM     68  C   UNL     1       8.329   3.724  12.420  1.00  0.00     0.059 A 
ATOM     69  C   UNL     1       9.312   3.395  14.616  1.00  0.00     0.059 A 
ATOM     70  F   UNL     1       7.983   3.639  16.533  1.00  0.00    -0.206 F 
ATOM     71  C   UNL     1       9.425   3.411  13.226  1.00  0.00     0.060 A 
BRANCH  71  72
ATOM     72  S   UNL     1      10.994   3.025  12.423  1.00  0.00     0.124 S 
ATOM     73  O   UNL     1      10.681   1.758  11.769  1.00  0.00    -0.237 OA
ATOM     74  O   UNL     1      11.175   4.168  11.534  1.00  0.00    -0.237 OA
ATOM     75  O   UNL     1      11.936   2.940  13.534  1.00  0.00    -0.744 OA
ENDBRANCH  71  72
ENDBRANCH  50  64
BRANCH  51  76
ATOM     76  C   UNL     1      -1.862   6.193  18.573  1.00  0.00     0.058 A 
ATOM     77  C   UNL     1      -2.595   7.299  18.119  1.00  0.00     0.135 A 
ATOM     78  C   UNL     1      -2.428   5.406  19.588  1.00  0.00     0.135 A 
ATOM     79  F   UNL     1      -2.094   8.086  17.155  1.00  0.00    -0.206 F 
ATOM     80  C   UNL     1      -3.839   7.618  18.654  1.00  0.00     0.059 A 
ATOM     81  C   UNL     1      -3.682   5.689  20.120  1.00  0.00     0.059 A 
ATOM     82  F   UNL     1      -1.773   4.329  20.049  1.00  0.00    -0.206 F 
ATOM     83  C   UNL     1      -4.378   6.802  19.650  1.00  0.00     0.060 A 
BRANCH  83  84
ATOM     84  S   UNL     1      -6.016   7.198  20.296  1.00  0.00     0.124 S 
ATOM     85  O   UNL     1      -5.759   8.444  21.008  1.00  0.00    -0.237 OA
ATOM     86  O   UNL     1      -6.805   7.312  19.073  1.00  0.00    -0.237 OA
ATOM     87  O   UNL     1      -6.336   6.047  21.135  1.00  0.00    -0.744 OA
ENDBRANCH  83  84
ENDBRANCH  51  76
BRANCH  63  88
ATOM     88  C   UNL     1       4.410   9.278  18.608  1.00  0.00     0.058 A 
ATOM     89  C   UNL     1       4.656   9.297  19.989  1.00  0.00     0.135 A 
ATOM     90  C   UNL     1       4.775  10.411  17.862  1.00  0.00     0.135 A 
ATOM     91  F   UNL     1       4.317   8.245  20.750  1.00  0.00    -0.206 F 
ATOM     92  C   UNL     1       5.244  10.395  20.608  1.00  0.00     0.059 A 
ATOM     93  C   UNL     1       5.391  11.510  18.456  1.00  0.00     0.059 A 
ATOM     94  F   UNL     1       4.568  10.444  16.536  1.00  0.00    -0.206 F 
ATOM     95  C   UNL     1       5.620  11.492  19.831  1.00  0.00     0.060 A 
BRANCH  95  96
ATOM     96  S   UNL     1       6.447  12.876  20.643  1.00  0.00     0.124 S 
ATOM     97  O   UNL     1       5.373  13.423  21.466  1.00  0.00    -0.237 OA
ATOM     98  O   UNL     1       7.524  12.210  21.368  1.00  0.00    -0.237 OA
ATOM     99  O   UNL     1       6.875  13.720  19.531  1.00  0.00    -0.744 OA
ENDBRANCH  95  96
ENDBRANCH  63  88
ENDBRANCH  37  38
ENDBRANCH  30  32
ENDBRANCH  29  30
ENDBRANCH  28  29
ENDBRANCH  27  28
ENDBRANCH   1  27
TORSDOF 21
