REMARK SMILES Cc1noc(C)c1CNc1cnc(C(=O)OCCOCCOC(=O)c2ccc(-c3c4nc(c(-c5c(F)cc(S(=O)(=O)[O-])cc5F)c5ccc([nH]5)c(-c5c(F)cc(S(=O)(=O)[O-])cc5F)c5nc(c(-c6c(F)cc(S(=O)(=O)[O-])cc6F)c6ccc3[nH]6)C=C5)C=C4)cc2)cn1
REMARK SMILES IDX 19 1 18 2 17 3 16 4 14 5 15 6 13 7 10 8 11 9 92 10 12 11
REMARK SMILES IDX 91 12 9 13 8 15 7 16 1 17 2 18 3 19 4 20 5 21 6 22 20 23
REMARK SMILES IDX 21 24 22 25 23 26 24 27 25 28 26 29 90 30 27 31 89 32 28 33
REMARK SMILES IDX 29 34 30 35 83 36 31 37 88 38 82 39 84 40 32 41 87 42 81 43
REMARK SMILES IDX 80 44 33 46 67 47 46 48 66 49 47 50 50 51 65 52 85 53 48 54
REMARK SMILES IDX 49 55 64 57 86 58 51 59 34 60 35 61 44 62 36 63 37 64 43 65
REMARK SMILES IDX 45 66 38 67 39 68 40 69 41 70 42 71 68 72 69 73 78 74 70 75
REMARK SMILES IDX 71 76 77 77 79 78 72 79 73 80 74 81 75 82 76 83 52 84 53 85
REMARK SMILES IDX 62 86 54 87 55 88 61 89 63 90 56 91 57 92 58 93 59 94 60 95
REMARK H PARENT 9 14 84 45 50 56
REMARK Flexibility Score: inf
ROOT
ATOM      1  O   UNL     1      -6.882   7.809  -1.798  1.00  0.00    -0.374 OA
ENDROOT
BRANCH   1   2
ATOM      2  C   UNL     1      -6.933   8.334  -0.468  1.00  0.00     0.202 C 
BRANCH   2   3
ATOM      3  C   UNL     1      -6.895   7.282   0.645  1.00  0.00     0.261 C 
BRANCH   3   4
ATOM      4  O   UNL     1      -5.631   6.601   0.658  1.00  0.00    -0.458 OA
BRANCH   4   5
ATOM      5  C   UNL     1      -5.649   5.329   0.194  1.00  0.00     0.358 C 
ATOM      6  O   UNL     1      -6.636   4.664  -0.090  1.00  0.00    -0.244 OA
BRANCH   5   7
ATOM      7  C   UNL     1      -4.277   4.870  -0.107  1.00  0.00     0.166 A 
ATOM      8  C   UNL     1      -1.853   3.885  -0.784  1.00  0.00     0.144 A 
ATOM      9  C   UNL     1      -2.020   4.822   0.241  1.00  0.00     0.158 A 
ATOM     10  N   UNL     1      -2.905   3.494  -1.529  1.00  0.00    -0.235 NA
ATOM     11  N   UNL     1      -3.222   5.340   0.604  1.00  0.00    -0.244 NA
ATOM     12  C   UNL     1      -4.115   3.984  -1.161  1.00  0.00     0.149 A 
BRANCH   8  13
ATOM     13  N   UNL     1      -0.663   3.253  -1.074  1.00  0.00    -0.365 N 
ATOM     14  H   UNL     1      -0.311   3.245  -1.993  1.00  0.00     0.162 HD
BRANCH  13  15
ATOM     15  C   UNL     1       0.063   2.599   0.003  1.00  0.00     0.156 C 
BRANCH  15  16
ATOM     16  C   UNL     1       0.068   1.106  -0.034  1.00  0.00     0.037 A 
ATOM     17  C   UNL     1      -2.489   0.504  -0.007  1.00  0.00     0.071 C 
ATOM     18  C   UNL     1      -1.037   0.205  -0.031  1.00  0.00     0.086 A 
ATOM     19  N   UNL     1      -0.628  -1.069  -0.063  1.00  0.00    -0.085 NA
ATOM     20  O   UNL     1       0.749  -1.025  -0.075  1.00  0.00    -0.361 OA
ATOM     21  C   UNL     1       1.163   0.267  -0.054  1.00  0.00     0.138 A 
ATOM     22  C   UNL     1       2.621   0.484  -0.050  1.00  0.00     0.091 C 
ENDBRANCH  15  16
ENDBRANCH  13  15
ENDBRANCH   8  13
ENDBRANCH   5   7
ENDBRANCH   4   5
ENDBRANCH   3   4
ENDBRANCH   2   3
ENDBRANCH   1   2
BRANCH   1  23
ATOM     23  C   UNL     1      -5.580   7.565  -2.334  1.00  0.00     0.202 C 
BRANCH  23  24
ATOM     24  C   UNL     1      -4.862   8.778  -2.933  1.00  0.00     0.261 C 
BRANCH  24  25
ATOM     25  O   UNL     1      -4.503   9.730  -1.916  1.00  0.00    -0.460 OA
BRANCH  25  26
ATOM     26  C   UNL     1      -5.234  10.867  -1.928  1.00  0.00     0.338 C 
ATOM     27  O   UNL     1      -6.066  11.195  -2.765  1.00  0.00    -0.246 OA
BRANCH  26  28
ATOM     28  C   UNL     1      -5.030  11.628  -0.680  1.00  0.00     0.060 A 
ATOM     29  C   UNL     1      -6.176  12.127  -0.049  1.00  0.00     0.016 A 
ATOM     30  C   UNL     1      -3.760  11.918  -0.173  1.00  0.00     0.016 A 
ATOM     31  C   UNL     1      -6.055  12.982   1.043  1.00  0.00     0.010 A 
ATOM     32  C   UNL     1      -3.640  12.780   0.925  1.00  0.00     0.010 A 
ATOM     33  C   UNL     1      -4.786  13.354   1.506  1.00  0.00    -0.014 A 
BRANCH  33  34
ATOM     34  C   UNL     1      -4.683  14.470   2.480  1.00  0.00     0.031 A 
ATOM     35  C   UNL     1      -4.346  15.849   1.973  1.00  0.00     0.074 A 
ATOM     36  C   UNL     1      -4.957  14.274   3.783  1.00  0.00     0.049 A 
ATOM     37  N   UNL     1      -4.262  16.975   2.633  1.00  0.00    -0.248 NA
ATOM     38  C   UNL     1      -4.068  15.977   0.532  1.00  0.00     0.031 C 
ATOM     39  C   UNL     1      -5.314  12.992   4.390  1.00  0.00     0.029 A 
ATOM     40  N   UNL     1      -4.984  15.160   4.832  1.00  0.00    -0.354 N 
ATOM     41  C   UNL     1      -3.916  17.940   1.694  1.00  0.00     0.074 A 
ATOM     42  C   UNL     1      -3.779  17.266   0.422  1.00  0.00     0.031 C 
ATOM     43  C   UNL     1      -5.519  13.173   5.706  1.00  0.00     0.029 A 
ATOM     44  C   UNL     1      -5.293  14.578   6.039  1.00  0.00     0.049 A 
ATOM     45  H   UNL     1      -4.799  16.121   4.729  1.00  0.00     0.167 HD
ATOM     46  C   UNL     1      -3.742  19.270   1.874  1.00  0.00     0.037 A 
ATOM     47  C   UNL     1      -5.373  15.119   7.271  1.00  0.00     0.037 A 
ATOM     48  C   UNL     1      -3.910  19.945   3.134  1.00  0.00     0.049 A 
ATOM     49  C   UNL     1      -5.145  16.600   7.445  1.00  0.00     0.074 A 
ATOM     50  C   UNL     1      -3.812  21.300   3.401  1.00  0.00     0.029 A 
ATOM     51  N   UNL     1      -4.205  19.320   4.335  1.00  0.00    -0.354 N 
ATOM     52  N   UNL     1      -4.881  17.507   6.535  1.00  0.00    -0.248 NA
ATOM     53  C   UNL     1      -5.233  17.132   8.814  1.00  0.00     0.031 C 
ATOM     54  C   UNL     1      -4.001  21.488   4.774  1.00  0.00     0.029 A 
ATOM     55  C   UNL     1      -4.262  20.257   5.352  1.00  0.00     0.049 A 
ATOM     56  H   UNL     1      -4.351  18.353   4.448  1.00  0.00     0.167 HD
ATOM     57  C   UNL     1      -4.800  18.718   7.218  1.00  0.00     0.074 A 
ATOM     58  C   UNL     1      -5.057  18.430   8.612  1.00  0.00     0.031 C 
ATOM     59  C   UNL     1      -4.535  19.956   6.734  1.00  0.00     0.037 A 
BRANCH  46  60
ATOM     60  C   UNL     1      -3.340  20.099   0.687  1.00  0.00     0.058 A 
ATOM     61  C   UNL     1      -4.255  20.439  -0.320  1.00  0.00     0.135 A 
ATOM     62  C   UNL     1      -2.043  20.630   0.603  1.00  0.00     0.135 A 
ATOM     63  F   UNL     1      -5.502  19.941  -0.298  1.00  0.00    -0.206 F 
ATOM     64  C   UNL     1      -3.899  21.278  -1.371  1.00  0.00     0.059 A 
ATOM     65  C   UNL     1      -1.671  21.489  -0.426  1.00  0.00     0.059 A 
ATOM     66  F   UNL     1      -1.128  20.330   1.539  1.00  0.00    -0.206 F 
ATOM     67  C   UNL     1      -2.606  21.805  -1.411  1.00  0.00     0.060 A 
BRANCH  67  68
ATOM     68  S   UNL     1      -2.175  22.935  -2.751  1.00  0.00     0.124 S 
ATOM     69  O   UNL     1      -2.078  22.020  -3.884  1.00  0.00    -0.237 OA
ATOM     70  O   UNL     1      -3.313  23.847  -2.769  1.00  0.00    -0.237 OA
ATOM     71  O   UNL     1      -0.913  23.521  -2.310  1.00  0.00    -0.744 OA
ENDBRANCH  67  68
ENDBRANCH  46  60
BRANCH  47  72
ATOM     72  C   UNL     1      -5.664  14.262   8.453  1.00  0.00     0.058 A 
ATOM     73  C   UNL     1      -6.863  14.388   9.169  1.00  0.00     0.135 A 
ATOM     74  C   UNL     1      -4.719  13.334   8.918  1.00  0.00     0.135 A 
ATOM     75  F   UNL     1      -7.794  15.267   8.769  1.00  0.00    -0.206 F 
ATOM     76  C   UNL     1      -7.101  13.653  10.327  1.00  0.00     0.059 A 
ATOM     77  C   UNL     1      -4.945  12.569  10.057  1.00  0.00     0.059 A 
ATOM     78  F   UNL     1      -3.561  13.165   8.262  1.00  0.00    -0.206 F 
ATOM     79  C   UNL     1      -6.131  12.751  10.767  1.00  0.00     0.060 A 
BRANCH  79  80
ATOM     80  S   UNL     1      -6.443  11.799  12.270  1.00  0.00     0.124 S 
ATOM     81  O   UNL     1      -6.201  12.798  13.304  1.00  0.00    -0.237 OA
ATOM     82  O   UNL     1      -7.832  11.386  12.092  1.00  0.00    -0.237 OA
ATOM     83  O   UNL     1      -5.462  10.720  12.191  1.00  0.00    -0.744 OA
ENDBRANCH  79  80
ENDBRANCH  47  72
BRANCH  59  84
ATOM     84  C   UNL     1      -4.543  21.100   7.710  1.00  0.00     0.058 A 
ATOM     85  C   UNL     1      -3.506  21.284   8.637  1.00  0.00     0.135 A 
ATOM     86  C   UNL     1      -5.574  22.053   7.680  1.00  0.00     0.135 A 
ATOM     87  F   UNL     1      -2.499  20.400   8.709  1.00  0.00    -0.206 F 
ATOM     88  C   UNL     1      -3.505  22.360   9.520  1.00  0.00     0.059 A 
ATOM     89  C   UNL     1      -5.579  23.151   8.535  1.00  0.00     0.059 A 
ATOM     90  F   UNL     1      -6.583  21.931   6.803  1.00  0.00    -0.206 F 
ATOM     91  C   UNL     1      -4.546  23.288   9.461  1.00  0.00     0.060 A 
BRANCH  91  92
ATOM     92  S   UNL     1      -4.518  24.695  10.591  1.00  0.00     0.124 S 
ATOM     93  O   UNL     1      -4.926  24.072  11.846  1.00  0.00    -0.237 OA
ATOM     94  O   UNL     1      -3.125  25.128  10.521  1.00  0.00    -0.237 OA
ATOM     95  O   UNL     1      -5.484  25.620  10.006  1.00  0.00    -0.744 OA
ENDBRANCH  91  92
ENDBRANCH  59  84
ENDBRANCH  33  34
ENDBRANCH  26  28
ENDBRANCH  25  26
ENDBRANCH  24  25
ENDBRANCH  23  24
ENDBRANCH   1  23
TORSDOF 20
