REMARK SMILES C[C@]12C[C@@H](O)[C@H]3[C@@H](CCC4=CC(=O)C=C[C@]43C)[C@H]1CC[C@]2(O)C(=O)COC(=O)CCC(=O)OCCOCCOC(=O)c1ccc(-c2c3nc(c(-c4c(F)cc(S(=O)(=O)[O-])cc4F)c4ccc([nH]4)c(-c4c(F)cc(S(=O)(=O)[O-])cc4F)c4nc(c(-c5c(F)cc(S(=O)(=O)[O-])cc5F)c5ccc2[nH]5)C=C4)C=C3)cc1
REMARK SMILES IDX 34 1 33 2 31 3 32 4 30 5 29 6 27 7 28 8 26 9 25 10 23 11
REMARK SMILES IDX 24 12 21 13 17 14 16 15 15 16 10 17 6 18 14 19 11 20 9 21
REMARK SMILES IDX 7 22 4 23 12 24 8 25 18 26 3 27 13 28 2 29 19 30 1 31 20 32
REMARK SMILES IDX 5 33 22 35 35 37 36 38 37 39 38 40 39 41 40 42 41 43 42 44
REMARK SMILES IDX 43 45 107 46 44 47 106 48 45 49 46 50 47 51 100 52 48 53
REMARK SMILES IDX 105 54 99 55 101 56 49 57 104 58 98 59 97 60 50 62 84 63
REMARK SMILES IDX 63 64 83 65 64 66 67 67 82 68 102 69 65 70 66 71 81 73
REMARK SMILES IDX 103 74 68 75 51 76 52 77 61 78 53 79 54 80 60 81 62 82 55 83
REMARK SMILES IDX 56 84 57 85 58 86 59 87 85 88 86 89 95 90 87 91 88 92 94 93
REMARK SMILES IDX 96 94 89 95 90 96 91 97 92 98 93 99 69 100 70 101 79 102
REMARK SMILES IDX 71 103 72 104 78 105 80 106 73 107 74 108 75 109 76 110
REMARK SMILES IDX 77 111
REMARK H PARENT 5 34 22 36 101 61 67 72
REMARK Flexibility Score: inf
ROOT
ATOM      1  C   UNL     1       5.191  -3.476  -3.109  1.00  0.00     0.261 C 
ENDROOT
BRANCH   1   2
ATOM      2  O   UNL     1       5.825  -2.929  -4.278  1.00  0.00    -0.463 OA
BRANCH   2   3
ATOM      3  C   UNL     1       6.564  -1.808  -4.094  1.00  0.00     0.306 C 
ATOM      4  O   UNL     1       6.675  -1.192  -3.040  1.00  0.00    -0.252 OA
BRANCH   3   5
ATOM      5  C   UNL     1       7.321  -1.385  -5.339  1.00  0.00     0.134 C 
BRANCH   5   6
ATOM      6  C   UNL     1       7.180  -2.271  -6.574  1.00  0.00     0.134 C 
BRANCH   6   7
ATOM      7  C   UNL     1       5.919  -1.948  -7.329  1.00  0.00     0.306 C 
ATOM      8  O   UNL     1       5.768  -0.904  -7.951  1.00  0.00    -0.252 OA
BRANCH   7   9
ATOM      9  O   UNL     1       4.963  -2.883  -7.120  1.00  0.00    -0.458 OA
BRANCH   9  10
ATOM     10  C   UNL     1       3.656  -2.606  -7.619  1.00  0.00     0.311 C 
BRANCH  10  11
ATOM     11  C   UNL     1       3.020  -1.201  -7.553  1.00  0.00     0.202 C 
ATOM     12  O   UNL     1       2.452  -0.735  -8.546  1.00  0.00    -0.293 OA
BRANCH  11  13
ATOM     13  C   UNL     1       3.027  -0.451  -6.201  1.00  0.00     0.132 C 
ATOM     14  C   UNL     1       1.186   0.133   0.138  1.00  0.00     0.021 C 
ATOM     15  C   UNL     1       0.195   0.357  -1.052  1.00  0.00     0.013 C 
ATOM     16  C   UNL     1      -0.980  -0.602  -0.820  1.00  0.00    -0.012 C 
ATOM     17  C   UNL     1      -0.372   1.787  -0.903  1.00  0.00    -0.056 C 
ATOM     18  C   UNL     1       1.028   0.104  -2.386  1.00  0.00     0.035 C 
ATOM     19  C   UNL     1      -1.939  -0.350   0.088  1.00  0.00     0.048 C 
ATOM     20  C   UNL     1      -1.305   2.060   0.035  1.00  0.00     0.052 C 
ATOM     21  C   UNL     1      -0.100   2.870  -1.904  1.00  0.00     0.032 C 
ATOM     22  C   UNL     1       0.635   1.059  -3.530  1.00  0.00    -0.000 C 
ATOM     23  C   UNL     1       1.082  -1.359  -2.884  1.00  0.00     0.119 C 
ATOM     24  C   UNL     1      -1.937   0.954   0.790  1.00  0.00     0.178 C 
ATOM     25  C   UNL     1       0.827   2.503  -3.042  1.00  0.00     0.009 C 
ATOM     26  C   UNL     1       1.387   0.848  -4.866  1.00  0.00     0.002 C 
ATOM     27  C   UNL     1       2.057  -1.492  -4.049  1.00  0.00     0.042 C 
ATOM     28  O   UNL     1      -2.487   1.127   1.867  1.00  0.00    -0.290 OA
ATOM     29  C   UNL     1       1.744  -0.616  -5.279  1.00  0.00     0.009 C 
ATOM     30  C   UNL     1       2.697   1.616  -5.064  1.00  0.00     0.008 C 
ATOM     31  C   UNL     1       0.533  -1.208  -6.026  1.00  0.00     0.015 C 
ATOM     32  C   UNL     1       3.154   1.069  -6.410  1.00  0.00     0.044 C 
BRANCH  23  33
ATOM     33  O   UNL     1       1.593  -2.234  -1.874  1.00  0.00    -0.393 OA
ATOM     34  H   UNL     1       2.500  -1.974  -1.649  1.00  0.00     0.210 HD
ENDBRANCH  23  33
BRANCH  13  35
ATOM     35  O   UNL     1       4.202  -0.796  -5.465  1.00  0.00    -0.381 OA
ATOM     36  H   UNL     1       4.203  -0.324  -4.617  1.00  0.00     0.212 HD
ENDBRANCH  13  35
ENDBRANCH  11  13
ENDBRANCH  10  11
ENDBRANCH   9  10
ENDBRANCH   7   9
ENDBRANCH   6   7
ENDBRANCH   5   6
ENDBRANCH   3   5
ENDBRANCH   2   3
ENDBRANCH   1   2
BRANCH   1  37
ATOM     37  C   UNL     1       5.463  -4.977  -2.986  1.00  0.00     0.202 C 
BRANCH  37  38
ATOM     38  O   UNL     1       6.829  -5.368  -2.847  1.00  0.00    -0.374 OA
BRANCH  38  39
ATOM     39  C   UNL     1       7.697  -5.167  -3.959  1.00  0.00     0.202 C 
BRANCH  39  40
ATOM     40  C   UNL     1       7.478  -6.043  -5.201  1.00  0.00     0.261 C 
BRANCH  40  41
ATOM     41  O   UNL     1       6.187  -5.882  -5.823  1.00  0.00    -0.460 OA
BRANCH  41  42
ATOM     42  C   UNL     1       5.419  -7.002  -5.800  1.00  0.00     0.338 C 
ATOM     43  O   UNL     1       5.723  -8.085  -5.325  1.00  0.00    -0.246 OA
BRANCH  42  44
ATOM     44  C   UNL     1       4.059  -6.752  -6.318  1.00  0.00     0.060 A 
ATOM     45  C   UNL     1       2.989  -7.049  -5.468  1.00  0.00     0.016 A 
ATOM     46  C   UNL     1       3.827  -6.428  -7.657  1.00  0.00     0.016 A 
ATOM     47  C   UNL     1       1.689  -7.093  -5.969  1.00  0.00     0.010 A 
ATOM     48  C   UNL     1       2.515  -6.467  -8.158  1.00  0.00     0.010 A 
ATOM     49  C   UNL     1       1.444  -6.847  -7.328  1.00  0.00    -0.014 A 
BRANCH  49  50
ATOM     50  C   UNL     1       0.084  -7.117  -7.871  1.00  0.00     0.031 A 
ATOM     51  C   UNL     1      -0.176  -8.377  -8.659  1.00  0.00     0.074 A 
ATOM     52  C   UNL     1      -0.939  -6.287  -7.591  1.00  0.00     0.049 A 
ATOM     53  N   UNL     1      -1.305  -8.839  -9.135  1.00  0.00    -0.248 NA
ATOM     54  C   UNL     1       0.988  -9.230  -8.946  1.00  0.00     0.031 C 
ATOM     55  C   UNL     1      -0.830  -5.046  -6.826  1.00  0.00     0.029 A 
ATOM     56  N   UNL     1      -2.272  -6.370  -7.909  1.00  0.00    -0.354 N 
ATOM     57  C   UNL     1      -0.992 -10.035  -9.773  1.00  0.00     0.074 A 
ATOM     58  C   UNL     1       0.441 -10.206  -9.658  1.00  0.00     0.031 C 
ATOM     59  C   UNL     1      -2.047  -4.484  -6.730  1.00  0.00     0.029 A 
ATOM     60  C   UNL     1      -3.019  -5.318  -7.435  1.00  0.00     0.049 A 
ATOM     61  H   UNL     1      -2.657  -7.114  -8.427  1.00  0.00     0.167 HD
ATOM     62  C   UNL     1      -1.819 -10.919 -10.382  1.00  0.00     0.037 A 
ATOM     63  C   UNL     1      -4.336  -5.056  -7.553  1.00  0.00     0.037 A 
ATOM     64  C   UNL     1      -3.247 -10.757 -10.495  1.00  0.00     0.049 A 
ATOM     65  C   UNL     1      -5.232  -6.039  -8.259  1.00  0.00     0.074 A 
ATOM     66  C   UNL     1      -4.170 -11.613 -11.073  1.00  0.00     0.029 A 
ATOM     67  N   UNL     1      -3.962  -9.665 -10.025  1.00  0.00    -0.354 N 
ATOM     68  N   UNL     1      -4.922  -7.183  -8.821  1.00  0.00    -0.248 NA
ATOM     69  C   UNL     1      -6.660  -5.701  -8.330  1.00  0.00     0.031 C 
ATOM     70  C   UNL     1      -5.435 -11.019 -10.992  1.00  0.00     0.029 A 
ATOM     71  C   UNL     1      -5.309  -9.815 -10.319  1.00  0.00     0.049 A 
ATOM     72  H   UNL     1      -3.570  -8.895  -9.553  1.00  0.00     0.167 HD
ATOM     73  C   UNL     1      -6.120  -7.711  -9.293  1.00  0.00     0.074 A 
ATOM     74  C   UNL     1      -7.161  -6.771  -8.931  1.00  0.00     0.031 C 
ATOM     75  C   UNL     1      -6.338  -8.871  -9.963  1.00  0.00     0.037 A 
BRANCH  62  76
ATOM     76  C   UNL     1      -1.197 -12.148 -10.991  1.00  0.00     0.058 A 
ATOM     77  C   UNL     1      -0.693 -13.190 -10.197  1.00  0.00     0.135 A 
ATOM     78  C   UNL     1      -1.136 -12.300 -12.386  1.00  0.00     0.135 A 
ATOM     79  F   UNL     1      -0.713 -13.091  -8.858  1.00  0.00    -0.206 F 
ATOM     80  C   UNL     1      -0.124 -14.327 -10.764  1.00  0.00     0.059 A 
ATOM     81  C   UNL     1      -0.595 -13.440 -12.974  1.00  0.00     0.059 A 
ATOM     82  F   UNL     1      -1.605 -11.335 -13.192  1.00  0.00    -0.206 F 
ATOM     83  C   UNL     1      -0.078 -14.442 -12.154  1.00  0.00     0.060 A 
BRANCH  83  84
ATOM     84  S   UNL     1       0.663 -15.921 -12.876  1.00  0.00     0.124 S 
ATOM     85  O   UNL     1       2.083 -15.683 -12.633  1.00  0.00    -0.237 OA
ATOM     86  O   UNL     1       0.058 -16.991 -12.089  1.00  0.00    -0.237 OA
ATOM     87  O   UNL     1       0.248 -15.863 -14.274  1.00  0.00    -0.744 OA
ENDBRANCH  83  84
ENDBRANCH  62  76
BRANCH  63  88
ATOM     88  C   UNL     1      -4.894  -3.806  -6.973  1.00  0.00     0.058 A 
ATOM     89  C   UNL     1      -5.730  -3.836  -5.847  1.00  0.00     0.135 A 
ATOM     90  C   UNL     1      -4.595  -2.555  -7.534  1.00  0.00     0.135 A 
ATOM     91  F   UNL     1      -6.052  -5.009  -5.282  1.00  0.00    -0.206 F 
ATOM     92  C   UNL     1      -6.261  -2.671  -5.304  1.00  0.00     0.059 A 
ATOM     93  C   UNL     1      -5.092  -1.374  -6.994  1.00  0.00     0.059 A 
ATOM     94  F   UNL     1      -3.788  -2.473  -8.604  1.00  0.00    -0.206 F 
ATOM     95  C   UNL     1      -5.930  -1.443  -5.882  1.00  0.00     0.060 A 
BRANCH  95  96
ATOM     96  S   UNL     1      -6.559   0.070  -5.123  1.00  0.00     0.124 S 
ATOM     97  O   UNL     1      -7.955   0.052  -5.544  1.00  0.00    -0.237 OA
ATOM     98  O   UNL     1      -6.312  -0.176  -3.706  1.00  0.00    -0.237 OA
ATOM     99  O   UNL     1      -5.729   1.111  -5.721  1.00  0.00    -0.744 OA
ENDBRANCH  95  96
ENDBRANCH  63  88
BRANCH  75 100
ATOM    100  C   UNL     1      -7.763  -9.196 -10.326  1.00  0.00     0.058 A 
ATOM    101  C   UNL     1      -8.456  -8.482 -11.317  1.00  0.00     0.135 A 
ATOM    102  C   UNL     1      -8.446 -10.235  -9.672  1.00  0.00     0.135 A 
ATOM    103  F   UNL     1      -7.852  -7.477 -11.972  1.00  0.00    -0.206 F 
ATOM    104  C   UNL     1      -9.789  -8.752 -11.613  1.00  0.00     0.059 A 
ATOM    105  C   UNL     1      -9.771 -10.542  -9.972  1.00  0.00     0.059 A 
ATOM    106  F   UNL     1      -7.829 -10.961  -8.727  1.00  0.00    -0.206 F 
ATOM    107  C   UNL     1     -10.441  -9.779 -10.927  1.00  0.00     0.060 A 
BRANCH 107 108
ATOM    108  S   UNL     1     -12.176 -10.110 -11.302  1.00  0.00     0.124 S 
ATOM    109  O   UNL     1     -12.840  -9.018 -10.597  1.00  0.00    -0.237 OA
ATOM    110  O   UNL     1     -12.204 -10.033 -12.759  1.00  0.00    -0.237 OA
ATOM    111  O   UNL     1     -12.394 -11.442 -10.746  1.00  0.00    -0.744 OA
ENDBRANCH 107 108
ENDBRANCH  75 100
ENDBRANCH  49  50
ENDBRANCH  42  44
ENDBRANCH  41  42
ENDBRANCH  40  41
ENDBRANCH  39  40
ENDBRANCH  38  39
ENDBRANCH  37  38
ENDBRANCH   1  37
TORSDOF 25
