REMARK SMILES Cc1ccnc(C(=O)c2[nH]c3cc(Cl)c(F)cc3c2CC(=O)OCCOCCOC(=O)c2ccc(-c3c4nc(c(-c5c(F)cc(S(=O)(=O)[O-])cc5F)c5ccc([nH]5)c(-c5c(F)cc(S(=O)(=O)[O-])cc5F)c5nc(c(-c6c(F)cc(S(=O)(=O)[O-])cc6F)c6ccc3[nH]6)C=C5)C=C4)cc2)c1
REMARK SMILES IDX 26 1 25 2 24 3 23 4 21 5 22 6 20 7 19 8 9 9 10 10 11 11
REMARK SMILES IDX 18 13 12 14 17 15 13 16 15 17 14 18 16 19 7 20 8 21 6 22
REMARK SMILES IDX 1 23 2 24 3 25 98 26 4 27 5 28 27 29 28 30 29 31 30 32 31 33
REMARK SMILES IDX 32 34 33 35 97 36 34 37 96 38 35 39 36 40 37 41 90 42 38 43
REMARK SMILES IDX 95 44 89 45 91 46 39 47 94 48 88 49 87 50 40 52 74 53 53 54
REMARK SMILES IDX 73 55 54 56 57 57 72 58 92 59 55 60 56 61 71 63 93 64 58 65
REMARK SMILES IDX 41 66 42 67 51 68 43 69 44 70 50 71 52 72 45 73 46 74 47 75
REMARK SMILES IDX 48 76 49 77 75 78 76 79 85 80 77 81 78 82 84 83 86 84 79 85
REMARK SMILES IDX 80 86 81 87 82 88 83 89 59 90 60 91 69 92 61 93 62 94 68 95
REMARK SMILES IDX 70 96 63 97 64 98 65 99 66 100 67 101
REMARK H PARENT 10 12 91 51 57 62
REMARK Flexibility Score: inf
ROOT
ATOM      1  O   UNL     1      -2.258  -0.481  -1.181  1.00  0.00    -0.374 OA
ENDROOT
BRANCH   1   2
ATOM      2  C   UNL     1      -2.429  -0.650  -2.586  1.00  0.00     0.202 C 
BRANCH   2   3
ATOM      3  C   UNL     1      -2.828  -2.100  -2.877  1.00  0.00     0.261 C 
BRANCH   3   4
ATOM      4  O   UNL     1      -1.746  -3.025  -2.548  1.00  0.00    -0.463 OA
BRANCH   4   5
ATOM      5  C   UNL     1      -0.646  -2.944  -3.338  1.00  0.00     0.310 C 
ATOM      6  O   UNL     1      -0.646  -2.390  -4.433  1.00  0.00    -0.252 OA
BRANCH   5   7
ATOM      7  C   UNL     1       0.634  -3.538  -2.758  1.00  0.00     0.161 C 
BRANCH   7   8
ATOM      8  C   UNL     1       0.765  -3.899  -1.281  1.00  0.00     0.000 A 
ATOM      9  C   UNL     1       1.600  -3.357  -0.267  1.00  0.00     0.093 A 
ATOM     10  N   UNL     1       1.596  -4.293   0.755  1.00  0.00    -0.351 N 
ATOM     11  C   UNL     1       0.739  -5.334   0.508  1.00  0.00     0.048 A 
ATOM     12  H   UNL     1       2.147  -4.219   1.568  1.00  0.00     0.167 HD
ATOM     13  C   UNL     1       0.152  -5.094  -0.730  1.00  0.00     0.007 A 
ATOM     14  C   UNL     1       0.477  -6.479   1.275  1.00  0.00     0.050 A 
ATOM     15  C   UNL     1      -0.788  -6.036  -1.210  1.00  0.00     0.051 A 
ATOM     16  C   UNL     1      -0.446  -7.400   0.772  1.00  0.00     0.078 A 
ATOM     17  C   UNL     1      -1.079  -7.171  -0.444  1.00  0.00     0.142 A 
ATOM     18  Cl  UNL     1      -0.771  -8.833   1.676  1.00  0.00    -0.081 Cl
ATOM     19  F   UNL     1      -1.970  -8.055  -0.920  1.00  0.00    -0.205 F 
BRANCH   9  20
ATOM     20  C   UNL     1       2.591  -2.264  -0.182  1.00  0.00     0.227 C 
ATOM     21  O   UNL     1       3.785  -2.544  -0.298  1.00  0.00    -0.285 OA
BRANCH  20  22
ATOM     22  C   UNL     1       2.264  -0.814   0.184  1.00  0.00     0.113 A 
ATOM     23  C   UNL     1      -0.403   1.443   1.674  1.00  0.00     0.044 C 
ATOM     24  C   UNL     1       0.922   0.973   1.123  1.00  0.00    -0.047 A 
ATOM     25  C   UNL     1       1.674   1.891   0.402  1.00  0.00     0.023 A 
ATOM     26  C   UNL     1       1.308  -0.394   1.113  1.00  0.00     0.036 A 
ATOM     27  C   UNL     1       2.719   1.409  -0.357  1.00  0.00     0.112 A 
ATOM     28  N   UNL     1       3.005   0.095  -0.508  1.00  0.00    -0.253 NA
ENDBRANCH  20  22
ENDBRANCH   9  20
ENDBRANCH   7   8
ENDBRANCH   5   7
ENDBRANCH   4   5
ENDBRANCH   3   4
ENDBRANCH   2   3
ENDBRANCH   1   2
BRANCH   1  29
ATOM     29  C   UNL     1      -1.071  -1.088  -0.689  1.00  0.00     0.202 C 
BRANCH  29  30
ATOM     30  C   UNL     1      -1.351  -2.174   0.350  1.00  0.00     0.261 C 
BRANCH  30  31
ATOM     31  O   UNL     1      -2.138  -1.549   1.339  1.00  0.00    -0.460 OA
BRANCH  31  32
ATOM     32  C   UNL     1      -2.118  -1.879   2.653  1.00  0.00     0.338 C 
ATOM     33  O   UNL     1      -1.328  -2.478   3.293  1.00  0.00    -0.246 OA
BRANCH  32  34
ATOM     34  C   UNL     1      -3.426  -1.247   2.998  1.00  0.00     0.060 A 
ATOM     35  C   UNL     1      -4.459  -1.849   2.265  1.00  0.00     0.016 A 
ATOM     36  C   UNL     1      -3.341   0.152   3.130  1.00  0.00     0.016 A 
ATOM     37  C   UNL     1      -5.162  -1.047   1.388  1.00  0.00     0.010 A 
ATOM     38  C   UNL     1      -4.096   0.959   2.283  1.00  0.00     0.010 A 
ATOM     39  C   UNL     1      -4.955   0.349   1.369  1.00  0.00    -0.014 A 
BRANCH  39  40
ATOM     40  C   UNL     1      -5.973   1.085   0.633  1.00  0.00     0.031 A 
ATOM     41  C   UNL     1      -7.286   0.888   1.296  1.00  0.00     0.074 A 
ATOM     42  C   UNL     1      -5.895   1.876  -0.448  1.00  0.00     0.049 A 
ATOM     43  N   UNL     1      -8.253   0.127   0.904  1.00  0.00    -0.248 NA
ATOM     44  C   UNL     1      -7.411   1.399   2.669  1.00  0.00     0.031 C 
ATOM     45  C   UNL     1      -4.743   2.486  -1.100  1.00  0.00     0.029 A 
ATOM     46  N   UNL     1      -6.953   2.353  -1.166  1.00  0.00    -0.354 N 
ATOM     47  C   UNL     1      -9.186   0.176   1.927  1.00  0.00     0.074 A 
ATOM     48  C   UNL     1      -8.548   0.821   3.047  1.00  0.00     0.031 C 
ATOM     49  C   UNL     1      -5.186   3.419  -1.981  1.00  0.00     0.029 A 
ATOM     50  C   UNL     1      -6.642   3.373  -2.046  1.00  0.00     0.049 A 
ATOM     51  H   UNL     1      -7.866   1.998  -1.065  1.00  0.00     0.167 HD
ATOM     52  C   UNL     1     -10.490  -0.145   1.736  1.00  0.00     0.037 A 
ATOM     53  C   UNL     1      -7.547   4.160  -2.683  1.00  0.00     0.037 A 
ATOM     54  C   UNL     1     -10.703  -0.895   0.530  1.00  0.00     0.049 A 
ATOM     55  C   UNL     1      -8.853   3.438  -2.696  1.00  0.00     0.074 A 
ATOM     56  C   UNL     1     -10.262  -2.121   0.064  1.00  0.00     0.029 A 
ATOM     57  N   UNL     1     -11.180  -0.230  -0.574  1.00  0.00    -0.354 N 
ATOM     58  N   UNL     1      -9.099   2.366  -3.397  1.00  0.00    -0.248 NA
ATOM     59  C   UNL     1      -9.789   3.693  -1.609  1.00  0.00     0.031 C 
ATOM     60  C   UNL     1     -10.066  -1.944  -1.337  1.00  0.00     0.029 A 
ATOM     61  C   UNL     1     -10.414  -0.628  -1.643  1.00  0.00     0.049 A 
ATOM     62  H   UNL     1     -11.927   0.410  -0.594  1.00  0.00     0.167 HD
ATOM     63  C   UNL     1      -9.955   1.608  -2.611  1.00  0.00     0.074 A 
ATOM     64  C   UNL     1     -10.418   2.516  -1.568  1.00  0.00     0.031 C 
ATOM     65  C   UNL     1     -10.010   0.248  -2.721  1.00  0.00     0.037 A 
BRANCH  52  66
ATOM     66  C   UNL     1     -11.581   0.518   2.518  1.00  0.00     0.058 A 
ATOM     67  C   UNL     1     -12.861  -0.054   2.577  1.00  0.00     0.135 A 
ATOM     68  C   UNL     1     -11.461   1.833   3.026  1.00  0.00     0.135 A 
ATOM     69  F   UNL     1     -13.082  -1.283   2.084  1.00  0.00    -0.206 F 
ATOM     70  C   UNL     1     -13.955   0.645   3.084  1.00  0.00     0.059 A 
ATOM     71  C   UNL     1     -12.519   2.520   3.597  1.00  0.00     0.059 A 
ATOM     72  F   UNL     1     -10.331   2.543   2.902  1.00  0.00    -0.206 F 
ATOM     73  C   UNL     1     -13.772   1.935   3.583  1.00  0.00     0.060 A 
BRANCH  73  74
ATOM     74  S   UNL     1     -15.196   2.885   4.135  1.00  0.00     0.124 S 
ATOM     75  O   UNL     1     -15.853   3.179   2.867  1.00  0.00    -0.237 OA
ATOM     76  O   UNL     1     -15.878   1.934   5.006  1.00  0.00    -0.237 OA
ATOM     77  O   UNL     1     -14.593   4.028   4.816  1.00  0.00    -0.744 OA
ENDBRANCH  73  74
ENDBRANCH  52  66
BRANCH  53  78
ATOM     78  C   UNL     1      -7.463   5.619  -2.961  1.00  0.00     0.058 A 
ATOM     79  C   UNL     1      -8.412   6.253  -3.784  1.00  0.00     0.135 A 
ATOM     80  C   UNL     1      -6.644   6.467  -2.190  1.00  0.00     0.135 A 
ATOM     81  F   UNL     1      -9.249   5.523  -4.539  1.00  0.00    -0.206 F 
ATOM     82  C   UNL     1      -8.584   7.641  -3.793  1.00  0.00     0.059 A 
ATOM     83  C   UNL     1      -6.787   7.853  -2.194  1.00  0.00     0.059 A 
ATOM     84  F   UNL     1      -5.744   5.971  -1.329  1.00  0.00    -0.206 F 
ATOM     85  C   UNL     1      -7.780   8.431  -2.973  1.00  0.00     0.060 A 
BRANCH  85  86
ATOM     86  S   UNL     1      -8.126  10.199  -2.829  1.00  0.00     0.124 S 
ATOM     87  O   UNL     1      -7.755  10.688  -4.152  1.00  0.00    -0.237 OA
ATOM     88  O   UNL     1      -9.552  10.208  -2.521  1.00  0.00    -0.237 OA
ATOM     89  O   UNL     1      -7.254  10.626  -1.737  1.00  0.00    -0.744 OA
ENDBRANCH  85  86
ENDBRANCH  53  78
BRANCH  65  90
ATOM     90  C   UNL     1      -9.378  -0.391  -3.930  1.00  0.00     0.058 A 
ATOM     91  C   UNL     1      -8.011  -0.304  -4.248  1.00  0.00     0.135 A 
ATOM     92  C   UNL     1     -10.172  -1.224  -4.736  1.00  0.00     0.135 A 
ATOM     93  F   UNL     1      -7.161   0.376  -3.464  1.00  0.00    -0.206 F 
ATOM     94  C   UNL     1      -7.472  -0.968  -5.350  1.00  0.00     0.059 A 
ATOM     95  C   UNL     1      -9.647  -1.924  -5.819  1.00  0.00     0.059 A 
ATOM     96  F   UNL     1     -11.473  -1.399  -4.447  1.00  0.00    -0.206 F 
ATOM     97  C   UNL     1      -8.298  -1.777  -6.131  1.00  0.00     0.060 A 
BRANCH  97  98
ATOM     98  S   UNL     1      -7.575  -2.692  -7.510  1.00  0.00     0.124 S 
ATOM     99  O   UNL     1      -7.301  -1.630  -8.472  1.00  0.00    -0.237 OA
ATOM    100  O   UNL     1      -6.403  -3.310  -6.894  1.00  0.00    -0.237 OA
ATOM    101  O   UNL     1      -8.632  -3.625  -7.892  1.00  0.00    -0.744 OA
ENDBRANCH  97  98
ENDBRANCH  65  90
ENDBRANCH  39  40
ENDBRANCH  32  34
ENDBRANCH  31  32
ENDBRANCH  30  31
ENDBRANCH  29  30
ENDBRANCH   1  29
TORSDOF 20
