REMARK SMILES COc1ccc(-n2ccnc2C[N@@H+]2Cc3[nH]cnc3C[C@H]2C(=O)OCCOCCOC(=O)c2ccc(-c3c4nc(c(-c5c(F)cc(S(=O)(=O)[O-])cc5F)c5ccc([nH]5)c(-c5c(F)cc(S(=O)(=O)[O-])cc5F)c5nc(c(-c6c(F)cc(S(=O)(=O)[O-])cc6F)c6ccc3[nH]6)C=C5)C=C4)cc2)cc1
REMARK SMILES IDX 26 1 25 2 24 3 22 4 23 5 21 6 13 7 14 8 15 10 20 11 16 12
REMARK SMILES IDX 19 13 17 14 18 16 12 17 11 18 7 19 8 20 9 21 10 22 6 23 3 24
REMARK SMILES IDX 4 25 100 26 5 27 99 28 2 29 1 30 27 31 28 32 29 33 30 34
REMARK SMILES IDX 31 35 32 36 33 37 34 38 98 39 35 40 97 41 36 42 37 43 38 44
REMARK SMILES IDX 91 45 39 46 96 47 90 48 92 49 40 50 95 51 89 52 88 53 41 55
REMARK SMILES IDX 75 56 54 57 74 58 55 59 58 60 73 61 93 62 56 63 57 64 72 66
REMARK SMILES IDX 94 67 59 68 42 69 43 70 52 71 44 72 45 73 51 74 53 75 46 76
REMARK SMILES IDX 47 77 48 78 49 79 50 80 76 81 77 82 86 83 78 84 79 85 85 86
REMARK SMILES IDX 87 87 80 88 81 89 82 90 83 91 84 92 60 93 61 94 70 95 62 96
REMARK SMILES IDX 63 97 69 98 71 99 64 100 65 101 66 102 67 103 68 104
REMARK H PARENT 13 9 16 15 92 54 58 65
REMARK Flexibility Score: inf
ROOT
ATOM      1  C   UNL     1       0.573 -10.541   5.238  1.00  0.00     0.202 C 
ENDROOT
BRANCH   1   2
ATOM      2  C   UNL     1       0.152  -9.760   3.997  1.00  0.00     0.261 C 
BRANCH   2   3
ATOM      3  O   UNL     1       0.358  -8.345   4.118  1.00  0.00    -0.459 OA
BRANCH   3   4
ATOM      4  C   UNL     1      -0.774  -7.591   4.170  1.00  0.00     0.365 C 
ATOM      5  O   UNL     1      -1.914  -8.045   4.225  1.00  0.00    -0.245 OA
BRANCH   4   6
ATOM      6  C   UNL     1      -0.508  -6.104   3.991  1.00  0.00     0.301 C 
ATOM      7  N   UNL     1       0.579  -5.577   4.926  1.00  0.00    -0.312 N 
ATOM      8  C   UNL     1       1.899  -5.498   4.259  1.00  0.00     0.320 C 
ATOM      9  H   UNL     1       0.693  -6.235   5.697  1.00  0.00     0.349 HD
ATOM     10  C   UNL     1       1.746  -4.803   2.969  1.00  0.00     0.093 A 
ATOM     11  C   UNL     1      -0.390  -5.924   2.442  1.00  0.00     0.136 C 
ATOM     12  N   UNL     1       2.496  -3.817   2.410  1.00  0.00    -0.344 N 
ATOM     13  C   UNL     1       0.687  -4.979   2.122  1.00  0.00     0.074 A 
ATOM     14  C   UNL     1       1.849  -3.442   1.260  1.00  0.00     0.197 A 
ATOM     15  H   UNL     1       3.338  -3.445   2.762  1.00  0.00     0.167 HD
ATOM     16  N   UNL     1       0.750  -4.138   1.054  1.00  0.00    -0.241 NA
BRANCH   7  17
ATOM     17  C   UNL     1       0.155  -4.250   5.470  1.00  0.00     0.340 C 
BRANCH  17  18
ATOM     18  C   UNL     1       1.192  -3.517   6.298  1.00  0.00     0.168 A 
ATOM     19  N   UNL     1       1.825  -2.330   5.914  1.00  0.00    -0.299 N 
ATOM     20  C   UNL     1       2.899  -2.175   6.762  1.00  0.00     0.113 A 
ATOM     21  C   UNL     1       2.779  -3.162   7.708  1.00  0.00     0.132 A 
ATOM     22  N   UNL     1       1.728  -3.986   7.415  1.00  0.00    -0.236 NA
BRANCH  19  23
ATOM     23  C   UNL     1       1.509  -1.467   4.832  1.00  0.00     0.047 A 
ATOM     24  C   UNL     1       0.877   0.021   2.553  1.00  0.00     0.119 A 
ATOM     25  C   UNL     1      -0.136  -0.417   3.402  1.00  0.00     0.048 A 
ATOM     26  C   UNL     1       2.213  -0.198   2.891  1.00  0.00     0.048 A 
ATOM     27  C   UNL     1       0.175  -1.167   4.538  1.00  0.00     0.030 A 
ATOM     28  C   UNL     1       2.534  -0.924   4.045  1.00  0.00     0.030 A 
BRANCH  24  29
ATOM     29  O   UNL     1       0.495   0.742   1.454  1.00  0.00    -0.497 OA
ATOM     30  C   UNL     1       1.012   0.215   0.233  1.00  0.00     0.278 C 
ENDBRANCH  24  29
ENDBRANCH  19  23
ENDBRANCH  17  18
ENDBRANCH   7  17
ENDBRANCH   4   6
ENDBRANCH   3   4
ENDBRANCH   2   3
ENDBRANCH   1   2
BRANCH   1  31
ATOM     31  O   UNL     1      -0.182 -10.356   6.433  1.00  0.00    -0.374 OA
BRANCH  31  32
ATOM     32  C   UNL     1      -0.204  -9.081   7.067  1.00  0.00     0.202 C 
BRANCH  32  33
ATOM     33  C   UNL     1       1.084  -8.557   7.682  1.00  0.00     0.261 C 
BRANCH  33  34
ATOM     34  O   UNL     1       2.124  -8.404   6.728  1.00  0.00    -0.460 OA
BRANCH  34  35
ATOM     35  C   UNL     1       3.087  -9.345   6.841  1.00  0.00     0.338 C 
ATOM     36  O   UNL     1       2.977 -10.461   7.314  1.00  0.00    -0.246 OA
BRANCH  35  37
ATOM     37  C   UNL     1       4.372  -8.751   6.476  1.00  0.00     0.060 A 
ATOM     38  C   UNL     1       5.472  -9.608   6.523  1.00  0.00     0.016 A 
ATOM     39  C   UNL     1       4.505  -7.354   6.455  1.00  0.00     0.016 A 
ATOM     40  C   UNL     1       6.701  -9.057   6.788  1.00  0.00     0.010 A 
ATOM     41  C   UNL     1       5.736  -6.806   6.713  1.00  0.00     0.010 A 
ATOM     42  C   UNL     1       6.794  -7.672   6.969  1.00  0.00    -0.014 A 
BRANCH  42  43
ATOM     43  C   UNL     1       8.092  -7.131   7.302  1.00  0.00     0.031 A 
ATOM     44  C   UNL     1       9.001  -7.218   6.143  1.00  0.00     0.074 A 
ATOM     45  C   UNL     1       8.362  -6.558   8.490  1.00  0.00     0.049 A 
ATOM     46  N   UNL     1       9.950  -8.073   5.957  1.00  0.00    -0.248 NA
ATOM     47  C   UNL     1       8.642  -6.453   4.935  1.00  0.00     0.031 C 
ATOM     48  C   UNL     1       7.411  -6.206   9.550  1.00  0.00     0.029 A 
ATOM     49  N   UNL     1       9.542  -6.074   8.967  1.00  0.00    -0.354 N 
ATOM     50  C   UNL     1      10.502  -7.725   4.730  1.00  0.00     0.074 A 
ATOM     51  C   UNL     1       9.507  -6.946   4.047  1.00  0.00     0.031 C 
ATOM     52  C   UNL     1       8.007  -5.361  10.423  1.00  0.00     0.029 A 
ATOM     53  C   UNL     1       9.410  -5.230  10.067  1.00  0.00     0.049 A 
ATOM     54  H   UNL     1      10.413  -6.301   8.569  1.00  0.00     0.167 HD
ATOM     55  C   UNL     1      11.851  -7.767   4.563  1.00  0.00     0.037 A 
ATOM     56  C   UNL     1      10.386  -4.442  10.587  1.00  0.00     0.037 A 
ATOM     57  C   UNL     1      12.460  -8.559   5.603  1.00  0.00     0.049 A 
ATOM     58  C   UNL     1      11.683  -5.013  10.145  1.00  0.00     0.074 A 
ATOM     59  C   UNL     1      12.486  -9.891   5.956  1.00  0.00     0.029 A 
ATOM     60  N   UNL     1      12.819  -7.833   6.709  1.00  0.00    -0.354 N 
ATOM     61  N   UNL     1      12.122  -6.182  10.528  1.00  0.00    -0.248 NA
ATOM     62  C   UNL     1      12.334  -4.463   8.962  1.00  0.00     0.031 C 
ATOM     63  C   UNL     1      12.676  -9.919   7.370  1.00  0.00     0.029 A 
ATOM     64  C   UNL     1      12.819  -8.611   7.834  1.00  0.00     0.049 A 
ATOM     65  H   UNL     1      13.048  -6.876   6.696  1.00  0.00     0.167 HD
ATOM     66  C   UNL     1      12.774  -6.691   9.419  1.00  0.00     0.074 A 
ATOM     67  C   UNL     1      13.015  -5.539   8.558  1.00  0.00     0.031 C 
ATOM     68  C   UNL     1      12.762  -8.031   9.161  1.00  0.00     0.037 A 
BRANCH  55  69
ATOM     69  C   UNL     1      12.637  -6.689   3.838  1.00  0.00     0.058 A 
ATOM     70  C   UNL     1      14.022  -6.873   3.644  1.00  0.00     0.135 A 
ATOM     71  C   UNL     1      12.165  -5.378   3.598  1.00  0.00     0.135 A 
ATOM     72  F   UNL     1      14.588  -8.069   3.868  1.00  0.00    -0.206 F 
ATOM     73  C   UNL     1      14.874  -5.825   3.287  1.00  0.00     0.059 A 
ATOM     74  C   UNL     1      12.985  -4.335   3.190  1.00  0.00     0.059 A 
ATOM     75  F   UNL     1      10.904  -5.002   3.835  1.00  0.00    -0.206 F 
ATOM     76  C   UNL     1      14.343  -4.557   3.067  1.00  0.00     0.060 A 
BRANCH  76  77
ATOM     77  S   UNL     1      15.433  -3.187   2.652  1.00  0.00     0.124 S 
ATOM     78  O   UNL     1      16.161  -3.004   3.901  1.00  0.00    -0.237 OA
ATOM     79  O   UNL     1      16.195  -3.739   1.536  1.00  0.00    -0.237 OA
ATOM     80  O   UNL     1      14.503  -2.118   2.298  1.00  0.00    -0.744 OA
ENDBRANCH  76  77
ENDBRANCH  55  69
BRANCH  56  81
ATOM     81  C   UNL     1      10.276  -3.062  11.135  1.00  0.00     0.058 A 
ATOM     82  C   UNL     1      11.349  -2.466  11.826  1.00  0.00     0.135 A 
ATOM     83  C   UNL     1       9.245  -2.193  10.726  1.00  0.00     0.135 A 
ATOM     84  F   UNL     1      12.382  -3.215  12.242  1.00  0.00    -0.206 F 
ATOM     85  C   UNL     1      11.430  -1.084  12.036  1.00  0.00     0.059 A 
ATOM     86  C   UNL     1       9.300  -0.814  10.932  1.00  0.00     0.059 A 
ATOM     87  F   UNL     1       8.197  -2.646  10.023  1.00  0.00    -0.206 F 
ATOM     88  C   UNL     1      10.409  -0.262  11.561  1.00  0.00     0.060 A 
BRANCH  88  89
ATOM     89  S   UNL     1      10.596   1.537  11.651  1.00  0.00     0.124 S 
ATOM     90  O   UNL     1      10.470   1.782  13.083  1.00  0.00    -0.237 OA
ATOM     91  O   UNL     1      11.924   1.738  11.083  1.00  0.00    -0.237 OA
ATOM     92  O   UNL     1       9.491   2.032  10.833  1.00  0.00    -0.744 OA
ENDBRANCH  88  89
ENDBRANCH  56  81
BRANCH  68  93
ATOM     93  C   UNL     1      12.572  -8.962  10.323  1.00  0.00     0.058 A 
ATOM     94  C   UNL     1      11.406  -9.081  11.098  1.00  0.00     0.135 A 
ATOM     95  C   UNL     1      13.629  -9.840  10.609  1.00  0.00     0.135 A 
ATOM     96  F   UNL     1      10.321  -8.338  10.832  1.00  0.00    -0.206 F 
ATOM     97  C   UNL     1      11.318 -10.007  12.143  1.00  0.00     0.059 A 
ATOM     98  C   UNL     1      13.550 -10.790  11.618  1.00  0.00     0.059 A 
ATOM     99  F   UNL     1      14.752  -9.804   9.871  1.00  0.00    -0.206 F 
ATOM    100  C   UNL     1      12.398 -10.856  12.395  1.00  0.00     0.060 A 
BRANCH 100 101
ATOM    101  S   UNL     1      12.281 -12.079  13.718  1.00  0.00     0.124 S 
ATOM    102  O   UNL     1      12.300 -11.241  14.912  1.00  0.00    -0.237 OA
ATOM    103  O   UNL     1      11.013 -12.740  13.425  1.00  0.00    -0.237 OA
ATOM    104  O   UNL     1      13.467 -12.909  13.521  1.00  0.00    -0.744 OA
ENDBRANCH 100 101
ENDBRANCH  68  93
ENDBRANCH  42  43
ENDBRANCH  35  37
ENDBRANCH  34  35
ENDBRANCH  33  34
ENDBRANCH  32  33
ENDBRANCH  31  32
ENDBRANCH   1  31
TORSDOF 21
