REMARK SMILES O=C(OCCOCCOC(=O)c1ccc(-n2cnc3ccccc32)nc1)c1ccc(-c2c3nc(c(-c4c(F)cc(S(=O)(=O)[O-])cc4F)c4ccc([nH]4)c(-c4c(F)cc(S(=O)(=O)[O-])cc4F)c4nc(c(-c5c(F)cc(S(=O)(=O)[O-])cc5F)c5ccc2[nH]5)C=C4)C=C3)cc1
REMARK SMILES IDX 5 1 4 2 3 3 2 4 1 5 27 6 28 7 92 8 29 9 91 10 30 11 31 12
REMARK SMILES IDX 32 13 85 14 33 15 90 16 84 17 86 18 34 19 89 20 83 21 82 22
REMARK SMILES IDX 35 24 69 25 48 26 68 27 49 28 52 29 67 30 87 31 50 32 51 33
REMARK SMILES IDX 66 35 88 36 53 37 36 38 37 39 46 40 38 41 39 42 45 43 47 44
REMARK SMILES IDX 40 45 41 46 42 47 43 48 44 49 70 50 71 51 80 52 72 53 73 54
REMARK SMILES IDX 79 55 81 56 74 57 75 58 76 59 77 60 78 61 54 62 55 63 64 64
REMARK SMILES IDX 56 65 57 66 63 67 65 68 58 69 59 70 60 71 61 72 62 73 6 74
REMARK SMILES IDX 7 75 8 76 9 77 10 78 11 79 12 80 13 81 26 82 14 83 25 84
REMARK SMILES IDX 15 85 16 86 17 87 24 88 18 89 19 90 23 91 20 92 22 93 21 94
REMARK H PARENT 86 23 52 34
REMARK Flexibility Score: inf
ROOT
ATOM      1  C   UNL     1       2.857   0.838  -1.247  1.00  0.00     0.202 C 
ENDROOT
BRANCH   1   2
ATOM      2  C   UNL     1       3.345  -0.578  -1.579  1.00  0.00     0.261 C 
BRANCH   2   3
ATOM      3  O   UNL     1       2.749  -1.659  -0.821  1.00  0.00    -0.460 OA
BRANCH   3   4
ATOM      4  C   UNL     1       2.876  -1.893   0.517  1.00  0.00     0.338 C 
ATOM      5  O   UNL     1       2.223  -2.779   1.061  1.00  0.00    -0.246 OA
BRANCH   4   6
ATOM      6  C   UNL     1       3.765  -1.033   1.337  1.00  0.00     0.060 A 
ATOM      7  C   UNL     1       3.262  -0.477   2.526  1.00  0.00     0.016 A 
ATOM      8  C   UNL     1       5.048  -0.706   0.907  1.00  0.00     0.016 A 
ATOM      9  C   UNL     1       3.996   0.496   3.211  1.00  0.00     0.010 A 
ATOM     10  C   UNL     1       5.736   0.322   1.538  1.00  0.00     0.010 A 
ATOM     11  C   UNL     1       5.216   0.935   2.689  1.00  0.00    -0.014 A 
BRANCH  11  12
ATOM     12  C   UNL     1       6.125   1.772   3.484  1.00  0.00     0.031 A 
ATOM     13  C   UNL     1       7.006   0.965   4.353  1.00  0.00     0.074 A 
ATOM     14  C   UNL     1       6.340   3.104   3.435  1.00  0.00     0.049 A 
ATOM     15  N   UNL     1       6.931   0.917   5.642  1.00  0.00    -0.248 NA
ATOM     16  C   UNL     1       7.967   0.025   3.761  1.00  0.00     0.031 C 
ATOM     17  C   UNL     1       5.651   4.104   2.639  1.00  0.00     0.029 A 
ATOM     18  N   UNL     1       7.322   3.847   4.040  1.00  0.00    -0.354 N 
ATOM     19  C   UNL     1       7.983   0.113   6.032  1.00  0.00     0.074 A 
ATOM     20  C   UNL     1       8.453  -0.566   4.851  1.00  0.00     0.031 C 
ATOM     21  C   UNL     1       6.384   5.235   2.557  1.00  0.00     0.029 A 
ATOM     22  C   UNL     1       7.497   5.110   3.479  1.00  0.00     0.049 A 
ATOM     23  H   UNL     1       7.854   3.518   4.800  1.00  0.00     0.167 HD
ATOM     24  C   UNL     1       8.584   0.275   7.236  1.00  0.00     0.037 A 
ATOM     25  C   UNL     1       8.424   6.045   3.793  1.00  0.00     0.037 A 
ATOM     26  C   UNL     1       7.830   1.112   8.130  1.00  0.00     0.049 A 
ATOM     27  C   UNL     1       8.735   5.854   5.226  1.00  0.00     0.074 A 
ATOM     28  C   UNL     1       6.563   1.065   8.675  1.00  0.00     0.029 A 
ATOM     29  N   UNL     1       8.278   2.399   8.297  1.00  0.00    -0.354 N 
ATOM     30  N   UNL     1       7.886   6.099   6.187  1.00  0.00    -0.248 NA
ATOM     31  C   UNL     1       9.908   5.083   5.612  1.00  0.00     0.031 C 
ATOM     32  C   UNL     1       6.156   2.420   8.838  1.00  0.00     0.029 A 
ATOM     33  C   UNL     1       7.196   3.239   8.396  1.00  0.00     0.049 A 
ATOM     34  H   UNL     1       9.222   2.675   8.339  1.00  0.00     0.167 HD
ATOM     35  C   UNL     1       8.177   5.149   7.148  1.00  0.00     0.074 A 
ATOM     36  C   UNL     1       9.520   4.687   6.827  1.00  0.00     0.031 C 
ATOM     37  C   UNL     1       7.191   4.610   7.921  1.00  0.00     0.037 A 
BRANCH  24  38
ATOM     38  C   UNL     1      10.037  -0.024   7.427  1.00  0.00     0.058 A 
ATOM     39  C   UNL     1      10.530  -0.349   8.697  1.00  0.00     0.135 A 
ATOM     40  C   UNL     1      10.997   0.214   6.417  1.00  0.00     0.135 A 
ATOM     41  F   UNL     1       9.688  -0.530   9.727  1.00  0.00    -0.206 F 
ATOM     42  C   UNL     1      11.897  -0.439   8.950  1.00  0.00     0.059 A 
ATOM     43  C   UNL     1      12.358   0.067   6.628  1.00  0.00     0.059 A 
ATOM     44  F   UNL     1      10.647   0.682   5.209  1.00  0.00    -0.206 F 
ATOM     45  C   UNL     1      12.800  -0.228   7.907  1.00  0.00     0.060 A 
BRANCH  45  46
ATOM     46  S   UNL     1      14.568  -0.282   8.240  1.00  0.00     0.124 S 
ATOM     47  O   UNL     1      14.777   1.013   8.878  1.00  0.00    -0.237 OA
ATOM     48  O   UNL     1      14.684  -1.450   9.107  1.00  0.00    -0.237 OA
ATOM     49  O   UNL     1      15.151  -0.437   6.910  1.00  0.00    -0.744 OA
ENDBRANCH  45  46
ENDBRANCH  24  38
BRANCH  25  50
ATOM     50  C   UNL     1       9.126   7.026   2.927  1.00  0.00     0.058 A 
ATOM     51  C   UNL     1       9.929   8.038   3.484  1.00  0.00     0.135 A 
ATOM     52  C   UNL     1       9.268   6.814   1.540  1.00  0.00     0.135 A 
ATOM     53  F   UNL     1       9.865   8.312   4.795  1.00  0.00    -0.206 F 
ATOM     54  C   UNL     1      10.876   8.739   2.732  1.00  0.00     0.059 A 
ATOM     55  C   UNL     1      10.202   7.508   0.767  1.00  0.00     0.059 A 
ATOM     56  F   UNL     1       8.563   5.861   0.912  1.00  0.00    -0.206 F 
ATOM     57  C   UNL     1      11.028   8.444   1.379  1.00  0.00     0.060 A 
BRANCH  57  58
ATOM     58  S   UNL     1      12.400   9.193   0.469  1.00  0.00     0.124 S 
ATOM     59  O   UNL     1      11.975  10.585   0.377  1.00  0.00    -0.237 OA
ATOM     60  O   UNL     1      13.533   8.929   1.351  1.00  0.00    -0.237 OA
ATOM     61  O   UNL     1      12.412   8.456  -0.791  1.00  0.00    -0.744 OA
ENDBRANCH  57  58
ENDBRANCH  25  50
BRANCH  37  62
ATOM     62  C   UNL     1       5.915   5.394   8.088  1.00  0.00     0.058 A 
ATOM     63  C   UNL     1       4.993   5.655   7.060  1.00  0.00     0.135 A 
ATOM     64  C   UNL     1       5.552   5.785   9.387  1.00  0.00     0.135 A 
ATOM     65  F   UNL     1       5.220   5.244   5.804  1.00  0.00    -0.206 F 
ATOM     66  C   UNL     1       3.777   6.296   7.310  1.00  0.00     0.059 A 
ATOM     67  C   UNL     1       4.333   6.399   9.664  1.00  0.00     0.059 A 
ATOM     68  F   UNL     1       6.371   5.524  10.420  1.00  0.00    -0.206 F 
ATOM     69  C   UNL     1       3.452   6.658   8.618  1.00  0.00     0.060 A 
BRANCH  69  70
ATOM     70  S   UNL     1       1.830   7.382   8.952  1.00  0.00     0.124 S 
ATOM     71  O   UNL     1       1.986   8.738   8.436  1.00  0.00    -0.237 OA
ATOM     72  O   UNL     1       0.932   6.516   8.192  1.00  0.00    -0.237 OA
ATOM     73  O   UNL     1       1.701   7.276  10.403  1.00  0.00    -0.744 OA
ENDBRANCH  69  70
ENDBRANCH  37  62
ENDBRANCH  11  12
ENDBRANCH   4   6
ENDBRANCH   3   4
ENDBRANCH   2   3
ENDBRANCH   1   2
BRANCH   1  74
ATOM     74  O   UNL     1       2.330   0.910   0.064  1.00  0.00    -0.374 OA
BRANCH  74  75
ATOM     75  C   UNL     1       1.419   1.961   0.356  1.00  0.00     0.202 C 
BRANCH  75  76
ATOM     76  C   UNL     1       2.029   3.083   1.199  1.00  0.00     0.261 C 
BRANCH  76  77
ATOM     77  O   UNL     1       2.688   4.042   0.355  1.00  0.00    -0.460 OA
BRANCH  77  78
ATOM     78  C   UNL     1       3.938   3.709  -0.009  1.00  0.00     0.339 C 
ATOM     79  O   UNL     1       4.575   2.717   0.335  1.00  0.00    -0.246 OA
BRANCH  78  80
ATOM     80  C   UNL     1       4.453   4.600  -1.028  1.00  0.00     0.078 A 
ATOM     81  C   UNL     1       4.019   5.910  -1.197  1.00  0.00     0.021 A 
ATOM     82  C   UNL     1       5.393   4.068  -1.902  1.00  0.00     0.129 A 
ATOM     83  C   UNL     1       4.569   6.648  -2.235  1.00  0.00     0.048 A 
ATOM     84  N   UNL     1       5.862   4.726  -2.975  1.00  0.00    -0.238 NA
ATOM     85  C   UNL     1       5.486   6.021  -3.083  1.00  0.00     0.138 A 
BRANCH  85  86
ATOM     86  N   UNL     1       6.092   6.768  -4.106  1.00  0.00    -0.283 N 
ATOM     87  C   UNL     1       6.363   6.309  -5.370  1.00  0.00     0.206 A 
ATOM     88  C   UNL     1       6.606   8.042  -4.007  1.00  0.00     0.074 A 
ATOM     89  N   UNL     1       6.858   7.253  -6.140  1.00  0.00    -0.236 NA
ATOM     90  C   UNL     1       7.065   8.317  -5.292  1.00  0.00     0.089 A 
ATOM     91  C   UNL     1       6.804   8.911  -2.924  1.00  0.00     0.029 A 
ATOM     92  C   UNL     1       7.686   9.548  -5.542  1.00  0.00     0.030 A 
ATOM     93  C   UNL     1       7.462  10.112  -3.184  1.00  0.00     0.002 A 
ATOM     94  C   UNL     1       7.885  10.434  -4.474  1.00  0.00     0.002 A 
ENDBRANCH  85  86
ENDBRANCH  78  80
ENDBRANCH  77  78
ENDBRANCH  76  77
ENDBRANCH  75  76
ENDBRANCH  74  75
ENDBRANCH   1  74
TORSDOF 18
