REMARK SMILES C[C@@H]1[C@@H](C)CC[C@H]1[NH2+][C@@H](C)[C@@H](C)C(=O)OCCOCCOC(=O)c1ccc(-c2c3nc(c(-c4c(F)cc(S(=O)(=O)[O-])cc4F)c4ccc([nH]4)c(-c4c(F)cc(S(=O)(=O)[O-])cc4F)c4nc(c(-c5c(F)cc(S(=O)(=O)[O-])cc5F)c5ccc2[nH]5)C=C4)C=C3)cc1
REMARK SMILES IDX 18 1 17 2 16 3 15 4 13 5 14 6 11 7 12 8 9 9 10 10 8 11 7 14
REMARK SMILES IDX 1 15 2 16 3 17 5 18 4 19 6 20 19 21 20 22 21 23 22 24 23 25
REMARK SMILES IDX 24 26 25 27 89 28 26 29 88 30 27 31 28 32 29 33 82 34 30 35
REMARK SMILES IDX 87 36 81 37 83 38 31 39 86 40 80 41 79 42 32 44 66 45 45 46
REMARK SMILES IDX 65 47 46 48 49 49 64 50 84 51 47 52 48 53 63 55 85 56 50 57
REMARK SMILES IDX 33 58 34 59 43 60 35 61 36 62 42 63 44 64 37 65 38 66 39 67
REMARK SMILES IDX 40 68 41 69 67 70 68 71 77 72 69 73 70 74 76 75 78 76 71 77
REMARK SMILES IDX 72 78 73 79 74 80 75 81 51 82 52 83 61 84 53 85 54 86 60 87
REMARK SMILES IDX 62 88 55 89 56 90 57 91 58 92 59 93
REMARK H PARENT 8 12 8 13 83 43 49 54
REMARK Flexibility Score: inf
ROOT
ATOM      1  O   UNL     1       4.680   1.494   8.666  1.00  0.00    -0.374 OA
ENDROOT
BRANCH   1   2
ATOM      2  C   UNL     1       5.644   0.812   7.860  1.00  0.00     0.202 C 
BRANCH   2   3
ATOM      3  C   UNL     1       5.227  -0.552   7.296  1.00  0.00     0.261 C 
BRANCH   3   4
ATOM      4  O   UNL     1       4.410  -0.445   6.107  1.00  0.00    -0.463 OA
BRANCH   4   5
ATOM      5  C   UNL     1       3.149  -0.938   6.197  1.00  0.00     0.314 C 
ATOM      6  O   UNL     1       2.666  -1.418   7.219  1.00  0.00    -0.252 OA
BRANCH   5   7
ATOM      7  C   UNL     1       2.366  -0.909   4.886  1.00  0.00     0.154 C 
ATOM      8  C   UNL     1       2.608  -2.239   4.168  1.00  0.00     0.026 C 
BRANCH   7   9
ATOM      9  C   UNL     1       2.555   0.308   3.929  1.00  0.00     0.193 C 
ATOM     10  C   UNL     1       2.687   1.616   4.690  1.00  0.00     0.076 C 
BRANCH   9  11
ATOM     11  N   UNL     1       1.400   0.347   3.004  1.00  0.00    -0.341 N 
ATOM     12  H   UNL     1       1.315  -0.578   2.582  1.00  0.00     0.346 HD
ATOM     13  H   UNL     1       0.613   0.637   3.584  1.00  0.00     0.346 HD
BRANCH  11  14
ATOM     14  C   UNL     1       1.437   1.324   1.913  1.00  0.00     0.185 C 
ATOM     15  C   UNL     1       0.823  -0.235  -0.032  1.00  0.00     0.014 C 
ATOM     16  C   UNL     1       0.393   0.940   0.838  1.00  0.00     0.047 C 
ATOM     17  C   UNL     1       0.172   2.231   0.019  1.00  0.00    -0.005 C 
ATOM     18  C   UNL     1       0.631   3.378   0.924  1.00  0.00     0.010 C 
ATOM     19  C   UNL     1      -1.284   2.405  -0.401  1.00  0.00     0.008 C 
ATOM     20  C   UNL     1       0.963   2.741   2.265  1.00  0.00     0.065 C 
ENDBRANCH  11  14
ENDBRANCH   9  11
ENDBRANCH   7   9
ENDBRANCH   5   7
ENDBRANCH   4   5
ENDBRANCH   3   4
ENDBRANCH   2   3
ENDBRANCH   1   2
BRANCH   1  21
ATOM     21  C   UNL     1       3.615   2.154   7.987  1.00  0.00     0.202 C 
BRANCH  21  22
ATOM     22  C   UNL     1       3.976   3.495   7.319  1.00  0.00     0.261 C 
BRANCH  22  23
ATOM     23  O   UNL     1       5.014   3.364   6.327  1.00  0.00    -0.460 OA
BRANCH  23  24
ATOM     24  C   UNL     1       6.136   4.080   6.575  1.00  0.00     0.338 C 
ATOM     25  O   UNL     1       6.286   4.929   7.446  1.00  0.00    -0.246 OA
BRANCH  24  26
ATOM     26  C   UNL     1       7.266   3.586   5.764  1.00  0.00     0.060 A 
ATOM     27  C   UNL     1       8.398   3.142   6.458  1.00  0.00     0.016 A 
ATOM     28  C   UNL     1       7.275   3.647   4.368  1.00  0.00     0.016 A 
ATOM     29  C   UNL     1       9.566   2.825   5.766  1.00  0.00     0.010 A 
ATOM     30  C   UNL     1       8.454   3.330   3.673  1.00  0.00     0.010 A 
ATOM     31  C   UNL     1       9.619   2.961   4.372  1.00  0.00    -0.014 A 
BRANCH  31  32
ATOM     32  C   UNL     1      10.941   2.874   3.693  1.00  0.00     0.031 A 
ATOM     33  C   UNL     1      11.663   4.145   3.323  1.00  0.00     0.074 A 
ATOM     34  C   UNL     1      11.540   1.686   3.484  1.00  0.00     0.049 A 
ATOM     35  N   UNL     1      12.838   4.302   2.768  1.00  0.00    -0.248 NA
ATOM     36  C   UNL     1      10.969   5.407   3.626  1.00  0.00     0.031 C 
ATOM     37  C   UNL     1      10.975   0.383   3.832  1.00  0.00     0.029 A 
ATOM     38  N   UNL     1      12.763   1.385   2.935  1.00  0.00    -0.354 N 
ATOM     39  C   UNL     1      13.028   5.676   2.662  1.00  0.00     0.074 A 
ATOM     40  C   UNL     1      11.831   6.307   3.173  1.00  0.00     0.031 C 
ATOM     41  C   UNL     1      11.849  -0.578   3.485  1.00  0.00     0.029 A 
ATOM     42  C   UNL     1      13.025   0.037   2.870  1.00  0.00     0.049 A 
ATOM     43  H   UNL     1      13.394   2.071   2.617  1.00  0.00     0.167 HD
ATOM     44  C   UNL     1      14.107   6.353   2.198  1.00  0.00     0.037 A 
ATOM     45  C   UNL     1      14.083  -0.627   2.363  1.00  0.00     0.037 A 
ATOM     46  C   UNL     1      15.301   5.730   1.688  1.00  0.00     0.049 A 
ATOM     47  C   UNL     1      15.243   0.144   1.788  1.00  0.00     0.074 A 
ATOM     48  C   UNL     1      16.444   6.337   1.195  1.00  0.00     0.029 A 
ATOM     49  N   UNL     1      15.507   4.362   1.601  1.00  0.00    -0.354 N 
ATOM     50  N   UNL     1      15.411   1.442   1.705  1.00  0.00    -0.248 NA
ATOM     51  C   UNL     1      16.362  -0.640   1.243  1.00  0.00     0.031 C 
ATOM     52  C   UNL     1      17.324   5.335   0.771  1.00  0.00     0.029 A 
ATOM     53  C   UNL     1      16.750   4.104   1.044  1.00  0.00     0.049 A 
ATOM     54  H   UNL     1      14.866   3.674   1.892  1.00  0.00     0.167 HD
ATOM     55  C   UNL     1      16.660   1.630   1.121  1.00  0.00     0.074 A 
ATOM     56  C   UNL     1      17.211   0.312   0.881  1.00  0.00     0.031 C 
ATOM     57  C   UNL     1      17.294   2.789   0.813  1.00  0.00     0.037 A 
BRANCH  44  58
ATOM     58  C   UNL     1      14.038   7.855   2.206  1.00  0.00     0.058 A 
ATOM     59  C   UNL     1      14.122   8.590   3.399  1.00  0.00     0.135 A 
ATOM     60  C   UNL     1      13.919   8.570   1.003  1.00  0.00     0.135 A 
ATOM     61  F   UNL     1      14.219   7.955   4.578  1.00  0.00    -0.206 F 
ATOM     62  C   UNL     1      14.065   9.980   3.402  1.00  0.00     0.059 A 
ATOM     63  C   UNL     1      13.886   9.961   0.980  1.00  0.00     0.059 A 
ATOM     64  F   UNL     1      13.834   7.916  -0.166  1.00  0.00    -0.206 F 
ATOM     65  C   UNL     1      13.945  10.657   2.187  1.00  0.00     0.060 A 
BRANCH  65  66
ATOM     66  S   UNL     1      13.872  12.461   2.207  1.00  0.00     0.124 S 
ATOM     67  O   UNL     1      12.526  12.691   2.720  1.00  0.00    -0.237 OA
ATOM     68  O   UNL     1      14.964  12.809   3.111  1.00  0.00    -0.237 OA
ATOM     69  O   UNL     1      14.081  12.825   0.808  1.00  0.00    -0.744 OA
ENDBRANCH  65  66
ENDBRANCH  44  58
BRANCH  45  70
ATOM     70  C   UNL     1      14.091  -2.115   2.362  1.00  0.00     0.058 A 
ATOM     71  C   UNL     1      14.961  -2.843   3.187  1.00  0.00     0.135 A 
ATOM     72  C   UNL     1      13.221  -2.838   1.530  1.00  0.00     0.135 A 
ATOM     73  F   UNL     1      15.821  -2.197   3.990  1.00  0.00    -0.206 F 
ATOM     74  C   UNL     1      14.976  -4.234   3.181  1.00  0.00     0.059 A 
ATOM     75  C   UNL     1      13.201  -4.229   1.524  1.00  0.00     0.059 A 
ATOM     76  F   UNL     1      12.364  -2.189   0.727  1.00  0.00    -0.206 F 
ATOM     77  C   UNL     1      14.089  -4.919   2.348  1.00  0.00     0.060 A 
BRANCH  77  78
ATOM     78  S   UNL     1      14.075  -6.724   2.389  1.00  0.00     0.124 S 
ATOM     79  O   UNL     1      15.298  -7.044   1.663  1.00  0.00    -0.237 OA
ATOM     80  O   UNL     1      14.091  -6.999   3.822  1.00  0.00    -0.237 OA
ATOM     81  O   UNL     1      12.829  -7.064   1.709  1.00  0.00    -0.744 OA
ENDBRANCH  77  78
ENDBRANCH  45  70
BRANCH  57  82
ATOM     82  C   UNL     1      18.669   2.696   0.208  1.00  0.00     0.058 A 
ATOM     83  C   UNL     1      18.865   2.287  -1.120  1.00  0.00     0.135 A 
ATOM     84  C   UNL     1      19.800   3.074   0.950  1.00  0.00     0.135 A 
ATOM     85  F   UNL     1      17.819   1.911  -1.873  1.00  0.00    -0.206 F 
ATOM     86  C   UNL     1      20.136   2.236  -1.685  1.00  0.00     0.059 A 
ATOM     87  C   UNL     1      21.077   3.055   0.398  1.00  0.00     0.059 A 
ATOM     88  F   UNL     1      19.668   3.483   2.222  1.00  0.00    -0.206 F 
ATOM     89  C   UNL     1      21.236   2.623  -0.918  1.00  0.00     0.060 A 
BRANCH  89  90
ATOM     90  S   UNL     1      22.877   2.584  -1.673  1.00  0.00     0.124 S 
ATOM     91  O   UNL     1      23.157   1.153  -1.693  1.00  0.00    -0.237 OA
ATOM     92  O   UNL     1      22.638   3.202  -2.974  1.00  0.00    -0.237 OA
ATOM     93  O   UNL     1      23.693   3.372  -0.754  1.00  0.00    -0.744 OA
ENDBRANCH  89  90
ENDBRANCH  57  82
ENDBRANCH  31  32
ENDBRANCH  24  26
ENDBRANCH  23  24
ENDBRANCH  22  23
ENDBRANCH  21  22
ENDBRANCH   1  21
TORSDOF 20
