REMARK SMILES COc1ccc(-c2[nH]nc3nc(-c4ccc(C(F)(F)F)cc4)cc(C(=O)OCCOCCOC(=O)c4ccc(-c5c6nc(c(-c7c(F)cc(S(=O)(=O)[O-])cc7F)c7ccc([nH]7)c(-c7c(F)cc(S(=O)(=O)[O-])cc7F)c7nc(c(-c8c(F)cc(S(=O)(=O)[O-])cc8F)c8ccc5[nH]8)C=C7)C=C6)cc4)c23)cc1
REMARK SMILES IDX 31 1 30 2 29 3 28 4 27 5 25 6 26 7 24 8 7 9 8 10 102 11 9 12
REMARK SMILES IDX 10 14 11 15 23 16 12 17 6 18 3 19 4 20 104 21 5 22 103 23
REMARK SMILES IDX 2 24 1 25 13 26 14 27 22 28 15 29 21 30 16 31 17 32 18 33
REMARK SMILES IDX 19 34 20 35 32 36 33 37 34 38 35 39 36 40 37 41 101 42 38 43
REMARK SMILES IDX 100 44 39 45 40 46 41 47 94 48 42 49 99 50 93 51 95 52 43 53
REMARK SMILES IDX 98 54 92 55 91 56 44 58 78 59 57 60 77 61 58 62 61 63 76 64
REMARK SMILES IDX 96 65 59 66 60 67 75 69 97 70 62 71 45 72 46 73 55 74 47 75
REMARK SMILES IDX 48 76 54 77 56 78 49 79 50 80 51 81 52 82 53 83 79 84 80 85
REMARK SMILES IDX 89 86 81 87 82 88 88 89 90 90 83 91 84 92 85 93 86 94 87 95
REMARK SMILES IDX 63 96 64 97 73 98 65 99 66 100 72 101 74 102 67 103 68 104
REMARK SMILES IDX 69 105 70 106 71 107
REMARK H PARENT 8 13 95 57 61 68
REMARK Flexibility Score: inf
ROOT
ATOM      1  C   UNL     1       4.631  -4.473  -1.623  1.00  0.00     0.202 C 
ENDROOT
BRANCH   1   2
ATOM      2  O   UNL     1       4.208  -3.975  -0.354  1.00  0.00    -0.374 OA
BRANCH   2   3
ATOM      3  C   UNL     1       4.732  -4.689   0.770  1.00  0.00     0.202 C 
BRANCH   3   4
ATOM      4  C   UNL     1       3.921  -5.939   1.110  1.00  0.00     0.261 C 
BRANCH   4   5
ATOM      5  O   UNL     1       3.780  -6.760  -0.062  1.00  0.00    -0.460 OA
BRANCH   5   6
ATOM      6  C   UNL     1       2.567  -6.699  -0.671  1.00  0.00     0.339 C 
ATOM      7  O   UNL     1       1.527  -6.303  -0.185  1.00  0.00    -0.246 OA
BRANCH   6   8
ATOM      8  C   UNL     1       2.714  -7.188  -2.048  1.00  0.00     0.075 A 
ATOM      9  C   UNL     1       1.258  -5.590  -3.373  1.00  0.00     0.075 A 
ATOM     10  N   UNL     1       0.888  -5.649  -4.697  1.00  0.00    -0.275 N 
ATOM     11  C   UNL     1       2.044  -6.720  -3.188  1.00  0.00     0.061 A 
ATOM     12  N   UNL     1       1.431  -6.658  -5.394  1.00  0.00    -0.154 NA
ATOM     13  H   UNL     1       0.271  -4.998  -5.103  1.00  0.00     0.190 HD
ATOM     14  C   UNL     1       2.176  -7.299  -4.495  1.00  0.00     0.182 A 
ATOM     15  N   UNL     1       2.983  -8.359  -4.749  1.00  0.00    -0.226 NA
ATOM     16  C   UNL     1       3.575  -8.256  -2.357  1.00  0.00     0.045 A 
ATOM     17  C   UNL     1       3.669  -8.809  -3.660  1.00  0.00     0.074 A 
BRANCH   9  18
ATOM     18  C   UNL     1       0.902  -4.426  -2.564  1.00  0.00     0.001 A 
ATOM     19  C   UNL     1       0.363  -2.217  -0.893  1.00  0.00     0.118 A 
ATOM     20  C   UNL     1      -0.469  -3.340  -0.890  1.00  0.00     0.047 A 
ATOM     21  C   UNL     1       1.438  -2.179  -1.775  1.00  0.00     0.047 A 
ATOM     22  C   UNL     1      -0.205  -4.439  -1.718  1.00  0.00     0.014 A 
ATOM     23  C   UNL     1       1.680  -3.262  -2.630  1.00  0.00     0.014 A 
BRANCH  19  24
ATOM     24  O   UNL     1       0.024  -1.243   0.006  1.00  0.00    -0.497 OA
ATOM     25  C   UNL     1       0.845  -0.080   0.032  1.00  0.00     0.278 C 
ENDBRANCH  19  24
ENDBRANCH   9  18
BRANCH  17  26
ATOM     26  C   UNL     1       4.516 -10.002  -3.900  1.00  0.00     0.000 A 
ATOM     27  C   UNL     1       5.280 -10.147  -5.071  1.00  0.00     0.011 A 
ATOM     28  C   UNL     1       4.564 -11.052  -2.964  1.00  0.00     0.011 A 
ATOM     29  C   UNL     1       6.059 -11.292  -5.295  1.00  0.00     0.014 A 
ATOM     30  C   UNL     1       5.338 -12.196  -3.184  1.00  0.00     0.014 A 
ATOM     31  C   UNL     1       6.091 -12.332  -4.355  1.00  0.00     0.056 A 
BRANCH  31  32
ATOM     32  C   UNL     1       6.901 -13.580  -4.612  1.00  0.00     0.416 C 
ATOM     33  F   UNL     1       6.491 -14.247  -5.726  1.00  0.00    -0.166 F 
ATOM     34  F   UNL     1       8.225 -13.328  -4.783  1.00  0.00    -0.166 F 
ATOM     35  F   UNL     1       6.823 -14.488  -3.595  1.00  0.00    -0.166 F 
ENDBRANCH  31  32
ENDBRANCH  17  26
ENDBRANCH   6   8
ENDBRANCH   5   6
ENDBRANCH   4   5
ENDBRANCH   3   4
ENDBRANCH   2   3
ENDBRANCH   1   2
BRANCH   1  36
ATOM     36  C   UNL     1       5.387  -3.423  -2.425  1.00  0.00     0.261 C 
BRANCH  36  37
ATOM     37  O   UNL     1       6.771  -3.602  -2.180  1.00  0.00    -0.460 OA
BRANCH  37  38
ATOM     38  C   UNL     1       7.155  -3.369  -0.895  1.00  0.00     0.338 C 
ATOM     39  O   UNL     1       6.704  -2.598  -0.102  1.00  0.00    -0.246 OA
BRANCH  38  40
ATOM     40  C   UNL     1       8.309  -4.262  -0.699  1.00  0.00     0.060 A 
ATOM     41  C   UNL     1       9.405  -3.650  -0.110  1.00  0.00     0.016 A 
ATOM     42  C   UNL     1       8.396  -5.443  -1.460  1.00  0.00     0.016 A 
ATOM     43  C   UNL     1      10.634  -4.010  -0.594  1.00  0.00     0.010 A 
ATOM     44  C   UNL     1       9.623  -5.789  -1.953  1.00  0.00     0.010 A 
ATOM     45  C   UNL     1      10.696  -4.979  -1.603  1.00  0.00    -0.014 A 
BRANCH  45  46
ATOM     46  C   UNL     1      11.949  -5.120  -2.297  1.00  0.00     0.031 A 
ATOM     47  C   UNL     1      12.929  -5.892  -1.522  1.00  0.00     0.074 A 
ATOM     48  C   UNL     1      12.145  -4.623  -3.530  1.00  0.00     0.049 A 
ATOM     49  N   UNL     1      13.934  -5.430  -0.857  1.00  0.00    -0.248 NA
ATOM     50  C   UNL     1      12.610  -7.300  -1.250  1.00  0.00     0.031 C 
ATOM     51  C   UNL     1      11.169  -4.074  -4.473  1.00  0.00     0.029 A 
ATOM     52  N   UNL     1      13.303  -4.599  -4.234  1.00  0.00    -0.354 N 
ATOM     53  C   UNL     1      14.514  -6.543  -0.269  1.00  0.00     0.074 A 
ATOM     54  C   UNL     1      13.533  -7.594  -0.335  1.00  0.00     0.031 C 
ATOM     55  C   UNL     1      11.742  -3.987  -5.697  1.00  0.00     0.029 A 
ATOM     56  C   UNL     1      13.142  -4.361  -5.591  1.00  0.00     0.049 A 
ATOM     57  H   UNL     1      14.184  -4.739  -3.817  1.00  0.00     0.167 HD
ATOM     58  C   UNL     1      15.849  -6.595  -0.023  1.00  0.00     0.037 A 
ATOM     59  C   UNL     1      14.090  -4.614  -6.529  1.00  0.00     0.037 A 
ATOM     60  C   UNL     1      16.448  -5.285  -0.088  1.00  0.00     0.049 A 
ATOM     61  C   UNL     1      15.403  -4.619  -5.809  1.00  0.00     0.074 A 
ATOM     62  C   UNL     1      16.258  -4.106   0.607  1.00  0.00     0.029 A 
ATOM     63  N   UNL     1      17.111  -4.938  -1.243  1.00  0.00    -0.354 N 
ATOM     64  N   UNL     1      15.915  -3.558  -5.238  1.00  0.00    -0.248 NA
ATOM     65  C   UNL     1      15.897  -5.891  -5.294  1.00  0.00     0.031 C 
ATOM     66  C   UNL     1      16.387  -3.074  -0.367  1.00  0.00     0.029 A 
ATOM     67  C   UNL     1      16.704  -3.672  -1.588  1.00  0.00     0.049 A 
ATOM     68  H   UNL     1      17.759  -5.495  -1.732  1.00  0.00     0.167 HD
ATOM     69  C   UNL     1      16.467  -4.013  -4.045  1.00  0.00     0.074 A 
ATOM     70  C   UNL     1      16.483  -5.470  -4.169  1.00  0.00     0.031 C 
ATOM     71  C   UNL     1      16.586  -3.199  -2.953  1.00  0.00     0.037 A 
BRANCH  58  72
ATOM     72  C   UNL     1      16.651  -7.867  -0.088  1.00  0.00     0.058 A 
ATOM     73  C   UNL     1      17.973  -7.870   0.392  1.00  0.00     0.135 A 
ATOM     74  C   UNL     1      16.265  -9.008  -0.829  1.00  0.00     0.135 A 
ATOM     75  F   UNL     1      18.447  -6.830   1.096  1.00  0.00    -0.206 F 
ATOM     76  C   UNL     1      18.865  -8.900   0.100  1.00  0.00     0.059 A 
ATOM     77  C   UNL     1      17.116 -10.074  -1.075  1.00  0.00     0.059 A 
ATOM     78  F   UNL     1      15.080  -9.105  -1.443  1.00  0.00    -0.206 F 
ATOM     79  C   UNL     1      18.428  -9.991  -0.647  1.00  0.00     0.060 A 
BRANCH  79  80
ATOM     80  S   UNL     1      19.602 -11.265  -1.130  1.00  0.00     0.124 S 
ATOM     81  O   UNL     1      20.431 -10.544  -2.089  1.00  0.00    -0.237 OA
ATOM     82  O   UNL     1      20.232 -11.593   0.145  1.00  0.00    -0.237 OA
ATOM     83  O   UNL     1      18.751 -12.311  -1.690  1.00  0.00    -0.744 OA
ENDBRANCH  79  80
ENDBRANCH  58  72
BRANCH  59  84
ATOM     84  C   UNL     1      13.864  -5.300  -7.835  1.00  0.00     0.058 A 
ATOM     85  C   UNL     1      14.897  -5.426  -8.782  1.00  0.00     0.135 A 
ATOM     86  C   UNL     1      12.710  -6.075  -8.083  1.00  0.00     0.135 A 
ATOM     87  F   UNL     1      16.042  -4.743  -8.623  1.00  0.00    -0.206 F 
ATOM     88  C   UNL     1      14.812  -6.303  -9.872  1.00  0.00     0.059 A 
ATOM     89  C   UNL     1      12.596  -6.941  -9.167  1.00  0.00     0.059 A 
ATOM     90  F   UNL     1      11.680  -6.094  -7.226  1.00  0.00    -0.206 F 
ATOM     91  C   UNL     1      13.662  -7.073 -10.044  1.00  0.00     0.060 A 
BRANCH  91  92
ATOM     92  S   UNL     1      13.609  -8.343 -11.330  1.00  0.00     0.124 S 
ATOM     93  O   UNL     1      13.525  -7.540 -12.544  1.00  0.00    -0.237 OA
ATOM     94  O   UNL     1      14.867  -9.051 -11.116  1.00  0.00    -0.237 OA
ATOM     95  O   UNL     1      12.406  -9.106 -11.002  1.00  0.00    -0.744 OA
ENDBRANCH  91  92
ENDBRANCH  59  84
BRANCH  71  96
ATOM     96  C   UNL     1      16.326  -1.722  -3.125  1.00  0.00     0.058 A 
ATOM     97  C   UNL     1      15.071  -1.179  -3.455  1.00  0.00     0.135 A 
ATOM     98  C   UNL     1      17.330  -0.817  -2.748  1.00  0.00     0.135 A 
ATOM     99  F   UNL     1      14.027  -1.976  -3.720  1.00  0.00    -0.206 F 
ATOM    100  C   UNL     1      14.833   0.197  -3.443  1.00  0.00     0.059 A 
ATOM    101  C   UNL     1      17.108   0.558  -2.699  1.00  0.00     0.059 A 
ATOM    102  F   UNL     1      18.532  -1.273  -2.356  1.00  0.00    -0.206 F 
ATOM    103  C   UNL     1      15.858   1.059  -3.056  1.00  0.00     0.060 A 
BRANCH 103 104
ATOM    104  S   UNL     1      15.519   2.830  -2.939  1.00  0.00     0.124 S 
ATOM    105  O   UNL     1      15.423   3.217  -4.343  1.00  0.00    -0.237 OA
ATOM    106  O   UNL     1      14.268   2.865  -2.186  1.00  0.00    -0.237 OA
ATOM    107  O   UNL     1      16.680   3.353  -2.224  1.00  0.00    -0.744 OA
ENDBRANCH 103 104
ENDBRANCH  71  96
ENDBRANCH  45  46
ENDBRANCH  38  40
ENDBRANCH  37  38
ENDBRANCH  36  37
ENDBRANCH   1  36
TORSDOF 21
