REMARK SMILES COc1cccc(NC(=O)NC2(C(=O)OCCOCCOC(=O)c3ccc(-c4c5nc(c(-c6c(F)cc(S(=O)(=O)[O-])cc6F)c6ccc([nH]6)c(-c6c(F)cc(S(=O)(=O)[O-])cc6F)c6nc(c(-c7c(F)cc(S(=O)(=O)[O-])cc7F)c7ccc4[nH]7)C=C6)C=C5)cc3)CCCCC2)c1
REMARK SMILES IDX 18 1 17 2 16 3 15 4 13 5 14 6 12 7 90 8 94 9 91 10 93 11
REMARK SMILES IDX 92 12 11 13 8 14 9 15 10 17 7 19 3 20 4 21 95 22 5 23 6 24
REMARK SMILES IDX 2 25 1 26 19 27 20 28 21 29 22 30 23 31 24 32 25 33 89 34
REMARK SMILES IDX 26 35 88 36 27 37 28 38 29 39 82 40 30 41 87 42 81 43 83 44
REMARK SMILES IDX 31 45 86 46 80 47 79 48 32 50 66 51 45 52 65 53 46 54 49 55
REMARK SMILES IDX 64 56 84 57 47 58 48 59 63 61 85 62 50 63 33 64 34 65 43 66
REMARK SMILES IDX 35 67 36 68 42 69 44 70 37 71 38 72 39 73 40 74 41 75 67 76
REMARK SMILES IDX 68 77 77 78 69 79 70 80 76 81 78 82 71 83 72 84 73 85 74 86
REMARK SMILES IDX 75 87 51 88 52 89 61 90 53 91 54 92 60 93 62 94 55 95 56 96
REMARK SMILES IDX 57 97 58 98 59 99
REMARK H PARENT 8 16 11 18 83 49 49 60
REMARK Flexibility Score: inf
ROOT
ATOM      1  O   UNL     1       1.489  -3.673   0.609  1.00  0.00    -0.374 OA
ENDROOT
BRANCH   1   2
ATOM      2  C   UNL     1       0.329  -4.426   0.993  1.00  0.00     0.202 C 
BRANCH   2   3
ATOM      3  C   UNL     1       0.259  -5.326   2.253  1.00  0.00     0.261 C 
BRANCH   3   4
ATOM      4  O   UNL     1       0.603  -4.755   3.544  1.00  0.00    -0.461 OA
BRANCH   4   5
ATOM      5  C   UNL     1       1.763  -5.223   4.084  1.00  0.00     0.331 C 
ATOM      6  O   UNL     1       2.440  -6.088   3.519  1.00  0.00    -0.249 OA
BRANCH   5   7
ATOM      7  C   UNL     1       2.145  -4.728   5.540  1.00  0.00     0.139 C 
ATOM      8  C   UNL     1       1.532  -5.877   6.404  1.00  0.00     0.040 C 
ATOM      9  C   UNL     1       1.891  -3.472   6.413  1.00  0.00     0.040 C 
ATOM     10  C   UNL     1       0.019  -5.639   6.620  1.00  0.00     0.003 C 
ATOM     11  C   UNL     1       0.450  -3.142   6.776  1.00  0.00     0.003 C 
ATOM     12  C   UNL     1      -0.289  -4.335   7.351  1.00  0.00     0.000 C 
BRANCH   7  13
ATOM     13  N   UNL     1       3.626  -4.752   5.425  1.00  0.00    -0.322 N 
ATOM     14  N   UNL     1       4.413  -2.895   4.055  1.00  0.00    -0.308 N 
ATOM     15  C   UNL     1       4.555  -3.967   4.863  1.00  0.00     0.320 C 
ATOM     16  H   UNL     1       5.284  -2.450   3.947  1.00  0.00     0.171 HD
ATOM     17  O   UNL     1       5.728  -4.313   5.075  1.00  0.00    -0.248 OA
ATOM     18  H   UNL     1       4.021  -5.535   5.871  1.00  0.00     0.166 HD
BRANCH  14  19
ATOM     19  C   UNL     1       3.432  -2.196   3.309  1.00  0.00     0.046 A 
ATOM     20  C   UNL     1       2.862  -1.212   0.382  1.00  0.00     0.120 A 
ATOM     21  C   UNL     1       1.103  -1.428   0.641  1.00  0.00     0.046 A 
ATOM     22  C   UNL     1       4.017  -1.534   1.735  1.00  0.00     0.072 A 
ATOM     23  C   UNL     1       0.498  -2.030   2.237  1.00  0.00     0.006 A 
ATOM     24  C   UNL     1       1.667  -2.322   3.569  1.00  0.00     0.026 A 
BRANCH  20  25
ATOM     25  O   UNL     1       3.371  -0.696  -0.777  1.00  0.00    -0.497 OA
ATOM     26  C   UNL     1       2.362  -0.066  -1.569  1.00  0.00     0.278 C 
ENDBRANCH  20  25
ENDBRANCH  14  19
ENDBRANCH   7  13
ENDBRANCH   5   7
ENDBRANCH   4   5
ENDBRANCH   3   4
ENDBRANCH   2   3
ENDBRANCH   1   2
BRANCH   1  27
ATOM     27  C   UNL     1       2.296  -2.828   1.629  1.00  0.00     0.202 C 
BRANCH  27  28
ATOM     28  C   UNL     1       2.133  -0.746   2.313  1.00  0.00     0.261 C 
BRANCH  28  29
ATOM     29  O   UNL     1       0.796   0.023   2.860  1.00  0.00    -0.460 OA
BRANCH  29  30
ATOM     30  C   UNL     1       0.136   0.885   2.039  1.00  0.00     0.338 C 
ATOM     31  O   UNL     1       0.616   1.545   1.134  1.00  0.00    -0.246 OA
BRANCH  30  32
ATOM     32  C   UNL     1      -1.321   0.622   2.145  1.00  0.00     0.060 A 
ATOM     33  C   UNL     1      -1.953  -0.016   1.061  1.00  0.00     0.016 A 
ATOM     34  C   UNL     1      -2.069   1.021   3.250  1.00  0.00     0.016 A 
ATOM     35  C   UNL     1      -3.324  -0.232   1.054  1.00  0.00     0.010 A 
ATOM     36  C   UNL     1      -3.459   0.858   3.221  1.00  0.00     0.010 A 
ATOM     37  C   UNL     1      -4.088   0.276   2.102  1.00  0.00    -0.014 A 
BRANCH  37  38
ATOM     38  C   UNL     1      -5.535   0.484   1.874  1.00  0.00     0.031 A 
ATOM     39  C   UNL     1      -5.954   1.843   1.380  1.00  0.00     0.074 A 
ATOM     40  C   UNL     1      -6.421  -0.507   2.066  1.00  0.00     0.049 A 
ATOM     41  N   UNL     1      -7.148   2.355   1.266  1.00  0.00    -0.248 NA
ATOM     42  C   UNL     1      -4.869   2.755   0.968  1.00  0.00     0.031 C 
ATOM     43  C   UNL     1      -6.083  -1.881   2.442  1.00  0.00     0.029 A 
ATOM     44  N   UNL     1      -7.789  -0.506   1.991  1.00  0.00    -0.354 N 
ATOM     45  C   UNL     1      -6.955   3.660   0.821  1.00  0.00     0.074 A 
ATOM     46  C   UNL     1      -5.534   3.861   0.673  1.00  0.00     0.031 C 
ATOM     47  C   UNL     1      -7.220  -2.579   2.608  1.00  0.00     0.029 A 
ATOM     48  C   UNL     1      -8.358  -1.689   2.401  1.00  0.00     0.049 A 
ATOM     49  H   UNL     1      -8.312   0.265   1.675  1.00  0.00     0.167 HD
ATOM     50  C   UNL     1      -7.891   4.605   0.579  1.00  0.00     0.037 A 
ATOM     51  C   UNL     1      -9.652  -1.987   2.633  1.00  0.00     0.037 A 
ATOM     52  C   UNL     1      -9.300   4.353   0.723  1.00  0.00     0.049 A 
ATOM     53  C   UNL     1     -10.678  -0.907   2.394  1.00  0.00     0.074 A 
ATOM     54  C   UNL     1     -10.359   5.211   0.498  1.00  0.00     0.029 A 
ATOM     55  N   UNL     1      -9.841   3.141   1.133  1.00  0.00    -0.354 N 
ATOM     56  N   UNL     1     -10.490   0.332   1.997  1.00  0.00    -0.248 NA
ATOM     57  C   UNL     1     -12.083  -1.256   2.634  1.00  0.00     0.031 C 
ATOM     58  C   UNL     1     -11.538   4.532   0.823  1.00  0.00     0.029 A 
ATOM     59  C   UNL     1     -11.218   3.233   1.191  1.00  0.00     0.049 A 
ATOM     60  H   UNL     1      -9.319   2.334   1.350  1.00  0.00     0.167 HD
ATOM     61  C   UNL     1     -11.754   0.904   1.915  1.00  0.00     0.074 A 
ATOM     62  C   UNL     1     -12.698  -0.132   2.292  1.00  0.00     0.031 C 
ATOM     63  C   UNL     1     -12.113   2.165   1.563  1.00  0.00     0.037 A 
BRANCH  50  64
ATOM     64  C   UNL     1      -7.429   5.988   0.203  1.00  0.00     0.058 A 
ATOM     65  C   UNL     1      -6.847   6.278  -1.041  1.00  0.00     0.135 A 
ATOM     66  C   UNL     1      -7.602   7.054   1.103  1.00  0.00     0.135 A 
ATOM     67  F   UNL     1      -6.629   5.296  -1.930  1.00  0.00    -0.206 F 
ATOM     68  C   UNL     1      -6.444   7.569  -1.375  1.00  0.00     0.059 A 
ATOM     69  C   UNL     1      -7.232   8.357   0.781  1.00  0.00     0.059 A 
ATOM     70  F   UNL     1      -8.137   6.834   2.315  1.00  0.00    -0.206 F 
ATOM     71  C   UNL     1      -6.647   8.604  -0.460  1.00  0.00     0.060 A 
BRANCH  71  72
ATOM     72  S   UNL     1      -6.154  10.279  -0.922  1.00  0.00     0.124 S 
ATOM     73  O   UNL     1      -4.699  10.178  -0.881  1.00  0.00    -0.237 OA
ATOM     74  O   UNL     1      -6.742  10.420  -2.250  1.00  0.00    -0.237 OA
ATOM     75  O   UNL     1      -6.754  11.110   0.118  1.00  0.00    -0.744 OA
ENDBRANCH  71  72
ENDBRANCH  50  64
BRANCH  51  76
ATOM     76  C   UNL     1     -10.034  -3.327   3.159  1.00  0.00     0.058 A 
ATOM     77  C   UNL     1     -10.783  -4.230   2.390  1.00  0.00     0.135 A 
ATOM     78  C   UNL     1      -9.645  -3.740   4.445  1.00  0.00     0.135 A 
ATOM     79  F   UNL     1     -11.190  -3.885   1.159  1.00  0.00    -0.206 F 
ATOM     80  C   UNL     1     -11.142  -5.485   2.877  1.00  0.00     0.059 A 
ATOM     81  C   UNL     1      -9.966  -5.000   4.943  1.00  0.00     0.059 A 
ATOM     82  F   UNL     1      -8.917  -2.923   5.223  1.00  0.00    -0.206 F 
ATOM     83  C   UNL     1     -10.724  -5.863   4.154  1.00  0.00     0.060 A 
BRANCH  83  84
ATOM     84  S   UNL     1     -11.151  -7.512   4.757  1.00  0.00     0.124 S 
ATOM     85  O   UNL     1     -12.579  -7.370   5.016  1.00  0.00    -0.237 OA
ATOM     86  O   UNL     1     -10.786  -8.356   3.624  1.00  0.00    -0.237 OA
ATOM     87  O   UNL     1     -10.307  -7.665   5.939  1.00  0.00    -0.744 OA
ENDBRANCH  83  84
ENDBRANCH  51  76
BRANCH  63  88
ATOM     88  C   UNL     1     -13.582   2.469   1.529  1.00  0.00     0.058 A 
ATOM     89  C   UNL     1     -14.330   2.626   2.704  1.00  0.00     0.135 A 
ATOM     90  C   UNL     1     -14.231   2.661   0.299  1.00  0.00     0.135 A 
ATOM     91  F   UNL     1     -13.753   2.447   3.903  1.00  0.00    -0.206 F 
ATOM     92  C   UNL     1     -15.684   2.936   2.661  1.00  0.00     0.059 A 
ATOM     93  C   UNL     1     -15.576   3.002   0.233  1.00  0.00     0.059 A 
ATOM     94  F   UNL     1     -13.552   2.536  -0.853  1.00  0.00    -0.206 F 
ATOM     95  C   UNL     1     -16.297   3.124   1.420  1.00  0.00     0.060 A 
BRANCH  95  96
ATOM     96  S   UNL     1     -18.048   3.553   1.379  1.00  0.00     0.124 S 
ATOM     97  O   UNL     1     -18.669   2.279   1.726  1.00  0.00    -0.237 OA
ATOM     98  O   UNL     1     -18.137   4.599   2.393  1.00  0.00    -0.237 OA
ATOM     99  O   UNL     1     -18.256   4.000   0.005  1.00  0.00    -0.744 OA
ENDBRANCH  95  96
ENDBRANCH  63  88
ENDBRANCH  37  38
ENDBRANCH  30  32
ENDBRANCH  29  30
ENDBRANCH  28  29
ENDBRANCH  27  28
ENDBRANCH   1  27
TORSDOF 20
