REMARK SMILES O=C(CCC(=O)N1N=C(c2ccc(F)cc2)C[C@@H]1c1ccc2nccnc2c1)OCCOCCOC(=O)c1ccc(-c2c3nc(c(-c4c(F)cc(S(=O)(=O)[O-])cc4F)c4ccc([nH]4)c(-c4c(F)cc(S(=O)(=O)[O-])cc4F)c4nc(c(-c5c(F)cc(S(=O)(=O)[O-])cc5F)c5ccc2[nH]5)C=C4)C=C3)cc1
REMARK SMILES IDX 31 1 30 2 29 3 2 4 1 5 3 6 4 7 5 8 6 9 7 10 8 11 18 12 9 13
REMARK SMILES IDX 17 14 19 15 20 16 28 17 21 18 27 19 22 20 26 21 23 22 25 23
REMARK SMILES IDX 24 24 10 25 11 26 16 27 12 28 15 29 13 30 14 31 32 32 33 33
REMARK SMILES IDX 34 34 35 35 36 36 37 37 38 38 39 39 103 40 40 41 102 42
REMARK SMILES IDX 41 43 42 44 43 45 96 46 44 47 101 48 95 49 97 50 45 51
REMARK SMILES IDX 100 52 94 53 93 54 46 56 80 57 59 58 79 59 60 60 63 61 78 62
REMARK SMILES IDX 98 63 61 64 62 65 77 67 99 68 64 69 47 70 48 71 57 72 49 73
REMARK SMILES IDX 50 74 56 75 58 76 51 77 52 78 53 79 54 80 55 81 81 82 82 83
REMARK SMILES IDX 91 84 83 85 84 86 90 87 92 88 85 89 86 90 87 91 88 92 89 93
REMARK SMILES IDX 65 94 66 95 75 96 67 97 68 98 74 99 76 100 69 101 70 102
REMARK SMILES IDX 71 103 72 104 73 105
REMARK H PARENT 97 55 63 66
REMARK Flexibility Score: inf
ROOT
ATOM      1  C   UNL     1       5.674   2.505  -0.446  1.00  0.00     0.202 C 
ENDROOT
BRANCH   1   2
ATOM      2  C   UNL     1       5.033   1.543   0.557  1.00  0.00     0.261 C 
BRANCH   2   3
ATOM      3  O   UNL     1       3.735   1.102   0.115  1.00  0.00    -0.463 OA
BRANCH   3   4
ATOM      4  C   UNL     1       2.583   1.133   0.805  1.00  0.00     0.306 C 
ATOM      5  O   UNL     1       1.489   1.052   0.257  1.00  0.00    -0.252 OA
BRANCH   4   6
ATOM      6  C   UNL     1       2.706   1.116   2.268  1.00  0.00     0.132 C 
BRANCH   6   7
ATOM      7  C   UNL     1       3.149  -0.262   2.698  1.00  0.00     0.114 C 
BRANCH   7   8
ATOM      8  C   UNL     1       4.253  -0.987   1.914  1.00  0.00     0.243 C 
ATOM      9  O   UNL     1       5.362  -1.004   2.480  1.00  0.00    -0.273 OA
BRANCH   8  10
ATOM     10  N   UNL     1       4.032  -1.759   0.770  1.00  0.00    -0.225 N 
ATOM     11  N   UNL     1       4.421  -3.040   1.055  1.00  0.00    -0.174 NA
ATOM     12  C   UNL     1       3.089  -1.774  -0.426  1.00  0.00     0.147 C 
ATOM     13  C   UNL     1       3.720  -3.866   0.358  1.00  0.00     0.071 C 
ATOM     14  C   UNL     1       2.884  -3.272  -0.722  1.00  0.00     0.091 C 
BRANCH  12  15
ATOM     15  C   UNL     1       3.464  -1.051  -1.768  1.00  0.00    -0.021 A 
ATOM     16  C   UNL     1       2.112  -0.911  -2.961  1.00  0.00     0.008 A 
ATOM     17  C   UNL     1       4.986  -0.111  -2.099  1.00  0.00     0.036 A 
ATOM     18  C   UNL     1       2.226   0.220  -4.369  1.00  0.00     0.031 A 
ATOM     19  C   UNL     1       5.141   1.044  -3.525  1.00  0.00     0.089 A 
ATOM     20  C   UNL     1       3.708   1.263  -4.656  1.00  0.00     0.089 A 
ATOM     21  N   UNL     1       6.225   1.777  -3.804  1.00  0.00    -0.253 NA
ATOM     22  N   UNL     1       3.781   2.177  -5.627  1.00  0.00    -0.253 NA
ATOM     23  C   UNL     1       6.086   2.643  -4.850  1.00  0.00     0.132 A 
ATOM     24  C   UNL     1       4.965   2.829  -5.688  1.00  0.00     0.132 A 
ENDBRANCH  12  15
BRANCH  13  25
ATOM     25  C   UNL     1       3.743  -5.292   0.696  1.00  0.00    -0.002 A 
ATOM     26  C   UNL     1       3.545  -6.285  -0.256  1.00  0.00     0.013 A 
ATOM     27  C   UNL     1       4.064  -5.614   2.029  1.00  0.00     0.013 A 
ATOM     28  C   UNL     1       3.775  -7.606   0.117  1.00  0.00     0.040 A 
ATOM     29  C   UNL     1       4.306  -6.928   2.387  1.00  0.00     0.040 A 
ATOM     30  C   UNL     1       4.205  -7.899   1.410  1.00  0.00     0.123 A 
ATOM     31  F   UNL     1       4.623  -9.126   1.700  1.00  0.00    -0.207 F 
ENDBRANCH  13  25
ENDBRANCH   8  10
ENDBRANCH   7   8
ENDBRANCH   6   7
ENDBRANCH   4   6
ENDBRANCH   3   4
ENDBRANCH   2   3
ENDBRANCH   1   2
BRANCH   1  32
ATOM     32  O   UNL     1       4.955   2.976  -1.580  1.00  0.00    -0.374 OA
BRANCH  32  33
ATOM     33  C   UNL     1       3.546   3.016  -1.594  1.00  0.00     0.202 C 
BRANCH  33  34
ATOM     34  C   UNL     1       2.763   2.005  -2.498  1.00  0.00     0.261 C 
BRANCH  34  35
ATOM     35  O   UNL     1       3.433   0.478  -2.917  1.00  0.00    -0.460 OA
BRANCH  35  36
ATOM     36  C   UNL     1       4.125  -0.835  -4.054  1.00  0.00     0.338 C 
ATOM     37  O   UNL     1       4.352  -0.693  -5.291  1.00  0.00    -0.246 OA
BRANCH  36  38
ATOM     38  C   UNL     1       4.605  -2.269  -3.825  1.00  0.00     0.060 A 
ATOM     39  C   UNL     1       5.907  -2.530  -3.364  1.00  0.00     0.016 A 
ATOM     40  C   UNL     1       3.977  -3.247  -4.628  1.00  0.00     0.016 A 
ATOM     41  C   UNL     1       6.544  -3.734  -3.647  1.00  0.00     0.010 A 
ATOM     42  C   UNL     1       4.623  -4.447  -4.930  1.00  0.00     0.010 A 
ATOM     43  C   UNL     1       5.914  -4.690  -4.442  1.00  0.00    -0.014 A 
BRANCH  43  44
ATOM     44  C   UNL     1       6.605  -5.948  -4.777  1.00  0.00     0.031 A 
ATOM     45  C   UNL     1       7.128  -6.180  -6.163  1.00  0.00     0.074 A 
ATOM     46  C   UNL     1       6.713  -6.880  -3.813  1.00  0.00     0.049 A 
ATOM     47  N   UNL     1       7.561  -7.290  -6.696  1.00  0.00    -0.248 NA
ATOM     48  C   UNL     1       7.208  -5.012  -7.058  1.00  0.00     0.031 C 
ATOM     49  C   UNL     1       6.372  -6.681  -2.401  1.00  0.00     0.029 A 
ATOM     50  N   UNL     1       7.096  -8.194  -3.875  1.00  0.00    -0.354 N 
ATOM     51  C   UNL     1       7.990  -6.957  -7.976  1.00  0.00     0.074 A 
ATOM     52  C   UNL     1       7.727  -5.546  -8.159  1.00  0.00     0.031 C 
ATOM     53  C   UNL     1       6.472  -7.853  -1.757  1.00  0.00     0.029 A 
ATOM     54  C   UNL     1       6.806  -8.883  -2.719  1.00  0.00     0.049 A 
ATOM     55  H   UNL     1       7.532  -8.600  -4.659  1.00  0.00     0.167 HD
ATOM     56  C   UNL     1       8.573  -7.770  -8.888  1.00  0.00     0.037 A 
ATOM     57  C   UNL     1       6.738 -10.205  -2.493  1.00  0.00     0.037 A 
ATOM     58  C   UNL     1       8.812  -9.172  -8.649  1.00  0.00     0.049 A 
ATOM     59  C   UNL     1       7.181 -11.113  -3.591  1.00  0.00     0.074 A 
ATOM     60  C   UNL     1       9.431 -10.096  -9.470  1.00  0.00     0.029 A 
ATOM     61  N   UNL     1       8.431  -9.851  -7.498  1.00  0.00    -0.354 N 
ATOM     62  N   UNL     1       7.580 -10.798  -4.799  1.00  0.00    -0.248 NA
ATOM     63  C   UNL     1       7.221 -12.544  -3.281  1.00  0.00     0.031 C 
ATOM     64  C   UNL     1       9.373 -11.344  -8.841  1.00  0.00     0.029 A 
ATOM     65  C   UNL     1       8.764 -11.190  -7.605  1.00  0.00     0.049 A 
ATOM     66  H   UNL     1       7.989  -9.440  -6.721  1.00  0.00     0.167 HD
ATOM     67  C   UNL     1       7.970 -11.989  -5.383  1.00  0.00     0.074 A 
ATOM     68  C   UNL     1       7.739 -13.032  -4.399  1.00  0.00     0.031 C 
ATOM     69  C   UNL     1       8.499 -12.199  -6.611  1.00  0.00     0.037 A 
BRANCH  56  70
ATOM     70  C   UNL     1       9.001  -7.196 -10.212  1.00  0.00     0.058 A 
ATOM     71  C   UNL     1       8.352  -7.576 -11.398  1.00  0.00     0.135 A 
ATOM     72  C   UNL     1      10.131  -6.370 -10.325  1.00  0.00     0.135 A 
ATOM     73  F   UNL     1       7.261  -8.358 -11.351  1.00  0.00    -0.206 F 
ATOM     74  C   UNL     1       8.826  -7.188 -12.648  1.00  0.00     0.059 A 
ATOM     75  C   UNL     1      10.612  -5.952 -11.565  1.00  0.00     0.059 A 
ATOM     76  F   UNL     1      10.781  -5.961  -9.224  1.00  0.00    -0.206 F 
ATOM     77  C   UNL     1       9.965  -6.385 -12.722  1.00  0.00     0.060 A 
BRANCH  77  78
ATOM     78  S   UNL     1      10.585  -5.919 -14.354  1.00  0.00     0.124 S 
ATOM     79  O   UNL     1      11.027  -7.203 -14.888  1.00  0.00    -0.237 OA
ATOM     80  O   UNL     1       9.398  -5.345 -14.980  1.00  0.00    -0.237 OA
ATOM     81  O   UNL     1      11.649  -4.965 -14.054  1.00  0.00    -0.744 OA
ENDBRANCH  77  78
ENDBRANCH  56  70
BRANCH  57  82
ATOM     82  C   UNL     1       6.184 -10.746  -1.226  1.00  0.00     0.058 A 
ATOM     83  C   UNL     1       4.800 -10.933  -1.074  1.00  0.00     0.135 A 
ATOM     84  C   UNL     1       7.012 -11.100  -0.155  1.00  0.00     0.135 A 
ATOM     85  F   UNL     1       3.963 -10.580  -2.063  1.00  0.00    -0.206 F 
ATOM     86  C   UNL     1       4.254 -11.443   0.102  1.00  0.00     0.059 A 
ATOM     87  C   UNL     1       6.491 -11.611   1.033  1.00  0.00     0.059 A 
ATOM     88  F   UNL     1       8.341 -10.954  -0.265  1.00  0.00    -0.206 F 
ATOM     89  C   UNL     1       5.108 -11.764   1.160  1.00  0.00     0.060 A 
BRANCH  89  90
ATOM     90  S   UNL     1       4.391 -12.359   2.715  1.00  0.00     0.124 S 
ATOM     91  O   UNL     1       3.868 -11.138   3.320  1.00  0.00    -0.237 OA
ATOM     92  O   UNL     1       3.383 -13.305   2.247  1.00  0.00    -0.237 OA
ATOM     93  O   UNL     1       5.534 -12.955   3.399  1.00  0.00    -0.744 OA
ENDBRANCH  89  90
ENDBRANCH  57  82
BRANCH  69  94
ATOM     94  C   UNL     1       8.878 -13.608  -6.939  1.00  0.00     0.058 A 
ATOM     95  C   UNL     1      10.229 -13.981  -6.998  1.00  0.00     0.135 A 
ATOM     96  C   UNL     1       7.905 -14.574  -7.231  1.00  0.00     0.135 A 
ATOM     97  F   UNL     1      11.193 -13.089  -6.716  1.00  0.00    -0.206 F 
ATOM     98  C   UNL     1      10.606 -15.264  -7.367  1.00  0.00     0.059 A 
ATOM     99  C   UNL     1       8.259 -15.873  -7.571  1.00  0.00     0.059 A 
ATOM    100  F   UNL     1       6.601 -14.265  -7.155  1.00  0.00    -0.206 F 
ATOM    101  C   UNL     1       9.612 -16.201  -7.656  1.00  0.00     0.060 A 
BRANCH 101 102
ATOM    102  S   UNL     1      10.120 -17.862  -8.138  1.00  0.00     0.124 S 
ATOM    103  O   UNL     1      10.687 -17.626  -9.461  1.00  0.00    -0.237 OA
ATOM    104  O   UNL     1      11.074 -18.208  -7.089  1.00  0.00    -0.237 OA
ATOM    105  O   UNL     1       8.871 -18.617  -8.115  1.00  0.00    -0.744 OA
ENDBRANCH 101 102
ENDBRANCH  69  94
ENDBRANCH  43  44
ENDBRANCH  36  38
ENDBRANCH  35  36
ENDBRANCH  34  35
ENDBRANCH  33  34
ENDBRANCH  32  33
ENDBRANCH   1  32
TORSDOF 22
