REMARK SMILES COc1ccc(/C=C/c2ncc([N+](=O)[O-])cc2C(=O)OCCOCCOC(=O)c2ccc(-c3c4nc(c(-c5c(F)cc(S(=O)(=O)[O-])cc5F)c5ccc([nH]5)c(-c5c(F)cc(S(=O)(=O)[O-])cc5F)c5nc(c(-c6c(F)cc(S(=O)(=O)[O-])cc6F)c6ccc3[nH]6)C=C5)C=C4)cc2)cc1
REMARK SMILES IDX 23 1 22 2 21 3 20 4 18 5 19 6 17 7 9 8 10 9 11 10 16 11
REMARK SMILES IDX 12 12 8 13 7 14 6 15 3 16 4 17 96 18 5 19 95 20 2 21 1 22
REMARK SMILES IDX 13 23 14 24 15 25 24 26 25 27 26 28 27 29 28 30 29 31 30 32
REMARK SMILES IDX 94 33 31 34 93 35 32 36 33 37 34 38 87 39 35 40 92 41 86 42
REMARK SMILES IDX 88 43 36 44 91 45 85 46 84 47 37 49 71 50 50 51 70 52 51 53
REMARK SMILES IDX 54 54 69 55 89 56 52 57 53 58 68 60 90 61 55 62 38 63 39 64
REMARK SMILES IDX 48 65 40 66 41 67 47 68 49 69 42 70 43 71 44 72 45 73 46 74
REMARK SMILES IDX 72 75 73 76 82 77 74 78 75 79 81 80 83 81 76 82 77 83 78 84
REMARK SMILES IDX 79 85 80 86 56 87 57 88 66 89 58 90 59 91 65 92 67 93 60 94
REMARK SMILES IDX 61 95 62 96 63 97 64 98
REMARK H PARENT 88 48 54 59
REMARK Flexibility Score: inf
ROOT
ATOM      1  O   UNL     1       5.167   6.270  -2.265  1.00  0.00    -0.374 OA
ENDROOT
BRANCH   1   2
ATOM      2  C   UNL     1       5.666   7.240  -3.188  1.00  0.00     0.202 C 
BRANCH   2   3
ATOM      3  C   UNL     1       4.621   8.018  -3.992  1.00  0.00     0.261 C 
BRANCH   3   4
ATOM      4  O   UNL     1       3.910   8.929  -3.132  1.00  0.00    -0.460 OA
BRANCH   4   5
ATOM      5  C   UNL     1       2.567   8.769  -3.088  1.00  0.00     0.340 C 
ATOM      6  O   UNL     1       1.882   8.071  -3.814  1.00  0.00    -0.246 OA
BRANCH   5   7
ATOM      7  C   UNL     1       2.038   9.504  -1.921  1.00  0.00     0.092 A 
ATOM      8  C   UNL     1       1.107   8.900  -1.062  1.00  0.00     0.078 A 
ATOM      9  N   UNL     1       0.556   9.564  -0.009  1.00  0.00    -0.249 NA
ATOM     10  C   UNL     1       0.935  10.853   0.193  1.00  0.00     0.197 A 
ATOM     11  C   UNL     1       2.464  10.813  -1.657  1.00  0.00     0.105 A 
ATOM     12  C   UNL     1       1.888  11.494  -0.584  1.00  0.00     0.288 A 
BRANCH   8  13
ATOM     13  C   UNL     1       0.713   7.487  -1.175  1.00  0.00     0.030 C 
ATOM     14  C   UNL     1       1.156   6.540  -0.329  1.00  0.00     0.010 C 
BRANCH  14  15
ATOM     15  C   UNL     1       0.915   5.093  -0.498  1.00  0.00    -0.025 A 
ATOM     16  C   UNL     1       0.540   2.308  -0.803  1.00  0.00     0.118 A 
ATOM     17  C   UNL     1      -0.457   3.206  -1.183  1.00  0.00     0.047 A 
ATOM     18  C   UNL     1       1.734   2.798  -0.286  1.00  0.00     0.047 A 
ATOM     19  C   UNL     1      -0.277   4.586  -1.026  1.00  0.00     0.012 A 
ATOM     20  C   UNL     1       1.904   4.177  -0.109  1.00  0.00     0.012 A 
BRANCH  16  21
ATOM     21  O   UNL     1       0.259   0.984  -1.003  1.00  0.00    -0.497 OA
ATOM     22  C   UNL     1       0.887   0.092  -0.086  1.00  0.00     0.278 C 
ENDBRANCH  16  21
ENDBRANCH  14  15
ENDBRANCH   8  13
BRANCH  12  23
ATOM     23  N   UNL     1       2.266  12.864  -0.275  1.00  0.00     0.064 N 
ATOM     24  O   UNL     1       1.514  13.512   0.466  1.00  0.00    -0.258 OA
ATOM     25  O   UNL     1       3.317  13.291  -0.769  1.00  0.00    -0.258 OA
ENDBRANCH  12  23
ENDBRANCH   5   7
ENDBRANCH   4   5
ENDBRANCH   3   4
ENDBRANCH   2   3
ENDBRANCH   1   2
BRANCH   1  26
ATOM     26  C   UNL     1       4.562   6.758  -1.075  1.00  0.00     0.202 C 
BRANCH  26  27
ATOM     27  C   UNL     1       5.460   7.090   0.119  1.00  0.00     0.261 C 
BRANCH  27  28
ATOM     28  O   UNL     1       6.540   7.948  -0.236  1.00  0.00    -0.460 OA
BRANCH  28  29
ATOM     29  C   UNL     1       7.675   7.276  -0.546  1.00  0.00     0.338 C 
ATOM     30  O   UNL     1       7.881   6.077  -0.447  1.00  0.00    -0.246 OA
BRANCH  29  31
ATOM     31  C   UNL     1       8.590   8.207  -1.217  1.00  0.00     0.060 A 
ATOM     32  C   UNL     1       9.129   7.811  -2.447  1.00  0.00     0.016 A 
ATOM     33  C   UNL     1       8.911   9.441  -0.648  1.00  0.00     0.016 A 
ATOM     34  C   UNL     1      10.038   8.636  -3.096  1.00  0.00     0.010 A 
ATOM     35  C   UNL     1       9.828  10.264  -1.296  1.00  0.00     0.010 A 
ATOM     36  C   UNL     1      10.421   9.843  -2.499  1.00  0.00    -0.014 A 
BRANCH  36  37
ATOM     37  C   UNL     1      11.579  10.584  -3.038  1.00  0.00     0.031 A 
ATOM     38  C   UNL     1      12.902  10.435  -2.344  1.00  0.00     0.074 A 
ATOM     39  C   UNL     1      11.448  11.356  -4.128  1.00  0.00     0.049 A 
ATOM     40  N   UNL     1      14.040  11.023  -2.595  1.00  0.00    -0.248 NA
ATOM     41  C   UNL     1      12.942   9.500  -1.206  1.00  0.00     0.031 C 
ATOM     42  C   UNL     1      10.216  11.530  -4.897  1.00  0.00     0.029 A 
ATOM     43  N   UNL     1      12.364  12.144  -4.773  1.00  0.00    -0.354 N 
ATOM     44  C   UNL     1      14.930  10.538  -1.643  1.00  0.00     0.074 A 
ATOM     45  C   UNL     1      14.188   9.641  -0.784  1.00  0.00     0.031 C 
ATOM     46  C   UNL     1      10.453  12.378  -5.911  1.00  0.00     0.029 A 
ATOM     47  C   UNL     1      11.840  12.834  -5.838  1.00  0.00     0.049 A 
ATOM     48  H   UNL     1      13.307  12.209  -4.499  1.00  0.00     0.167 HD
ATOM     49  C   UNL     1      16.249  10.811  -1.508  1.00  0.00     0.037 A 
ATOM     50  C   UNL     1      12.416  13.746  -6.644  1.00  0.00     0.037 A 
ATOM     51  C   UNL     1      16.963  11.717  -2.368  1.00  0.00     0.049 A 
ATOM     52  C   UNL     1      13.864  14.098  -6.426  1.00  0.00     0.074 A 
ATOM     53  C   UNL     1      18.301  12.066  -2.330  1.00  0.00     0.029 A 
ATOM     54  N   UNL     1      16.393  12.427  -3.416  1.00  0.00    -0.354 N 
ATOM     55  N   UNL     1      14.703  13.624  -5.534  1.00  0.00    -0.248 NA
ATOM     56  C   UNL     1      14.444  15.104  -7.324  1.00  0.00     0.031 C 
ATOM     57  C   UNL     1      18.525  13.032  -3.317  1.00  0.00     0.029 A 
ATOM     58  C   UNL     1      17.344  13.235  -4.016  1.00  0.00     0.049 A 
ATOM     59  H   UNL     1      15.450  12.366  -3.692  1.00  0.00     0.167 HD
ATOM     60  C   UNL     1      15.921  14.249  -5.785  1.00  0.00     0.074 A 
ATOM     61  C   UNL     1      15.706  15.131  -6.916  1.00  0.00     0.031 C 
ATOM     62  C   UNL     1      17.109  14.102  -5.146  1.00  0.00     0.037 A 
BRANCH  49  63
ATOM     63  C   UNL     1      16.978  10.150  -0.369  1.00  0.00     0.058 A 
ATOM     64  C   UNL     1      17.205   8.764  -0.335  1.00  0.00     0.135 A 
ATOM     65  C   UNL     1      17.446  10.914   0.713  1.00  0.00     0.135 A 
ATOM     66  F   UNL     1      16.763   7.981  -1.332  1.00  0.00    -0.206 F 
ATOM     67  C   UNL     1      17.829   8.154   0.749  1.00  0.00     0.059 A 
ATOM     68  C   UNL     1      18.104  10.329   1.792  1.00  0.00     0.059 A 
ATOM     69  F   UNL     1      17.255  12.242   0.737  1.00  0.00    -0.206 F 
ATOM     70  C   UNL     1      18.270   8.946   1.810  1.00  0.00     0.060 A 
BRANCH  70  71
ATOM     71  S   UNL     1      19.053   8.137   3.221  1.00  0.00     0.124 S 
ATOM     72  O   UNL     1      17.913   7.475   3.847  1.00  0.00    -0.237 OA
ATOM     73  O   UNL     1      20.022   7.256   2.577  1.00  0.00    -0.237 OA
ATOM     74  O   UNL     1      19.625   9.247   3.977  1.00  0.00    -0.744 OA
ENDBRANCH  70  71
ENDBRANCH  49  63
BRANCH  50  75
ATOM     75  C   UNL     1      11.622  14.374  -7.732  1.00  0.00     0.058 A 
ATOM     76  C   UNL     1      11.886  14.080  -9.078  1.00  0.00     0.135 A 
ATOM     77  C   UNL     1      10.563  15.251  -7.451  1.00  0.00     0.135 A 
ATOM     78  F   UNL     1      12.893  13.254  -9.399  1.00  0.00    -0.206 F 
ATOM     79  C   UNL     1      11.132  14.635 -10.106  1.00  0.00     0.059 A 
ATOM     80  C   UNL     1       9.777  15.798  -8.460  1.00  0.00     0.059 A 
ATOM     81  F   UNL     1      10.261  15.555  -6.178  1.00  0.00    -0.206 F 
ATOM     82  C   UNL     1      10.073  15.487  -9.786  1.00  0.00     0.060 A 
BRANCH  82  83
ATOM     83  S   UNL     1       9.057  16.142 -11.128  1.00  0.00     0.124 S 
ATOM     84  O   UNL     1       9.979  17.073 -11.768  1.00  0.00    -0.237 OA
ATOM     85  O   UNL     1       8.739  14.934 -11.884  1.00  0.00    -0.237 OA
ATOM     86  O   UNL     1       7.928  16.750 -10.429  1.00  0.00    -0.744 OA
ENDBRANCH  82  83
ENDBRANCH  50  75
BRANCH  62  87
ATOM     87  C   UNL     1      18.285  14.875  -5.679  1.00  0.00     0.058 A 
ATOM     88  C   UNL     1      18.393  16.265  -5.524  1.00  0.00     0.135 A 
ATOM     89  C   UNL     1      19.350  14.200  -6.299  1.00  0.00     0.135 A 
ATOM     90  F   UNL     1      17.401  16.960  -4.945  1.00  0.00    -0.206 F 
ATOM     91  C   UNL     1      19.506  16.962  -5.982  1.00  0.00     0.059 A 
ATOM     92  C   UNL     1      20.486  14.872  -6.735  1.00  0.00     0.059 A 
ATOM     93  F   UNL     1      19.303  12.868  -6.463  1.00  0.00    -0.206 F 
ATOM     94  C   UNL     1      20.550  16.256  -6.582  1.00  0.00     0.060 A 
BRANCH  94  95
ATOM     95  S   UNL     1      22.007  17.168  -7.134  1.00  0.00     0.124 S 
ATOM     96  O   UNL     1      21.486  17.877  -8.298  1.00  0.00    -0.237 OA
ATOM     97  O   UNL     1      22.313  17.997  -5.972  1.00  0.00    -0.237 OA
ATOM     98  O   UNL     1      22.979  16.118  -7.421  1.00  0.00    -0.744 OA
ENDBRANCH  94  95
ENDBRANCH  62  87
ENDBRANCH  36  37
ENDBRANCH  29  31
ENDBRANCH  28  29
ENDBRANCH  27  28
ENDBRANCH  26  27
ENDBRANCH   1  26
TORSDOF 21
