REMARK SMILES O=C(OCCOCCOC(=O)c1cc(Cl)cc(Cl)c1O)c1ccc(-c2c3nc(c(-c4c(F)cc(S(=O)(=O)[O-])cc4F)c4ccc([nH]4)c(-c4c(F)cc(S(=O)(=O)[O-])cc4F)c4nc(c(-c5c(F)cc(S(=O)(=O)[O-])cc5F)c5ccc2[nH]5)C=C4)C=C3)cc1
REMARK SMILES IDX 5 1 4 2 3 3 2 4 1 5 21 6 22 7 86 8 23 9 85 10 24 11 25 12
REMARK SMILES IDX 26 13 79 14 27 15 84 16 78 17 80 18 28 19 83 20 77 21 76 22
REMARK SMILES IDX 29 24 63 25 42 26 62 27 43 28 46 29 61 30 81 31 44 32 45 33
REMARK SMILES IDX 60 35 82 36 47 37 30 38 31 39 40 40 32 41 33 42 39 43 41 44
REMARK SMILES IDX 34 45 35 46 36 47 37 48 38 49 64 50 65 51 74 52 66 53 67 54
REMARK SMILES IDX 73 55 75 56 68 57 69 58 70 59 71 60 72 61 48 62 49 63 58 64
REMARK SMILES IDX 50 65 51 66 57 67 59 68 52 69 53 70 54 71 55 72 56 73 6 74
REMARK SMILES IDX 7 75 8 76 9 77 10 78 11 79 12 80 13 81 19 82 14 83 17 84
REMARK SMILES IDX 15 85 16 86 18 87 20 88
REMARK H PARENT 80 23 46 34 20 89
REMARK Flexibility Score: inf
ROOT
ATOM      1  C   UNL     1       4.364   0.971  -1.304  1.00  0.00     0.202 C 
ENDROOT
BRANCH   1   2
ATOM      2  C   UNL     1       3.898  -0.487  -1.221  1.00  0.00     0.261 C 
BRANCH   2   3
ATOM      3  O   UNL     1       2.515  -0.557  -0.828  1.00  0.00    -0.460 OA
BRANCH   3   4
ATOM      4  C   UNL     1       2.014  -1.082   0.319  1.00  0.00     0.338 C 
ATOM      5  O   UNL     1       0.804  -1.268   0.416  1.00  0.00    -0.246 OA
BRANCH   4   6
ATOM      6  C   UNL     1       2.883  -1.428   1.480  1.00  0.00     0.060 A 
ATOM      7  C   UNL     1       4.058  -0.745   1.784  1.00  0.00     0.016 A 
ATOM      8  C   UNL     1       2.453  -2.431   2.363  1.00  0.00     0.016 A 
ATOM      9  C   UNL     1       4.850  -1.104   2.856  1.00  0.00     0.010 A 
ATOM     10  C   UNL     1       3.206  -2.747   3.501  1.00  0.00     0.010 A 
ATOM     11  C   UNL     1       4.419  -2.089   3.739  1.00  0.00    -0.014 A 
BRANCH  11  12
ATOM     12  C   UNL     1       5.318  -2.421   4.860  1.00  0.00     0.031 A 
ATOM     13  C   UNL     1       6.062  -3.719   4.825  1.00  0.00     0.074 A 
ATOM     14  C   UNL     1       5.576  -1.478   5.787  1.00  0.00     0.049 A 
ATOM     15  N   UNL     1       6.892  -4.216   5.699  1.00  0.00    -0.248 NA
ATOM     16  C   UNL     1       5.857  -4.566   3.637  1.00  0.00     0.031 C 
ATOM     17  C   UNL     1       4.976  -0.138   5.815  1.00  0.00     0.029 A 
ATOM     18  N   UNL     1       6.436  -1.473   6.851  1.00  0.00    -0.354 N 
ATOM     19  C   UNL     1       7.294  -5.440   5.180  1.00  0.00     0.074 A 
ATOM     20  C   UNL     1       6.608  -5.620   3.921  1.00  0.00     0.031 C 
ATOM     21  C   UNL     1       5.516   0.568   6.820  1.00  0.00     0.029 A 
ATOM     22  C   UNL     1       6.432  -0.291   7.557  1.00  0.00     0.049 A 
ATOM     23  H   UNL     1       7.004  -2.241   7.089  1.00  0.00     0.167 HD
ATOM     24  C   UNL     1       8.163  -6.326   5.718  1.00  0.00     0.037 A 
ATOM     25  C   UNL     1       7.069   0.037   8.696  1.00  0.00     0.037 A 
ATOM     26  C   UNL     1       8.825  -6.109   6.976  1.00  0.00     0.049 A 
ATOM     27  C   UNL     1       7.955  -1.006   9.321  1.00  0.00     0.074 A 
ATOM     28  C   UNL     1       9.645  -6.966   7.684  1.00  0.00     0.029 A 
ATOM     29  N   UNL     1       8.743  -4.931   7.709  1.00  0.00    -0.354 N 
ATOM     30  N   UNL     1       8.250  -2.207   8.876  1.00  0.00    -0.248 NA
ATOM     31  C   UNL     1       8.582  -0.666  10.603  1.00  0.00     0.031 C 
ATOM     32  C   UNL     1      10.034  -6.316   8.862  1.00  0.00     0.029 A 
ATOM     33  C   UNL     1       9.495  -5.037   8.864  1.00  0.00     0.049 A 
ATOM     34  H   UNL     1       8.226  -4.136   7.444  1.00  0.00     0.167 HD
ATOM     35  C   UNL     1       9.102  -2.764   9.819  1.00  0.00     0.074 A 
ATOM     36  C   UNL     1       9.298  -1.755  10.844  1.00  0.00     0.031 C 
ATOM     37  C   UNL     1       9.665  -3.998   9.850  1.00  0.00     0.037 A 
BRANCH  24  38
ATOM     38  C   UNL     1       8.382  -7.612   4.972  1.00  0.00     0.058 A 
ATOM     39  C   UNL     1       9.114  -7.661   3.775  1.00  0.00     0.135 A 
ATOM     40  C   UNL     1       7.823  -8.810   5.445  1.00  0.00     0.135 A 
ATOM     41  F   UNL     1       9.641  -6.539   3.259  1.00  0.00    -0.206 F 
ATOM     42  C   UNL     1       9.263  -8.846   3.061  1.00  0.00     0.059 A 
ATOM     43  C   UNL     1       7.978 -10.011   4.760  1.00  0.00     0.059 A 
ATOM     44  F   UNL     1       7.100  -8.818   6.576  1.00  0.00    -0.206 F 
ATOM     45  C   UNL     1       8.687 -10.016   3.559  1.00  0.00     0.060 A 
BRANCH  45  46
ATOM     46  S   UNL     1       8.872 -11.542   2.612  1.00  0.00     0.124 S 
ATOM     47  O   UNL     1       7.984 -11.293   1.480  1.00  0.00    -0.237 OA
ATOM     48  O   UNL     1      10.299 -11.550   2.309  1.00  0.00    -0.237 OA
ATOM     49  O   UNL     1       8.426 -12.576   3.542  1.00  0.00    -0.744 OA
ENDBRANCH  45  46
ENDBRANCH  24  38
BRANCH  25  50
ATOM     50  C   UNL     1       6.832   1.356   9.348  1.00  0.00     0.058 A 
ATOM     51  C   UNL     1       7.860   2.295   9.518  1.00  0.00     0.135 A 
ATOM     52  C   UNL     1       5.559   1.697   9.838  1.00  0.00     0.135 A 
ATOM     53  F   UNL     1       9.097   2.022   9.073  1.00  0.00    -0.206 F 
ATOM     54  C   UNL     1       7.645   3.505  10.174  1.00  0.00     0.059 A 
ATOM     55  C   UNL     1       5.311   2.913  10.467  1.00  0.00     0.059 A 
ATOM     56  F   UNL     1       4.531   0.846   9.694  1.00  0.00    -0.206 F 
ATOM     57  C   UNL     1       6.367   3.803  10.649  1.00  0.00     0.060 A 
BRANCH  57  58
ATOM     58  S   UNL     1       6.090   5.374  11.496  1.00  0.00     0.124 S 
ATOM     59  O   UNL     1       6.722   5.125  12.787  1.00  0.00    -0.237 OA
ATOM     60  O   UNL     1       6.774   6.322  10.622  1.00  0.00    -0.237 OA
ATOM     61  O   UNL     1       4.635   5.492  11.518  1.00  0.00    -0.744 OA
ENDBRANCH  57  58
ENDBRANCH  25  50
BRANCH  37  62
ATOM     62  C   UNL     1      10.565  -4.297  11.013  1.00  0.00     0.058 A 
ATOM     63  C   UNL     1      10.051  -4.534  12.296  1.00  0.00     0.135 A 
ATOM     64  C   UNL     1      11.953  -4.388  10.826  1.00  0.00     0.135 A 
ATOM     65  F   UNL     1       8.730  -4.450  12.523  1.00  0.00    -0.206 F 
ATOM     66  C   UNL     1      10.888  -4.826  13.366  1.00  0.00     0.059 A 
ATOM     67  C   UNL     1      12.806  -4.707  11.875  1.00  0.00     0.059 A 
ATOM     68  F   UNL     1      12.488  -4.180   9.613  1.00  0.00    -0.206 F 
ATOM     69  C   UNL     1      12.264  -4.911  13.144  1.00  0.00     0.060 A 
BRANCH  69  70
ATOM     70  S   UNL     1      13.339  -5.321  14.533  1.00  0.00     0.124 S 
ATOM     71  O   UNL     1      13.362  -4.060  15.267  1.00  0.00    -0.237 OA
ATOM     72  O   UNL     1      12.618  -6.416  15.175  1.00  0.00    -0.237 OA
ATOM     73  O   UNL     1      14.595  -5.698  13.891  1.00  0.00    -0.744 OA
ENDBRANCH  69  70
ENDBRANCH  37  62
ENDBRANCH  11  12
ENDBRANCH   4   6
ENDBRANCH   3   4
ENDBRANCH   2   3
ENDBRANCH   1   2
BRANCH   1  74
ATOM     74  O   UNL     1       4.198   1.737  -0.111  1.00  0.00    -0.374 OA
BRANCH  74  75
ATOM     75  C   UNL     1       2.887   2.265   0.122  1.00  0.00     0.202 C 
BRANCH  75  76
ATOM     76  C   UNL     1       3.008   3.734   0.542  1.00  0.00     0.261 C 
BRANCH  76  77
ATOM     77  O   UNL     1       3.527   4.486  -0.571  1.00  0.00    -0.460 OA
BRANCH  77  78
ATOM     78  C   UNL     1       4.876   4.467  -0.695  1.00  0.00     0.342 C 
ATOM     79  O   UNL     1       5.711   4.180   0.148  1.00  0.00    -0.246 OA
BRANCH  78  80
ATOM     80  C   UNL     1       5.212   4.579  -2.126  1.00  0.00     0.104 A 
ATOM     81  C   UNL     1       4.457   5.410  -2.962  1.00  0.00     0.040 A 
ATOM     82  C   UNL     1       6.231   3.773  -2.657  1.00  0.00     0.148 A 
ATOM     83  C   UNL     1       4.706   5.412  -4.330  1.00  0.00     0.043 A 
ATOM     84  C   UNL     1       6.445   3.765  -4.039  1.00  0.00     0.085 A 
ATOM     85  Cl  UNL     1       3.778   6.430  -5.360  1.00  0.00    -0.084 Cl
ATOM     86  C   UNL     1       5.685   4.585  -4.876  1.00  0.00     0.045 A 
ATOM     87  Cl  UNL     1       7.621   2.729  -4.764  1.00  0.00    -0.080 Cl
BRANCH  82  88
ATOM     88  O   UNL     1       7.002   2.959  -1.867  1.00  0.00    -0.505 OA
ATOM     89  H   UNL     1       6.874   2.949  -0.938  1.00  0.00     0.293 HD
ENDBRANCH  82  88
ENDBRANCH  78  80
ENDBRANCH  77  78
ENDBRANCH  76  77
ENDBRANCH  75  76
ENDBRANCH  74  75
ENDBRANCH   1  74
TORSDOF 18
