REMARK SMILES C[C@H](c1ccncc1)N1C[C@H](C(=O)OCCOCCOC(=O)c2ccc(-c3c4nc(c(-c5c(F)cc(S(=O)(=O)[O-])cc5F)c5ccc([nH]5)c(-c5c(F)cc(S(=O)(=O)[O-])cc5F)c5nc(c(-c6c(F)cc(S(=O)(=O)[O-])cc6F)c6ccc3[nH]6)C=C5)C=C4)cc2)CC1=O
REMARK SMILES IDX 18 1 17 2 16 3 15 4 14 5 12 6 13 7 11 8 9 9 10 10 90 11
REMARK SMILES IDX 89 12 91 13 2 14 1 15 3 16 4 17 8 18 5 19 7 20 6 21 19 22
REMARK SMILES IDX 20 23 21 24 22 25 23 26 24 27 88 28 25 29 87 30 26 31 27 32
REMARK SMILES IDX 28 33 81 34 29 35 86 36 80 37 82 38 30 39 85 40 79 41 78 42
REMARK SMILES IDX 31 44 65 45 44 46 64 47 45 48 48 49 63 50 83 51 46 52 47 53
REMARK SMILES IDX 62 55 84 56 49 57 32 58 33 59 42 60 34 61 35 62 41 63 43 64
REMARK SMILES IDX 36 65 37 66 38 67 39 68 40 69 66 70 67 71 76 72 68 73 69 74
REMARK SMILES IDX 75 75 77 76 70 77 71 78 72 79 73 80 74 81 50 82 51 83 60 84
REMARK SMILES IDX 52 85 53 86 59 87 61 88 54 89 55 90 56 91 57 92 58 93
REMARK H PARENT 82 43 48 54
REMARK Flexibility Score: inf
ROOT
ATOM      1  C   UNL     1      -2.528  -0.019  -3.817  1.00  0.00     0.202 C 
ENDROOT
BRANCH   1   2
ATOM      2  O   UNL     1      -2.705  -0.863  -4.956  1.00  0.00    -0.374 OA
BRANCH   2   3
ATOM      3  C   UNL     1      -3.963  -1.530  -5.066  1.00  0.00     0.202 C 
BRANCH   3   4
ATOM      4  C   UNL     1      -4.155  -2.773  -4.189  1.00  0.00     0.261 C 
BRANCH   4   5
ATOM      5  O   UNL     1      -4.111  -2.463  -2.781  1.00  0.00    -0.463 OA
BRANCH   5   6
ATOM      6  C   UNL     1      -3.121  -3.064  -2.069  1.00  0.00     0.311 C 
ATOM      7  O   UNL     1      -2.348  -3.898  -2.525  1.00  0.00    -0.252 OA
BRANCH   6   8
ATOM      8  C   UNL     1      -3.119  -2.647  -0.604  1.00  0.00     0.128 C 
ATOM      9  N   UNL     1      -1.108  -1.490  -0.170  1.00  0.00    -0.335 N 
ATOM     10  C   UNL     1      -1.716  -2.799  -0.027  1.00  0.00     0.136 C 
ATOM     11  C   UNL     1      -2.074  -0.528  -0.449  1.00  0.00     0.224 C 
ATOM     12  C   UNL     1      -3.431  -1.179  -0.342  1.00  0.00     0.117 C 
ATOM     13  O   UNL     1      -1.897   0.642  -0.743  1.00  0.00    -0.275 OA
BRANCH   9  14
ATOM     14  C   UNL     1       0.338  -1.294  -0.378  1.00  0.00     0.112 C 
ATOM     15  C   UNL     1       1.202  -2.409   0.230  1.00  0.00     0.036 C 
BRANCH  14  16
ATOM     16  C   UNL     1       0.853   0.039   0.142  1.00  0.00    -0.023 A 
ATOM     17  C   UNL     1       0.643   0.448   1.463  1.00  0.00     0.026 A 
ATOM     18  C   UNL     1       1.573   0.892  -0.704  1.00  0.00     0.026 A 
ATOM     19  C   UNL     1       1.155   1.671   1.872  1.00  0.00     0.111 A 
ATOM     20  C   UNL     1       2.046   2.094  -0.200  1.00  0.00     0.111 A 
ATOM     21  N   UNL     1       1.867   2.497   1.075  1.00  0.00    -0.265 NA
ENDBRANCH  14  16
ENDBRANCH   9  14
ENDBRANCH   6   8
ENDBRANCH   5   6
ENDBRANCH   4   5
ENDBRANCH   3   4
ENDBRANCH   2   3
ENDBRANCH   1   2
BRANCH   1  22
ATOM     22  C   UNL     1      -3.205   1.357  -3.857  1.00  0.00     0.261 C 
BRANCH  22  23
ATOM     23  O   UNL     1      -4.642   1.252  -3.865  1.00  0.00    -0.460 OA
BRANCH  23  24
ATOM     24  C   UNL     1      -5.230   1.659  -5.014  1.00  0.00     0.338 C 
ATOM     25  O   UNL     1      -4.682   2.174  -5.981  1.00  0.00    -0.246 OA
BRANCH  24  26
ATOM     26  C   UNL     1      -6.639   1.224  -5.051  1.00  0.00     0.060 A 
ATOM     27  C   UNL     1      -7.063   0.536  -6.195  1.00  0.00     0.016 A 
ATOM     28  C   UNL     1      -7.546   1.543  -4.038  1.00  0.00     0.016 A 
ATOM     29  C   UNL     1      -8.409   0.219  -6.361  1.00  0.00     0.010 A 
ATOM     30  C   UNL     1      -8.901   1.230  -4.210  1.00  0.00     0.010 A 
ATOM     31  C   UNL     1      -9.343   0.604  -5.391  1.00  0.00    -0.014 A 
BRANCH  31  32
ATOM     32  C   UNL     1     -10.790   0.491  -5.699  1.00  0.00     0.031 A 
ATOM     33  C   UNL     1     -11.529   1.713  -6.176  1.00  0.00     0.074 A 
ATOM     34  C   UNL     1     -11.423  -0.692  -5.609  1.00  0.00     0.049 A 
ATOM     35  N   UNL     1     -12.787   1.844  -6.507  1.00  0.00    -0.248 NA
ATOM     36  C   UNL     1     -10.742   2.951  -6.299  1.00  0.00     0.031 C 
ATOM     37  C   UNL     1     -10.805  -1.951  -5.196  1.00  0.00     0.029 A 
ATOM     38  N   UNL     1     -12.730  -1.025  -5.860  1.00  0.00    -0.354 N 
ATOM     39  C   UNL     1     -12.946   3.176  -6.873  1.00  0.00     0.074 A 
ATOM     40  C   UNL     1     -11.662   3.819  -6.695  1.00  0.00     0.031 C 
ATOM     41  C   UNL     1     -11.736  -2.921  -5.215  1.00  0.00     0.029 A 
ATOM     42  C   UNL     1     -13.020  -2.346  -5.615  1.00  0.00     0.049 A 
ATOM     43  H   UNL     1     -13.398  -0.379  -6.185  1.00  0.00     0.167 HD
ATOM     44  C   UNL     1     -14.057   3.803  -7.326  1.00  0.00     0.037 A 
ATOM     45  C   UNL     1     -14.190  -3.011  -5.690  1.00  0.00     0.037 A 
ATOM     46  C   UNL     1     -15.331   3.158  -7.506  1.00  0.00     0.049 A 
ATOM     47  C   UNL     1     -15.427  -2.279  -6.142  1.00  0.00     0.074 A 
ATOM     48  C   UNL     1     -16.514   3.703  -7.975  1.00  0.00     0.029 A 
ATOM     49  N   UNL     1     -15.591   1.826  -7.219  1.00  0.00    -0.354 N 
ATOM     50  N   UNL     1     -15.557  -1.025  -6.505  1.00  0.00    -0.248 NA
ATOM     51  C   UNL     1     -16.675  -3.053  -6.200  1.00  0.00     0.031 C 
ATOM     52  C   UNL     1     -17.500   2.711  -7.930  1.00  0.00     0.029 A 
ATOM     53  C   UNL     1     -16.921   1.536  -7.478  1.00  0.00     0.049 A 
ATOM     54  H   UNL     1     -14.929   1.181  -6.880  1.00  0.00     0.167 HD
ATOM     55  C   UNL     1     -16.893  -0.866  -6.856  1.00  0.00     0.074 A 
ATOM     56  C   UNL     1     -17.529  -2.155  -6.673  1.00  0.00     0.031 C 
ATOM     57  C   UNL     1     -17.537   0.245  -7.294  1.00  0.00     0.037 A 
BRANCH  44  58
ATOM     58  C   UNL     1     -13.949   5.270  -7.637  1.00  0.00     0.058 A 
ATOM     59  C   UNL     1     -13.260   5.738  -8.767  1.00  0.00     0.135 A 
ATOM     60  C   UNL     1     -14.568   6.220  -6.808  1.00  0.00     0.135 A 
ATOM     61  F   UNL     1     -12.635   4.874  -9.583  1.00  0.00    -0.206 F 
ATOM     62  C   UNL     1     -13.166   7.097  -9.051  1.00  0.00     0.059 A 
ATOM     63  C   UNL     1     -14.509   7.582  -7.086  1.00  0.00     0.059 A 
ATOM     64  F   UNL     1     -15.238   5.827  -5.713  1.00  0.00    -0.206 F 
ATOM     65  C   UNL     1     -13.793   8.012  -8.203  1.00  0.00     0.060 A 
BRANCH  65  66
ATOM     66  S   UNL     1     -13.668   9.772  -8.585  1.00  0.00     0.124 S 
ATOM     67  O   UNL     1     -12.285  10.052  -8.211  1.00  0.00    -0.237 OA
ATOM     68  O   UNL     1     -13.955   9.803 -10.016  1.00  0.00    -0.237 OA
ATOM     69  O   UNL     1     -14.684  10.378  -7.732  1.00  0.00    -0.744 OA
ENDBRANCH  65  66
ENDBRANCH  44  58
BRANCH  45  70
ATOM     70  C   UNL     1     -14.250  -4.449  -5.317  1.00  0.00     0.058 A 
ATOM     71  C   UNL     1     -14.456  -5.444  -6.284  1.00  0.00     0.135 A 
ATOM     72  C   UNL     1     -14.097  -4.856  -3.982  1.00  0.00     0.135 A 
ATOM     73  F   UNL     1     -14.620  -5.105  -7.571  1.00  0.00    -0.206 F 
ATOM     74  C   UNL     1     -14.516  -6.792  -5.940  1.00  0.00     0.059 A 
ATOM     75  C   UNL     1     -14.130  -6.198  -3.618  1.00  0.00     0.059 A 
ATOM     76  F   UNL     1     -13.888  -3.943  -3.021  1.00  0.00    -0.206 F 
ATOM     77  C   UNL     1     -14.349  -7.159  -4.604  1.00  0.00     0.060 A 
BRANCH  77  78
ATOM     78  S   UNL     1     -14.370  -8.913  -4.174  1.00  0.00     0.124 S 
ATOM     79  O   UNL     1     -15.792  -9.222  -4.271  1.00  0.00    -0.237 OA
ATOM     80  O   UNL     1     -13.518  -9.492  -5.208  1.00  0.00    -0.237 OA
ATOM     81  O   UNL     1     -13.808  -8.934  -2.827  1.00  0.00    -0.744 OA
ENDBRANCH  77  78
ENDBRANCH  45  70
BRANCH  57  82
ATOM     82  C   UNL     1     -18.995   0.114  -7.635  1.00  0.00     0.058 A 
ATOM     83  C   UNL     1     -19.978  -0.003  -6.640  1.00  0.00     0.135 A 
ATOM     84  C   UNL     1     -19.419   0.160  -8.974  1.00  0.00     0.135 A 
ATOM     85  F   UNL     1     -19.625  -0.057  -5.346  1.00  0.00    -0.206 F 
ATOM     86  C   UNL     1     -21.329  -0.092  -6.961  1.00  0.00     0.059 A 
ATOM     87  C   UNL     1     -20.766   0.099  -9.316  1.00  0.00     0.059 A 
ATOM     88  F   UNL     1     -18.520   0.283  -9.963  1.00  0.00    -0.206 F 
ATOM     89  C   UNL     1     -21.713  -0.039  -8.302  1.00  0.00     0.060 A 
BRANCH  89  90
ATOM     90  S   UNL     1     -23.471  -0.124  -8.704  1.00  0.00     0.124 S 
ATOM     91  O   UNL     1     -23.752  -1.541  -8.499  1.00  0.00    -0.237 OA
ATOM     92  O   UNL     1     -24.061   0.787  -7.728  1.00  0.00    -0.237 OA
ATOM     93  O   UNL     1     -23.525   0.333 -10.090  1.00  0.00    -0.744 OA
ENDBRANCH  89  90
ENDBRANCH  57  82
ENDBRANCH  31  32
ENDBRANCH  24  26
ENDBRANCH  23  24
ENDBRANCH  22  23
ENDBRANCH   1  22
TORSDOF 19
