REMARK SMILES C[NH+](C)CCCN1c2ccccc2CCc2cc(O[C@@H]3O[C@H](C(=O)OCCOCCOC(=O)c4ccc(-c5c6nc(c(-c7c(F)cc(S(=O)(=O)[O-])cc7F)c7ccc([nH]7)c(-c7c(F)cc(S(=O)(=O)[O-])cc7F)c7nc(c(-c8c(F)cc(S(=O)(=O)[O-])cc8F)c8ccc5[nH]8)C=C7)C=C6)cc4)[C@@H](O)[C@H](O)[C@H]3O)ccc21
REMARK SMILES IDX 26 1 25 2 23 3 24 4 22 5 20 6 21 7 104 8 102 9 100 10 19 11
REMARK SMILES IDX 18 12 108 13 16 14 107 15 17 16 106 17 7 18 6 19 5 20 4 21
REMARK SMILES IDX 2 22 1 23 3 24 8 26 9 27 13 28 10 29 12 30 11 31 14 32 15 34
REMARK SMILES IDX 105 36 103 38 101 40 27 42 28 43 29 44 30 45 31 46 32 47
REMARK SMILES IDX 33 48 34 49 35 50 99 51 36 52 98 53 37 54 38 55 39 56 92 57
REMARK SMILES IDX 40 58 97 59 91 60 93 61 41 62 96 63 90 64 89 65 42 67 76 68
REMARK SMILES IDX 55 69 75 70 56 71 59 72 74 73 94 74 57 75 58 76 73 78 95 79
REMARK SMILES IDX 60 80 43 81 44 82 53 83 45 84 46 85 52 86 54 87 47 88 48 89
REMARK SMILES IDX 49 90 50 91 51 92 77 93 78 94 87 95 79 96 80 97 86 98 88 99
REMARK SMILES IDX 81 100 82 101 83 102 84 103 85 104 61 105 62 106 71 107
REMARK SMILES IDX 63 108 64 109 70 110 72 111 65 112 66 113 67 114 68 115
REMARK SMILES IDX 69 116
REMARK H PARENT 2 25 105 37 103 39 101 41 93 66 59 77
REMARK Flexibility Score: 100.00
ROOT
ATOM      1  C   UNL     1       0.156   6.423   5.572  1.00  0.00     0.261 C 
ENDROOT
BRANCH   1   2
ATOM      2  O   UNL     1       1.562   6.293   5.312  1.00  0.00    -0.461 OA
BRANCH   2   3
ATOM      3  C   UNL     1       1.911   5.384   4.372  1.00  0.00     0.338 C 
ATOM      4  O   UNL     1       1.176   4.525   3.892  1.00  0.00    -0.249 OA
BRANCH   3   5
ATOM      5  C   UNL     1       3.362   5.524   3.919  1.00  0.00     0.263 C 
ATOM      6  C   UNL     1       5.221   6.938   3.539  1.00  0.00     0.339 C 
ATOM      7  O   UNL     1       3.973   6.773   4.220  1.00  0.00    -0.322 OA
ATOM      8  C   UNL     1       6.244   5.816   3.846  1.00  0.00     0.214 C 
ATOM      9  C   UNL     1       5.584   4.433   3.878  1.00  0.00     0.181 C 
ATOM     10  C   UNL     1       4.197   4.406   4.533  1.00  0.00     0.186 C 
BRANCH   6  11
ATOM     11  O   UNL     1       5.742   8.263   3.710  1.00  0.00    -0.462 OA
BRANCH  11  12
ATOM     12  C   UNL     1       6.075   8.747   4.942  1.00  0.00     0.123 A 
ATOM     13  C   UNL     1       7.014   9.955   7.316  1.00  0.00     0.045 A 
ATOM     14  C   UNL     1       6.491   8.656   7.340  1.00  0.00    -0.020 A 
ATOM     15  C   UNL     1       7.054  10.643   6.098  1.00  0.00     0.030 A 
ATOM     16  C   UNL     1       5.973   8.082   6.164  1.00  0.00     0.052 A 
ATOM     17  C   UNL     1       6.609  10.036   4.922  1.00  0.00     0.049 A 
BRANCH  13  18
ATOM     18  N   UNL     1       7.587  10.522   8.463  1.00  0.00    -0.341 N 
BRANCH  18  19
ATOM     19  C   UNL     1       6.874  11.656   9.086  1.00  0.00     0.128 C 
BRANCH  19  20
ATOM     20  C   UNL     1       5.992  11.243  10.274  1.00  0.00     0.083 C 
BRANCH  20  21
ATOM     21  C   UNL     1       6.668  10.827  11.594  1.00  0.00     0.263 C 
BRANCH  21  22
ATOM     22  N   UNL     1       7.158  11.856  12.517  1.00  0.00    -0.340 N 
ATOM     23  C   UNL     1       8.386  12.514  12.116  1.00  0.00     0.332 C 
ATOM     24  C   UNL     1       6.139  12.804  12.950  1.00  0.00     0.332 C 
ATOM     25  H   UNL     1       7.409  11.311  13.341  1.00  0.00     0.347 HD
ENDBRANCH  21  22
ENDBRANCH  20  21
ENDBRANCH  19  20
ENDBRANCH  18  19
BRANCH  18  26
ATOM     26  C   UNL     1       8.756  10.037   9.069  1.00  0.00     0.044 A 
ATOM     27  C   UNL     1       9.800  10.944   9.346  1.00  0.00     0.026 A 
ATOM     28  C   UNL     1       8.956   8.674   9.366  1.00  0.00    -0.024 A 
ATOM     29  C   UNL     1      10.989  10.541   9.953  1.00  0.00     0.002 A 
ATOM     30  C   UNL     1      10.162   8.286   9.992  1.00  0.00     0.006 A 
ATOM     31  C   UNL     1      11.162   9.209  10.293  1.00  0.00     0.000 A 
BRANCH  28  32
ATOM     32  C   UNL     1       7.976   7.553   9.061  1.00  0.00     0.042 CG0
ATOM     33  G   UNL     1       6.541   7.877   8.629  1.00  0.00     0.000 G0
ENDBRANCH  28  32
ENDBRANCH  18  26
ENDBRANCH  13  18
BRANCH  14  34
ATOM     34  C   UNL     1       6.541   7.877   8.629  1.00  0.00     0.042 CG0
ATOM     35  G   UNL     1       7.976   7.553   9.061  1.00  0.00     0.000 G0
ENDBRANCH  14  34
ENDBRANCH  11  12
ENDBRANCH   6  11
BRANCH   8  36
ATOM     36  O   UNL     1       7.283   5.778   2.848  1.00  0.00    -0.384 OA
ATOM     37  H   UNL     1       6.894   5.572   1.984  1.00  0.00     0.211 HD
ENDBRANCH   8  36
BRANCH   9  38
ATOM     38  O   UNL     1       6.474   3.528   4.556  1.00  0.00    -0.387 OA
ATOM     39  H   UNL     1       6.603   3.826   5.471  1.00  0.00     0.211 HD
ENDBRANCH   9  38
BRANCH  10  40
ATOM     40  O   UNL     1       3.686   3.082   4.320  1.00  0.00    -0.387 OA
ATOM     41  H   UNL     1       3.675   2.888   3.370  1.00  0.00     0.211 HD
ENDBRANCH  10  40
ENDBRANCH   3   5
ENDBRANCH   2   3
ENDBRANCH   1   2
BRANCH   1  42
ATOM     42  C   UNL     1      -0.323   7.832   5.217  1.00  0.00     0.202 C 
BRANCH  42  43
ATOM     43  O   UNL     1      -0.222   8.194   3.837  1.00  0.00    -0.374 OA
BRANCH  43  44
ATOM     44  C   UNL     1       1.061   8.605   3.361  1.00  0.00     0.202 C 
BRANCH  44  45
ATOM     45  C   UNL     1       1.526  10.019   3.729  1.00  0.00     0.261 C 
BRANCH  45  46
ATOM     46  O   UNL     1       1.751  10.175   5.140  1.00  0.00    -0.460 OA
BRANCH  46  47
ATOM     47  C   UNL     1       0.849  10.953   5.778  1.00  0.00     0.338 C 
ATOM     48  O   UNL     1      -0.082  11.572   5.270  1.00  0.00    -0.246 OA
BRANCH  47  49
ATOM     49  C   UNL     1       1.007  10.828   7.237  1.00  0.00     0.060 A 
ATOM     50  C   UNL     1      -0.138  10.538   7.990  1.00  0.00     0.016 A 
ATOM     51  C   UNL     1       2.229  11.064   7.868  1.00  0.00     0.016 A 
ATOM     52  C   UNL     1      -0.080  10.538   9.382  1.00  0.00     0.010 A 
ATOM     53  C   UNL     1       2.279  11.078   9.265  1.00  0.00     0.010 A 
ATOM     54  C   UNL     1       1.121  10.851  10.030  1.00  0.00    -0.014 A 
BRANCH  54  55
ATOM     55  C   UNL     1       1.128  11.086  11.495  1.00  0.00     0.031 A 
ATOM     56  C   UNL     1       1.111  12.501  12.007  1.00  0.00     0.074 A 
ATOM     57  C   UNL     1       1.117  10.054  12.359  1.00  0.00     0.049 A 
ATOM     58  N   UNL     1       1.114  12.937  13.240  1.00  0.00    -0.248 NA
ATOM     59  C   UNL     1       1.090  13.568  10.993  1.00  0.00     0.031 C 
ATOM     60  C   UNL     1       1.115   8.641  11.985  1.00  0.00     0.029 A 
ATOM     61  N   UNL     1       1.107  10.040  13.731  1.00  0.00    -0.354 N 
ATOM     62  C   UNL     1       1.092  14.324  13.152  1.00  0.00     0.074 A 
ATOM     63  C   UNL     1       1.118  14.659  11.745  1.00  0.00     0.031 C 
ATOM     64  C   UNL     1       1.109   7.894  13.103  1.00  0.00     0.029 A 
ATOM     65  C   UNL     1       1.130   8.776  14.269  1.00  0.00     0.049 A 
ATOM     66  H   UNL     1       1.086  10.858  14.278  1.00  0.00     0.167 HD
ATOM     67  C   UNL     1       1.036  15.236  14.152  1.00  0.00     0.037 A 
ATOM     68  C   UNL     1       1.176   8.376  15.556  1.00  0.00     0.037 A 
ATOM     69  C   UNL     1       1.003  14.900  15.552  1.00  0.00     0.049 A 
ATOM     70  C   UNL     1       1.165   9.410  16.653  1.00  0.00     0.074 A 
ATOM     71  C   UNL     1       0.929  15.752  16.640  1.00  0.00     0.029 A 
ATOM     72  N   UNL     1       1.046  13.609  16.058  1.00  0.00    -0.354 N 
ATOM     73  N   UNL     1       1.112  10.717  16.553  1.00  0.00    -0.248 NA
ATOM     74  C   UNL     1       1.212   8.915  18.036  1.00  0.00     0.031 C 
ATOM     75  C   UNL     1       0.969  14.979  17.805  1.00  0.00     0.029 A 
ATOM     76  C   UNL     1       1.021  13.642  17.442  1.00  0.00     0.049 A 
ATOM     77  H   UNL     1       1.089  12.790  15.514  1.00  0.00     0.167 HD
ATOM     78  C   UNL     1       1.093  11.198  17.859  1.00  0.00     0.074 A 
ATOM     79  C   UNL     1       1.129  10.042  18.730  1.00  0.00     0.031 C 
ATOM     80  C   UNL     1       1.048  12.481  18.297  1.00  0.00     0.037 A 
BRANCH  67  81
ATOM     81  C   UNL     1       1.022  16.688  13.767  1.00  0.00     0.058 A 
ATOM     82  C   UNL     1      -0.107  17.286  13.184  1.00  0.00     0.135 A 
ATOM     83  C   UNL     1       2.143  17.500  14.007  1.00  0.00     0.135 A 
ATOM     84  F   UNL     1      -1.198  16.551  12.916  1.00  0.00    -0.206 F 
ATOM     85  C   UNL     1      -0.116  18.631  12.829  1.00  0.00     0.059 A 
ATOM     86  C   UNL     1       2.147  18.854  13.684  1.00  0.00     0.059 A 
ATOM     87  F   UNL     1       3.250  16.978  14.557  1.00  0.00    -0.206 F 
ATOM     88  C   UNL     1       1.018  19.406  13.081  1.00  0.00     0.060 A 
BRANCH  88  89
ATOM     89  S   UNL     1       0.993  21.149  12.612  1.00  0.00     0.124 S 
ATOM     90  O   UNL     1       1.116  21.060  11.160  1.00  0.00    -0.237 OA
ATOM     91  O   UNL     1      -0.304  21.591  13.113  1.00  0.00    -0.237 OA
ATOM     92  O   UNL     1       2.151  21.704  13.306  1.00  0.00    -0.744 OA
ENDBRANCH  88  89
ENDBRANCH  67  81
BRANCH  68  93
ATOM     93  C   UNL     1       1.237   6.926  15.880  1.00  0.00     0.058 A 
ATOM     94  C   UNL     1       0.148   6.265  16.467  1.00  0.00     0.135 A 
ATOM     95  C   UNL     1       2.388   6.171  15.603  1.00  0.00     0.135 A 
ATOM     96  F   UNL     1      -0.971   6.946  16.760  1.00  0.00    -0.206 F 
ATOM     97  C   UNL     1       0.200   4.910  16.779  1.00  0.00     0.059 A 
ATOM     98  C   UNL     1       2.455   4.810  15.884  1.00  0.00     0.059 A 
ATOM     99  F   UNL     1       3.452   6.754  15.030  1.00  0.00    -0.206 F 
ATOM    100  C   UNL     1       1.358   4.190  16.480  1.00  0.00     0.060 A 
BRANCH 100 101
ATOM    101  S   UNL     1       1.396   2.420  16.836  1.00  0.00     0.124 S 
ATOM    102  O   UNL     1       1.540   2.414  18.287  1.00  0.00    -0.237 OA
ATOM    103  O   UNL     1       0.105   1.976  16.319  1.00  0.00    -0.237 OA
ATOM    104  O   UNL     1       2.556   1.952  16.082  1.00  0.00    -0.744 OA
ENDBRANCH 100 101
ENDBRANCH  68  93
BRANCH  80 105
ATOM    105  C   UNL     1       0.999  12.708  19.784  1.00  0.00     0.058 A 
ATOM    106  C   UNL     1       2.128  12.521  20.596  1.00  0.00     0.135 A 
ATOM    107  C   UNL     1      -0.177  13.174  20.393  1.00  0.00     0.135 A 
ATOM    108  F   UNL     1       3.276  12.072  20.065  1.00  0.00    -0.206 F 
ATOM    109  C   UNL     1       2.086  12.767  21.965  1.00  0.00     0.059 A 
ATOM    110  C   UNL     1      -0.235  13.451  21.755  1.00  0.00     0.059 A 
ATOM    111  F   UNL     1      -1.282  13.381  19.659  1.00  0.00    -0.206 F 
ATOM    112  C   UNL     1       0.900  13.234  22.535  1.00  0.00     0.060 A 
BRANCH 112 113
ATOM    113  S   UNL     1       0.868  13.584  24.307  1.00  0.00     0.124 S 
ATOM    114  O   UNL     1       0.821  12.239  24.871  1.00  0.00    -0.237 OA
ATOM    115  O   UNL     1       2.117  14.312  24.506  1.00  0.00    -0.237 OA
ATOM    116  O   UNL     1      -0.346  14.378  24.474  1.00  0.00    -0.744 OA
ENDBRANCH 112 113
ENDBRANCH  80 105
ENDBRANCH  54  55
ENDBRANCH  47  49
ENDBRANCH  46  47
ENDBRANCH  45  46
ENDBRANCH  44  45
ENDBRANCH  43  44
ENDBRANCH  42  43
ENDBRANCH   1  42
TORSDOF 26
