REMARK SMILES COc1cc2c(cc1OC)[C@H](C(=O)OCCOCCOC(=O)c1ccc(-c3c4nc(c(-c5c(F)cc(S(=O)(=O)[O-])cc5F)c5ccc([nH]5)c(-c5c(F)cc(S(=O)(=O)[O-])cc5F)c5nc(c(-c6c(F)cc(S(=O)(=O)[O-])cc6F)c6ccc3[nH]6)C=C5)C=C4)cc1)[C@@H](c1ccc(SC)cc1)N(C)C2=O
REMARK SMILES IDX 18 1 17 2 16 3 15 4 14 5 12 6 13 7 11 8 3 9 4 10 8 11 5 12
REMARK SMILES IDX 7 13 6 14 100 15 98 16 101 17 89 18 99 19 2 20 1 21 9 22
REMARK SMILES IDX 10 23 90 24 91 25 97 26 92 27 96 28 93 29 94 30 95 31 19 32
REMARK SMILES IDX 20 33 21 34 22 35 23 36 24 37 88 38 25 39 87 40 26 41 27 42
REMARK SMILES IDX 28 43 81 44 29 45 86 46 80 47 82 48 30 49 85 50 79 51 78 52
REMARK SMILES IDX 31 54 65 55 44 56 64 57 45 58 48 59 63 60 83 61 46 62 47 63
REMARK SMILES IDX 62 65 84 66 49 67 32 68 33 69 42 70 34 71 35 72 41 73 43 74
REMARK SMILES IDX 36 75 37 76 38 77 39 78 40 79 66 80 67 81 76 82 68 83 69 84
REMARK SMILES IDX 75 85 77 86 70 87 71 88 72 89 73 90 74 91 50 92 51 93 60 94
REMARK SMILES IDX 52 95 53 96 59 97 61 98 54 99 55 100 56 101 57 102 58 103
REMARK H PARENT 82 53 48 64
REMARK Flexibility Score: inf
ROOT
ATOM      1  C   UNL     1      -1.965  -6.537  -1.532  1.00  0.00     0.202 C 
ENDROOT
BRANCH   1   2
ATOM      2  O   UNL     1      -1.697  -7.934  -1.514  1.00  0.00    -0.374 OA
BRANCH   2   3
ATOM      3  C   UNL     1      -0.960  -8.521  -0.461  1.00  0.00     0.202 C 
BRANCH   3   4
ATOM      4  C   UNL     1       0.569  -8.438  -0.571  1.00  0.00     0.261 C 
BRANCH   4   5
ATOM      5  O   UNL     1       1.157  -7.155  -0.882  1.00  0.00    -0.463 OA
BRANCH   5   6
ATOM      6  C   UNL     1       1.323  -6.893  -2.209  1.00  0.00     0.316 C 
ATOM      7  O   UNL     1       0.770  -7.516  -3.110  1.00  0.00    -0.251 OA
BRANCH   6   8
ATOM      8  C   UNL     1       2.347  -5.793  -2.503  1.00  0.00     0.157 C 
ATOM      9  C   UNL     1       1.369  -2.059  -0.519  1.00  0.00     0.161 A 
ATOM     10  C   UNL     1       2.689  -2.507  -0.566  1.00  0.00     0.064 A 
ATOM     11  C   UNL     1       0.391  -2.713  -1.270  1.00  0.00     0.161 A 
ATOM     12  C   UNL     1       3.015  -3.663  -1.292  1.00  0.00     0.048 A 
ATOM     13  C   UNL     1       0.744  -3.849  -2.020  1.00  0.00     0.056 A 
ATOM     14  C   UNL     1       2.018  -4.425  -1.913  1.00  0.00    -0.015 A 
ATOM     15  C   UNL     1       4.446  -3.966  -1.557  1.00  0.00     0.254 C 
ATOM     16  N   UNL     1       4.722  -5.183  -2.176  1.00  0.00    -0.333 N 
ATOM     17  O   UNL     1       5.298  -3.114  -1.323  1.00  0.00    -0.269 OA
ATOM     18  C   UNL     1       3.750  -6.292  -2.035  1.00  0.00     0.134 C 
ATOM     19  C   UNL     1       6.070  -5.375  -2.687  1.00  0.00     0.147 C 
BRANCH   9  20
ATOM     20  O   UNL     1       1.066  -1.022   0.319  1.00  0.00    -0.493 OA
ATOM     21  C   UNL     1       1.295   0.238  -0.307  1.00  0.00     0.278 C 
ENDBRANCH   9  20
BRANCH  11  22
ATOM     22  O   UNL     1      -0.928  -2.356  -1.370  1.00  0.00    -0.493 OA
ATOM     23  C   UNL     1      -1.538  -1.883  -0.167  1.00  0.00     0.278 C 
ENDBRANCH  11  22
BRANCH  18  24
ATOM     24  C   UNL     1       4.224  -7.629  -2.621  1.00  0.00    -0.024 A 
ATOM     25  C   UNL     1       3.709  -8.175  -3.804  1.00  0.00     0.007 A 
ATOM     26  C   UNL     1       5.207  -8.373  -1.938  1.00  0.00     0.007 A 
ATOM     27  C   UNL     1       4.109  -9.439  -4.251  1.00  0.00     0.015 A 
ATOM     28  C   UNL     1       5.640  -9.620  -2.414  1.00  0.00     0.015 A 
ATOM     29  C   UNL     1       5.085 -10.169  -3.570  1.00  0.00     0.007 A 
BRANCH  29  30
ATOM     30  S   UNL     1       5.498 -11.787  -4.199  1.00  0.00    -0.130 SA
ATOM     31  C   UNL     1       7.297 -11.808  -3.998  1.00  0.00     0.091 C 
ENDBRANCH  29  30
ENDBRANCH  18  24
ENDBRANCH   6   8
ENDBRANCH   5   6
ENDBRANCH   4   5
ENDBRANCH   3   4
ENDBRANCH   2   3
ENDBRANCH   1   2
BRANCH   1  32
ATOM     32  C   UNL     1      -1.468  -5.588  -0.445  1.00  0.00     0.261 C 
BRANCH  32  33
ATOM     33  O   UNL     1      -1.456  -6.101   0.869  1.00  0.00    -0.460 OA
BRANCH  33  34
ATOM     34  C   UNL     1      -2.479  -5.766   1.670  1.00  0.00     0.338 C 
ATOM     35  O   UNL     1      -3.488  -5.161   1.413  1.00  0.00    -0.246 OA
BRANCH  34  36
ATOM     36  C   UNL     1      -2.043  -6.289   2.965  1.00  0.00     0.060 A 
ATOM     37  C   UNL     1      -2.527  -7.523   3.395  1.00  0.00     0.016 A 
ATOM     38  C   UNL     1      -1.081  -5.572   3.686  1.00  0.00     0.016 A 
ATOM     39  C   UNL     1      -2.119  -8.002   4.631  1.00  0.00     0.010 A 
ATOM     40  C   UNL     1      -0.657  -6.064   4.911  1.00  0.00     0.010 A 
ATOM     41  C   UNL     1      -1.227  -7.246   5.409  1.00  0.00    -0.014 A 
BRANCH  41  42
ATOM     42  C   UNL     1      -1.074  -7.573   6.838  1.00  0.00     0.031 A 
ATOM     43  C   UNL     1      -1.851  -6.749   7.825  1.00  0.00     0.074 A 
ATOM     44  C   UNL     1      -0.300  -8.602   7.218  1.00  0.00     0.049 A 
ATOM     45  N   UNL     1      -1.889  -6.833   9.127  1.00  0.00    -0.248 NA
ATOM     46  C   UNL     1      -2.699  -5.677   7.269  1.00  0.00     0.031 C 
ATOM     47  C   UNL     1       0.464  -9.463   6.314  1.00  0.00     0.029 A 
ATOM     48  N   UNL     1      -0.036  -9.101   8.464  1.00  0.00    -0.354 N 
ATOM     49  C   UNL     1      -2.758  -5.830   9.541  1.00  0.00     0.074 A 
ATOM     50  C   UNL     1      -3.189  -5.117   8.363  1.00  0.00     0.031 C 
ATOM     51  C   UNL     1       1.109 -10.392   7.040  1.00  0.00     0.029 A 
ATOM     52  C   UNL     1       0.826 -10.170   8.455  1.00  0.00     0.049 A 
ATOM     53  H   UNL     1      -0.425  -8.729   9.288  1.00  0.00     0.167 HD
ATOM     54  C   UNL     1      -3.173  -5.548  10.797  1.00  0.00     0.037 A 
ATOM     55  C   UNL     1       1.330 -10.875   9.485  1.00  0.00     0.037 A 
ATOM     56  C   UNL     1      -2.728  -6.281  11.951  1.00  0.00     0.049 A 
ATOM     57  C   UNL     1       0.893 -10.510  10.879  1.00  0.00     0.074 A 
ATOM     58  C   UNL     1      -3.068  -6.094  13.277  1.00  0.00     0.029 A 
ATOM     59  N   UNL     1      -1.839  -7.348  11.907  1.00  0.00    -0.354 N 
ATOM     60  N   UNL     1       0.060  -9.568  11.261  1.00  0.00    -0.248 NA
ATOM     61  C   UNL     1       1.452 -11.302  11.981  1.00  0.00     0.031 C 
ATOM     62  C   UNL     1      -2.351  -7.021  14.040  1.00  0.00     0.029 A 
ATOM     63  C   UNL     1      -1.607  -7.821  13.185  1.00  0.00     0.049 A 
ATOM     64  H   UNL     1      -1.434  -7.712  11.088  1.00  0.00     0.167 HD
ATOM     65  C   UNL     1      -0.030  -9.675  12.644  1.00  0.00     0.074 A 
ATOM     66  C   UNL     1       0.829 -10.779  13.028  1.00  0.00     0.031 C 
ATOM     67  C   UNL     1      -0.755  -8.936  13.521  1.00  0.00     0.037 A 
BRANCH  54  68
ATOM     68  C   UNL     1      -4.129  -4.401  10.977  1.00  0.00     0.058 A 
ATOM     69  C   UNL     1      -5.460  -4.470  10.531  1.00  0.00     0.135 A 
ATOM     70  C   UNL     1      -3.714  -3.219  11.611  1.00  0.00     0.135 A 
ATOM     71  F   UNL     1      -5.904  -5.564   9.893  1.00  0.00    -0.206 F 
ATOM     72  C   UNL     1      -6.337  -3.400  10.687  1.00  0.00     0.059 A 
ATOM     73  C   UNL     1      -4.582  -2.148  11.804  1.00  0.00     0.059 A 
ATOM     74  F   UNL     1      -2.451  -3.094  12.047  1.00  0.00    -0.206 F 
ATOM     75  C   UNL     1      -5.889  -2.244  11.326  1.00  0.00     0.060 A 
BRANCH  75  76
ATOM     76  S   UNL     1      -7.042  -0.869  11.531  1.00  0.00     0.124 S 
ATOM     77  O   UNL     1      -7.149  -0.372  10.163  1.00  0.00    -0.237 OA
ATOM     78  O   UNL     1      -8.229  -1.535  12.058  1.00  0.00    -0.237 OA
ATOM     79  O   UNL     1      -6.355   0.015  12.467  1.00  0.00    -0.744 OA
ENDBRANCH  75  76
ENDBRANCH  54  68
BRANCH  55  80
ATOM     80  C   UNL     1       2.286 -11.986   9.233  1.00  0.00     0.058 A 
ATOM     81  C   UNL     1       1.929 -13.321   9.471  1.00  0.00     0.135 A 
ATOM     82  C   UNL     1       3.573 -11.735   8.730  1.00  0.00     0.135 A 
ATOM     83  F   UNL     1       0.711 -13.614   9.952  1.00  0.00    -0.206 F 
ATOM     84  C   UNL     1       2.819 -14.367   9.240  1.00  0.00     0.059 A 
ATOM     85  C   UNL     1       4.471 -12.765   8.466  1.00  0.00     0.059 A 
ATOM     86  F   UNL     1       3.959 -10.477   8.467  1.00  0.00    -0.206 F 
ATOM     87  C   UNL     1       4.088 -14.078   8.736  1.00  0.00     0.060 A 
BRANCH  87  88
ATOM     88  S   UNL     1       5.222 -15.444   8.404  1.00  0.00     0.124 S 
ATOM     89  O   UNL     1       5.594 -15.851   9.754  1.00  0.00    -0.237 OA
ATOM     90  O   UNL     1       4.373 -16.373   7.666  1.00  0.00    -0.237 OA
ATOM     91  O   UNL     1       6.282 -14.817   7.619  1.00  0.00    -0.744 OA
ENDBRANCH  87  88
ENDBRANCH  55  80
BRANCH  67  92
ATOM     92  C   UNL     1      -0.688  -9.328  14.969  1.00  0.00     0.058 A 
ATOM     93  C   UNL     1       0.444  -9.063  15.753  1.00  0.00     0.135 A 
ATOM     94  C   UNL     1      -1.804  -9.909  15.592  1.00  0.00     0.135 A 
ATOM     95  F   UNL     1       1.537  -8.513  15.200  1.00  0.00    -0.206 F 
ATOM     96  C   UNL     1       0.476  -9.383  17.105  1.00  0.00     0.059 A 
ATOM     97  C   UNL     1      -1.804 -10.209  16.949  1.00  0.00     0.059 A 
ATOM     98  F   UNL     1      -2.915 -10.169  14.885  1.00  0.00    -0.206 F 
ATOM     99  C   UNL     1      -0.655  -9.951  17.695  1.00  0.00     0.060 A 
BRANCH  99 100
ATOM    100  S   UNL     1      -0.616 -10.318  19.461  1.00  0.00     0.124 S 
ATOM    101  O   UNL     1       0.252 -11.491  19.497  1.00  0.00    -0.237 OA
ATOM    102  O   UNL     1      -0.052  -9.094  20.021  1.00  0.00    -0.237 OA
ATOM    103  O   UNL     1      -2.017 -10.563  19.789  1.00  0.00    -0.744 OA
ENDBRANCH  99 100
ENDBRANCH  67  92
ENDBRANCH  41  42
ENDBRANCH  34  36
ENDBRANCH  33  34
ENDBRANCH  32  33
ENDBRANCH   1  32
TORSDOF 21
