REMARK SMILES C#CCN(CC(=O)OCCOCCOC(=O)c1ccc(-c2c3nc(c(-c4c(F)cc(S(=O)(=O)[O-])cc4F)c4ccc([nH]4)c(-c4c(F)cc(S(=O)(=O)[O-])cc4F)c4nc(c(-c5c(F)cc(S(=O)(=O)[O-])cc5F)c5ccc2[nH]5)C=C4)C=C3)cc1)C(=O)N1CC[N@@H+]2CCC[C@H]2C1
REMARK SMILES IDX 11 1 10 2 9 3 8 4 6 5 7 6 5 7 4 8 3 9 2 10 1 11 83 12 84 13
REMARK SMILES IDX 85 14 86 15 93 16 87 17 92 18 88 19 91 20 89 21 90 23 12 24
REMARK SMILES IDX 13 25 14 26 15 27 16 28 17 29 18 30 82 31 19 32 81 33 20 34
REMARK SMILES IDX 21 35 22 36 75 37 23 38 80 39 74 40 76 41 24 42 79 43 73 44
REMARK SMILES IDX 72 45 25 47 59 48 38 49 58 50 39 51 42 52 57 53 77 54 40 55
REMARK SMILES IDX 41 56 56 58 78 59 43 60 26 61 27 62 36 63 28 64 29 65 35 66
REMARK SMILES IDX 37 67 30 68 31 69 32 70 33 71 34 72 60 73 61 74 70 75 62 76
REMARK SMILES IDX 63 77 69 78 71 79 64 80 65 81 66 82 67 83 68 84 44 85 45 86
REMARK SMILES IDX 54 87 46 88 47 89 53 90 55 91 48 92 49 93 50 94 51 95 52 96
REMARK H PARENT 88 22 76 46 42 57
REMARK Flexibility Score: inf
ROOT
ATOM      1  O   UNL     1      -7.015   3.002  -1.523  1.00  0.00    -0.374 OA
ENDROOT
BRANCH   1   2
ATOM      2  C   UNL     1      -7.083   1.845  -0.685  1.00  0.00     0.202 C 
BRANCH   2   3
ATOM      3  C   UNL     1      -6.534   0.535  -1.266  1.00  0.00     0.261 C 
BRANCH   3   4
ATOM      4  O   UNL     1      -5.081   0.485  -1.231  1.00  0.00    -0.462 OA
BRANCH   4   5
ATOM      5  C   UNL     1      -4.530  -0.396  -2.114  1.00  0.00     0.325 C 
ATOM      6  O   UNL     1      -5.189  -1.094  -2.882  1.00  0.00    -0.250 OA
BRANCH   5   7
ATOM      7  C   UNL     1      -2.988  -0.446  -2.125  1.00  0.00     0.245 C 
BRANCH   7   8
ATOM      8  N   UNL     1      -2.202   0.475  -1.301  1.00  0.00    -0.302 N 
BRANCH   8   9
ATOM      9  C   UNL     1      -1.779  -0.070   0.056  1.00  0.00     0.211 C 
BRANCH   9  10
ATOM     10  C   UNL     1      -0.259  -0.070   0.056  1.00  0.00    -0.085 C 
ATOM     11  C   UNL     1       1.045  -0.070   0.056  1.00  0.00     0.006 C 
ENDBRANCH   9  10
ENDBRANCH   8   9
BRANCH   8  12
ATOM     12  C   UNL     1      -1.654   1.701  -1.732  1.00  0.00     0.321 C 
ATOM     13  O   UNL     1      -0.971   2.393  -0.970  1.00  0.00    -0.248 OA
BRANCH  12  14
ATOM     14  N   UNL     1      -1.816   2.135  -3.064  1.00  0.00    -0.313 N 
ATOM     15  C   UNL     1      -3.131   2.257  -3.686  1.00  0.00     0.183 C 
ATOM     16  C   UNL     1      -0.899   3.229  -3.519  1.00  0.00     0.186 C 
ATOM     17  C   UNL     1      -3.181   2.514  -5.194  1.00  0.00     0.284 C 
ATOM     18  C   UNL     1      -1.019   3.517  -5.040  1.00  0.00     0.204 C 
ATOM     19  N   UNL     1      -2.419   3.726  -5.442  1.00  0.00    -0.330 N 
ATOM     20  C   UNL     1      -0.392   4.803  -5.569  1.00  0.00     0.073 C 
ATOM     21  C   UNL     1      -2.403   4.189  -6.814  1.00  0.00     0.262 C 
ATOM     22  H   UNL     1      -2.896   4.441  -4.893  1.00  0.00     0.348 HD
ATOM     23  C   UNL     1      -1.247   5.181  -6.793  1.00  0.00     0.068 C 
ENDBRANCH  12  14
ENDBRANCH   8  12
ENDBRANCH   7   8
ENDBRANCH   5   7
ENDBRANCH   4   5
ENDBRANCH   3   4
ENDBRANCH   2   3
ENDBRANCH   1   2
BRANCH   1  24
ATOM     24  C   UNL     1      -5.757   3.308  -2.100  1.00  0.00     0.202 C 
BRANCH  24  25
ATOM     25  C   UNL     1      -4.617   3.794  -1.182  1.00  0.00     0.261 C 
BRANCH  25  26
ATOM     26  O   UNL     1      -4.956   3.873   0.180  1.00  0.00    -0.460 OA
BRANCH  26  27
ATOM     27  C   UNL     1      -5.744   4.918   0.485  1.00  0.00     0.338 C 
ATOM     28  O   UNL     1      -6.053   5.872  -0.205  1.00  0.00    -0.246 OA
BRANCH  27  29
ATOM     29  C   UNL     1      -6.351   4.501   1.741  1.00  0.00     0.060 A 
ATOM     30  C   UNL     1      -7.740   4.370   1.762  1.00  0.00     0.016 A 
ATOM     31  C   UNL     1      -5.540   4.088   2.806  1.00  0.00     0.016 A 
ATOM     32  C   UNL     1      -8.340   3.876   2.902  1.00  0.00     0.010 A 
ATOM     33  C   UNL     1      -6.141   3.579   3.942  1.00  0.00     0.010 A 
ATOM     34  C   UNL     1      -7.541   3.527   4.000  1.00  0.00    -0.014 A 
BRANCH  34  35
ATOM     35  C   UNL     1      -8.195   3.326   5.296  1.00  0.00     0.031 A 
ATOM     36  C   UNL     1      -8.196   4.485   6.245  1.00  0.00     0.074 A 
ATOM     37  C   UNL     1      -8.798   2.159   5.559  1.00  0.00     0.049 A 
ATOM     38  N   UNL     1      -8.721   4.575   7.433  1.00  0.00    -0.248 NA
ATOM     39  C   UNL     1      -7.504   5.708   5.796  1.00  0.00     0.031 C 
ATOM     40  C   UNL     1      -8.835   1.006   4.657  1.00  0.00     0.029 A 
ATOM     41  N   UNL     1      -9.495   1.754   6.660  1.00  0.00    -0.354 N 
ATOM     42  C   UNL     1      -8.418   5.856   7.875  1.00  0.00     0.074 A 
ATOM     43  C   UNL     1      -7.626   6.494   6.852  1.00  0.00     0.031 C 
ATOM     44  C   UNL     1      -9.523   0.016   5.249  1.00  0.00     0.029 A 
ATOM     45  C   UNL     1      -9.942   0.460   6.575  1.00  0.00     0.049 A 
ATOM     46  H   UNL     1      -9.660   2.333   7.439  1.00  0.00     0.167 HD
ATOM     47  C   UNL     1      -8.790   6.444   9.033  1.00  0.00     0.037 A 
ATOM     48  C   UNL     1     -10.599  -0.276   7.489  1.00  0.00     0.037 A 
ATOM     49  C   UNL     1      -9.578   5.766  10.025  1.00  0.00     0.049 A 
ATOM     50  C   UNL     1     -10.969   0.387   8.789  1.00  0.00     0.074 A 
ATOM     51  C   UNL     1     -10.042   6.245  11.234  1.00  0.00     0.029 A 
ATOM     52  N   UNL     1     -10.008   4.447   9.919  1.00  0.00    -0.354 N 
ATOM     53  N   UNL     1     -10.717   1.613   9.188  1.00  0.00    -0.248 NA
ATOM     54  C   UNL     1     -11.720  -0.421   9.754  1.00  0.00     0.031 C 
ATOM     55  C   UNL     1     -10.698   5.196  11.886  1.00  0.00     0.029 A 
ATOM     56  C   UNL     1     -10.706   4.084  11.055  1.00  0.00     0.049 A 
ATOM     57  H   UNL     1      -9.840   3.859   9.147  1.00  0.00     0.167 HD
ATOM     58  C   UNL     1     -11.296   1.734  10.445  1.00  0.00     0.074 A 
ATOM     59  C   UNL     1     -11.926   0.457  10.727  1.00  0.00     0.031 C 
ATOM     60  C   UNL     1     -11.313   2.795  11.291  1.00  0.00     0.037 A 
BRANCH  47  61
ATOM     61  C   UNL     1      -8.313   7.846   9.288  1.00  0.00     0.058 A 
ATOM     62  C   UNL     1      -8.768   8.941   8.533  1.00  0.00     0.135 A 
ATOM     63  C   UNL     1      -7.374   8.099  10.300  1.00  0.00     0.135 A 
ATOM     64  F   UNL     1      -9.643   8.756   7.531  1.00  0.00    -0.206 F 
ATOM     65  C   UNL     1      -8.289  10.229   8.754  1.00  0.00     0.059 A 
ATOM     66  C   UNL     1      -6.905   9.383  10.560  1.00  0.00     0.059 A 
ATOM     67  F   UNL     1      -6.891   7.090  11.042  1.00  0.00    -0.206 F 
ATOM     68  C   UNL     1      -7.358  10.440   9.773  1.00  0.00     0.060 A 
BRANCH  68  69
ATOM     69  S   UNL     1      -6.754  12.117  10.056  1.00  0.00     0.124 S 
ATOM     70  O   UNL     1      -5.919  12.330   8.878  1.00  0.00    -0.237 OA
ATOM     71  O   UNL     1      -7.992  12.889  10.103  1.00  0.00    -0.237 OA
ATOM     72  O   UNL     1      -6.036  12.012  11.322  1.00  0.00    -0.744 OA
ENDBRANCH  68  69
ENDBRANCH  47  61
BRANCH  48  73
ATOM     73  C   UNL     1     -10.926  -1.694   7.197  1.00  0.00     0.058 A 
ATOM     74  C   UNL     1     -12.247  -2.116   6.998  1.00  0.00     0.135 A 
ATOM     75  C   UNL     1      -9.908  -2.653   7.062  1.00  0.00     0.135 A 
ATOM     76  F   UNL     1     -13.256  -1.239   7.113  1.00  0.00    -0.206 F 
ATOM     77  C   UNL     1     -12.551  -3.439   6.687  1.00  0.00     0.059 A 
ATOM     78  C   UNL     1     -10.183  -3.974   6.725  1.00  0.00     0.059 A 
ATOM     79  F   UNL     1      -8.623  -2.298   7.221  1.00  0.00    -0.206 F 
ATOM     80  C   UNL     1     -11.510  -4.359   6.548  1.00  0.00     0.060 A 
BRANCH  80  81
ATOM     81  S   UNL     1     -11.911  -6.059   6.088  1.00  0.00     0.124 S 
ATOM     82  O   UNL     1     -12.543  -6.551   7.307  1.00  0.00    -0.237 OA
ATOM     83  O   UNL     1     -12.795  -5.864   4.943  1.00  0.00    -0.237 OA
ATOM     84  O   UNL     1     -10.609  -6.638   5.773  1.00  0.00    -0.744 OA
ENDBRANCH  80  81
ENDBRANCH  48  73
BRANCH  60  85
ATOM     85  C   UNL     1     -12.058   2.622  12.584  1.00  0.00     0.058 A 
ATOM     86  C   UNL     1     -11.566   1.810  13.616  1.00  0.00     0.135 A 
ATOM     87  C   UNL     1     -13.249   3.330  12.810  1.00  0.00     0.135 A 
ATOM     88  F   UNL     1     -10.434   1.109  13.445  1.00  0.00    -0.206 F 
ATOM     89  C   UNL     1     -12.247   1.681  14.820  1.00  0.00     0.059 A 
ATOM     90  C   UNL     1     -13.927   3.245  14.020  1.00  0.00     0.059 A 
ATOM     91  F   UNL     1     -13.752   4.133  11.858  1.00  0.00    -0.206 F 
ATOM     92  C   UNL     1     -13.425   2.406  15.013  1.00  0.00     0.060 A 
BRANCH  92  93
ATOM     93  S   UNL     1     -14.281   2.253  16.593  1.00  0.00     0.124 S 
ATOM     94  O   UNL     1     -14.835   0.907  16.497  1.00  0.00    -0.237 OA
ATOM     95  O   UNL     1     -13.195   2.426  17.553  1.00  0.00    -0.237 OA
ATOM     96  O   UNL     1     -15.257   3.338  16.558  1.00  0.00    -0.744 OA
ENDBRANCH  92  93
ENDBRANCH  60  85
ENDBRANCH  34  35
ENDBRANCH  27  29
ENDBRANCH  26  27
ENDBRANCH  25  26
ENDBRANCH  24  25
ENDBRANCH   1  24
TORSDOF 22
