REMARK SMILES Cc1cccc(-n2c(C)cc(/C=N\c3ccc(O)c(C(=O)OCCOCCOC(=O)c4ccc(-c5c6nc(c(-c7c(F)cc(S(=O)(=O)[O-])cc7F)c7ccc([nH]7)c(-c7c(F)cc(S(=O)(=O)[O-])cc7F)c7nc(c(-c8c(F)cc(S(=O)(=O)[O-])cc8F)c8ccc5[nH]8)C=C7)C=C6)cc4)c3)c2C)c1
REMARK SMILES IDX 25 1 24 2 23 3 22 4 20 5 21 6 19 7 14 8 15 9 97 10 16 11
REMARK SMILES IDX 17 12 13 13 12 14 11 15 7 16 8 17 98 18 9 19 10 20 99 21
REMARK SMILES IDX 6 22 1 23 2 24 3 25 100 26 4 27 5 28 18 29 26 31 27 32 28 33
REMARK SMILES IDX 29 34 30 35 31 36 32 37 96 38 33 39 95 40 34 41 35 42 36 43
REMARK SMILES IDX 89 44 37 45 94 46 88 47 90 48 38 49 93 50 87 51 86 52 39 54
REMARK SMILES IDX 73 55 52 56 72 57 53 58 56 59 71 60 91 61 54 62 55 63 70 65
REMARK SMILES IDX 92 66 57 67 40 68 41 69 50 70 42 71 43 72 49 73 51 74 44 75
REMARK SMILES IDX 45 76 46 77 47 78 48 79 74 80 75 81 84 82 76 83 77 84 83 85
REMARK SMILES IDX 85 86 78 87 79 88 80 89 81 90 82 91 58 92 59 93 68 94 60 95
REMARK SMILES IDX 61 96 67 97 69 98 62 99 63 100 64 101 65 102 66 103
REMARK H PARENT 18 30 90 53 56 64
REMARK Flexibility Score: inf
ROOT
ATOM      1  O   UNL     1      -6.616   1.748   6.582  1.00  0.00    -0.374 OA
ENDROOT
BRANCH   1   2
ATOM      2  C   UNL     1      -6.362   0.378   6.649  1.00  0.00     0.202 C 
BRANCH   2   3
ATOM      3  C   UNL     1      -6.336  -0.350   5.378  1.00  0.00     0.261 C 
BRANCH   3   4
ATOM      4  O   UNL     1      -5.122  -0.133   4.703  1.00  0.00    -0.460 OA
BRANCH   4   5
ATOM      5  C   UNL     1      -5.330   0.827   3.793  1.00  0.00     0.342 C 
ATOM      6  O   UNL     1      -6.226   0.849   2.947  1.00  0.00    -0.246 OA
BRANCH   5   7
ATOM      7  C   UNL     1      -4.413   1.927   4.070  1.00  0.00     0.103 A 
ATOM      8  C   UNL     1      -3.796   4.087   3.259  1.00  0.00     0.064 A 
ATOM      9  C   UNL     1      -2.579   3.995   3.937  1.00  0.00     0.032 A 
ATOM     10  C   UNL     1      -4.767   3.123   3.454  1.00  0.00     0.048 A 
ATOM     11  C   UNL     1      -2.271   2.847   4.672  1.00  0.00     0.049 A 
ATOM     12  C   UNL     1      -3.163   1.782   4.683  1.00  0.00     0.130 A 
BRANCH   8  13
ATOM     13  N   UNL     1      -4.082   5.089   2.348  1.00  0.00    -0.256 NA
ATOM     14  C   UNL     1      -3.751   5.007   1.091  1.00  0.00     0.121 C 
BRANCH  14  15
ATOM     15  C   UNL     1      -2.935   4.072   0.303  1.00  0.00     0.014 A 
ATOM     16  N   UNL     1      -1.679   2.412  -0.617  1.00  0.00    -0.318 N 
ATOM     17  C   UNL     1      -1.493   3.534  -1.396  1.00  0.00     0.021 A 
ATOM     18  C   UNL     1      -2.617   2.711   0.372  1.00  0.00     0.029 A 
ATOM     19  C   UNL     1      -0.640   3.562  -2.609  1.00  0.00     0.065 C 
ATOM     20  C   UNL     1      -2.275   4.540  -0.874  1.00  0.00     0.033 A 
ATOM     21  C   UNL     1      -3.036   1.654   1.320  1.00  0.00     0.065 C 
BRANCH  16  22
ATOM     22  C   UNL     1      -0.940   1.197  -0.706  1.00  0.00     0.046 A 
ATOM     23  C   UNL     1       2.614   0.031  -0.005  1.00  0.00     0.044 C 
ATOM     24  C   UNL     1       1.145   0.028  -0.302  1.00  0.00    -0.049 A 
ATOM     25  C   UNL     1       0.456  -1.192  -0.379  1.00  0.00     0.003 A 
ATOM     26  C   UNL     1       0.439   1.228  -0.468  1.00  0.00     0.030 A 
ATOM     27  C   UNL     1      -0.909  -1.220  -0.658  1.00  0.00     0.002 A 
ATOM     28  C   UNL     1      -1.605  -0.027  -0.846  1.00  0.00     0.026 A 
ENDBRANCH  16  22
ENDBRANCH  14  15
ENDBRANCH   8  13
BRANCH  12  29
ATOM     29  O   UNL     1      -2.676   0.606   5.175  1.00  0.00    -0.507 OA
ATOM     30  H   UNL     1      -1.828   0.580   5.574  1.00  0.00     0.293 HD
ENDBRANCH  12  29
ENDBRANCH   5   7
ENDBRANCH   4   5
ENDBRANCH   3   4
ENDBRANCH   2   3
ENDBRANCH   1   2
BRANCH   1  31
ATOM     31  C   UNL     1      -6.862   2.239   7.912  1.00  0.00     0.202 C 
BRANCH  31  32
ATOM     32  C   UNL     1      -6.972   1.207   9.109  1.00  0.00     0.261 C 
BRANCH  32  33
ATOM     33  O   UNL     1      -8.143   0.341   8.957  1.00  0.00    -0.460 OA
BRANCH  33  34
ATOM     34  C   UNL     1      -8.064  -0.996   9.300  1.00  0.00     0.338 C 
ATOM     35  O   UNL     1      -7.598  -1.436  10.332  1.00  0.00    -0.246 OA
BRANCH  34  36
ATOM     36  C   UNL     1      -8.577  -1.830   8.145  1.00  0.00     0.060 A 
ATOM     37  C   UNL     1      -8.000  -3.067   7.780  1.00  0.00     0.016 A 
ATOM     38  C   UNL     1      -9.362  -1.163   7.219  1.00  0.00     0.016 A 
ATOM     39  C   UNL     1      -8.024  -3.503   6.432  1.00  0.00     0.010 A 
ATOM     40  C   UNL     1      -9.198  -1.494   5.891  1.00  0.00     0.010 A 
ATOM     41  C   UNL     1      -8.517  -2.642   5.455  1.00  0.00    -0.014 A 
BRANCH  41  42
ATOM     42  C   UNL     1      -8.246  -2.701   3.995  1.00  0.00     0.031 A 
ATOM     43  C   UNL     1      -9.434  -2.666   3.101  1.00  0.00     0.074 A 
ATOM     44  C   UNL     1      -6.989  -2.624   3.467  1.00  0.00     0.049 A 
ATOM     45  N   UNL     1      -9.571  -3.398   2.048  1.00  0.00    -0.248 NA
ATOM     46  C   UNL     1     -10.655  -1.904   3.387  1.00  0.00     0.031 C 
ATOM     47  C   UNL     1      -6.570  -2.337   2.094  1.00  0.00     0.029 A 
ATOM     48  N   UNL     1      -5.758  -2.790   4.113  1.00  0.00    -0.354 N 
ATOM     49  C   UNL     1     -10.660  -2.887   1.365  1.00  0.00     0.074 A 
ATOM     50  C   UNL     1     -11.436  -2.221   2.361  1.00  0.00     0.031 C 
ATOM     51  C   UNL     1      -5.261  -2.635   1.943  1.00  0.00     0.029 A 
ATOM     52  C   UNL     1      -4.763  -3.147   3.208  1.00  0.00     0.049 A 
ATOM     53  H   UNL     1      -5.615  -2.670   5.080  1.00  0.00     0.167 HD
ATOM     54  C   UNL     1     -10.633  -2.785   0.004  1.00  0.00     0.037 A 
ATOM     55  C   UNL     1      -4.037  -4.251   3.500  1.00  0.00     0.037 A 
ATOM     56  C   UNL     1      -9.309  -3.225  -0.479  1.00  0.00     0.049 A 
ATOM     57  C   UNL     1      -4.578  -5.290   2.561  1.00  0.00     0.074 A 
ATOM     58  C   UNL     1      -8.226  -2.558  -1.031  1.00  0.00     0.029 A 
ATOM     59  N   UNL     1      -8.816  -4.471  -0.083  1.00  0.00    -0.354 N 
ATOM     60  N   UNL     1      -5.785  -5.223   2.047  1.00  0.00    -0.248 NA
ATOM     61  C   UNL     1      -3.734  -6.273   1.896  1.00  0.00     0.031 C 
ATOM     62  C   UNL     1      -7.081  -3.409  -0.931  1.00  0.00     0.029 A 
ATOM     63  C   UNL     1      -7.455  -4.587  -0.295  1.00  0.00     0.049 A 
ATOM     64  H   UNL     1      -9.374  -5.184   0.304  1.00  0.00     0.167 HD
ATOM     65  C   UNL     1      -5.814  -5.951   0.893  1.00  0.00     0.074 A 
ATOM     66  C   UNL     1      -4.530  -6.640   0.876  1.00  0.00     0.031 C 
ATOM     67  C   UNL     1      -6.787  -5.867  -0.064  1.00  0.00     0.037 A 
BRANCH  54  68
ATOM     68  C   UNL     1     -11.660  -2.013  -0.839  1.00  0.00     0.058 A 
ATOM     69  C   UNL     1     -11.408  -1.727  -2.199  1.00  0.00     0.135 A 
ATOM     70  C   UNL     1     -12.933  -1.562  -0.405  1.00  0.00     0.135 A 
ATOM     71  F   UNL     1     -10.282  -2.138  -2.798  1.00  0.00    -0.206 F 
ATOM     72  C   UNL     1     -12.310  -1.040  -3.028  1.00  0.00     0.059 A 
ATOM     73  C   UNL     1     -13.825  -0.826  -1.193  1.00  0.00     0.059 A 
ATOM     74  F   UNL     1     -13.447  -1.883   0.783  1.00  0.00    -0.206 F 
ATOM     75  C   UNL     1     -13.517  -0.587  -2.516  1.00  0.00     0.060 A 
BRANCH  75  76
ATOM     76  S   UNL     1     -14.716   0.212  -3.599  1.00  0.00     0.124 S 
ATOM     77  O   UNL     1     -13.968   1.363  -4.091  1.00  0.00    -0.237 OA
ATOM     78  O   UNL     1     -14.989  -0.837  -4.575  1.00  0.00    -0.237 OA
ATOM     79  O   UNL     1     -15.827   0.531  -2.705  1.00  0.00    -0.744 OA
ENDBRANCH  75  76
ENDBRANCH  54  68
BRANCH  55  80
ATOM     80  C   UNL     1      -3.596  -4.226   4.949  1.00  0.00     0.058 A 
ATOM     81  C   UNL     1      -2.546  -3.314   5.234  1.00  0.00     0.135 A 
ATOM     82  C   UNL     1      -4.431  -4.536   6.039  1.00  0.00     0.135 A 
ATOM     83  F   UNL     1      -1.692  -2.966   4.257  1.00  0.00    -0.206 F 
ATOM     84  C   UNL     1      -2.429  -2.631   6.452  1.00  0.00     0.059 A 
ATOM     85  C   UNL     1      -4.341  -3.848   7.270  1.00  0.00     0.059 A 
ATOM     86  F   UNL     1      -5.441  -5.405   5.883  1.00  0.00    -0.206 F 
ATOM     87  C   UNL     1      -3.368  -2.863   7.448  1.00  0.00     0.060 A 
BRANCH  87  88
ATOM     88  S   UNL     1      -3.387  -1.752   8.886  1.00  0.00     0.124 S 
ATOM     89  O   UNL     1      -2.170  -2.135   9.591  1.00  0.00    -0.237 OA
ATOM     90  O   UNL     1      -3.368  -0.436   8.252  1.00  0.00    -0.237 OA
ATOM     91  O   UNL     1      -4.641  -2.089   9.543  1.00  0.00    -0.744 OA
ENDBRANCH  87  88
ENDBRANCH  55  80
BRANCH  67  92
ATOM     92  C   UNL     1      -7.184  -7.046  -0.919  1.00  0.00     0.058 A 
ATOM     93  C   UNL     1      -6.797  -8.367  -0.639  1.00  0.00     0.135 A 
ATOM     94  C   UNL     1      -8.154  -6.901  -1.945  1.00  0.00     0.135 A 
ATOM     95  F   UNL     1      -5.983  -8.673   0.380  1.00  0.00    -0.206 F 
ATOM     96  C   UNL     1      -7.268  -9.449  -1.368  1.00  0.00     0.059 A 
ATOM     97  C   UNL     1      -8.709  -7.978  -2.618  1.00  0.00     0.059 A 
ATOM     98  F   UNL     1      -8.629  -5.707  -2.324  1.00  0.00    -0.206 F 
ATOM     99  C   UNL     1      -8.229  -9.246  -2.349  1.00  0.00     0.060 A 
BRANCH  99 100
ATOM    100  S   UNL     1      -8.853 -10.661  -3.253  1.00  0.00     0.124 S 
ATOM    101  O   UNL     1      -7.766 -10.891  -4.200  1.00  0.00    -0.237 OA
ATOM    102  O   UNL     1      -9.000 -11.663  -2.202  1.00  0.00    -0.237 OA
ATOM    103  O   UNL     1     -10.102 -10.175  -3.828  1.00  0.00    -0.744 OA
ENDBRANCH  99 100
ENDBRANCH  67  92
ENDBRANCH  41  42
ENDBRANCH  34  36
ENDBRANCH  33  34
ENDBRANCH  32  33
ENDBRANCH  31  32
ENDBRANCH   1  31
TORSDOF 21
