REMARK SMILES Cc1ccc([N+](=O)[O-])c(NCc2ccc(C(=O)OCCOCCOC(=O)c3ccc(-c4c5nc(c(-c6c(F)cc(S(=O)(=O)[O-])cc6F)c6ccc([nH]6)c(-c6c(F)cc(S(=O)(=O)[O-])cc6F)c6nc(c(-c7c(F)cc(S(=O)(=O)[O-])cc7F)c7ccc4[nH]7)C=C6)C=C5)cc3)cc2)c1
REMARK SMILES IDX 20 1 19 2 18 3 16 4 17 5 15 6 12 7 13 8 94 9 14 10 93 11
REMARK SMILES IDX 11 12 10 13 9 15 1 16 2 17 3 18 95 19 4 20 5 21 6 22 7 23
REMARK SMILES IDX 8 24 21 25 22 26 23 27 24 28 25 29 26 30 27 31 28 32 92 33
REMARK SMILES IDX 29 34 91 35 30 36 31 37 32 38 85 39 33 40 90 41 84 42 86 43
REMARK SMILES IDX 34 44 89 45 83 46 82 47 35 49 69 50 48 51 68 52 49 53 52 54
REMARK SMILES IDX 67 55 87 56 50 57 51 58 66 60 88 61 53 62 36 63 37 64 46 65
REMARK SMILES IDX 38 66 39 67 45 68 47 69 40 70 41 71 42 72 43 73 44 74 70 75
REMARK SMILES IDX 71 76 80 77 72 78 73 79 79 80 81 81 74 82 75 83 76 84 77 85
REMARK SMILES IDX 78 86 54 87 55 88 64 89 56 90 57 91 63 92 65 93 58 94 59 95
REMARK SMILES IDX 60 96 61 97 62 98
REMARK H PARENT 10 14 86 48 52 59
REMARK Flexibility Score: inf
ROOT
ATOM      1  C   UNL     1      -4.173   8.922  -2.142  1.00  0.00     0.202 C 
ENDROOT
BRANCH   1   2
ATOM      2  C   UNL     1      -3.723   9.336  -0.775  1.00  0.00     0.261 C 
BRANCH   2   3
ATOM      3  O   UNL     1      -3.678   8.226   0.136  1.00  0.00    -0.460 OA
BRANCH   3   4
ATOM      4  C   UNL     1      -4.793   7.524   0.461  1.00  0.00     0.338 C 
ATOM      5  O   UNL     1      -5.938   7.880   0.595  1.00  0.00    -0.246 OA
BRANCH   4   6
ATOM      6  C   UNL     1      -4.374   6.118   0.449  1.00  0.00     0.060 A 
ATOM      7  C   UNL     1      -3.628   3.488   0.025  1.00  0.00    -0.029 A 
ATOM      8  C   UNL     1      -4.984   3.821   0.196  1.00  0.00     0.006 A 
ATOM      9  C   UNL     1      -2.658   4.496   0.028  1.00  0.00     0.006 A 
ATOM     10  C   UNL     1      -5.362   5.138   0.406  1.00  0.00     0.016 A 
ATOM     11  C   UNL     1      -3.023   5.795   0.297  1.00  0.00     0.016 A 
BRANCH   7  12
ATOM     12  C   UNL     1      -3.300   2.033  -0.174  1.00  0.00     0.149 C 
BRANCH  12  13
ATOM     13  N   UNL     1      -1.896   1.751   0.002  1.00  0.00    -0.375 N 
ATOM     14  H   UNL     1      -1.331   2.541   0.168  1.00  0.00     0.161 HD
BRANCH  13  15
ATOM     15  C   UNL     1      -1.223   0.552  -0.027  1.00  0.00     0.114 A 
ATOM     16  C   UNL     1       2.574  -0.091  -0.003  1.00  0.00     0.044 C 
ATOM     17  C   UNL     1       1.097  -0.343  -0.018  1.00  0.00    -0.049 A 
ATOM     18  C   UNL     1       0.598  -1.637  -0.022  1.00  0.00     0.010 A 
ATOM     19  C   UNL     1       0.189   0.720  -0.030  1.00  0.00     0.036 A 
ATOM     20  C   UNL     1      -0.779  -1.850  -0.064  1.00  0.00     0.088 A 
ATOM     21  C   UNL     1      -1.695  -0.772  -0.085  1.00  0.00     0.292 A 
BRANCH  21  22
ATOM     22  N   UNL     1      -3.110  -1.182  -0.112  1.00  0.00     0.064 N 
ATOM     23  O   UNL     1      -3.390  -2.280   0.398  1.00  0.00    -0.258 OA
ATOM     24  O   UNL     1      -3.941  -0.487  -0.704  1.00  0.00    -0.258 OA
ENDBRANCH  21  22
ENDBRANCH  13  15
ENDBRANCH  12  13
ENDBRANCH   7  12
ENDBRANCH   4   6
ENDBRANCH   3   4
ENDBRANCH   2   3
ENDBRANCH   1   2
BRANCH   1  25
ATOM     25  O   UNL     1      -5.517   8.496  -1.982  1.00  0.00    -0.374 OA
BRANCH  25  26
ATOM     26  C   UNL     1      -6.138   7.923  -3.104  1.00  0.00     0.202 C 
BRANCH  26  27
ATOM     27  C   UNL     1      -6.204   8.899  -4.278  1.00  0.00     0.261 C 
BRANCH  27  28
ATOM     28  O   UNL     1      -7.088  10.002  -3.970  1.00  0.00    -0.460 OA
BRANCH  28  29
ATOM     29  C   UNL     1      -6.489  11.177  -3.603  1.00  0.00     0.338 C 
ATOM     30  O   UNL     1      -5.904  11.909  -4.381  1.00  0.00    -0.246 OA
BRANCH  29  31
ATOM     31  C   UNL     1      -6.644  11.412  -2.134  1.00  0.00     0.060 A 
ATOM     32  C   UNL     1      -5.822  12.320  -1.437  1.00  0.00     0.016 A 
ATOM     33  C   UNL     1      -7.465  10.552  -1.417  1.00  0.00     0.016 A 
ATOM     34  C   UNL     1      -5.694  12.246  -0.032  1.00  0.00     0.010 A 
ATOM     35  C   UNL     1      -7.263  10.418  -0.060  1.00  0.00     0.010 A 
ATOM     36  C   UNL     1      -6.351  11.227   0.649  1.00  0.00    -0.014 A 
BRANCH  36  37
ATOM     37  C   UNL     1      -6.204  10.824   2.061  1.00  0.00     0.031 A 
ATOM     38  C   UNL     1      -7.453  10.831   2.862  1.00  0.00     0.074 A 
ATOM     39  C   UNL     1      -5.151  10.074   2.485  1.00  0.00     0.049 A 
ATOM     40  N   UNL     1      -7.560  10.353   4.047  1.00  0.00    -0.248 NA
ATOM     41  C   UNL     1      -8.714  11.403   2.383  1.00  0.00     0.031 C 
ATOM     42  C   UNL     1      -5.170   8.961   3.447  1.00  0.00     0.029 A 
ATOM     43  N   UNL     1      -3.809  10.112   2.105  1.00  0.00    -0.354 N 
ATOM     44  C   UNL     1      -8.897  10.213   4.329  1.00  0.00     0.074 A 
ATOM     45  C   UNL     1      -9.568  10.997   3.328  1.00  0.00     0.031 C 
ATOM     46  C   UNL     1      -3.913   8.595   3.756  1.00  0.00     0.029 A 
ATOM     47  C   UNL     1      -3.026   9.554   3.128  1.00  0.00     0.049 A 
ATOM     48  H   UNL     1      -3.467  10.472   1.255  1.00  0.00     0.167 HD
ATOM     49  C   UNL     1      -9.244   9.339   5.314  1.00  0.00     0.037 A 
ATOM     50  C   UNL     1      -2.058  10.304   3.721  1.00  0.00     0.037 A 
ATOM     51  C   UNL     1      -8.041   8.933   6.060  1.00  0.00     0.049 A 
ATOM     52  C   UNL     1      -2.485  10.554   5.142  1.00  0.00     0.074 A 
ATOM     53  C   UNL     1      -7.297   7.769   6.129  1.00  0.00     0.029 A 
ATOM     54  N   UNL     1      -7.253   9.932   6.636  1.00  0.00    -0.354 N 
ATOM     55  N   UNL     1      -3.732  10.455   5.523  1.00  0.00    -0.248 NA
ATOM     56  C   UNL     1      -1.579  10.783   6.261  1.00  0.00     0.031 C 
ATOM     57  C   UNL     1      -6.010   8.111   6.651  1.00  0.00     0.029 A 
ATOM     58  C   UNL     1      -5.986   9.471   6.937  1.00  0.00     0.049 A 
ATOM     59  H   UNL     1      -7.562  10.851   6.807  1.00  0.00     0.167 HD
ATOM     60  C   UNL     1      -3.810  10.515   6.876  1.00  0.00     0.074 A 
ATOM     61  C   UNL     1      -2.439  10.757   7.297  1.00  0.00     0.031 C 
ATOM     62  C   UNL     1      -4.990  10.358   7.544  1.00  0.00     0.037 A 
BRANCH  49  63
ATOM     63  C   UNL     1     -10.622   8.737   5.532  1.00  0.00     0.058 A 
ATOM     64  C   UNL     1     -10.846   7.870   6.626  1.00  0.00     0.135 A 
ATOM     65  C   UNL     1     -11.739   8.885   4.676  1.00  0.00     0.135 A 
ATOM     66  F   UNL     1      -9.872   7.600   7.508  1.00  0.00    -0.206 F 
ATOM     67  C   UNL     1     -12.066   7.223   6.856  1.00  0.00     0.059 A 
ATOM     68  C   UNL     1     -12.980   8.283   4.909  1.00  0.00     0.059 A 
ATOM     69  F   UNL     1     -11.680   9.575   3.534  1.00  0.00    -0.206 F 
ATOM     70  C   UNL     1     -13.134   7.442   5.998  1.00  0.00     0.060 A 
BRANCH  70  71
ATOM     71  S   UNL     1     -14.705   6.614   6.309  1.00  0.00     0.124 S 
ATOM     72  O   UNL     1     -14.352   5.212   6.113  1.00  0.00    -0.237 OA
ATOM     73  O   UNL     1     -14.997   7.012   7.681  1.00  0.00    -0.237 OA
ATOM     74  O   UNL     1     -15.596   7.178   5.297  1.00  0.00    -0.744 OA
ENDBRANCH  70  71
ENDBRANCH  49  63
BRANCH  50  75
ATOM     75  C   UNL     1      -1.389  11.200   2.717  1.00  0.00     0.058 A 
ATOM     76  C   UNL     1      -0.526  10.558   1.795  1.00  0.00     0.135 A 
ATOM     77  C   UNL     1      -2.013  12.379   2.272  1.00  0.00     0.135 A 
ATOM     78  F   UNL     1       0.103   9.424   2.151  1.00  0.00    -0.206 F 
ATOM     79  C   UNL     1      -0.432  10.951   0.456  1.00  0.00     0.059 A 
ATOM     80  C   UNL     1      -1.949  12.776   0.926  1.00  0.00     0.059 A 
ATOM     81  F   UNL     1      -2.851  13.041   3.083  1.00  0.00    -0.206 F 
ATOM     82  C   UNL     1      -1.200  12.026   0.014  1.00  0.00     0.060 A 
BRANCH  82  83
ATOM     83  S   UNL     1      -1.402  12.277  -1.780  1.00  0.00     0.124 S 
ATOM     84  O   UNL     1      -0.191  13.011  -2.123  1.00  0.00    -0.237 OA
ATOM     85  O   UNL     1      -1.472  10.911  -2.299  1.00  0.00    -0.237 OA
ATOM     86  O   UNL     1      -2.651  13.024  -1.867  1.00  0.00    -0.744 OA
ENDBRANCH  82  83
ENDBRANCH  50  75
BRANCH  62  87
ATOM     87  C   UNL     1      -5.252  10.996   8.881  1.00  0.00     0.058 A 
ATOM     88  C   UNL     1      -4.502  12.080   9.374  1.00  0.00     0.135 A 
ATOM     89  C   UNL     1      -6.386  10.643   9.649  1.00  0.00     0.135 A 
ATOM     90  F   UNL     1      -3.505  12.635   8.669  1.00  0.00    -0.206 F 
ATOM     91  C   UNL     1      -4.769  12.677  10.598  1.00  0.00     0.059 A 
ATOM     92  C   UNL     1      -6.721  11.285  10.836  1.00  0.00     0.059 A 
ATOM     93  F   UNL     1      -7.228   9.673   9.266  1.00  0.00    -0.206 F 
ATOM     94  C   UNL     1      -5.875  12.266  11.327  1.00  0.00     0.060 A 
BRANCH  94  95
ATOM     95  S   UNL     1      -6.200  13.040  12.913  1.00  0.00     0.124 S 
ATOM     96  O   UNL     1      -5.254  12.334  13.772  1.00  0.00    -0.237 OA
ATOM     97  O   UNL     1      -5.888  14.442  12.649  1.00  0.00    -0.237 OA
ATOM     98  O   UNL     1      -7.610  12.751  13.150  1.00  0.00    -0.744 OA
ENDBRANCH  94  95
ENDBRANCH  62  87
ENDBRANCH  36  37
ENDBRANCH  29  31
ENDBRANCH  28  29
ENDBRANCH  27  28
ENDBRANCH  26  27
ENDBRANCH  25  26
ENDBRANCH   1  25
TORSDOF 21
