REMARK SMILES O=C(OCCOCCOC(=O)[C@H]1C=NC2=C(CCCC2)C1=O)c1ccc(-c2c3nc(c(-c4c(F)cc(S(=O)(=O)[O-])cc4F)c4ccc([nH]4)c(-c4c(F)cc(S(=O)(=O)[O-])cc4F)c4nc(c(-c5c(F)cc(S(=O)(=O)[O-])cc5F)c5ccc2[nH]5)C=C4)C=C3)cc1
REMARK SMILES IDX 4 1 3 2 2 3 1 4 23 5 24 6 88 7 25 8 87 9 26 10 27 11 28 12
REMARK SMILES IDX 81 13 29 14 86 15 80 16 82 17 30 18 85 19 79 20 78 21 31 23
REMARK SMILES IDX 65 24 44 25 64 26 45 27 48 28 63 29 83 30 46 31 47 32 62 34
REMARK SMILES IDX 84 35 49 36 32 37 33 38 42 39 34 40 35 41 41 42 43 43 36 44
REMARK SMILES IDX 37 45 38 46 39 47 40 48 66 49 67 50 76 51 68 52 69 53 75 54
REMARK SMILES IDX 77 55 70 56 71 57 72 58 73 59 74 60 50 61 51 62 60 63 52 64
REMARK SMILES IDX 53 65 59 66 61 67 54 68 55 69 56 70 57 71 58 72 5 73 6 74
REMARK SMILES IDX 7 75 8 76 9 77 10 78 11 79 12 80 13 81 21 82 14 83 16 84
REMARK SMILES IDX 22 85 15 86 17 87 20 88 18 89 19 90
REMARK H PARENT 82 22 48 33
REMARK Flexibility Score: inf
ROOT
ATOM      1  C   UNL     1       4.315  -0.240   1.195  1.00  0.00     0.261 C 
ENDROOT
BRANCH   1   2
ATOM      2  O   UNL     1       2.896  -0.012   1.234  1.00  0.00    -0.460 OA
BRANCH   2   3
ATOM      3  C   UNL     1       2.197   0.947   0.581  1.00  0.00     0.338 C 
ATOM      4  O   UNL     1       0.985   1.030   0.767  1.00  0.00    -0.246 OA
BRANCH   3   5
ATOM      5  C   UNL     1       2.837   1.898  -0.374  1.00  0.00     0.060 A 
ATOM      6  C   UNL     1       3.964   1.605  -1.148  1.00  0.00     0.016 A 
ATOM      7  C   UNL     1       2.209   3.138  -0.558  1.00  0.00     0.016 A 
ATOM      8  C   UNL     1       4.528   2.538  -1.995  1.00  0.00     0.010 A 
ATOM      9  C   UNL     1       2.742   4.073  -1.446  1.00  0.00     0.010 A 
ATOM     10  C   UNL     1       3.922   3.778  -2.138  1.00  0.00    -0.014 A 
BRANCH  10  11
ATOM     11  C   UNL     1       4.630   4.799  -2.916  1.00  0.00     0.031 A 
ATOM     12  C   UNL     1       5.364   5.860  -2.163  1.00  0.00     0.074 A 
ATOM     13  C   UNL     1       4.683   4.693  -4.253  1.00  0.00     0.049 A 
ATOM     14  N   UNL     1       5.942   6.937  -2.609  1.00  0.00    -0.248 NA
ATOM     15  C   UNL     1       5.463   5.675  -0.704  1.00  0.00     0.031 C 
ATOM     16  C   UNL     1       4.113   3.592  -5.035  1.00  0.00     0.029 A 
ATOM     17  N   UNL     1       5.249   5.512  -5.189  1.00  0.00    -0.354 N 
ATOM     18  C   UNL     1       6.431   7.587  -1.484  1.00  0.00     0.074 A 
ATOM     19  C   UNL     1       6.097   6.776  -0.335  1.00  0.00     0.031 C 
ATOM     20  C   UNL     1       4.350   3.813  -6.337  1.00  0.00     0.029 A 
ATOM     21  C   UNL     1       5.018   5.101  -6.479  1.00  0.00     0.049 A 
ATOM     22  H   UNL     1       5.771   6.315  -4.961  1.00  0.00     0.167 HD
ATOM     23  C   UNL     1       7.078   8.773  -1.431  1.00  0.00     0.037 A 
ATOM     24  C   UNL     1       5.271   5.737  -7.638  1.00  0.00     0.037 A 
ATOM     25  C   UNL     1       7.373   9.542  -2.609  1.00  0.00     0.049 A 
ATOM     26  C   UNL     1       5.922   7.090  -7.559  1.00  0.00     0.074 A 
ATOM     27  C   UNL     1       7.951  10.791  -2.709  1.00  0.00     0.029 A 
ATOM     28  N   UNL     1       7.101   9.115  -3.905  1.00  0.00    -0.354 N 
ATOM     29  N   UNL     1       6.303   7.755  -6.491  1.00  0.00    -0.248 NA
ATOM     30  C   UNL     1       6.166   7.789  -8.824  1.00  0.00     0.031 C 
ATOM     31  C   UNL     1       7.993  11.136  -4.065  1.00  0.00     0.029 A 
ATOM     32  C   UNL     1       7.489  10.080  -4.814  1.00  0.00     0.049 A 
ATOM     33  H   UNL     1       6.692   8.251  -4.141  1.00  0.00     0.167 HD
ATOM     34  C   UNL     1       6.849   8.944  -6.952  1.00  0.00     0.074 A 
ATOM     35  C   UNL     1       6.750   8.904  -8.401  1.00  0.00     0.031 C 
ATOM     36  C   UNL     1       7.383   9.975  -6.251  1.00  0.00     0.037 A 
BRANCH  23  37
ATOM     37  C   UNL     1       7.390   9.315  -0.066  1.00  0.00     0.058 A 
ATOM     38  C   UNL     1       8.370   8.743   0.762  1.00  0.00     0.135 A 
ATOM     39  C   UNL     1       6.629  10.372   0.458  1.00  0.00     0.135 A 
ATOM     40  F   UNL     1       9.104   7.708   0.325  1.00  0.00    -0.206 F 
ATOM     41  C   UNL     1       8.547   9.165   2.078  1.00  0.00     0.059 A 
ATOM     42  C   UNL     1       6.806  10.827   1.761  1.00  0.00     0.059 A 
ATOM     43  F   UNL     1       5.670  10.948  -0.285  1.00  0.00    -0.206 F 
ATOM     44  C   UNL     1       7.748  10.198   2.572  1.00  0.00     0.060 A 
BRANCH  44  45
ATOM     45  S   UNL     1       7.932  10.688   4.301  1.00  0.00     0.124 S 
ATOM     46  O   UNL     1       7.257   9.589   4.986  1.00  0.00    -0.237 OA
ATOM     47  O   UNL     1       9.382  10.738   4.462  1.00  0.00    -0.237 OA
ATOM     48  O   UNL     1       7.253  11.978   4.362  1.00  0.00    -0.744 OA
ENDBRANCH  44  45
ENDBRANCH  23  37
BRANCH  24  49
ATOM     49  C   UNL     1       4.852   5.118  -8.922  1.00  0.00     0.058 A 
ATOM     50  C   UNL     1       5.791   4.615  -9.832  1.00  0.00     0.135 A 
ATOM     51  C   UNL     1       3.491   4.945  -9.230  1.00  0.00     0.135 A 
ATOM     52  F   UNL     1       7.103   4.759  -9.590  1.00  0.00    -0.206 F 
ATOM     53  C   UNL     1       5.399   3.955 -10.995  1.00  0.00     0.059 A 
ATOM     54  C   UNL     1       3.075   4.268 -10.372  1.00  0.00     0.059 A 
ATOM     55  F   UNL     1       2.548   5.394  -8.386  1.00  0.00    -0.206 F 
ATOM     56  C   UNL     1       4.038   3.777 -11.251  1.00  0.00     0.060 A 
BRANCH  56  57
ATOM     57  S   UNL     1       3.541   2.845 -12.717  1.00  0.00     0.124 S 
ATOM     58  O   UNL     1       3.831   3.797 -13.783  1.00  0.00    -0.237 OA
ATOM     59  O   UNL     1       4.414   1.677 -12.649  1.00  0.00    -0.237 OA
ATOM     60  O   UNL     1       2.126   2.575 -12.480  1.00  0.00    -0.744 OA
ENDBRANCH  56  57
ENDBRANCH  24  49
BRANCH  36  61
ATOM     61  C   UNL     1       7.942  11.119  -7.041  1.00  0.00     0.058 A 
ATOM     62  C   UNL     1       7.112  12.099  -7.601  1.00  0.00     0.135 A 
ATOM     63  C   UNL     1       9.332  11.292  -7.129  1.00  0.00     0.135 A 
ATOM     64  F   UNL     1       5.777  11.968  -7.545  1.00  0.00    -0.206 F 
ATOM     65  C   UNL     1       7.643  13.222  -8.221  1.00  0.00     0.059 A 
ATOM     66  C   UNL     1       9.885  12.417  -7.726  1.00  0.00     0.059 A 
ATOM     67  F   UNL     1      10.162  10.380  -6.598  1.00  0.00    -0.206 F 
ATOM     68  C   UNL     1       9.031  13.377  -8.268  1.00  0.00     0.060 A 
BRANCH  68  69
ATOM     69  S   UNL     1       9.708  14.884  -8.995  1.00  0.00     0.124 S 
ATOM     70  O   UNL     1       9.524  14.631 -10.419  1.00  0.00    -0.237 OA
ATOM     71  O   UNL     1       8.856  15.919  -8.418  1.00  0.00    -0.237 OA
ATOM     72  O   UNL     1      11.092  14.891  -8.531  1.00  0.00    -0.744 OA
ENDBRANCH  68  69
ENDBRANCH  36  61
ENDBRANCH  10  11
ENDBRANCH   3   5
ENDBRANCH   2   3
ENDBRANCH   1   2
BRANCH   1  73
ATOM     73  C   UNL     1       4.646  -1.471   0.342  1.00  0.00     0.202 C 
BRANCH  73  74
ATOM     74  O   UNL     1       4.173  -1.500  -1.011  1.00  0.00    -0.374 OA
BRANCH  74  75
ATOM     75  C   UNL     1       2.759  -1.636  -1.207  1.00  0.00     0.202 C 
BRANCH  75  76
ATOM     76  C   UNL     1       2.481  -2.611  -2.353  1.00  0.00     0.261 C 
BRANCH  76  77
ATOM     77  O   UNL     1       2.781  -3.924  -1.860  1.00  0.00    -0.462 OA
BRANCH  77  78
ATOM     78  C   UNL     1       4.107  -4.230  -1.964  1.00  0.00     0.322 C 
ATOM     79  O   UNL     1       4.811  -3.968  -2.922  1.00  0.00    -0.251 OA
BRANCH  78  80
ATOM     80  C   UNL     1       4.556  -4.885  -0.693  1.00  0.00     0.212 C 
ATOM     81  C   UNL     1       4.025  -6.268  -0.578  1.00  0.00     0.107 C 
ATOM     82  C   UNL     1       6.044  -4.878  -0.587  1.00  0.00     0.180 C 
ATOM     83  N   UNL     1       4.705  -7.330  -0.869  1.00  0.00    -0.264 NA
ATOM     84  C   UNL     1       6.727  -6.034  -1.200  1.00  0.00     0.018 C 
ATOM     85  O   UNL     1       6.675  -3.962  -0.066  1.00  0.00    -0.293 OA
ATOM     86  C   UNL     1       5.994  -7.157  -1.324  1.00  0.00     0.047 C 
ATOM     87  C   UNL     1       8.132  -5.849  -1.676  1.00  0.00     0.041 C 
ATOM     88  C   UNL     1       6.569  -8.365  -2.021  1.00  0.00     0.056 C 
ATOM     89  C   UNL     1       8.789  -7.173  -2.061  1.00  0.00     0.005 C 
ATOM     90  C   UNL     1       7.821  -8.056  -2.843  1.00  0.00     0.007 C 
ENDBRANCH  78  80
ENDBRANCH  77  78
ENDBRANCH  76  77
ENDBRANCH  75  76
ENDBRANCH  74  75
ENDBRANCH  73  74
ENDBRANCH   1  73
TORSDOF 17
