REMARK SMILES N#CCC1(C[NH+]2CCO[C@H](CC(=O)OCCOCCOC(=O)c3ccc(-c4c5nc(c(-c6c(F)cc(S(=O)(=O)[O-])cc6F)c6ccc([nH]6)c(-c6c(F)cc(S(=O)(=O)[O-])cc6F)c6nc(c(-c7c(F)cc(S(=O)(=O)[O-])cc7F)c7ccc4[nH]7)C=C6)C=C5)cc3)C2)CC1
REMARK SMILES IDX 16 1 15 2 14 3 12 4 13 5 11 6 10 7 6 8 7 9 89 10 8 12 9 13
REMARK SMILES IDX 5 14 4 15 90 16 91 17 3 18 2 19 1 20 17 21 18 22 19 23 20 24
REMARK SMILES IDX 21 25 22 26 23 27 24 28 88 29 25 30 87 31 26 32 27 33 28 34
REMARK SMILES IDX 81 35 29 36 86 37 80 38 82 39 30 40 85 41 79 42 78 43 31 45
REMARK SMILES IDX 65 46 44 47 64 48 45 49 48 50 63 51 83 52 46 53 47 54 62 56
REMARK SMILES IDX 84 57 49 58 32 59 33 60 42 61 34 62 35 63 41 64 43 65 36 66
REMARK SMILES IDX 37 67 38 68 39 69 40 70 66 71 67 72 76 73 68 74 69 75 75 76
REMARK SMILES IDX 77 77 70 78 71 79 72 80 73 81 74 82 50 83 51 84 60 85 52 86
REMARK SMILES IDX 53 87 59 88 61 89 54 90 55 91 56 92 57 93 58 94
REMARK H PARENT 6 11 82 44 48 55
REMARK Flexibility Score: inf
ROOT
ATOM      1  C   UNL     1       6.584   4.684  -5.057  1.00  0.00     0.202 C 
ENDROOT
BRANCH   1   2
ATOM      2  C   UNL     1       5.247   4.513  -4.311  1.00  0.00     0.261 C 
BRANCH   2   3
ATOM      3  O   UNL     1       5.339   4.529  -2.864  1.00  0.00    -0.463 OA
BRANCH   3   4
ATOM      4  C   UNL     1       5.045   3.357  -2.249  1.00  0.00     0.308 C 
ATOM      5  O   UNL     1       4.881   2.311  -2.858  1.00  0.00    -0.252 OA
BRANCH   4   6
ATOM      6  C   UNL     1       4.974   3.436  -0.743  1.00  0.00     0.160 C 
BRANCH   6   7
ATOM      7  C   UNL     1       6.303   3.100  -0.053  1.00  0.00     0.184 C 
ATOM      8  N   UNL     1       6.495   0.624  -0.152  1.00  0.00    -0.330 N 
ATOM      9  C   UNL     1       6.479   0.511   1.293  1.00  0.00     0.291 C 
ATOM     10  C   UNL     1       7.067   1.874  -0.586  1.00  0.00     0.295 C 
ATOM     11  H   UNL     1       6.234  -0.296  -0.504  1.00  0.00     0.348 HD
ATOM     12  C   UNL     1       5.838   1.761   1.959  1.00  0.00     0.222 C 
ATOM     13  O   UNL     1       6.197   3.033   1.390  1.00  0.00    -0.366 OA
BRANCH   8  14
ATOM     14  C   UNL     1       5.981  -0.353  -1.100  1.00  0.00     0.270 C 
BRANCH  14  15
ATOM     15  C   UNL     1       4.450  -0.421  -1.234  1.00  0.00     0.032 C 
ATOM     16  C   UNL     1       3.876  -1.545  -2.093  1.00  0.00     0.015 C 
ATOM     17  C   UNL     1       3.778  -0.136  -2.573  1.00  0.00     0.015 C 
BRANCH  15  18
ATOM     18  C   UNL     1       3.786  -0.086   0.051  1.00  0.00     0.133 C 
BRANCH  18  19
ATOM     19  C   UNL     1       2.266  -0.086   0.051  1.00  0.00     0.063 C 
ATOM     20  N   UNL     1       1.005  -0.086   0.051  1.00  0.00    -0.198 NA
ENDBRANCH  18  19
ENDBRANCH  15  18
ENDBRANCH  14  15
ENDBRANCH   8  14
ENDBRANCH   6   7
ENDBRANCH   4   6
ENDBRANCH   3   4
ENDBRANCH   2   3
ENDBRANCH   1   2
BRANCH   1  21
ATOM     21  O   UNL     1       7.474   3.575  -5.155  1.00  0.00    -0.374 OA
BRANCH  21  22
ATOM     22  C   UNL     1       7.999   3.033  -3.952  1.00  0.00     0.202 C 
BRANCH  22  23
ATOM     23  C   UNL     1       8.802   3.969  -3.034  1.00  0.00     0.261 C 
BRANCH  23  24
ATOM     24  O   UNL     1       7.989   5.024  -2.484  1.00  0.00    -0.460 OA
BRANCH  24  25
ATOM     25  C   UNL     1       8.509   6.268  -2.625  1.00  0.00     0.338 C 
ATOM     26  O   UNL     1       9.631   6.551  -3.008  1.00  0.00    -0.246 OA
BRANCH  25  27
ATOM     27  C   UNL     1       7.465   7.295  -2.447  1.00  0.00     0.060 A 
ATOM     28  C   UNL     1       7.082   8.024  -3.581  1.00  0.00     0.016 A 
ATOM     29  C   UNL     1       7.003   7.660  -1.181  1.00  0.00     0.016 A 
ATOM     30  C   UNL     1       6.285   9.156  -3.451  1.00  0.00     0.010 A 
ATOM     31  C   UNL     1       6.218   8.814  -1.049  1.00  0.00     0.010 A 
ATOM     32  C   UNL     1       5.900   9.592  -2.178  1.00  0.00    -0.014 A 
BRANCH  32  33
ATOM     33  C   UNL     1       5.353  10.965  -2.040  1.00  0.00     0.031 A 
ATOM     34  C   UNL     1       6.295  12.083  -1.671  1.00  0.00     0.074 A 
ATOM     35  C   UNL     1       4.061  11.224  -2.311  1.00  0.00     0.049 A 
ATOM     36  N   UNL     1       6.047  13.357  -1.516  1.00  0.00    -0.248 NA
ATOM     37  C   UNL     1       7.706  11.717  -1.452  1.00  0.00     0.031 C 
ATOM     38  C   UNL     1       3.068  10.230  -2.716  1.00  0.00     0.029 A 
ATOM     39  N   UNL     1       3.363  12.405  -2.284  1.00  0.00    -0.354 N 
ATOM     40  C   UNL     1       7.261  13.941  -1.167  1.00  0.00     0.074 A 
ATOM     41  C   UNL     1       8.244  12.882  -1.121  1.00  0.00     0.031 C 
ATOM     42  C   UNL     1       1.881  10.841  -2.881  1.00  0.00     0.029 A 
ATOM     43  C   UNL     1       2.027  12.262  -2.572  1.00  0.00     0.049 A 
ATOM     44  H   UNL     1       3.780  13.272  -2.078  1.00  0.00     0.167 HD
ATOM     45  C   UNL     1       7.529  15.243  -0.912  1.00  0.00     0.037 A 
ATOM     46  C   UNL     1       1.033  13.173  -2.564  1.00  0.00     0.037 A 
ATOM     47  C   UNL     1       6.552  16.296  -0.988  1.00  0.00     0.049 A 
ATOM     48  C   UNL     1       1.355  14.611  -2.245  1.00  0.00     0.074 A 
ATOM     49  C   UNL     1       6.737  17.655  -0.798  1.00  0.00     0.029 A 
ATOM     50  N   UNL     1       5.208  16.110  -1.269  1.00  0.00    -0.354 N 
ATOM     51  N   UNL     1       2.516  15.153  -1.963  1.00  0.00    -0.248 NA
ATOM     52  C   UNL     1       0.234  15.563  -2.249  1.00  0.00     0.031 C 
ATOM     53  C   UNL     1       5.495  18.285  -0.918  1.00  0.00     0.029 A 
ATOM     54  C   UNL     1       4.545  17.325  -1.229  1.00  0.00     0.049 A 
ATOM     55  H   UNL     1       4.787  15.243  -1.468  1.00  0.00     0.167 HD
ATOM     56  C   UNL     1       2.269  16.510  -1.781  1.00  0.00     0.074 A 
ATOM     57  C   UNL     1       0.851  16.709  -1.998  1.00  0.00     0.031 C 
ATOM     58  C   UNL     1       3.135  17.503  -1.463  1.00  0.00     0.037 A 
BRANCH  45  59
ATOM     59  C   UNL     1       8.927  15.613  -0.505  1.00  0.00     0.058 A 
ATOM     60  C   UNL     1       9.977  15.679  -1.432  1.00  0.00     0.135 A 
ATOM     61  C   UNL     1       9.198  15.988   0.822  1.00  0.00     0.135 A 
ATOM     62  F   UNL     1       9.777  15.312  -2.708  1.00  0.00    -0.206 F 
ATOM     63  C   UNL     1      11.249  16.105  -1.059  1.00  0.00     0.059 A 
ATOM     64  C   UNL     1      10.455  16.437   1.212  1.00  0.00     0.059 A 
ATOM     65  F   UNL     1       8.228  15.935   1.749  1.00  0.00    -0.206 F 
ATOM     66  C   UNL     1      11.476  16.489   0.264  1.00  0.00     0.060 A 
BRANCH  66  67
ATOM     67  S   UNL     1      13.117  17.089   0.722  1.00  0.00     0.124 S 
ATOM     68  O   UNL     1      13.891  15.852   0.720  1.00  0.00    -0.237 OA
ATOM     69  O   UNL     1      13.418  18.027  -0.355  1.00  0.00    -0.237 OA
ATOM     70  O   UNL     1      12.904  17.694   2.033  1.00  0.00    -0.744 OA
ENDBRANCH  66  67
ENDBRANCH  45  59
BRANCH  46  71
ATOM     71  C   UNL     1      -0.370  12.754  -2.829  1.00  0.00     0.058 A 
ATOM     72  C   UNL     1      -1.053  13.164  -3.983  1.00  0.00     0.135 A 
ATOM     73  C   UNL     1      -1.068  11.959  -1.905  1.00  0.00     0.135 A 
ATOM     74  F   UNL     1      -0.432  13.932  -4.892  1.00  0.00    -0.206 F 
ATOM     75  C   UNL     1      -2.386  12.829  -4.199  1.00  0.00     0.059 A 
ATOM     76  C   UNL     1      -2.392  11.588  -2.111  1.00  0.00     0.059 A 
ATOM     77  F   UNL     1      -0.457  11.529  -0.790  1.00  0.00    -0.206 F 
ATOM     78  C   UNL     1      -3.049  12.044  -3.253  1.00  0.00     0.060 A 
BRANCH  78  79
ATOM     79  S   UNL     1      -4.776  11.602  -3.543  1.00  0.00     0.124 S 
ATOM     80  O   UNL     1      -5.456  12.846  -3.205  1.00  0.00    -0.237 OA
ATOM     81  O   UNL     1      -4.770  11.241  -4.957  1.00  0.00    -0.237 OA
ATOM     82  O   UNL     1      -4.994  10.490  -2.622  1.00  0.00    -0.744 OA
ENDBRANCH  78  79
ENDBRANCH  46  71
BRANCH  58  83
ATOM     83  C   UNL     1       2.586  18.898  -1.365  1.00  0.00     0.058 A 
ATOM     84  C   UNL     1       1.803  19.306  -0.274  1.00  0.00     0.135 A 
ATOM     85  C   UNL     1       2.895  19.854  -2.347  1.00  0.00     0.135 A 
ATOM     86  F   UNL     1       1.477  18.429   0.689  1.00  0.00    -0.206 F 
ATOM     87  C   UNL     1       1.326  20.609  -0.171  1.00  0.00     0.059 A 
ATOM     88  C   UNL     1       2.450  21.168  -2.251  1.00  0.00     0.059 A 
ATOM     89  F   UNL     1       3.651  19.517  -3.404  1.00  0.00    -0.206 F 
ATOM     90  C   UNL     1       1.655  21.533  -1.165  1.00  0.00     0.060 A 
BRANCH  90  91
ATOM     91  S   UNL     1       1.058  23.229  -1.005  1.00  0.00     0.124 S 
ATOM     92  O   UNL     1      -0.343  23.084  -1.387  1.00  0.00    -0.237 OA
ATOM     93  O   UNL     1       1.304  23.518   0.405  1.00  0.00    -0.237 OA
ATOM     94  O   UNL     1       1.892  23.972  -1.945  1.00  0.00    -0.744 OA
ENDBRANCH  90  91
ENDBRANCH  58  83
ENDBRANCH  32  33
ENDBRANCH  25  27
ENDBRANCH  24  25
ENDBRANCH  23  24
ENDBRANCH  22  23
ENDBRANCH  21  22
ENDBRANCH   1  21
TORSDOF 22
