REMARK SMILES C[C@@H](C(=O)OCCOCCOC(=O)c1ccc(-c2c3nc(c(-c4c(F)cc(S(=O)(=O)[O-])cc4F)c4ccc([nH]4)c(-c4c(F)cc(S(=O)(=O)[O-])cc4F)c4nc(c(-c5c(F)cc(S(=O)(=O)[O-])cc5F)c5ccc2[nH]5)C=C4)C=C3)cc1)c1ccc(C[C@H]2CCC[C@H]2O)cc1-c1ccc(O)cc1
REMARK SMILES IDX 7 1 6 2 5 3 3 4 4 5 2 6 1 7 80 8 81 9 92 10 82 11 91 12
REMARK SMILES IDX 83 13 93 14 94 15 99 16 95 17 98 18 96 19 97 20 84 22 85 23
REMARK SMILES IDX 86 24 89 25 87 26 88 27 90 28 8 30 9 31 10 32 11 33 12 34
REMARK SMILES IDX 13 35 14 36 15 37 79 38 16 39 78 40 17 41 18 42 19 43 72 44
REMARK SMILES IDX 20 45 77 46 71 47 73 48 21 49 76 50 70 51 69 52 22 54 56 55
REMARK SMILES IDX 35 56 55 57 36 58 39 59 54 60 74 61 37 62 38 63 53 65 75 66
REMARK SMILES IDX 40 67 23 68 24 69 33 70 25 71 26 72 32 73 34 74 27 75 28 76
REMARK SMILES IDX 29 77 30 78 31 79 57 80 58 81 67 82 59 83 60 84 66 85 68 86
REMARK SMILES IDX 61 87 62 88 63 89 64 90 65 91 41 92 42 93 51 94 43 95 44 96
REMARK SMILES IDX 50 97 52 98 45 99 46 100 47 101 48 102 49 103
REMARK H PARENT 97 21 90 29 73 53 39 64
REMARK Flexibility Score: inf
ROOT
ATOM      1  C   UNL     1       3.102  -2.471  -3.762  1.00  0.00     0.202 C 
ENDROOT
BRANCH   1   2
ATOM      2  C   UNL     1       2.599  -1.121  -4.301  1.00  0.00     0.261 C 
BRANCH   2   3
ATOM      3  O   UNL     1       2.017  -0.305  -3.271  1.00  0.00    -0.463 OA
BRANCH   3   4
ATOM      4  C   UNL     1       0.655  -0.222  -3.299  1.00  0.00     0.313 C 
ATOM      5  O   UNL     1      -0.038  -0.602  -4.235  1.00  0.00    -0.252 OA
BRANCH   4   6
ATOM      6  C   UNL     1       0.115   0.497  -2.064  1.00  0.00     0.127 C 
ATOM      7  C   UNL     1       0.829   0.308  -0.720  1.00  0.00     0.025 C 
BRANCH   6   8
ATOM      8  C   UNL     1      -1.400   0.356  -1.919  1.00  0.00    -0.026 A 
ATOM      9  C   UNL     1      -2.116   1.544  -2.176  1.00  0.00     0.005 A 
ATOM     10  C   UNL     1      -2.127  -0.815  -1.579  1.00  0.00    -0.014 A 
ATOM     11  C   UNL     1      -3.494   1.609  -2.038  1.00  0.00     0.004 A 
ATOM     12  C   UNL     1      -3.518  -0.693  -1.378  1.00  0.00     0.012 A 
ATOM     13  C   UNL     1      -4.198   0.513  -1.558  1.00  0.00    -0.047 A 
BRANCH  10  14
ATOM     14  C   UNL     1      -1.622  -2.199  -1.475  1.00  0.00    -0.018 A 
ATOM     15  C   UNL     1      -1.480  -2.984  -2.636  1.00  0.00     0.012 A 
ATOM     16  C   UNL     1      -1.486  -2.843  -0.230  1.00  0.00     0.012 A 
ATOM     17  C   UNL     1      -1.140  -4.340  -2.566  1.00  0.00     0.047 A 
ATOM     18  C   UNL     1      -1.187  -4.210  -0.154  1.00  0.00     0.047 A 
ATOM     19  C   UNL     1      -0.982  -4.933  -1.324  1.00  0.00     0.115 A 
BRANCH  19  20
ATOM     20  O   UNL     1      -0.517  -6.211  -1.225  1.00  0.00    -0.508 OA
ATOM     21  H   UNL     1      -0.370  -6.718  -1.999  1.00  0.00     0.293 HD
ENDBRANCH  19  20
ENDBRANCH  10  14
BRANCH  13  22
ATOM     22  C   UNL     1      -5.647   0.635  -1.189  1.00  0.00     0.041 C 
BRANCH  22  23
ATOM     23  C   UNL     1      -5.933   1.132   0.238  1.00  0.00     0.022 C 
ATOM     24  C   UNL     1      -5.287   0.331   1.382  1.00  0.00     0.007 C 
ATOM     25  C   UNL     1      -5.614   2.598   0.575  1.00  0.00     0.117 C 
ATOM     26  C   UNL     1      -5.126   1.315   2.544  1.00  0.00     0.003 C 
ATOM     27  C   UNL     1      -5.774   2.621   2.089  1.00  0.00     0.032 C 
BRANCH  25  28
ATOM     28  O   UNL     1      -4.297   3.025   0.271  1.00  0.00    -0.393 OA
ATOM     29  H   UNL     1      -3.660   2.478   0.757  1.00  0.00     0.210 HD
ENDBRANCH  25  28
ENDBRANCH  22  23
ENDBRANCH  13  22
ENDBRANCH   6   8
ENDBRANCH   4   6
ENDBRANCH   3   4
ENDBRANCH   2   3
ENDBRANCH   1   2
BRANCH   1  30
ATOM     30  O   UNL     1       2.222  -3.190  -2.889  1.00  0.00    -0.374 OA
BRANCH  30  31
ATOM     31  C   UNL     1       2.010  -2.539  -1.635  1.00  0.00     0.202 C 
BRANCH  31  32
ATOM     32  C   UNL     1       1.941  -3.465  -0.428  1.00  0.00     0.261 C 
BRANCH  32  33
ATOM     33  O   UNL     1       3.249  -3.873  -0.079  1.00  0.00    -0.460 OA
BRANCH  33  34
ATOM     34  C   UNL     1       3.714  -4.847  -0.893  1.00  0.00     0.338 C 
ATOM     35  O   UNL     1       3.073  -5.696  -1.490  1.00  0.00    -0.246 OA
BRANCH  34  36
ATOM     36  C   UNL     1       5.122  -4.506  -1.123  1.00  0.00     0.060 A 
ATOM     37  C   UNL     1       5.665  -4.774  -2.382  1.00  0.00     0.016 A 
ATOM     38  C   UNL     1       5.860  -3.849  -0.128  1.00  0.00     0.016 A 
ATOM     39  C   UNL     1       6.990  -4.450  -2.626  1.00  0.00     0.010 A 
ATOM     40  C   UNL     1       7.170  -3.499  -0.380  1.00  0.00     0.010 A 
ATOM     41  C   UNL     1       7.745  -3.855  -1.606  1.00  0.00    -0.014 A 
BRANCH  41  42
ATOM     42  C   UNL     1       9.206  -3.801  -1.710  1.00  0.00     0.031 A 
ATOM     43  C   UNL     1       9.981  -4.857  -0.980  1.00  0.00     0.074 A 
ATOM     44  C   UNL     1       9.786  -2.801  -2.388  1.00  0.00     0.049 A 
ATOM     45  N   UNL     1      11.269  -4.982  -0.834  1.00  0.00    -0.248 NA
ATOM     46  C   UNL     1       9.192  -5.901  -0.296  1.00  0.00     0.031 C 
ATOM     47  C   UNL     1       9.075  -1.738  -3.101  1.00  0.00     0.029 A 
ATOM     48  N   UNL     1      11.107  -2.509  -2.569  1.00  0.00    -0.354 N 
ATOM     49  C   UNL     1      11.444  -6.104  -0.033  1.00  0.00     0.074 A 
ATOM     50  C   UNL     1      10.134  -6.599   0.316  1.00  0.00     0.031 C 
ATOM     51  C   UNL     1       9.976  -0.902  -3.643  1.00  0.00     0.029 A 
ATOM     52  C   UNL     1      11.317  -1.360  -3.290  1.00  0.00     0.049 A 
ATOM     53  H   UNL     1      11.837  -3.067  -2.217  1.00  0.00     0.167 HD
ATOM     54  C   UNL     1      12.606  -6.672   0.358  1.00  0.00     0.037 A 
ATOM     55  C   UNL     1      12.475  -0.755  -3.609  1.00  0.00     0.037 A 
ATOM     56  C   UNL     1      13.890  -6.149  -0.020  1.00  0.00     0.049 A 
ATOM     57  C   UNL     1      13.755  -1.404  -3.157  1.00  0.00     0.074 A 
ATOM     58  C   UNL     1      15.145  -6.644   0.271  1.00  0.00     0.029 A 
ATOM     59  N   UNL     1      14.073  -4.997  -0.776  1.00  0.00    -0.354 N 
ATOM     60  N   UNL     1      13.919  -2.496  -2.443  1.00  0.00    -0.248 NA
ATOM     61  C   UNL     1      15.006  -0.751  -3.556  1.00  0.00     0.031 C 
ATOM     62  C   UNL     1      16.089  -5.767  -0.273  1.00  0.00     0.029 A 
ATOM     63  C   UNL     1      15.421  -4.753  -0.947  1.00  0.00     0.049 A 
ATOM     64  H   UNL     1      13.347  -4.437  -1.136  1.00  0.00     0.167 HD
ATOM     65  C   UNL     1      15.291  -2.677  -2.331  1.00  0.00     0.074 A 
ATOM     66  C   UNL     1      15.910  -1.586  -3.061  1.00  0.00     0.031 C 
ATOM     67  C   UNL     1      15.985  -3.652  -1.690  1.00  0.00     0.037 A 
BRANCH  54  68
ATOM     68  C   UNL     1      12.527  -7.890   1.234  1.00  0.00     0.058 A 
ATOM     69  C   UNL     1      12.050  -9.121   0.752  1.00  0.00     0.135 A 
ATOM     70  C   UNL     1      12.933  -7.830   2.576  1.00  0.00     0.135 A 
ATOM     71  F   UNL     1      11.620  -9.229  -0.516  1.00  0.00    -0.206 F 
ATOM     72  C   UNL     1      11.954 -10.239   1.574  1.00  0.00     0.059 A 
ATOM     73  C   UNL     1      12.873  -8.943   3.410  1.00  0.00     0.059 A 
ATOM     74  F   UNL     1      13.384  -6.677   3.095  1.00  0.00    -0.206 F 
ATOM     75  C   UNL     1      12.369 -10.140   2.903  1.00  0.00     0.060 A 
BRANCH  75  76
ATOM     76  S   UNL     1      12.250 -11.603   3.954  1.00  0.00     0.124 S 
ATOM     77  O   UNL     1      10.809 -11.691   4.169  1.00  0.00    -0.237 OA
ATOM     78  O   UNL     1      12.829 -12.642   3.109  1.00  0.00    -0.237 OA
ATOM     79  O   UNL     1      13.039 -11.243   5.128  1.00  0.00    -0.744 OA
ENDBRANCH  75  76
ENDBRANCH  54  68
BRANCH  55  80
ATOM     80  C   UNL     1      12.464   0.495  -4.410  1.00  0.00     0.058 A 
ATOM     81  C   UNL     1      12.906   0.501  -5.740  1.00  0.00     0.135 A 
ATOM     82  C   UNL     1      11.979   1.700  -3.877  1.00  0.00     0.135 A 
ATOM     83  F   UNL     1      13.376  -0.627  -6.295  1.00  0.00    -0.206 F 
ATOM     84  C   UNL     1      12.884   1.658  -6.511  1.00  0.00     0.059 A 
ATOM     85  C   UNL     1      11.924   2.865  -4.636  1.00  0.00     0.059 A 
ATOM     86  F   UNL     1      11.521   1.742  -2.616  1.00  0.00    -0.206 F 
ATOM     87  C   UNL     1      12.389   2.836  -5.950  1.00  0.00     0.060 A 
BRANCH  87  88
ATOM     88  S   UNL     1      12.319   4.321  -6.976  1.00  0.00     0.124 S 
ATOM     89  O   UNL     1      13.729   4.683  -7.064  1.00  0.00    -0.237 OA
ATOM     90  O   UNL     1      11.711   3.816  -8.203  1.00  0.00    -0.237 OA
ATOM     91  O   UNL     1      11.481   5.228  -6.197  1.00  0.00    -0.744 OA
ENDBRANCH  87  88
ENDBRANCH  55  80
BRANCH  67  92
ATOM     92  C   UNL     1      17.481  -3.592  -1.781  1.00  0.00     0.058 A 
ATOM     93  C   UNL     1      18.223  -2.645  -1.060  1.00  0.00     0.135 A 
ATOM     94  C   UNL     1      18.179  -4.535  -2.552  1.00  0.00     0.135 A 
ATOM     95  F   UNL     1      17.598  -1.721  -0.314  1.00  0.00    -0.206 F 
ATOM     96  C   UNL     1      19.611  -2.621  -1.119  1.00  0.00     0.059 A 
ATOM     97  C   UNL     1      19.567  -4.548  -2.601  1.00  0.00     0.059 A 
ATOM     98  F   UNL     1      17.510  -5.469  -3.247  1.00  0.00    -0.206 F 
ATOM     99  C   UNL     1      20.273  -3.578  -1.891  1.00  0.00     0.060 A 
BRANCH  99 100
ATOM    100  S   UNL     1      22.076  -3.558  -1.930  1.00  0.00     0.124 S 
ATOM    101  O   UNL     1      22.337  -2.407  -2.788  1.00  0.00    -0.237 OA
ATOM    102  O   UNL     1      22.417  -3.389  -0.521  1.00  0.00    -0.237 OA
ATOM    103  O   UNL     1      22.418  -4.857  -2.500  1.00  0.00    -0.744 OA
ENDBRANCH  99 100
ENDBRANCH  67  92
ENDBRANCH  41  42
ENDBRANCH  34  36
ENDBRANCH  33  34
ENDBRANCH  32  33
ENDBRANCH  31  32
ENDBRANCH  30  31
ENDBRANCH   1  30
TORSDOF 23
