REMARK SMILES O=C(COc1ccccc1/C=N/N1[C@@H](S)N=N[C@H]1[C@@H]1C=C(c2ccccc2)N=N1)OCCOCCOC(=O)c1ccc(-c2c3nc(c(-c4c(F)cc(S(=O)(=O)[O-])cc4F)c4ccc([nH]4)c(-c4c(F)cc(S(=O)(=O)[O-])cc4F)c4nc(c(-c5c(F)cc(S(=O)(=O)[O-])cc5F)c5ccc2[nH]5)C=C4)C=C3)cc1
REMARK SMILES IDX 31 1 30 2 2 3 1 4 3 5 4 6 5 7 6 8 10 9 7 10 9 11 8 12 11 13
REMARK SMILES IDX 12 14 13 15 14 16 18 17 16 18 17 19 15 20 19 22 20 23 29 24
REMARK SMILES IDX 21 25 28 26 22 27 23 28 27 29 24 30 26 31 25 32 32 33 33 34
REMARK SMILES IDX 34 35 35 36 36 37 37 38 38 39 39 40 40 41 104 42 41 43
REMARK SMILES IDX 103 44 42 45 43 46 44 47 97 48 45 49 102 50 96 51 98 52
REMARK SMILES IDX 46 53 101 54 95 55 94 56 47 58 81 59 60 60 80 61 61 62 64 63
REMARK SMILES IDX 79 64 99 65 62 66 63 67 78 69 100 70 65 71 48 72 49 73 58 74
REMARK SMILES IDX 50 75 51 76 57 77 59 78 52 79 53 80 54 81 55 82 56 83 82 84
REMARK SMILES IDX 83 85 92 86 84 87 85 88 91 89 93 90 86 91 87 92 88 93 89 94
REMARK SMILES IDX 90 95 66 96 67 97 76 98 68 99 69 100 75 101 77 102 70 103
REMARK SMILES IDX 71 104 72 105 73 106 74 107
REMARK H PARENT 15 21 98 57 64 68
REMARK Flexibility Score: inf
ROOT
ATOM      1  C   UNL     1       4.581  -0.940  -0.921  1.00  0.00     0.261 C 
ENDROOT
BRANCH   1   2
ATOM      2  O   UNL     1       3.201  -1.278  -1.124  1.00  0.00    -0.461 OA
BRANCH   2   3
ATOM      3  C   UNL     1       2.353  -0.679  -1.985  1.00  0.00     0.344 C 
ATOM      4  O   UNL     1       1.228  -1.139  -2.174  1.00  0.00    -0.248 OA
BRANCH   3   5
ATOM      5  C   UNL     1       2.812   0.569  -2.695  1.00  0.00     0.352 C 
BRANCH   5   6
ATOM      6  O   UNL     1       2.867   1.601  -1.722  1.00  0.00    -0.481 OA
BRANCH   6   7
ATOM      7  C   UNL     1       2.110   2.701  -2.012  1.00  0.00     0.129 A 
ATOM      8  C   UNL     1       2.480   3.530  -3.072  1.00  0.00     0.047 A 
ATOM      9  C   UNL     1       1.125   3.114  -1.102  1.00  0.00     0.037 A 
ATOM     10  C   UNL     1       1.877   4.780  -3.212  1.00  0.00     0.004 A 
ATOM     11  C   UNL     1       0.539   4.374  -1.230  1.00  0.00     0.013 A 
ATOM     12  C   UNL     1       0.922   5.207  -2.285  1.00  0.00     0.001 A 
BRANCH   9  13
ATOM     13  C   UNL     1       0.719   2.200  -0.019  1.00  0.00     0.145 C 
ATOM     14  N   UNL     1       0.211   2.590   1.117  1.00  0.00    -0.180 NA
BRANCH  14  15
ATOM     15  N   UNL     1      -0.025   1.498   1.904  1.00  0.00    -0.233 NA
ATOM     16  C   UNL     1      -1.390   1.188   2.357  1.00  0.00     0.298 C 
ATOM     17  C   UNL     1       0.670   1.362   3.199  1.00  0.00     0.274 C 
ATOM     18  N   UNL     1      -1.248   0.246   3.497  1.00  0.00    -0.153 NA
ATOM     19  N   UNL     1      -0.079   0.327   3.961  1.00  0.00    -0.161 NA
BRANCH  16  20
ATOM     20  S   UNL     1      -2.450   0.618   0.994  1.00  0.00    -0.128 SA
ATOM     21  H   UNL     1      -1.915  -0.504   0.442  1.00  0.00     0.106 HD
ENDBRANCH  16  20
BRANCH  17  22
ATOM     22  C   UNL     1       2.170   0.984   3.162  1.00  0.00     0.202 C 
ATOM     23  C   UNL     1       3.082   2.145   2.901  1.00  0.00     0.037 C 
ATOM     24  N   UNL     1       2.465   0.088   2.013  1.00  0.00    -0.177 NA
ATOM     25  C   UNL     1       3.676   1.870   1.741  1.00  0.00     0.091 C 
ATOM     26  N   UNL     1       3.296   0.648   1.253  1.00  0.00    -0.155 NA
BRANCH  25  27
ATOM     27  C   UNL     1       4.565   2.723   0.946  1.00  0.00     0.002 A 
ATOM     28  C   UNL     1       4.126   3.963   0.466  1.00  0.00     0.010 A 
ATOM     29  C   UNL     1       5.786   2.214   0.481  1.00  0.00     0.010 A 
ATOM     30  C   UNL     1       4.849   4.636  -0.525  1.00  0.00     0.001 A 
ATOM     31  C   UNL     1       6.516   2.893  -0.498  1.00  0.00     0.001 A 
ATOM     32  C   UNL     1       6.033   4.091  -1.019  1.00  0.00     0.000 A 
ENDBRANCH  25  27
ENDBRANCH  17  22
ENDBRANCH  14  15
ENDBRANCH   9  13
ENDBRANCH   6   7
ENDBRANCH   5   6
ENDBRANCH   3   5
ENDBRANCH   2   3
ENDBRANCH   1   2
BRANCH   1  33
ATOM     33  C   UNL     1       5.601  -1.993  -1.373  1.00  0.00     0.202 C 
BRANCH  33  34
ATOM     34  O   UNL     1       5.259  -3.056  -2.244  1.00  0.00    -0.374 OA
BRANCH  34  35
ATOM     35  C   UNL     1       3.984  -3.681  -2.208  1.00  0.00     0.202 C 
BRANCH  35  36
ATOM     36  C   UNL     1       3.416  -4.294  -0.924  1.00  0.00     0.261 C 
BRANCH  36  37
ATOM     37  O   UNL     1       3.589  -3.522   0.257  1.00  0.00    -0.460 OA
BRANCH  37  38
ATOM     38  C   UNL     1       4.709  -3.808   0.940  1.00  0.00     0.338 C 
ATOM     39  O   UNL     1       5.685  -4.426   0.509  1.00  0.00    -0.246 OA
BRANCH  38  40
ATOM     40  C   UNL     1       4.538  -3.475   2.364  1.00  0.00     0.060 A 
ATOM     41  C   UNL     1       5.542  -4.008   3.177  1.00  0.00     0.016 A 
ATOM     42  C   UNL     1       3.234  -3.263   2.837  1.00  0.00     0.016 A 
ATOM     43  C   UNL     1       5.145  -4.718   4.283  1.00  0.00     0.010 A 
ATOM     44  C   UNL     1       2.839  -3.967   3.952  1.00  0.00     0.010 A 
ATOM     45  C   UNL     1       3.778  -4.798   4.562  1.00  0.00    -0.014 A 
BRANCH  45  46
ATOM     46  C   UNL     1       3.357  -5.880   5.431  1.00  0.00     0.031 A 
ATOM     47  C   UNL     1       3.610  -5.653   6.865  1.00  0.00     0.074 A 
ATOM     48  C   UNL     1       2.710  -6.961   4.952  1.00  0.00     0.049 A 
ATOM     49  N   UNL     1       4.353  -6.331   7.675  1.00  0.00    -0.248 NA
ATOM     50  C   UNL     1       3.036  -4.426   7.437  1.00  0.00     0.031 C 
ATOM     51  C   UNL     1       2.143  -7.151   3.612  1.00  0.00     0.029 A 
ATOM     52  N   UNL     1       2.304  -8.074   5.620  1.00  0.00    -0.354 N 
ATOM     53  C   UNL     1       4.176  -5.731   8.914  1.00  0.00     0.074 A 
ATOM     54  C   UNL     1       3.498  -4.479   8.683  1.00  0.00     0.031 C 
ATOM     55  C   UNL     1       1.270  -8.183   3.648  1.00  0.00     0.029 A 
ATOM     56  C   UNL     1       1.305  -8.783   4.972  1.00  0.00     0.049 A 
ATOM     57  H   UNL     1       2.685  -8.351   6.484  1.00  0.00     0.167 HD
ATOM     58  C   UNL     1       4.368  -6.398  10.081  1.00  0.00     0.037 A 
ATOM     59  C   UNL     1       0.482  -9.700   5.539  1.00  0.00     0.037 A 
ATOM     60  C   UNL     1       5.156  -7.587   9.925  1.00  0.00     0.049 A 
ATOM     61  C   UNL     1       1.125 -10.163   6.799  1.00  0.00     0.074 A 
ATOM     62  C   UNL     1       6.434  -7.848   9.469  1.00  0.00     0.029 A 
ATOM     63  N   UNL     1       4.515  -8.802   9.949  1.00  0.00    -0.354 N 
ATOM     64  N   UNL     1       2.229 -10.858   6.856  1.00  0.00    -0.248 NA
ATOM     65  C   UNL     1       0.752  -9.496   8.039  1.00  0.00     0.031 C 
ATOM     66  C   UNL     1       6.350  -9.110   8.813  1.00  0.00     0.029 A 
ATOM     67  C   UNL     1       5.029  -9.549   8.918  1.00  0.00     0.049 A 
ATOM     68  H   UNL     1       3.819  -9.083  10.586  1.00  0.00     0.167 HD
ATOM     69  C   UNL     1       2.887 -10.403   7.991  1.00  0.00     0.074 A 
ATOM     70  C   UNL     1       1.884  -9.645   8.731  1.00  0.00     0.031 C 
ATOM     71  C   UNL     1       4.249 -10.447   8.094  1.00  0.00     0.037 A 
BRANCH  58  72
ATOM     72  C   UNL     1       3.531  -6.114  11.293  1.00  0.00     0.058 A 
ATOM     73  C   UNL     1       3.985  -6.469  12.572  1.00  0.00     0.135 A 
ATOM     74  C   UNL     1       2.179  -5.708  11.199  1.00  0.00     0.135 A 
ATOM     75  F   UNL     1       5.241  -6.907  12.752  1.00  0.00    -0.206 F 
ATOM     76  C   UNL     1       3.143  -6.442  13.684  1.00  0.00     0.059 A 
ATOM     77  C   UNL     1       1.343  -5.614  12.300  1.00  0.00     0.059 A 
ATOM     78  F   UNL     1       1.593  -5.474  10.016  1.00  0.00    -0.206 F 
ATOM     79  C   UNL     1       1.822  -6.022  13.534  1.00  0.00     0.060 A 
BRANCH  79  80
ATOM     80  S   UNL     1       0.701  -6.083  14.941  1.00  0.00     0.124 S 
ATOM     81  O   UNL     1       0.432  -7.514  15.030  1.00  0.00    -0.237 OA
ATOM     82  O   UNL     1       1.518  -5.518  16.010  1.00  0.00    -0.237 OA
ATOM     83  O   UNL     1      -0.419  -5.252  14.512  1.00  0.00    -0.744 OA
ENDBRANCH  79  80
ENDBRANCH  58  72
BRANCH  59  84
ATOM     84  C   UNL     1      -0.967  -9.879   5.254  1.00  0.00     0.058 A 
ATOM     85  C   UNL     1      -1.665 -11.015   5.697  1.00  0.00     0.135 A 
ATOM     86  C   UNL     1      -1.759  -8.822   4.755  1.00  0.00     0.135 A 
ATOM     87  F   UNL     1      -0.998 -12.053   6.225  1.00  0.00    -0.206 F 
ATOM     88  C   UNL     1      -3.063 -11.089   5.668  1.00  0.00     0.059 A 
ATOM     89  C   UNL     1      -3.148  -8.882   4.696  1.00  0.00     0.059 A 
ATOM     90  F   UNL     1      -1.212  -7.654   4.390  1.00  0.00    -0.206 F 
ATOM     91  C   UNL     1      -3.797 -10.011   5.175  1.00  0.00     0.060 A 
BRANCH  91  92
ATOM     92  S   UNL     1      -5.602 -10.038   5.269  1.00  0.00     0.124 S 
ATOM     93  O   UNL     1      -5.939 -11.069   4.293  1.00  0.00    -0.237 OA
ATOM     94  O   UNL     1      -5.832 -10.383   6.668  1.00  0.00    -0.237 OA
ATOM     95  O   UNL     1      -5.983  -8.678   4.895  1.00  0.00    -0.744 OA
ENDBRANCH  91  92
ENDBRANCH  59  84
BRANCH  71  96
ATOM     96  C   UNL     1       5.008 -11.268   7.082  1.00  0.00     0.058 A 
ATOM     97  C   UNL     1       5.062 -10.954   5.712  1.00  0.00     0.135 A 
ATOM     98  C   UNL     1       5.838 -12.305   7.533  1.00  0.00     0.135 A 
ATOM     99  F   UNL     1       4.386  -9.907   5.222  1.00  0.00    -0.206 F 
ATOM    100  C   UNL     1       5.870 -11.665   4.824  1.00  0.00     0.059 A 
ATOM    101  C   UNL     1       6.676 -13.009   6.670  1.00  0.00     0.059 A 
ATOM    102  F   UNL     1       5.884 -12.609   8.841  1.00  0.00    -0.206 F 
ATOM    103  C   UNL     1       6.679 -12.690   5.313  1.00  0.00     0.060 A 
BRANCH 103 104
ATOM    104  S   UNL     1       7.800 -13.538   4.178  1.00  0.00     0.124 S 
ATOM    105  O   UNL     1       6.886 -14.385   3.419  1.00  0.00    -0.237 OA
ATOM    106  O   UNL     1       8.402 -12.432   3.437  1.00  0.00    -0.237 OA
ATOM    107  O   UNL     1       8.715 -14.247   5.069  1.00  0.00    -0.744 OA
ENDBRANCH 103 104
ENDBRANCH  71  96
ENDBRANCH  45  46
ENDBRANCH  38  40
ENDBRANCH  37  38
ENDBRANCH  36  37
ENDBRANCH  35  36
ENDBRANCH  34  35
ENDBRANCH  33  34
ENDBRANCH   1  33
TORSDOF 24
