REMARK SMILES CS(=O)(=O)c1ccc(-n2nc(C(F)(F)F)cc2-c2ccc(CC(=O)OCCOCCOC(=O)c3ccc(-c4c5nc(c(-c6c(F)cc(S(=O)(=O)[O-])cc6F)c6ccc([nH]6)c(-c6c(F)cc(S(=O)(=O)[O-])cc6F)c6nc(c(-c7c(F)cc(S(=O)(=O)[O-])cc7F)c7ccc4[nH]7)C=C6)C=C5)cc3)cc2)cc1
REMARK SMILES IDX 27 1 26 2 25 3 23 4 24 5 22 6 21 7 18 8 19 9 101 10 20 11
REMARK SMILES IDX 100 12 17 13 9 14 10 15 11 16 16 17 8 18 5 19 6 20 103 21
REMARK SMILES IDX 7 22 102 23 2 24 1 25 3 26 4 27 12 28 13 29 14 30 15 31
REMARK SMILES IDX 28 32 29 33 30 34 31 35 32 36 33 37 34 38 35 39 99 40 36 41
REMARK SMILES IDX 98 42 37 43 38 44 39 45 92 46 40 47 97 48 91 49 93 50 41 51
REMARK SMILES IDX 96 52 90 53 89 54 42 56 76 57 55 58 75 59 56 60 59 61 74 62
REMARK SMILES IDX 94 63 57 64 58 65 73 67 95 68 60 69 43 70 44 71 53 72 45 73
REMARK SMILES IDX 46 74 52 75 54 76 47 77 48 78 49 79 50 80 51 81 77 82 78 83
REMARK SMILES IDX 87 84 79 85 80 86 86 87 88 88 81 89 82 90 83 91 84 92 85 93
REMARK SMILES IDX 61 94 62 95 71 96 63 97 64 98 70 99 72 100 65 101 66 102
REMARK SMILES IDX 67 103 68 104 69 105
REMARK H PARENT 93 55 59 66
REMARK Flexibility Score: inf
ROOT
ATOM      1  C   UNL     1       5.290  -2.882  -1.629  1.00  0.00     0.202 C 
ENDROOT
BRANCH   1   2
ATOM      2  C   UNL     1       4.828  -4.319  -1.343  1.00  0.00     0.261 C 
BRANCH   2   3
ATOM      3  O   UNL     1       4.816  -4.726   0.039  1.00  0.00    -0.463 OA
BRANCH   3   4
ATOM      4  C   UNL     1       5.938  -5.379   0.447  1.00  0.00     0.310 C 
ATOM      5  O   UNL     1       6.911  -5.590  -0.273  1.00  0.00    -0.252 OA
BRANCH   4   6
ATOM      6  C   UNL     1       5.868  -5.950   1.843  1.00  0.00     0.158 C 
BRANCH   6   7
ATOM      7  C   UNL     1       5.027  -5.288   2.912  1.00  0.00    -0.037 A 
ATOM      8  C   UNL     1       3.615  -4.272   5.153  1.00  0.00     0.000 A 
ATOM      9  C   UNL     1       4.853  -3.735   4.776  1.00  0.00     0.010 A 
ATOM     10  C   UNL     1       3.091  -5.330   4.400  1.00  0.00     0.010 A 
ATOM     11  C   UNL     1       5.542  -4.223   3.661  1.00  0.00     0.005 A 
ATOM     12  C   UNL     1       3.787  -5.827   3.287  1.00  0.00     0.005 A 
BRANCH   8  13
ATOM     13  C   UNL     1       2.894  -3.731   6.313  1.00  0.00     0.075 A 
ATOM     14  N   UNL     1       2.700  -2.375   6.611  1.00  0.00    -0.233 N 
ATOM     15  N   UNL     1       2.248  -2.210   7.881  1.00  0.00    -0.163 NA
ATOM     16  C   UNL     1       1.917  -3.442   8.311  1.00  0.00     0.167 A 
ATOM     17  C   UNL     1       2.332  -4.419   7.373  1.00  0.00     0.064 A 
BRANCH  14  18
ATOM     18  C   UNL     1       2.861  -1.236   5.760  1.00  0.00     0.065 A 
ATOM     19  C   UNL     1       2.855   1.016   4.046  1.00  0.00     0.067 A 
ATOM     20  C   UNL     1       2.760  -0.265   3.534  1.00  0.00     0.022 A 
ATOM     21  C   UNL     1       3.002   1.181   5.429  1.00  0.00     0.022 A 
ATOM     22  C   UNL     1       2.773  -1.381   4.376  1.00  0.00     0.030 A 
ATOM     23  C   UNL     1       2.986   0.059   6.286  1.00  0.00     0.030 A 
BRANCH  19  24
ATOM     24  S   UNL     1       2.554   2.455   3.033  1.00  0.00     0.175 S 
ATOM     25  C   UNL     1       2.524   1.999   1.319  1.00  0.00     0.163 C 
ATOM     26  O   UNL     1       3.691   3.316   3.212  1.00  0.00    -0.224 OA
ATOM     27  O   UNL     1       1.198   2.875   3.368  1.00  0.00    -0.224 OA
ENDBRANCH  19  24
ENDBRANCH  14  18
BRANCH  16  28
ATOM     28  C   UNL     1       1.251  -3.724   9.639  1.00  0.00     0.435 C 
ATOM     29  F   UNL     1       1.419  -2.741  10.556  1.00  0.00    -0.164 F 
ATOM     30  F   UNL     1      -0.082  -3.942   9.499  1.00  0.00    -0.164 F 
ATOM     31  F   UNL     1       1.761  -4.864  10.194  1.00  0.00    -0.164 F 
ENDBRANCH  16  28
ENDBRANCH   8  13
ENDBRANCH   6   7
ENDBRANCH   4   6
ENDBRANCH   3   4
ENDBRANCH   2   3
ENDBRANCH   1   2
BRANCH   1  32
ATOM     32  O   UNL     1       6.266  -2.315  -0.771  1.00  0.00    -0.374 OA
BRANCH  32  33
ATOM     33  C   UNL     1       5.860  -2.023   0.560  1.00  0.00     0.202 C 
BRANCH  33  34
ATOM     34  C   UNL     1       4.517  -1.330   0.760  1.00  0.00     0.261 C 
BRANCH  34  35
ATOM     35  O   UNL     1       3.367  -2.195   0.640  1.00  0.00    -0.460 OA
BRANCH  35  36
ATOM     36  C   UNL     1       2.372  -1.735  -0.170  1.00  0.00     0.338 C 
ATOM     37  O   UNL     1       2.522  -1.127  -1.217  1.00  0.00    -0.246 OA
BRANCH  36  38
ATOM     38  C   UNL     1       1.107  -1.700   0.599  1.00  0.00     0.060 A 
ATOM     39  C   UNL     1       0.309  -0.572   0.386  1.00  0.00     0.016 A 
ATOM     40  C   UNL     1       0.889  -2.525   1.709  1.00  0.00     0.016 A 
ATOM     41  C   UNL     1      -0.536  -0.142   1.397  1.00  0.00     0.010 A 
ATOM     42  C   UNL     1       0.006  -2.107   2.708  1.00  0.00     0.010 A 
ATOM     43  C   UNL     1      -0.644  -0.874   2.589  1.00  0.00    -0.014 A 
BRANCH  43  44
ATOM     44  C   UNL     1      -1.694  -0.453   3.526  1.00  0.00     0.031 A 
ATOM     45  C   UNL     1      -3.015  -0.705   2.942  1.00  0.00     0.074 A 
ATOM     46  C   UNL     1      -1.588   0.087   4.760  1.00  0.00     0.049 A 
ATOM     47  N   UNL     1      -3.817   0.190   2.476  1.00  0.00    -0.248 NA
ATOM     48  C   UNL     1      -3.396  -2.095   2.648  1.00  0.00     0.031 C 
ATOM     49  C   UNL     1      -0.351   0.265   5.486  1.00  0.00     0.029 A 
ATOM     50  N   UNL     1      -2.524   0.547   5.660  1.00  0.00    -0.354 N 
ATOM     51  C   UNL     1      -4.956  -0.521   2.162  1.00  0.00     0.074 A 
ATOM     52  C   UNL     1      -4.570  -1.907   2.044  1.00  0.00     0.031 C 
ATOM     53  C   UNL     1      -0.584   0.601   6.769  1.00  0.00     0.029 A 
ATOM     54  C   UNL     1      -2.010   0.793   6.938  1.00  0.00     0.049 A 
ATOM     55  H   UNL     1      -3.469   0.689   5.425  1.00  0.00     0.167 HD
ATOM     56  C   UNL     1      -6.161   0.011   2.479  1.00  0.00     0.037 A 
ATOM     57  C   UNL     1      -2.646   1.176   8.075  1.00  0.00     0.037 A 
ATOM     58  C   UNL     1      -6.117   1.439   2.642  1.00  0.00     0.049 A 
ATOM     59  C   UNL     1      -3.858   1.924   7.682  1.00  0.00     0.074 A 
ATOM     60  C   UNL     1      -5.999   2.532   1.810  1.00  0.00     0.029 A 
ATOM     61  N   UNL     1      -5.846   1.871   3.912  1.00  0.00    -0.354 N 
ATOM     62  N   UNL     1      -3.830   3.118   7.157  1.00  0.00    -0.248 NA
ATOM     63  C   UNL     1      -5.143   1.235   7.610  1.00  0.00     0.031 C 
ATOM     64  C   UNL     1      -5.598   3.632   2.623  1.00  0.00     0.029 A 
ATOM     65  C   UNL     1      -5.483   3.196   3.937  1.00  0.00     0.049 A 
ATOM     66  H   UNL     1      -5.903   1.301   4.712  1.00  0.00     0.167 HD
ATOM     67  C   UNL     1      -4.929   3.142   6.329  1.00  0.00     0.074 A 
ATOM     68  C   UNL     1      -5.784   2.052   6.772  1.00  0.00     0.031 C 
ATOM     69  C   UNL     1      -4.879   3.769   5.122  1.00  0.00     0.037 A 
BRANCH  56  70
ATOM     70  C   UNL     1      -7.220  -0.835   3.122  1.00  0.00     0.058 A 
ATOM     71  C   UNL     1      -8.561  -0.437   3.063  1.00  0.00     0.135 A 
ATOM     72  C   UNL     1      -6.922  -1.906   3.999  1.00  0.00     0.135 A 
ATOM     73  F   UNL     1      -8.922   0.618   2.317  1.00  0.00    -0.206 F 
ATOM     74  C   UNL     1      -9.548  -1.079   3.808  1.00  0.00     0.059 A 
ATOM     75  C   UNL     1      -7.894  -2.605   4.692  1.00  0.00     0.059 A 
ATOM     76  F   UNL     1      -5.661  -2.257   4.290  1.00  0.00    -0.206 F 
ATOM     77  C   UNL     1      -9.204  -2.168   4.610  1.00  0.00     0.060 A 
BRANCH  77  78
ATOM     78  S   UNL     1     -10.470  -2.998   5.580  1.00  0.00     0.124 S 
ATOM     79  O   UNL     1     -10.654  -2.057   6.678  1.00  0.00    -0.237 OA
ATOM     80  O   UNL     1     -11.570  -3.098   4.626  1.00  0.00    -0.237 OA
ATOM     81  O   UNL     1      -9.839  -4.268   5.930  1.00  0.00    -0.744 OA
ENDBRANCH  77  78
ENDBRANCH  56  70
BRANCH  57  82
ATOM     82  C   UNL     1      -2.306   0.920   9.504  1.00  0.00     0.058 A 
ATOM     83  C   UNL     1      -2.951   1.618  10.546  1.00  0.00     0.135 A 
ATOM     84  C   UNL     1      -1.557  -0.209   9.894  1.00  0.00     0.135 A 
ATOM     85  F   UNL     1      -3.695   2.702  10.281  1.00  0.00    -0.206 F 
ATOM     86  C   UNL     1      -2.923   1.178  11.873  1.00  0.00     0.059 A 
ATOM     87  C   UNL     1      -1.500  -0.656  11.216  1.00  0.00     0.059 A 
ATOM     88  F   UNL     1      -0.935  -0.973   8.983  1.00  0.00    -0.206 F 
ATOM     89  C   UNL     1      -2.220   0.020  12.194  1.00  0.00     0.060 A 
BRANCH  89  90
ATOM     90  S   UNL     1      -2.389  -0.680  13.855  1.00  0.00     0.124 S 
ATOM     91  O   UNL     1      -1.637   0.271  14.666  1.00  0.00    -0.237 OA
ATOM     92  O   UNL     1      -3.836  -0.674  14.046  1.00  0.00    -0.237 OA
ATOM     93  O   UNL     1      -1.790  -2.006  13.728  1.00  0.00    -0.744 OA
ENDBRANCH  89  90
ENDBRANCH  57  82
BRANCH  69  94
ATOM     94  C   UNL     1      -4.084   5.036   5.015  1.00  0.00     0.058 A 
ATOM     95  C   UNL     1      -2.688   5.144   5.112  1.00  0.00     0.135 A 
ATOM     96  C   UNL     1      -4.803   6.213   4.748  1.00  0.00     0.135 A 
ATOM     97  F   UNL     1      -1.926   4.059   5.318  1.00  0.00    -0.206 F 
ATOM     98  C   UNL     1      -2.040   6.376   4.958  1.00  0.00     0.059 A 
ATOM     99  C   UNL     1      -4.179   7.442   4.569  1.00  0.00     0.059 A 
ATOM    100  F   UNL     1      -6.141   6.172   4.626  1.00  0.00    -0.206 F 
ATOM    101  C   UNL     1      -2.795   7.519   4.682  1.00  0.00     0.060 A 
BRANCH 101 102
ATOM    102  S   UNL     1      -1.964   9.101   4.403  1.00  0.00     0.124 S 
ATOM    103  O   UNL     1      -1.531   9.466   5.747  1.00  0.00    -0.237 OA
ATOM    104  O   UNL     1      -0.903   8.745   3.466  1.00  0.00    -0.237 OA
ATOM    105  O   UNL     1      -3.017   9.944   3.840  1.00  0.00    -0.744 OA
ENDBRANCH 101 102
ENDBRANCH  69  94
ENDBRANCH  43  44
ENDBRANCH  36  38
ENDBRANCH  35  36
ENDBRANCH  34  35
ENDBRANCH  33  34
ENDBRANCH  32  33
ENDBRANCH   1  32
TORSDOF 22
