REMARK SMILES C[C@@H](C(=O)NCC(=O)OCCOCCOC(=O)c1ccc(-c2c3nc(c(-c4c(F)cc(S(=O)(=O)[O-])cc4F)c4ccc([nH]4)c(-c4c(F)cc(S(=O)(=O)[O-])cc4F)c4nc(c(-c5c(F)cc(S(=O)(=O)[O-])cc5F)c5ccc2[nH]5)C=C4)C=C3)cc1)N1C(=O)/C(=C/c2cccc([N+](=O)[O-])c2)SC1=S
REMARK SMILES IDX 11 1 10 2 9 3 7 4 8 5 6 6 5 7 3 8 4 9 2 11 1 12 84 13 85 14
REMARK SMILES IDX 99 15 86 16 87 17 98 18 100 19 88 20 89 21 90 22 97 23 91 24
REMARK SMILES IDX 93 25 92 26 94 27 95 28 96 29 12 30 13 31 14 32 15 33 16 34
REMARK SMILES IDX 17 35 18 36 19 37 83 38 20 39 82 40 21 41 22 42 23 43 76 44
REMARK SMILES IDX 24 45 81 46 75 47 77 48 25 49 80 50 74 51 73 52 26 54 60 55
REMARK SMILES IDX 39 56 59 57 40 58 43 59 58 60 78 61 41 62 42 63 57 65 79 66
REMARK SMILES IDX 44 67 27 68 28 69 37 70 29 71 30 72 36 73 38 74 31 75 32 76
REMARK SMILES IDX 33 77 34 78 35 79 61 80 62 81 71 82 63 83 64 84 70 85 72 86
REMARK SMILES IDX 65 87 66 88 67 89 68 90 69 91 45 92 46 93 55 94 47 95 48 96
REMARK SMILES IDX 54 97 56 98 49 99 50 100 51 101 52 102 53 103
REMARK H PARENT 5 10 77 53 43 64
REMARK Flexibility Score: inf
ROOT
ATOM      1  C   UNL     1       5.661  -1.603  -2.564  1.00  0.00     0.202 C 
ENDROOT
BRANCH   1   2
ATOM      2  C   UNL     1       5.089  -1.516  -1.146  1.00  0.00     0.261 C 
BRANCH   2   3
ATOM      3  O   UNL     1       4.111  -0.466  -1.063  1.00  0.00    -0.462 OA
BRANCH   3   4
ATOM      4  C   UNL     1       4.346   0.508  -0.145  1.00  0.00     0.325 C 
ATOM      5  O   UNL     1       5.203   0.470   0.730  1.00  0.00    -0.250 OA
BRANCH   4   6
ATOM      6  C   UNL     1       3.456   1.732  -0.372  1.00  0.00     0.238 C 
BRANCH   6   7
ATOM      7  N   UNL     1       2.459   1.621  -1.432  1.00  0.00    -0.343 N 
ATOM      8  C   UNL     1       1.131   1.321  -1.348  1.00  0.00     0.243 C 
ATOM      9  O   UNL     1       0.480   1.309  -2.395  1.00  0.00    -0.273 OA
ATOM     10  H   UNL     1       2.795   1.788  -2.343  1.00  0.00     0.164 HD
BRANCH   8  11
ATOM     11  C   UNL     1       0.500   1.044   0.029  1.00  0.00     0.178 C 
ATOM     12  C   UNL     1       0.989  -0.286   0.604  1.00  0.00     0.042 C 
BRANCH  11  13
ATOM     13  N   UNL     1      -0.966   1.167  -0.092  1.00  0.00    -0.281 N 
ATOM     14  C   UNL     1      -1.742   0.069  -0.419  1.00  0.00     0.266 C 
ATOM     15  C   UNL     1      -1.631   2.378  -0.029  1.00  0.00     0.149 C 
ATOM     16  O   UNL     1      -1.350  -1.066  -0.645  1.00  0.00    -0.268 OA
ATOM     17  C   UNL     1      -3.180   0.440  -0.438  1.00  0.00     0.081 C 
ATOM     18  S   UNL     1      -3.360   2.133  -0.245  1.00  0.00    -0.054 SA
ATOM     19  S   UNL     1      -0.990   3.901   0.235  1.00  0.00    -0.052 S 
ATOM     20  C   UNL     1      -4.137  -0.493  -0.537  1.00  0.00     0.029 C 
BRANCH  20  21
ATOM     21  C   UNL     1      -5.581  -0.250  -0.552  1.00  0.00    -0.018 A 
ATOM     22  C   UNL     1      -6.382  -0.768   0.474  1.00  0.00     0.008 A 
ATOM     23  C   UNL     1      -6.176   0.452  -1.607  1.00  0.00     0.093 A 
ATOM     24  C   UNL     1      -7.766  -0.580   0.458  1.00  0.00     0.008 A 
ATOM     25  C   UNL     1      -7.563   0.639  -1.617  1.00  0.00     0.270 A 
ATOM     26  C   UNL     1      -8.364   0.125  -0.588  1.00  0.00     0.085 A 
BRANCH  25  27
ATOM     27  N   UNL     1      -8.184   1.385  -2.718  1.00  0.00     0.062 N 
ATOM     28  O   UNL     1      -9.417   1.514  -2.705  1.00  0.00    -0.258 OA
ATOM     29  O   UNL     1      -7.439   1.861  -3.587  1.00  0.00    -0.258 OA
ENDBRANCH  25  27
ENDBRANCH  20  21
ENDBRANCH  11  13
ENDBRANCH   8  11
ENDBRANCH   6   7
ENDBRANCH   4   6
ENDBRANCH   3   4
ENDBRANCH   2   3
ENDBRANCH   1   2
BRANCH   1  30
ATOM     30  O   UNL     1       6.378  -0.452  -3.017  1.00  0.00    -0.374 OA
BRANCH  30  31
ATOM     31  C   UNL     1       5.617   0.680  -3.434  1.00  0.00     0.202 C 
BRANCH  31  32
ATOM     32  C   UNL     1       4.922   0.599  -4.799  1.00  0.00     0.261 C 
BRANCH  32  33
ATOM     33  O   UNL     1       3.907  -0.418  -4.846  1.00  0.00    -0.460 OA
BRANCH  33  34
ATOM     34  C   UNL     1       4.201  -1.464  -5.655  1.00  0.00     0.338 C 
ATOM     35  O   UNL     1       5.199  -1.587  -6.359  1.00  0.00    -0.246 OA
BRANCH  34  36
ATOM     36  C   UNL     1       3.240  -2.566  -5.468  1.00  0.00     0.060 A 
ATOM     37  C   UNL     1       3.766  -3.841  -5.226  1.00  0.00     0.016 A 
ATOM     38  C   UNL     1       1.864  -2.385  -5.625  1.00  0.00     0.016 A 
ATOM     39  C   UNL     1       2.925  -4.952  -5.201  1.00  0.00     0.010 A 
ATOM     40  C   UNL     1       1.022  -3.505  -5.608  1.00  0.00     0.010 A 
ATOM     41  C   UNL     1       1.553  -4.796  -5.436  1.00  0.00    -0.014 A 
BRANCH  41  42
ATOM     42  C   UNL     1       0.711  -5.999  -5.650  1.00  0.00     0.031 A 
ATOM     43  C   UNL     1       0.390  -6.424  -7.059  1.00  0.00     0.074 A 
ATOM     44  C   UNL     1       0.272  -6.728  -4.608  1.00  0.00     0.049 A 
ATOM     45  N   UNL     1      -0.343  -7.423  -7.477  1.00  0.00    -0.248 NA
ATOM     46  C   UNL     1       0.977  -5.615  -8.141  1.00  0.00     0.031 C 
ATOM     47  C   UNL     1       0.549  -6.442  -3.201  1.00  0.00     0.029 A 
ATOM     48  N   UNL     1      -0.506  -7.858  -4.574  1.00  0.00    -0.354 N 
ATOM     49  C   UNL     1      -0.315  -7.359  -8.866  1.00  0.00     0.074 A 
ATOM     50  C   UNL     1       0.491  -6.211  -9.221  1.00  0.00     0.031 C 
ATOM     51  C   UNL     1      -0.062  -7.366  -2.440  1.00  0.00     0.029 A 
ATOM     52  C   UNL     1      -0.796  -8.290  -3.302  1.00  0.00     0.049 A 
ATOM     53  H   UNL     1      -0.827  -8.316  -5.385  1.00  0.00     0.167 HD
ATOM     54  C   UNL     1      -0.901  -8.187  -9.763  1.00  0.00     0.037 A 
ATOM     55  C   UNL     1      -1.582  -9.302  -2.882  1.00  0.00     0.037 A 
ATOM     56  C   UNL     1      -1.696  -9.333  -9.407  1.00  0.00     0.049 A 
ATOM     57  C   UNL     1      -2.270 -10.175  -3.900  1.00  0.00     0.074 A 
ATOM     58  C   UNL     1      -2.317 -10.243 -10.245  1.00  0.00     0.029 A 
ATOM     59  N   UNL     1      -1.982  -9.726  -8.109  1.00  0.00    -0.354 N 
ATOM     60  N   UNL     1      -2.218 -10.114  -5.210  1.00  0.00    -0.248 NA
ATOM     61  C   UNL     1      -3.123 -11.256  -3.384  1.00  0.00     0.031 C 
ATOM     62  C   UNL     1      -3.015 -11.161  -9.453  1.00  0.00     0.029 A 
ATOM     63  C   UNL     1      -2.788 -10.852  -8.122  1.00  0.00     0.049 A 
ATOM     64  H   UNL     1      -1.661  -9.271  -7.297  1.00  0.00     0.167 HD
ATOM     65  C   UNL     1      -3.005 -11.165  -5.672  1.00  0.00     0.074 A 
ATOM     66  C   UNL     1      -3.517 -11.849  -4.503  1.00  0.00     0.031 C 
ATOM     67  C   UNL     1      -3.277 -11.532  -6.949  1.00  0.00     0.037 A 
BRANCH  54  68
ATOM     68  C   UNL     1      -0.723  -7.875 -11.223  1.00  0.00     0.058 A 
ATOM     69  C   UNL     1       0.494  -8.102 -11.883  1.00  0.00     0.135 A 
ATOM     70  C   UNL     1      -1.800  -7.388 -11.982  1.00  0.00     0.135 A 
ATOM     71  F   UNL     1       1.560  -8.549 -11.201  1.00  0.00    -0.206 F 
ATOM     72  C   UNL     1       0.642  -7.843 -13.242  1.00  0.00     0.059 A 
ATOM     73  C   UNL     1      -1.681  -7.145 -13.347  1.00  0.00     0.059 A 
ATOM     74  F   UNL     1      -2.985  -7.151 -11.398  1.00  0.00    -0.206 F 
ATOM     75  C   UNL     1      -0.452  -7.366 -13.966  1.00  0.00     0.060 A 
BRANCH  75  76
ATOM     76  S   UNL     1      -0.250  -7.055 -15.733  1.00  0.00     0.124 S 
ATOM     77  O   UNL     1       0.551  -5.834 -15.724  1.00  0.00    -0.237 OA
ATOM     78  O   UNL     1       0.438  -8.260 -16.187  1.00  0.00    -0.237 OA
ATOM     79  O   UNL     1      -1.621  -6.902 -16.211  1.00  0.00    -0.744 OA
ENDBRANCH  75  76
ENDBRANCH  54  68
BRANCH  55  80
ATOM     80  C   UNL     1      -1.780  -9.538  -1.427  1.00  0.00     0.058 A 
ATOM     81  C   UNL     1      -1.253 -10.674  -0.795  1.00  0.00     0.135 A 
ATOM     82  C   UNL     1      -2.517  -8.636  -0.643  1.00  0.00     0.135 A 
ATOM     83  F   UNL     1      -0.552 -11.571  -1.505  1.00  0.00    -0.206 F 
ATOM     84  C   UNL     1      -1.465 -10.919   0.558  1.00  0.00     0.059 A 
ATOM     85  C   UNL     1      -2.721  -8.847   0.717  1.00  0.00     0.059 A 
ATOM     86  F   UNL     1      -3.035  -7.529  -1.197  1.00  0.00    -0.206 F 
ATOM     87  C   UNL     1      -2.201  -9.998   1.306  1.00  0.00     0.060 A 
BRANCH  87  88
ATOM     88  S   UNL     1      -2.442 -10.303   3.070  1.00  0.00     0.124 S 
ATOM     89  O   UNL     1      -3.452 -11.356   3.050  1.00  0.00    -0.237 OA
ATOM     90  O   UNL     1      -1.107 -10.706   3.498  1.00  0.00    -0.237 OA
ATOM     91  O   UNL     1      -2.889  -9.008   3.575  1.00  0.00    -0.744 OA
ENDBRANCH  87  88
ENDBRANCH  55  80
BRANCH  67  92
ATOM     92  C   UNL     1      -4.130 -12.752  -7.157  1.00  0.00     0.058 A 
ATOM     93  C   UNL     1      -5.515 -12.733  -6.930  1.00  0.00     0.135 A 
ATOM     94  C   UNL     1      -3.561 -13.939  -7.647  1.00  0.00     0.135 A 
ATOM     95  F   UNL     1      -6.107 -11.626  -6.456  1.00  0.00    -0.206 F 
ATOM     96  C   UNL     1      -6.304 -13.855  -7.165  1.00  0.00     0.059 A 
ATOM     97  C   UNL     1      -4.335 -15.065  -7.913  1.00  0.00     0.059 A 
ATOM     98  F   UNL     1      -2.243 -14.006  -7.891  1.00  0.00    -0.206 F 
ATOM     99  C   UNL     1      -5.705 -15.016  -7.658  1.00  0.00     0.060 A 
BRANCH  99 100
ATOM    100  S   UNL     1      -6.744 -16.454  -7.995  1.00  0.00     0.124 S 
ATOM    101  O   UNL     1      -7.000 -16.953  -6.648  1.00  0.00    -0.237 OA
ATOM    102  O   UNL     1      -7.889 -15.861  -8.679  1.00  0.00    -0.237 OA
ATOM    103  O   UNL     1      -5.894 -17.300  -8.827  1.00  0.00    -0.744 OA
ENDBRANCH  99 100
ENDBRANCH  67  92
ENDBRANCH  41  42
ENDBRANCH  34  36
ENDBRANCH  33  34
ENDBRANCH  32  33
ENDBRANCH  31  32
ENDBRANCH  30  31
ENDBRANCH   1  30
TORSDOF 22
