REMARK SMILES Cc1cc2nc(SCC(=O)OCCOCCOC(=O)c3ccc(-c4c5nc(c(-c6c(F)cc(S(=O)(=O)[O-])cc6F)c6ccc([nH]6)c(-c6c(F)cc(S(=O)(=O)[O-])cc6F)c6nc(c(-c7c(F)cc(S(=O)(=O)[O-])cc7F)c7ccc4[nH]7)C=C6)C=C5)cc3)n(CC(C)C)c(=O)c2[nH]1
REMARK SMILES IDX 13 1 12 2 11 3 9 4 10 5 8 6 7 7 6 8 1 9 2 10 3 11 94 12 4 13
REMARK SMILES IDX 93 14 5 16 91 17 86 18 92 19 87 20 88 21 89 22 90 23 14 24
REMARK SMILES IDX 15 25 16 26 17 27 18 28 19 29 20 30 21 31 85 32 22 33 84 34
REMARK SMILES IDX 23 35 24 36 25 37 78 38 26 39 83 40 77 41 79 42 27 43 82 44
REMARK SMILES IDX 76 45 75 46 28 48 62 49 41 50 61 51 42 52 45 53 60 54 80 55
REMARK SMILES IDX 43 56 44 57 59 59 81 60 46 61 29 62 30 63 39 64 31 65 32 66
REMARK SMILES IDX 38 67 40 68 33 69 34 70 35 71 36 72 37 73 63 74 64 75 73 76
REMARK SMILES IDX 65 77 66 78 72 79 74 80 67 81 68 82 69 83 70 84 71 85 47 86
REMARK SMILES IDX 48 87 57 88 49 89 50 90 56 91 58 92 51 93 52 94 53 95 54 96
REMARK SMILES IDX 55 97
REMARK H PARENT 94 15 79 47 45 58
REMARK Flexibility Score: inf
ROOT
ATOM      1  C   UNL     1       5.085  -3.522  -8.009  1.00  0.00     0.202 C 
ENDROOT
BRANCH   1   2
ATOM      2  C   UNL     1       4.464  -3.245  -9.389  1.00  0.00     0.261 C 
BRANCH   2   3
ATOM      3  O   UNL     1       3.222  -2.485  -9.319  1.00  0.00    -0.463 OA
BRANCH   3   4
ATOM      4  C   UNL     1       2.066  -3.200  -9.449  1.00  0.00     0.316 C 
ATOM      5  O   UNL     1       2.033  -4.373  -9.816  1.00  0.00    -0.251 OA
BRANCH   4   6
ATOM      6  C   UNL     1       0.776  -2.429  -9.198  1.00  0.00     0.200 C 
BRANCH   6   7
ATOM      7  S   UNL     1       0.678  -1.258  -7.872  1.00  0.00    -0.076 SA
BRANCH   7   8
ATOM      8  C   UNL     1       0.182  -1.710  -6.235  1.00  0.00     0.172 A 
ATOM      9  C   UNL     1       0.722  -0.096  -0.572  1.00  0.00     0.064 C 
ATOM     10  C   UNL     1       0.343  -0.508  -1.950  1.00  0.00     0.014 A 
ATOM     11  C   UNL     1       0.401   0.186  -3.151  1.00  0.00     0.052 A 
ATOM     12  N   UNL     1      -0.096  -1.788  -2.230  1.00  0.00    -0.353 N 
ATOM     13  C   UNL     1       0.087  -0.743  -4.157  1.00  0.00     0.097 A 
ATOM     14  C   UNL     1      -0.244  -1.924  -3.585  1.00  0.00     0.131 A 
ATOM     15  H   UNL     1      -0.273  -2.490  -1.563  1.00  0.00     0.166 HD
ATOM     16  N   UNL     1       0.214  -0.607  -5.528  1.00  0.00    -0.222 NA
ATOM     17  C   UNL     1      -0.560  -3.074  -4.352  1.00  0.00     0.278 A 
ATOM     18  N   UNL     1      -0.127  -2.990  -5.699  1.00  0.00    -0.286 N 
ATOM     19  O   UNL     1      -1.137  -4.042  -3.865  1.00  0.00    -0.267 OA
BRANCH  18  20
ATOM     20  C   UNL     1      -0.119  -4.307  -6.367  1.00  0.00     0.131 C 
BRANCH  20  21
ATOM     21  C   UNL     1       0.991  -5.315  -5.899  1.00  0.00     0.003 C 
ATOM     22  C   UNL     1       0.857  -5.972  -4.524  1.00  0.00     0.009 C 
ATOM     23  C   UNL     1       1.261  -6.377  -6.962  1.00  0.00     0.009 C 
ENDBRANCH  20  21
ENDBRANCH  18  20
ENDBRANCH   7   8
ENDBRANCH   6   7
ENDBRANCH   4   6
ENDBRANCH   3   4
ENDBRANCH   2   3
ENDBRANCH   1   2
BRANCH   1  24
ATOM     24  O   UNL     1       4.145  -4.029  -7.066  1.00  0.00    -0.374 OA
BRANCH  24  25
ATOM     25  C   UNL     1       3.251  -3.017  -6.620  1.00  0.00     0.202 C 
BRANCH  25  26
ATOM     26  C   UNL     1       3.153  -2.944  -5.110  1.00  0.00     0.261 C 
BRANCH  26  27
ATOM     27  O   UNL     1       4.037  -1.955  -4.678  1.00  0.00    -0.460 OA
BRANCH  27  28
ATOM     28  C   UNL     1       5.342  -2.228  -4.835  1.00  0.00     0.338 C 
ATOM     29  O   UNL     1       5.891  -3.314  -4.940  1.00  0.00    -0.246 OA
BRANCH  28  30
ATOM     30  C   UNL     1       5.953  -0.919  -4.662  1.00  0.00     0.060 A 
ATOM     31  C   UNL     1       6.949  -0.929  -3.697  1.00  0.00     0.016 A 
ATOM     32  C   UNL     1       5.140   0.200  -4.940  1.00  0.00     0.016 A 
ATOM     33  C   UNL     1       6.918   0.089  -2.783  1.00  0.00     0.010 A 
ATOM     34  C   UNL     1       5.051   1.161  -3.974  1.00  0.00     0.010 A 
ATOM     35  C   UNL     1       5.908   1.062  -2.883  1.00  0.00    -0.014 A 
BRANCH  35  36
ATOM     36  C   UNL     1       6.011   2.207  -2.018  1.00  0.00     0.031 A 
ATOM     37  C   UNL     1       7.037   3.106  -2.585  1.00  0.00     0.074 A 
ATOM     38  C   UNL     1       5.267   2.412  -0.923  1.00  0.00     0.049 A 
ATOM     39  N   UNL     1       8.303   3.041  -2.333  1.00  0.00    -0.248 NA
ATOM     40  C   UNL     1       6.715   3.846  -3.820  1.00  0.00     0.031 C 
ATOM     41  C   UNL     1       4.090   1.692  -0.452  1.00  0.00     0.029 A 
ATOM     42  N   UNL     1       5.417   3.394  -0.001  1.00  0.00    -0.354 N 
ATOM     43  C   UNL     1       8.869   3.984  -3.172  1.00  0.00     0.074 A 
ATOM     44  C   UNL     1       7.939   4.158  -4.251  1.00  0.00     0.031 C 
ATOM     45  C   UNL     1       3.499   2.402   0.541  1.00  0.00     0.029 A 
ATOM     46  C   UNL     1       4.339   3.540   0.870  1.00  0.00     0.049 A 
ATOM     47  H   UNL     1       6.222   3.959   0.050  1.00  0.00     0.167 HD
ATOM     48  C   UNL     1       9.827   4.819  -2.692  1.00  0.00     0.037 A 
ATOM     49  C   UNL     1       4.181   4.587   1.726  1.00  0.00     0.037 A 
ATOM     50  C   UNL     1      10.378   4.296  -1.461  1.00  0.00     0.049 A 
ATOM     51  C   UNL     1       5.550   5.156   1.933  1.00  0.00     0.074 A 
ATOM     52  C   UNL     1      11.025   3.126  -1.111  1.00  0.00     0.029 A 
ATOM     53  N   UNL     1       9.886   4.829  -0.291  1.00  0.00    -0.354 N 
ATOM     54  N   UNL     1       6.520   4.494   2.513  1.00  0.00    -0.248 NA
ATOM     55  C   UNL     1       5.976   6.215   1.027  1.00  0.00     0.031 C 
ATOM     56  C   UNL     1      10.516   2.789   0.177  1.00  0.00     0.029 A 
ATOM     57  C   UNL     1       9.658   3.809   0.596  1.00  0.00     0.049 A 
ATOM     58  H   UNL     1       9.723   5.785  -0.121  1.00  0.00     0.167 HD
ATOM     59  C   UNL     1       7.647   4.757   1.741  1.00  0.00     0.074 A 
ATOM     60  C   UNL     1       7.255   5.862   0.865  1.00  0.00     0.031 C 
ATOM     61  C   UNL     1       8.678   3.864   1.664  1.00  0.00     0.037 A 
BRANCH  48  62
ATOM     62  C   UNL     1       9.912   6.281  -3.062  1.00  0.00     0.058 A 
ATOM     63  C   UNL     1      11.007   7.026  -2.586  1.00  0.00     0.135 A 
ATOM     64  C   UNL     1       8.859   7.042  -3.624  1.00  0.00     0.135 A 
ATOM     65  F   UNL     1      12.059   6.412  -2.023  1.00  0.00    -0.206 F 
ATOM     66  C   UNL     1      11.023   8.420  -2.605  1.00  0.00     0.059 A 
ATOM     67  C   UNL     1       8.879   8.425  -3.702  1.00  0.00     0.059 A 
ATOM     68  F   UNL     1       7.709   6.510  -4.047  1.00  0.00    -0.206 F 
ATOM     69  C   UNL     1       9.949   9.109  -3.160  1.00  0.00     0.060 A 
BRANCH  69  70
ATOM     70  S   UNL     1       9.935  10.904  -3.137  1.00  0.00     0.124 S 
ATOM     71  O   UNL     1       9.851  11.177  -1.708  1.00  0.00    -0.237 OA
ATOM     72  O   UNL     1      11.208  11.216  -3.779  1.00  0.00    -0.237 OA
ATOM     73  O   UNL     1       8.748  11.242  -3.917  1.00  0.00    -0.744 OA
ENDBRANCH  69  70
ENDBRANCH  48  62
BRANCH  49  74
ATOM     74  C   UNL     1       2.940   5.381   1.975  1.00  0.00     0.058 A 
ATOM     75  C   UNL     1       2.907   6.393   2.956  1.00  0.00     0.135 A 
ATOM     76  C   UNL     1       1.859   5.372   1.070  1.00  0.00     0.135 A 
ATOM     77  F   UNL     1       3.899   6.490   3.855  1.00  0.00    -0.206 F 
ATOM     78  C   UNL     1       1.902   7.370   2.997  1.00  0.00     0.059 A 
ATOM     79  C   UNL     1       0.845   6.331   1.094  1.00  0.00     0.059 A 
ATOM     80  F   UNL     1       1.800   4.479   0.071  1.00  0.00    -0.206 F 
ATOM     81  C   UNL     1       0.886   7.345   2.043  1.00  0.00     0.060 A 
BRANCH  81  82
ATOM     82  S   UNL     1      -0.316   8.698   1.979  1.00  0.00     0.124 S 
ATOM     83  O   UNL     1      -1.045   8.515   3.230  1.00  0.00    -0.237 OA
ATOM     84  O   UNL     1       0.546   9.873   1.910  1.00  0.00    -0.237 OA
ATOM     85  O   UNL     1      -1.080   8.416   0.767  1.00  0.00    -0.744 OA
ENDBRANCH  81  82
ENDBRANCH  49  74
BRANCH  61  86
ATOM     86  C   UNL     1       8.736   2.725   2.652  1.00  0.00     0.058 A 
ATOM     87  C   UNL     1       7.869   1.616   2.655  1.00  0.00     0.135 A 
ATOM     88  C   UNL     1       9.875   2.650   3.467  1.00  0.00     0.135 A 
ATOM     89  F   UNL     1       6.799   1.577   1.846  1.00  0.00    -0.206 F 
ATOM     90  C   UNL     1       8.133   0.481   3.431  1.00  0.00     0.059 A 
ATOM     91  C   UNL     1      10.173   1.522   4.223  1.00  0.00     0.059 A 
ATOM     92  F   UNL     1      10.765   3.656   3.466  1.00  0.00    -0.206 F 
ATOM     93  C   UNL     1       9.299   0.438   4.199  1.00  0.00     0.060 A 
BRANCH  93  94
ATOM     94  S   UNL     1       9.716  -1.072   5.102  1.00  0.00     0.124 S 
ATOM     95  O   UNL     1       8.678  -1.115   6.126  1.00  0.00    -0.237 OA
ATOM     96  O   UNL     1       9.627  -2.095   4.064  1.00  0.00    -0.237 OA
ATOM     97  O   UNL     1      11.067  -0.814   5.595  1.00  0.00    -0.744 OA
ENDBRANCH  93  94
ENDBRANCH  61  86
ENDBRANCH  35  36
ENDBRANCH  28  30
ENDBRANCH  27  28
ENDBRANCH  26  27
ENDBRANCH  25  26
ENDBRANCH  24  25
ENDBRANCH   1  24
TORSDOF 21
