REMARK SMILES C=CCN(CC(=O)OCCOCCOC(=O)c1ccc(-c2c3nc(c(-c4c(F)cc(S(=O)(=O)[O-])cc4F)c4ccc([nH]4)c(-c4c(F)cc(S(=O)(=O)[O-])cc4F)c4nc(c(-c5c(F)cc(S(=O)(=O)[O-])cc5F)c5ccc2[nH]5)C=C4)C=C3)cc1)C(=O)[C@@H]1[C@H](C)[C@H](C)O[C@@H]1C
REMARK SMILES IDX 11 1 10 2 9 3 8 4 6 5 7 6 5 7 4 8 3 9 2 10 1 11 83 12 84 13
REMARK SMILES IDX 85 14 86 15 91 16 87 17 88 18 90 19 92 20 89 21 12 22 13 23
REMARK SMILES IDX 14 24 15 25 16 26 17 27 18 28 82 29 19 30 81 31 20 32 21 33
REMARK SMILES IDX 22 34 75 35 23 36 80 37 74 38 76 39 24 40 79 41 73 42 72 43
REMARK SMILES IDX 25 45 59 46 38 47 58 48 39 49 42 50 57 51 77 52 40 53 41 54
REMARK SMILES IDX 56 56 78 57 43 58 26 59 27 60 36 61 28 62 29 63 35 64 37 65
REMARK SMILES IDX 30 66 31 67 32 68 33 69 34 70 60 71 61 72 70 73 62 74 63 75
REMARK SMILES IDX 69 76 71 77 64 78 65 79 66 80 67 81 68 82 44 83 45 84 54 85
REMARK SMILES IDX 46 86 47 87 53 88 55 89 48 90 49 91 50 92 51 93 52 94
REMARK H PARENT 76 44 42 55
REMARK Flexibility Score: inf
ROOT
ATOM      1  O   UNL     1      -6.611  -2.444  -2.981  1.00  0.00    -0.374 OA
ENDROOT
BRANCH   1   2
ATOM      2  C   UNL     1      -6.018  -1.605  -1.989  1.00  0.00     0.202 C 
BRANCH   2   3
ATOM      3  C   UNL     1      -5.723  -2.334  -0.657  1.00  0.00     0.261 C 
BRANCH   3   4
ATOM      4  O   UNL     1      -4.365  -2.029  -0.209  1.00  0.00    -0.462 OA
BRANCH   4   5
ATOM      5  C   UNL     1      -3.871  -2.893   0.725  1.00  0.00     0.325 C 
ATOM      6  O   UNL     1      -4.587  -3.591   1.439  1.00  0.00    -0.250 OA
BRANCH   5   7
ATOM      7  C   UNL     1      -2.325  -3.118   0.666  1.00  0.00     0.242 C 
BRANCH   7   8
ATOM      8  N   UNL     1      -1.362  -2.280  -0.083  1.00  0.00    -0.328 N 
BRANCH   8   9
ATOM      9  C   UNL     1      -1.164  -0.941   0.491  1.00  0.00     0.147 C 
BRANCH   9  10
ATOM     10  C   UNL     1       0.215  -0.810   1.083  1.00  0.00    -0.014 C 
ATOM     11  C   UNL     1       1.071   0.167   0.745  1.00  0.00     0.006 C 
ENDBRANCH   9  10
ENDBRANCH   8   9
BRANCH   8  12
ATOM     12  C   UNL     1      -0.606  -2.580  -1.218  1.00  0.00     0.229 C 
ATOM     13  O   UNL     1       0.245  -1.760  -1.605  1.00  0.00    -0.274 OA
BRANCH  12  14
ATOM     14  C   UNL     1      -0.758  -3.805  -2.157  1.00  0.00     0.113 C 
ATOM     15  C   UNL     1      -2.018  -3.946  -2.986  1.00  0.00     0.030 C 
ATOM     16  C   UNL     1      -0.285  -5.220  -1.871  1.00  0.00     0.128 C 
ATOM     17  C   UNL     1      -3.164  -3.175  -2.442  1.00  0.00     0.011 C 
ATOM     18  C   UNL     1      -2.287  -5.446  -3.096  1.00  0.00     0.119 C 
ATOM     19  O   UNL     1      -1.091  -6.110  -2.676  1.00  0.00    -0.374 OA
ATOM     20  C   UNL     1      -0.292  -5.744  -0.453  1.00  0.00     0.039 C 
ATOM     21  C   UNL     1      -3.463  -6.003  -2.291  1.00  0.00     0.039 C 
ENDBRANCH  12  14
ENDBRANCH   8  12
ENDBRANCH   7   8
ENDBRANCH   5   7
ENDBRANCH   4   5
ENDBRANCH   3   4
ENDBRANCH   2   3
ENDBRANCH   1   2
BRANCH   1  22
ATOM     22  C   UNL     1      -6.005  -2.750  -4.245  1.00  0.00     0.202 C 
BRANCH  22  23
ATOM     23  C   UNL     1      -4.879  -1.921  -4.917  1.00  0.00     0.261 C 
BRANCH  23  24
ATOM     24  O   UNL     1      -4.810  -0.579  -4.461  1.00  0.00    -0.460 OA
BRANCH  24  25
ATOM     25  C   UNL     1      -5.697   0.222  -5.079  1.00  0.00     0.338 C 
ATOM     26  O   UNL     1      -6.270   0.009  -6.130  1.00  0.00    -0.246 OA
BRANCH  25  27
ATOM     27  C   UNL     1      -6.087   1.264  -4.122  1.00  0.00     0.060 A 
ATOM     28  C   UNL     1      -7.457   1.374  -3.888  1.00  0.00     0.016 A 
ATOM     29  C   UNL     1      -5.166   2.109  -3.492  1.00  0.00     0.016 A 
ATOM     30  C   UNL     1      -7.931   2.415  -3.112  1.00  0.00     0.010 A 
ATOM     31  C   UNL     1      -5.646   3.159  -2.707  1.00  0.00     0.010 A 
ATOM     32  C   UNL     1      -7.032   3.347  -2.577  1.00  0.00    -0.014 A 
BRANCH  32  33
ATOM     33  C   UNL     1      -7.604   4.620  -2.097  1.00  0.00     0.031 A 
ATOM     34  C   UNL     1      -7.648   5.778  -3.058  1.00  0.00     0.074 A 
ATOM     35  C   UNL     1      -8.210   4.673  -0.899  1.00  0.00     0.049 A 
ATOM     36  N   UNL     1      -8.242   6.934  -2.933  1.00  0.00    -0.248 NA
ATOM     37  C   UNL     1      -6.939   5.606  -4.340  1.00  0.00     0.031 C 
ATOM     38  C   UNL     1      -8.249   3.580   0.074  1.00  0.00     0.029 A 
ATOM     39  N   UNL     1      -8.934   5.674  -0.310  1.00  0.00    -0.354 N 
ATOM     40  C   UNL     1      -7.985   7.620  -4.115  1.00  0.00     0.074 A 
ATOM     41  C   UNL     1      -7.155   6.769  -4.935  1.00  0.00     0.031 C 
ATOM     42  C   UNL     1      -8.969   3.970   1.140  1.00  0.00     0.029 A 
ATOM     43  C   UNL     1      -9.429   5.340   0.927  1.00  0.00     0.049 A 
ATOM     44  H   UNL     1      -9.085   6.551  -0.733  1.00  0.00     0.167 HD
ATOM     45  C   UNL     1      -8.418   8.847  -4.483  1.00  0.00     0.037 A 
ATOM     46  C   UNL     1     -10.170   6.068   1.785  1.00  0.00     0.037 A 
ATOM     47  C   UNL     1      -9.257   9.671  -3.655  1.00  0.00     0.049 A 
ATOM     48  C   UNL     1     -10.610   7.445   1.361  1.00  0.00     0.074 A 
ATOM     49  C   UNL     1      -9.770  10.925  -3.926  1.00  0.00     0.029 A 
ATOM     50  N   UNL     1      -9.702   9.317  -2.389  1.00  0.00    -0.354 N 
ATOM     51  N   UNL     1     -10.386   8.068   0.227  1.00  0.00    -0.248 NA
ATOM     52  C   UNL     1     -11.410   8.213   2.322  1.00  0.00     0.031 C 
ATOM     53  C   UNL     1     -10.489  11.350  -2.804  1.00  0.00     0.029 A 
ATOM     54  C   UNL     1     -10.463  10.340  -1.854  1.00  0.00     0.049 A 
ATOM     55  H   UNL     1      -9.505   8.464  -1.938  1.00  0.00     0.167 HD
ATOM     56  C   UNL     1     -11.030   9.295   0.333  1.00  0.00     0.074 A 
ATOM     57  C   UNL     1     -11.671   9.315   1.633  1.00  0.00     0.031 C 
ATOM     58  C   UNL     1     -11.086  10.319  -0.555  1.00  0.00     0.037 A 
BRANCH  45  59
ATOM     59  C   UNL     1      -7.981   9.380  -5.818  1.00  0.00     0.058 A 
ATOM     60  C   UNL     1      -8.525   8.904  -7.021  1.00  0.00     0.135 A 
ATOM     61  C   UNL     1      -7.043  10.422  -5.890  1.00  0.00     0.135 A 
ATOM     62  F   UNL     1      -9.406   7.891  -7.011  1.00  0.00    -0.206 F 
ATOM     63  C   UNL     1      -8.154   9.443  -8.250  1.00  0.00     0.059 A 
ATOM     64  C   UNL     1      -6.673  10.990  -7.106  1.00  0.00     0.059 A 
ATOM     65  F   UNL     1      -6.482  10.905  -4.770  1.00  0.00    -0.206 F 
ATOM     66  C   UNL     1      -7.232  10.491  -8.281  1.00  0.00     0.060 A 
BRANCH  66  67
ATOM     67  S   UNL     1      -6.794  11.211  -9.879  1.00  0.00     0.124 S 
ATOM     68  O   UNL     1      -5.967  10.157 -10.458  1.00  0.00    -0.237 OA
ATOM     69  O   UNL     1      -8.100  11.405 -10.502  1.00  0.00    -0.237 OA
ATOM     70  O   UNL     1      -6.088  12.436  -9.518  1.00  0.00    -0.744 OA
ENDBRANCH  66  67
ENDBRANCH  45  59
BRANCH  46  71
ATOM     71  C   UNL     1     -10.521   5.521   3.123  1.00  0.00     0.058 A 
ATOM     72  C   UNL     1     -11.844   5.215   3.473  1.00  0.00     0.135 A 
ATOM     73  C   UNL     1      -9.526   5.309   4.092  1.00  0.00     0.135 A 
ATOM     74  F   UNL     1     -12.833   5.403   2.586  1.00  0.00    -0.206 F 
ATOM     75  C   UNL     1     -12.173   4.745   4.741  1.00  0.00     0.059 A 
ATOM     76  C   UNL     1      -9.826   4.814   5.356  1.00  0.00     0.059 A 
ATOM     77  F   UNL     1      -8.241   5.569   3.805  1.00  0.00    -0.206 F 
ATOM     78  C   UNL     1     -11.156   4.551   5.678  1.00  0.00     0.060 A 
BRANCH  78  79
ATOM     79  S   UNL     1     -11.584   3.922   7.316  1.00  0.00     0.124 S 
ATOM     80  O   UNL     1     -12.153   5.107   7.946  1.00  0.00    -0.237 OA
ATOM     81  O   UNL     1     -12.525   2.852   7.000  1.00  0.00    -0.237 OA
ATOM     82  O   UNL     1     -10.299   3.478   7.849  1.00  0.00    -0.744 OA
ENDBRANCH  78  79
ENDBRANCH  46  71
BRANCH  58  83
ATOM     83  C   UNL     1     -11.877  11.529  -0.152  1.00  0.00     0.058 A 
ATOM     84  C   UNL     1     -11.390  12.435   0.802  1.00  0.00     0.135 A 
ATOM     85  C   UNL     1     -13.111  11.807  -0.760  1.00  0.00     0.135 A 
ATOM     86  F   UNL     1     -10.216  12.209   1.412  1.00  0.00    -0.206 F 
ATOM     87  C   UNL     1     -12.116  13.565   1.161  1.00  0.00     0.059 A 
ATOM     88  C   UNL     1     -13.841  12.945  -0.435  1.00  0.00     0.059 A 
ATOM     89  F   UNL     1     -13.611  10.977  -1.689  1.00  0.00    -0.206 F 
ATOM     90  C   UNL     1     -13.341  13.809   0.538  1.00  0.00     0.060 A 
BRANCH  90  91
ATOM     91  S   UNL     1     -14.265  15.289   0.999  1.00  0.00     0.124 S 
ATOM     92  O   UNL     1     -14.823  14.896   2.289  1.00  0.00    -0.237 OA
ATOM     93  O   UNL     1     -13.223  16.310   1.044  1.00  0.00    -0.237 OA
ATOM     94  O   UNL     1     -15.231  15.436  -0.086  1.00  0.00    -0.744 OA
ENDBRANCH  90  91
ENDBRANCH  58  83
ENDBRANCH  32  33
ENDBRANCH  25  27
ENDBRANCH  24  25
ENDBRANCH  23  24
ENDBRANCH  22  23
ENDBRANCH   1  22
TORSDOF 22
