REMARK SMILES CS(=O)(=O)c1ccc(/C=C(/C(=O)OCCOCCOC(=O)c2ccc(-c3c4nc(c(-c5c(F)cc(S(=O)(=O)[O-])cc5F)c5ccc([nH]5)c(-c5c(F)cc(S(=O)(=O)[O-])cc5F)c5nc(c(-c6c(F)cc(S(=O)(=O)[O-])cc6F)c6ccc3[nH]6)C=C5)C=C4)cc2)c2cccc(Br)c2)cc1
REMARK SMILES IDX 17 1 16 2 15 3 14 4 13 5 11 6 12 7 10 8 9 9 8 10 5 11 6 12
REMARK SMILES IDX 96 13 7 14 95 15 2 16 1 17 3 18 4 19 88 20 89 21 94 22 90 23
REMARK SMILES IDX 92 24 91 25 93 26 18 27 19 28 20 29 21 30 22 31 23 32 87 33
REMARK SMILES IDX 24 34 86 35 25 36 26 37 27 38 80 39 28 40 85 41 79 42 81 43
REMARK SMILES IDX 29 44 84 45 78 46 77 47 30 49 64 50 43 51 63 52 44 53 47 54
REMARK SMILES IDX 62 55 82 56 45 57 46 58 61 60 83 61 48 62 31 63 32 64 41 65
REMARK SMILES IDX 33 66 34 67 40 68 42 69 35 70 36 71 37 72 38 73 39 74 65 75
REMARK SMILES IDX 66 76 75 77 67 78 68 79 74 80 76 81 69 82 70 83 71 84 72 85
REMARK SMILES IDX 73 86 49 87 50 88 59 89 51 90 52 91 58 92 60 93 53 94 54 95
REMARK SMILES IDX 55 96 56 97 57 98
REMARK H PARENT 81 48 47 59
REMARK Flexibility Score: inf
ROOT
ATOM      1  C   UNL     1       2.690 -10.869  -0.985  1.00  0.00     0.202 C 
ENDROOT
BRANCH   1   2
ATOM      2  O   UNL     1       2.573 -11.707  -2.130  1.00  0.00    -0.374 OA
BRANCH   2   3
ATOM      3  C   UNL     1       3.054 -11.198  -3.375  1.00  0.00     0.202 C 
BRANCH   3   4
ATOM      4  C   UNL     1       2.222 -10.109  -4.061  1.00  0.00     0.261 C 
BRANCH   4   5
ATOM      5  O   UNL     1       2.128  -8.921  -3.254  1.00  0.00    -0.460 OA
BRANCH   5   6
ATOM      6  C   UNL     1       0.867  -8.599  -2.867  1.00  0.00     0.338 C 
ATOM      7  O   UNL     1      -0.158  -9.137  -3.263  1.00  0.00    -0.246 OA
BRANCH   6   8
ATOM      8  C   UNL     1       0.853  -7.572  -1.774  1.00  0.00     0.067 C 
ATOM      9  C   UNL     1       1.766  -6.572  -1.749  1.00  0.00     0.024 C 
BRANCH   9  10
ATOM     10  C   UNL     1       1.734  -5.341  -0.917  1.00  0.00    -0.025 A 
ATOM     11  C   UNL     1       1.216  -2.859   0.299  1.00  0.00     0.067 A 
ATOM     12  C   UNL     1       0.895  -4.042   0.963  1.00  0.00     0.021 A 
ATOM     13  C   UNL     1       1.918  -2.902  -0.904  1.00  0.00     0.021 A 
ATOM     14  C   UNL     1       1.195  -5.273   0.374  1.00  0.00     0.009 A 
ATOM     15  C   UNL     1       2.171  -4.143  -1.506  1.00  0.00     0.009 A 
BRANCH  11  16
ATOM     16  S   UNL     1       0.608  -1.348   1.004  1.00  0.00     0.175 S 
ATOM     17  C   UNL     1       1.157  -0.018  -0.023  1.00  0.00     0.163 C 
ATOM     18  O   UNL     1       1.252  -1.201   2.295  1.00  0.00    -0.224 OA
ATOM     19  O   UNL     1      -0.839  -1.403   0.896  1.00  0.00    -0.224 OA
ENDBRANCH  11  16
ENDBRANCH   9  10
BRANCH   8  20
ATOM     20  C   UNL     1      -0.256  -7.693  -0.804  1.00  0.00    -0.010 A 
ATOM     21  C   UNL     1      -0.144  -8.611   0.255  1.00  0.00     0.009 A 
ATOM     22  C   UNL     1      -1.389  -6.879  -0.892  1.00  0.00     0.024 A 
ATOM     23  C   UNL     1      -1.140  -8.700   1.226  1.00  0.00     0.002 A 
ATOM     24  C   UNL     1      -2.374  -6.965   0.091  1.00  0.00     0.018 A 
ATOM     25  C   UNL     1      -2.254  -7.869   1.148  1.00  0.00     0.016 A 
ATOM     26  Br  UNL     1      -3.873  -5.817   0.011  1.00  0.00    -0.051 Br
ENDBRANCH   8  20
ENDBRANCH   6   8
ENDBRANCH   5   6
ENDBRANCH   4   5
ENDBRANCH   3   4
ENDBRANCH   2   3
ENDBRANCH   1   2
BRANCH   1  27
ATOM     27  C   UNL     1       4.065 -10.729  -0.321  1.00  0.00     0.261 C 
BRANCH  27  28
ATOM     28  O   UNL     1       5.077 -10.252  -1.217  1.00  0.00    -0.460 OA
BRANCH  28  29
ATOM     29  C   UNL     1       5.936 -11.208  -1.642  1.00  0.00     0.338 C 
ATOM     30  O   UNL     1       5.971 -12.380  -1.287  1.00  0.00    -0.246 OA
BRANCH  29  31
ATOM     31  C   UNL     1       6.739 -10.692  -2.762  1.00  0.00     0.060 A 
ATOM     32  C   UNL     1       6.748 -11.436  -3.949  1.00  0.00     0.016 A 
ATOM     33  C   UNL     1       7.507  -9.532  -2.640  1.00  0.00     0.016 A 
ATOM     34  C   UNL     1       7.564 -11.047  -5.007  1.00  0.00     0.010 A 
ATOM     35  C   UNL     1       8.333  -9.149  -3.700  1.00  0.00     0.010 A 
ATOM     36  C   UNL     1       8.390  -9.924  -4.873  1.00  0.00    -0.014 A 
BRANCH  36  37
ATOM     37  C   UNL     1       9.424  -9.650  -5.897  1.00  0.00     0.031 A 
ATOM     38  C   UNL     1      10.842 -10.068  -5.624  1.00  0.00     0.074 A 
ATOM     39  C   UNL     1       9.098  -9.062  -7.061  1.00  0.00     0.049 A 
ATOM     40  N   UNL     1      11.913  -9.895  -6.353  1.00  0.00    -0.248 NA
ATOM     41  C   UNL     1      11.083 -10.775  -4.355  1.00  0.00     0.031 C 
ATOM     42  C   UNL     1       7.749  -8.657  -7.454  1.00  0.00     0.029 A 
ATOM     43  N   UNL     1       9.883  -8.700  -8.126  1.00  0.00    -0.354 N 
ATOM     44  C   UNL     1      12.956 -10.465  -5.632  1.00  0.00     0.074 A 
ATOM     45  C   UNL     1      12.394 -10.957  -4.392  1.00  0.00     0.031 C 
ATOM     46  C   UNL     1       7.801  -8.096  -8.674  1.00  0.00     0.029 A 
ATOM     47  C   UNL     1       9.189  -8.070  -9.131  1.00  0.00     0.049 A 
ATOM     48  H   UNL     1      10.851  -8.875  -8.167  1.00  0.00     0.167 HD
ATOM     49  C   UNL     1      14.261 -10.577  -5.978  1.00  0.00     0.037 A 
ATOM     50  C   UNL     1       9.631  -7.519 -10.279  1.00  0.00     0.037 A 
ATOM     51  C   UNL     1      14.810 -10.077  -7.211  1.00  0.00     0.049 A 
ATOM     52  C   UNL     1      11.100  -7.582 -10.607  1.00  0.00     0.074 A 
ATOM     53  C   UNL     1      16.116 -10.143  -7.662  1.00  0.00     0.029 A 
ATOM     54  N   UNL     1      14.084  -9.409  -8.187  1.00  0.00    -0.354 N 
ATOM     55  N   UNL     1      12.075  -8.134  -9.924  1.00  0.00    -0.248 NA
ATOM     56  C   UNL     1      11.528  -6.949 -11.862  1.00  0.00     0.031 C 
ATOM     57  C   UNL     1      16.189  -9.471  -8.887  1.00  0.00     0.029 A 
ATOM     58  C   UNL     1      14.918  -9.034  -9.227  1.00  0.00     0.049 A 
ATOM     59  H   UNL     1      13.117  -9.227  -8.146  1.00  0.00     0.167 HD
ATOM     60  C   UNL     1      13.227  -7.941 -10.680  1.00  0.00     0.074 A 
ATOM     61  C   UNL     1      12.825  -7.226 -11.874  1.00  0.00     0.031 C 
ATOM     62  C   UNL     1      14.501  -8.326 -10.412  1.00  0.00     0.037 A 
BRANCH  49  63
ATOM     63  C   UNL     1      15.183 -11.238  -4.990  1.00  0.00     0.058 A 
ATOM     64  C   UNL     1      15.116 -12.614  -4.720  1.00  0.00     0.135 A 
ATOM     65  C   UNL     1      16.148 -10.484  -4.303  1.00  0.00     0.135 A 
ATOM     66  F   UNL     1      14.200 -13.380  -5.334  1.00  0.00    -0.206 F 
ATOM     67  C   UNL     1      15.946 -13.212  -3.777  1.00  0.00     0.059 A 
ATOM     68  C   UNL     1      17.009 -11.066  -3.377  1.00  0.00     0.059 A 
ATOM     69  F   UNL     1      16.256  -9.164  -4.521  1.00  0.00    -0.206 F 
ATOM     70  C   UNL     1      16.886 -12.428  -3.107  1.00  0.00     0.060 A 
BRANCH  70  71
ATOM     71  S   UNL     1      17.941 -13.213  -1.869  1.00  0.00     0.124 S 
ATOM     72  O   UNL     1      16.996 -13.425  -0.776  1.00  0.00    -0.237 OA
ATOM     73  O   UNL     1      18.392 -14.416  -2.560  1.00  0.00    -0.237 OA
ATOM     74  O   UNL     1      18.974 -12.213  -1.619  1.00  0.00    -0.744 OA
ENDBRANCH  70  71
ENDBRANCH  49  63
BRANCH  50  75
ATOM     75  C   UNL     1       8.668  -6.862 -11.201  1.00  0.00     0.058 A 
ATOM     76  C   UNL     1       8.349  -7.434 -12.441  1.00  0.00     0.135 A 
ATOM     77  C   UNL     1       8.030  -5.661 -10.852  1.00  0.00     0.135 A 
ATOM     78  F   UNL     1       8.941  -8.575 -12.825  1.00  0.00    -0.206 F 
ATOM     79  C   UNL     1       7.437  -6.837 -13.306  1.00  0.00     0.059 A 
ATOM     80  C   UNL     1       7.096  -5.058 -11.688  1.00  0.00     0.059 A 
ATOM     81  F   UNL     1       8.293  -5.078  -9.671  1.00  0.00    -0.206 F 
ATOM     82  C   UNL     1       6.810  -5.652 -12.917  1.00  0.00     0.060 A 
BRANCH  82  83
ATOM     83  S   UNL     1       5.578  -4.922 -14.017  1.00  0.00     0.124 S 
ATOM     84  O   UNL     1       6.413  -4.406 -15.094  1.00  0.00    -0.237 OA
ATOM     85  O   UNL     1       4.746  -6.075 -14.348  1.00  0.00    -0.237 OA
ATOM     86  O   UNL     1       4.934  -3.916 -13.178  1.00  0.00    -0.744 OA
ENDBRANCH  82  83
ENDBRANCH  50  75
BRANCH  62  87
ATOM     87  C   UNL     1      15.552  -8.017 -11.444  1.00  0.00     0.058 A 
ATOM     88  C   UNL     1      16.027  -6.712 -11.649  1.00  0.00     0.135 A 
ATOM     89  C   UNL     1      16.134  -9.052 -12.194  1.00  0.00     0.135 A 
ATOM     90  F   UNL     1      15.499  -5.685 -10.964  1.00  0.00    -0.206 F 
ATOM     91  C   UNL     1      17.029  -6.442 -12.576  1.00  0.00     0.059 A 
ATOM     92  C   UNL     1      17.157  -8.809 -13.105  1.00  0.00     0.059 A 
ATOM     93  F   UNL     1      15.724 -10.320 -12.029  1.00  0.00    -0.206 F 
ATOM     94  C   UNL     1      17.591  -7.498 -13.296  1.00  0.00     0.060 A 
BRANCH  94  95
ATOM     95  S   UNL     1      18.919  -7.138 -14.465  1.00  0.00     0.124 S 
ATOM     96  O   UNL     1      18.187  -6.500 -15.554  1.00  0.00    -0.237 OA
ATOM     97  O   UNL     1      19.790  -6.262 -13.688  1.00  0.00    -0.237 OA
ATOM     98  O   UNL     1      19.473  -8.455 -14.767  1.00  0.00    -0.744 OA
ENDBRANCH  94  95
ENDBRANCH  62  87
ENDBRANCH  36  37
ENDBRANCH  29  31
ENDBRANCH  28  29
ENDBRANCH  27  28
ENDBRANCH   1  27
TORSDOF 20
