REMARK SMILES [NH3+][C@H](CC[S@@](=O)[O-])C(=O)OCCOCCOC(=O)c1ccc(-c2c3nc(c(-c4c(F)cc(S(=O)(=O)[O-])cc4F)c4ccc([nH]4)c(-c4c(F)cc(S(=O)(=O)[O-])cc4F)c4nc(c(-c5c(F)cc(S(=O)(=O)[O-])cc5F)c5ccc2[nH]5)C=C4)C=C3)cc1
REMARK SMILES IDX 13 1 12 2 11 3 10 4 8 5 9 6 2 7 1 8 3 12 4 13 5 14 6 15 7 16
REMARK SMILES IDX 14 17 15 18 16 19 17 20 18 21 19 22 20 23 84 24 21 25 83 26
REMARK SMILES IDX 22 27 23 28 24 29 77 30 25 31 82 32 76 33 78 34 26 35 81 36
REMARK SMILES IDX 75 37 74 38 27 40 61 41 40 42 60 43 41 44 44 45 59 46 79 47
REMARK SMILES IDX 42 48 43 49 58 51 80 52 45 53 28 54 29 55 38 56 30 57 31 58
REMARK SMILES IDX 37 59 39 60 32 61 33 62 34 63 35 64 36 65 62 66 63 67 72 68
REMARK SMILES IDX 64 69 65 70 71 71 73 72 66 73 67 74 68 75 69 76 70 77 46 78
REMARK SMILES IDX 47 79 56 80 48 81 49 82 55 83 57 84 50 85 51 86 52 87 53 88
REMARK SMILES IDX 54 89
REMARK H PARENT 1 9 1 10 1 11 78 39 44 50
REMARK Flexibility Score: inf
ROOT
ATOM      1  O   UNL     1      -3.318  -1.448   0.898  1.00  0.00    -0.374 OA
ENDROOT
BRANCH   1   2
ATOM      2  C   UNL     1      -3.674  -0.066   0.828  1.00  0.00     0.202 C 
BRANCH   2   3
ATOM      3  C   UNL     1      -3.026   0.846   1.875  1.00  0.00     0.261 C 
BRANCH   3   4
ATOM      4  O   UNL     1      -1.627   1.031   1.592  1.00  0.00    -0.459 OA
BRANCH   4   5
ATOM      5  C   UNL     1      -0.742   0.371   2.380  1.00  0.00     0.364 C 
ATOM      6  O   UNL     1      -1.048  -0.268   3.381  1.00  0.00    -0.245 OA
BRANCH   5   7
ATOM      7  C   UNL     1       0.712   0.490   1.864  1.00  0.00     0.292 C 
BRANCH   7   8
ATOM      8  N   UNL     1       1.391   1.634   2.495  1.00  0.00    -0.346 N 
ATOM      9  H   UNL     1       1.186   1.642   3.494  1.00  0.00     0.345 HD
ATOM     10  H   UNL     1       1.060   2.501   2.072  1.00  0.00     0.345 HD
ATOM     11  H   UNL     1       2.398   1.550   2.355  1.00  0.00     0.345 HD
ENDBRANCH   7   8
BRANCH   7  12
ATOM     12  C   UNL     1       0.968   0.397   0.340  1.00  0.00     0.090 C 
BRANCH  12  13
ATOM     13  C   UNL     1       0.166   1.231  -0.658  1.00  0.00     0.096 C 
BRANCH  13  14
ATOM     14  S   UNL     1       0.547   3.005  -0.698  1.00  0.00    -0.055 S 
ATOM     15  O   UNL     1      -0.446   3.640  -1.620  1.00  0.00    -0.275 OA
ATOM     16  O   UNL     1      -0.025   3.307   0.767  1.00  0.00    -0.772 OA
ENDBRANCH  13  14
ENDBRANCH  12  13
ENDBRANCH   7  12
ENDBRANCH   5   7
ENDBRANCH   4   5
ENDBRANCH   3   4
ENDBRANCH   2   3
ENDBRANCH   1   2
BRANCH   1  17
ATOM     17  C   UNL     1      -2.103  -1.831   0.258  1.00  0.00     0.202 C 
BRANCH  17  18
ATOM     18  C   UNL     1      -2.169  -2.055  -1.258  1.00  0.00     0.261 C 
BRANCH  18  19
ATOM     19  O   UNL     1      -2.437  -0.837  -1.978  1.00  0.00    -0.460 OA
BRANCH  19  20
ATOM     20  C   UNL     1      -3.702  -0.728  -2.457  1.00  0.00     0.338 C 
ATOM     21  O   UNL     1      -4.579  -1.579  -2.406  1.00  0.00    -0.246 OA
BRANCH  20  22
ATOM     22  C   UNL     1      -3.964   0.659  -2.888  1.00  0.00     0.060 A 
ATOM     23  C   UNL     1      -5.084   1.304  -2.345  1.00  0.00     0.016 A 
ATOM     24  C   UNL     1      -3.163   1.310  -3.828  1.00  0.00     0.016 A 
ATOM     25  C   UNL     1      -5.420   2.593  -2.757  1.00  0.00     0.010 A 
ATOM     26  C   UNL     1      -3.510   2.601  -4.248  1.00  0.00     0.010 A 
ATOM     27  C   UNL     1      -4.649   3.244  -3.730  1.00  0.00    -0.014 A 
BRANCH  27  28
ATOM     28  C   UNL     1      -5.073   4.569  -4.249  1.00  0.00     0.031 A 
ATOM     29  C   UNL     1      -5.738   4.665  -5.596  1.00  0.00     0.074 A 
ATOM     30  C   UNL     1      -4.871   5.681  -3.516  1.00  0.00     0.049 A 
ATOM     31  N   UNL     1      -6.119   5.728  -6.256  1.00  0.00    -0.248 NA
ATOM     32  C   UNL     1      -6.012   3.396  -6.291  1.00  0.00     0.031 C 
ATOM     33  C   UNL     1      -4.261   5.715  -2.187  1.00  0.00     0.029 A 
ATOM     34  N   UNL     1      -5.140   7.000  -3.794  1.00  0.00    -0.354 N 
ATOM     35  C   UNL     1      -6.659   5.263  -7.449  1.00  0.00     0.074 A 
ATOM     36  C   UNL     1      -6.548   3.820  -7.428  1.00  0.00     0.031 C 
ATOM     37  C   UNL     1      -4.185   6.991  -1.773  1.00  0.00     0.029 A 
ATOM     38  C   UNL     1      -4.695   7.868  -2.824  1.00  0.00     0.049 A 
ATOM     39  H   UNL     1      -5.606   7.295  -4.609  1.00  0.00     0.167 HD
ATOM     40  C   UNL     1      -7.197   5.976  -8.467  1.00  0.00     0.037 A 
ATOM     41  C   UNL     1      -4.662   9.217  -2.805  1.00  0.00     0.037 A 
ATOM     42  C   UNL     1      -7.317   7.413  -8.474  1.00  0.00     0.049 A 
ATOM     43  C   UNL     1      -5.206   9.986  -3.983  1.00  0.00     0.074 A 
ATOM     44  C   UNL     1      -7.898   8.219  -9.439  1.00  0.00     0.029 A 
ATOM     45  N   UNL     1      -6.836   8.258  -7.486  1.00  0.00    -0.354 N 
ATOM     46  N   UNL     1      -5.766   9.531  -5.079  1.00  0.00    -0.248 NA
ATOM     47  C   UNL     1      -5.108  11.452  -3.926  1.00  0.00     0.031 C 
ATOM     48  C   UNL     1      -7.708   9.553  -9.067  1.00  0.00     0.029 A 
ATOM     49  C   UNL     1      -7.066   9.578  -7.840  1.00  0.00     0.049 A 
ATOM     50  H   UNL     1      -6.396   7.964  -6.656  1.00  0.00     0.167 HD
ATOM     51  C   UNL     1      -6.101  10.654  -5.830  1.00  0.00     0.074 A 
ATOM     52  C   UNL     1      -5.707  11.810  -5.054  1.00  0.00     0.031 C 
ATOM     53  C   UNL     1      -6.675  10.723  -7.057  1.00  0.00     0.037 A 
BRANCH  40  54
ATOM     54  C   UNL     1      -7.684   5.235  -9.682  1.00  0.00     0.058 A 
ATOM     55  C   UNL     1      -8.872   4.489  -9.669  1.00  0.00     0.135 A 
ATOM     56  C   UNL     1      -7.007   5.369 -10.906  1.00  0.00     0.135 A 
ATOM     57  F   UNL     1      -9.550   4.315  -8.524  1.00  0.00    -0.206 F 
ATOM     58  C   UNL     1      -9.372   3.902 -10.828  1.00  0.00     0.059 A 
ATOM     59  C   UNL     1      -7.503   4.813 -12.081  1.00  0.00     0.059 A 
ATOM     60  F   UNL     1      -5.864   6.070 -10.972  1.00  0.00    -0.206 F 
ATOM     61  C   UNL     1      -8.687   4.079 -12.031  1.00  0.00     0.060 A 
BRANCH  61  62
ATOM     62  S   UNL     1      -9.383   3.361 -13.534  1.00  0.00     0.124 S 
ATOM     63  O   UNL     1      -9.185   1.935 -13.296  1.00  0.00    -0.237 OA
ATOM     64  O   UNL     1     -10.766   3.826 -13.488  1.00  0.00    -0.237 OA
ATOM     65  O   UNL     1      -8.567   3.937 -14.599  1.00  0.00    -0.744 OA
ENDBRANCH  61  62
ENDBRANCH  40  54
BRANCH  41  66
ATOM     66  C   UNL     1      -4.040   9.938  -1.659  1.00  0.00     0.058 A 
ATOM     67  C   UNL     1      -4.798  10.768  -0.820  1.00  0.00     0.135 A 
ATOM     68  C   UNL     1      -2.661   9.847  -1.411  1.00  0.00     0.135 A 
ATOM     69  F   UNL     1      -6.118  10.900  -1.022  1.00  0.00    -0.206 F 
ATOM     70  C   UNL     1      -4.209  11.505   0.203  1.00  0.00     0.059 A 
ATOM     71  C   UNL     1      -2.054  10.548  -0.373  1.00  0.00     0.059 A 
ATOM     72  F   UNL     1      -1.888   9.062  -2.177  1.00  0.00    -0.206 F 
ATOM     73  C   UNL     1      -2.835  11.390   0.417  1.00  0.00     0.060 A 
BRANCH  73  74
ATOM     74  S   UNL     1      -2.080  12.339   1.754  1.00  0.00     0.124 S 
ATOM     75  O   UNL     1      -2.113  13.691   1.208  1.00  0.00    -0.237 OA
ATOM     76  O   UNL     1      -2.988  12.076   2.866  1.00  0.00    -0.237 OA
ATOM     77  O   UNL     1      -0.754  11.741   1.882  1.00  0.00    -0.744 OA
ENDBRANCH  73  74
ENDBRANCH  41  66
BRANCH  53  78
ATOM     78  C   UNL     1      -6.932  12.089  -7.634  1.00  0.00     0.058 A 
ATOM     79  C   UNL     1      -5.884  12.904  -8.091  1.00  0.00     0.135 A 
ATOM     80  C   UNL     1      -8.245  12.564  -7.791  1.00  0.00     0.135 A 
ATOM     81  F   UNL     1      -4.610  12.504  -7.958  1.00  0.00    -0.206 F 
ATOM     82  C   UNL     1      -6.127  14.149  -8.664  1.00  0.00     0.059 A 
ATOM     83  C   UNL     1      -8.512  13.792  -8.390  1.00  0.00     0.059 A 
ATOM     84  F   UNL     1      -9.286  11.822  -7.381  1.00  0.00    -0.206 F 
ATOM     85  C   UNL     1      -7.445  14.582  -8.815  1.00  0.00     0.060 A 
BRANCH  85  86
ATOM     86  S   UNL     1      -7.745  16.179  -9.601  1.00  0.00     0.124 S 
ATOM     87  O   UNL     1      -7.285  17.105  -8.572  1.00  0.00    -0.237 OA
ATOM     88  O   UNL     1      -6.913  16.097 -10.798  1.00  0.00    -0.237 OA
ATOM     89  O   UNL     1      -9.184  16.175  -9.844  1.00  0.00    -0.744 OA
ENDBRANCH  85  86
ENDBRANCH  53  78
ENDBRANCH  27  28
ENDBRANCH  20  22
ENDBRANCH  19  20
ENDBRANCH  18  19
ENDBRANCH  17  18
ENDBRANCH   1  17
TORSDOF 21
