REMARK SMILES Cc1[nH]c2c(C(=O)N3CC[C@H](O)C[C@@H]3C(=O)OCCOCCOC(=O)c3ccc(-c4c5nc(c(-c6c(F)cc(S(=O)(=O)[O-])cc6F)c6ccc([nH]6)c(-c6c(F)cc(S(=O)(=O)[O-])cc6F)c6nc(c(-c7c(F)cc(S(=O)(=O)[O-])cc7F)c7ccc4[nH]7)C=C6)C=C5)cc3)cccc2c1C
REMARK SMILES IDX 21 1 20 2 19 3 18 4 17 5 15 6 16 7 14 8 8 9 9 10 10 11 13 12
REMARK SMILES IDX 11 13 6 14 7 15 5 16 1 17 2 18 3 19 96 20 4 21 95 23 97 24
REMARK SMILES IDX 94 25 92 26 93 27 12 28 22 30 23 31 24 32 25 33 26 34 27 35
REMARK SMILES IDX 91 36 28 37 90 38 29 39 30 40 31 41 84 42 32 43 89 44 83 45
REMARK SMILES IDX 85 46 33 47 88 48 82 49 81 50 34 52 68 53 47 54 67 55 48 56
REMARK SMILES IDX 51 57 66 58 86 59 49 60 50 61 65 63 87 64 52 65 35 66 36 67
REMARK SMILES IDX 45 68 37 69 38 70 44 71 46 72 39 73 40 74 41 75 42 76 43 77
REMARK SMILES IDX 69 78 70 79 79 80 71 81 72 82 78 83 80 84 73 85 74 86 75 87
REMARK SMILES IDX 76 88 77 89 53 90 54 91 63 92 55 93 56 94 62 95 64 96 57 97
REMARK SMILES IDX 58 98 59 99 60 100 61 101
REMARK H PARENT 3 22 12 29 85 51 51 62
REMARK Flexibility Score: inf
ROOT
ATOM      1  C   UNL     1      -2.445  -6.656   2.515  1.00  0.00     0.202 C 
ENDROOT
BRANCH   1   2
ATOM      2  O   UNL     1      -3.236  -5.662   3.163  1.00  0.00    -0.374 OA
BRANCH   2   3
ATOM      3  C   UNL     1      -3.654  -4.561   2.361  1.00  0.00     0.202 C 
BRANCH   3   4
ATOM      4  C   UNL     1      -2.640  -3.426   2.192  1.00  0.00     0.261 C 
BRANCH   4   5
ATOM      5  O   UNL     1      -1.552  -3.759   1.296  1.00  0.00    -0.462 OA
BRANCH   5   6
ATOM      6  C   UNL     1      -0.397  -4.158   1.911  1.00  0.00     0.329 C 
ATOM      7  O   UNL     1      -0.289  -4.344   3.118  1.00  0.00    -0.250 OA
BRANCH   6   8
ATOM      8  C   UNL     1       0.720  -4.496   0.911  1.00  0.00     0.198 C 
ATOM      9  N   UNL     1       0.863  -3.484  -0.144  1.00  0.00    -0.325 N 
ATOM     10  C   UNL     1       0.179  -3.646  -1.428  1.00  0.00     0.123 C 
ATOM     11  C   UNL     1       0.337  -5.060  -1.968  1.00  0.00     0.053 C 
ATOM     12  C   UNL     1       0.673  -5.930   0.380  1.00  0.00     0.069 C 
ATOM     13  C   UNL     1      -0.092  -6.090  -0.931  1.00  0.00     0.118 C 
BRANCH   9  14
ATOM     14  C   UNL     1       1.922  -2.596   0.011  1.00  0.00     0.256 C 
ATOM     15  O   UNL     1       3.028  -2.988   0.381  1.00  0.00    -0.269 OA
BRANCH  14  16
ATOM     16  C   UNL     1       1.674  -1.138  -0.118  1.00  0.00     0.064 A 
ATOM     17  C   UNL     1      -3.265  -0.458  -0.193  1.00  0.00     0.064 C 
ATOM     18  C   UNL     1      -1.825  -0.108  -0.085  1.00  0.00     0.016 A 
ATOM     19  N   UNL     1      -0.860  -1.069   0.050  1.00  0.00    -0.358 N 
ATOM     20  C   UNL     1      -1.181   1.116  -0.075  1.00  0.00    -0.023 A 
ATOM     21  C   UNL     1       0.401  -0.537  -0.070  1.00  0.00     0.059 A 
ATOM     22  H   UNL     1      -1.046  -2.022   0.212  1.00  0.00     0.166 HD
ATOM     23  C   UNL     1       0.227   0.849  -0.085  1.00  0.00     0.003 A 
ATOM     24  C   UNL     1      -1.818   2.461  -0.093  1.00  0.00     0.047 C 
ATOM     25  C   UNL     1       1.370   1.675  -0.110  1.00  0.00     0.010 A 
ATOM     26  C   UNL     1       2.790  -0.282  -0.147  1.00  0.00     0.016 A 
ATOM     27  C   UNL     1       2.643   1.101  -0.138  1.00  0.00     0.002 A 
ENDBRANCH  14  16
ENDBRANCH   9  14
BRANCH  13  28
ATOM     28  O   UNL     1      -1.495  -6.036  -0.720  1.00  0.00    -0.393 OA
ATOM     29  H   UNL     1      -1.735  -5.164  -0.370  1.00  0.00     0.210 HD
ENDBRANCH  13  28
ENDBRANCH   6   8
ENDBRANCH   5   6
ENDBRANCH   4   5
ENDBRANCH   3   4
ENDBRANCH   2   3
ENDBRANCH   1   2
BRANCH   1  30
ATOM     30  C   UNL     1      -3.210  -7.720   1.721  1.00  0.00     0.261 C 
BRANCH  30  31
ATOM     31  O   UNL     1      -3.785  -7.170   0.522  1.00  0.00    -0.460 OA
BRANCH  31  32
ATOM     32  C   UNL     1      -5.112  -6.926   0.567  1.00  0.00     0.338 C 
ATOM     33  O   UNL     1      -5.873  -7.204   1.484  1.00  0.00    -0.246 OA
BRANCH  32  34
ATOM     34  C   UNL     1      -5.513  -6.072  -0.574  1.00  0.00     0.060 A 
ATOM     35  C   UNL     1      -6.414  -5.033  -0.306  1.00  0.00     0.016 A 
ATOM     36  C   UNL     1      -5.069  -6.293  -1.882  1.00  0.00     0.016 A 
ATOM     37  C   UNL     1      -6.943  -4.275  -1.348  1.00  0.00     0.010 A 
ATOM     38  C   UNL     1      -5.604  -5.529  -2.929  1.00  0.00     0.010 A 
ATOM     39  C   UNL     1      -6.583  -4.551  -2.674  1.00  0.00    -0.014 A 
BRANCH  39  40
ATOM     40  C   UNL     1      -7.360  -3.929  -3.780  1.00  0.00     0.031 A 
ATOM     41  C   UNL     1      -8.395  -4.754  -4.502  1.00  0.00     0.074 A 
ATOM     42  C   UNL     1      -7.206  -2.628  -4.093  1.00  0.00     0.049 A 
ATOM     43  N   UNL     1      -9.198  -4.411  -5.478  1.00  0.00    -0.248 NA
ATOM     44  C   UNL     1      -8.548  -6.151  -4.064  1.00  0.00     0.031 C 
ATOM     45  C   UNL     1      -6.275  -1.707  -3.442  1.00  0.00     0.029 A 
ATOM     46  N   UNL     1      -7.837  -1.856  -5.037  1.00  0.00    -0.354 N 
ATOM     47  C   UNL     1      -9.947  -5.546  -5.771  1.00  0.00     0.074 A 
ATOM     48  C   UNL     1      -9.475  -6.598  -4.898  1.00  0.00     0.031 C 
ATOM     49  C   UNL     1      -6.398  -0.493  -4.006  1.00  0.00     0.029 A 
ATOM     50  C   UNL     1      -7.390  -0.556  -5.079  1.00  0.00     0.049 A 
ATOM     51  H   UNL     1      -8.544  -2.201  -5.629  1.00  0.00     0.167 HD
ATOM     52  C   UNL     1     -10.948  -5.696  -6.672  1.00  0.00     0.037 A 
ATOM     53  C   UNL     1      -7.729   0.461  -5.898  1.00  0.00     0.037 A 
ATOM     54  C   UNL     1     -11.420  -4.647  -7.540  1.00  0.00     0.049 A 
ATOM     55  C   UNL     1      -8.788   0.248  -6.950  1.00  0.00     0.074 A 
ATOM     56  C   UNL     1     -12.437  -4.701  -8.478  1.00  0.00     0.029 A 
ATOM     57  N   UNL     1     -10.906  -3.360  -7.586  1.00  0.00    -0.354 N 
ATOM     58  N   UNL     1      -9.500  -0.825  -7.201  1.00  0.00    -0.248 NA
ATOM     59  C   UNL     1      -9.092   1.387  -7.830  1.00  0.00     0.031 C 
ATOM     60  C   UNL     1     -12.497  -3.467  -9.132  1.00  0.00     0.029 A 
ATOM     61  C   UNL     1     -11.564  -2.620  -8.556  1.00  0.00     0.049 A 
ATOM     62  H   UNL     1     -10.180  -3.021  -7.013  1.00  0.00     0.167 HD
ATOM     63  C   UNL     1     -10.358  -0.479  -8.243  1.00  0.00     0.074 A 
ATOM     64  C   UNL     1     -10.082   0.904  -8.568  1.00  0.00     0.031 C 
ATOM     65  C   UNL     1     -11.290  -1.239  -8.870  1.00  0.00     0.037 A 
BRANCH  52  66
ATOM     66  C   UNL     1     -11.591  -7.053  -6.785  1.00  0.00     0.058 A 
ATOM     67  C   UNL     1     -12.417  -7.569  -5.774  1.00  0.00     0.135 A 
ATOM     68  C   UNL     1     -11.415  -7.829  -7.943  1.00  0.00     0.135 A 
ATOM     69  F   UNL     1     -12.608  -6.879  -4.638  1.00  0.00    -0.206 F 
ATOM     70  C   UNL     1     -13.023  -8.816  -5.894  1.00  0.00     0.059 A 
ATOM     71  C   UNL     1     -12.036  -9.064  -8.099  1.00  0.00     0.059 A 
ATOM     72  F   UNL     1     -10.636  -7.384  -8.942  1.00  0.00    -0.206 F 
ATOM     73  C   UNL     1     -12.827  -9.556  -7.062  1.00  0.00     0.060 A 
BRANCH  73  74
ATOM     74  S   UNL     1     -13.627 -11.168  -7.205  1.00  0.00     0.124 S 
ATOM     75  O   UNL     1     -12.864 -11.957  -6.243  1.00  0.00    -0.237 OA
ATOM     76  O   UNL     1     -15.004 -10.867  -6.827  1.00  0.00    -0.237 OA
ATOM     77  O   UNL     1     -13.428 -11.525  -8.606  1.00  0.00    -0.744 OA
ENDBRANCH  73  74
ENDBRANCH  52  66
BRANCH  53  78
ATOM     78  C   UNL     1      -7.053   1.780  -5.763  1.00  0.00     0.058 A 
ATOM     79  C   UNL     1      -7.752   2.916  -5.328  1.00  0.00     0.135 A 
ATOM     80  C   UNL     1      -5.692   1.933  -6.074  1.00  0.00     0.135 A 
ATOM     81  F   UNL     1      -9.058   2.826  -5.032  1.00  0.00    -0.206 F 
ATOM     82  C   UNL     1      -7.133   4.157  -5.217  1.00  0.00     0.059 A 
ATOM     83  C   UNL     1      -5.043   3.156  -5.942  1.00  0.00     0.059 A 
ATOM     84  F   UNL     1      -4.974   0.877  -6.488  1.00  0.00    -0.206 F 
ATOM     85  C   UNL     1      -5.775   4.265  -5.521  1.00  0.00     0.060 A 
BRANCH  85  86
ATOM     86  S   UNL     1      -4.968   5.867  -5.317  1.00  0.00     0.124 S 
ATOM     87  O   UNL     1      -5.545   6.630  -6.418  1.00  0.00    -0.237 OA
ATOM     88  O   UNL     1      -5.395   6.254  -3.976  1.00  0.00    -0.237 OA
ATOM     89  O   UNL     1      -3.549   5.547  -5.446  1.00  0.00    -0.744 OA
ENDBRANCH  85  86
ENDBRANCH  53  78
BRANCH  65  90
ATOM     90  C   UNL     1     -12.118  -0.588  -9.948  1.00  0.00     0.058 A 
ATOM     91  C   UNL     1     -11.575  -0.239 -11.194  1.00  0.00     0.135 A 
ATOM     92  C   UNL     1     -13.492  -0.363  -9.750  1.00  0.00     0.135 A 
ATOM     93  F   UNL     1     -10.269  -0.427 -11.439  1.00  0.00    -0.206 F 
ATOM     94  C   UNL     1     -12.357   0.332 -12.195  1.00  0.00     0.059 A 
ATOM     95  C   UNL     1     -14.298   0.176 -10.747  1.00  0.00     0.059 A 
ATOM     96  F   UNL     1     -14.068  -0.688  -8.581  1.00  0.00    -0.206 F 
ATOM     97  C   UNL     1     -13.719   0.532 -11.963  1.00  0.00     0.060 A 
BRANCH  97  98
ATOM     98  S   UNL     1     -14.726   1.242 -13.283  1.00  0.00     0.124 S 
ATOM     99  O   UNL     1     -14.266   2.627 -13.293  1.00  0.00    -0.237 OA
ATOM    100  O   UNL     1     -14.338   0.438 -14.438  1.00  0.00    -0.237 OA
ATOM    101  O   UNL     1     -16.094   1.039 -12.816  1.00  0.00    -0.744 OA
ENDBRANCH  97  98
ENDBRANCH  65  90
ENDBRANCH  39  40
ENDBRANCH  32  34
ENDBRANCH  31  32
ENDBRANCH  30  31
ENDBRANCH   1  30
TORSDOF 20
