REMARK SMILES O=C(OCCOCCOC(=O)[C@@H]1[C@H](C(=O)Nc2ccccc2OC(F)F)[C@@H]2C=C[C@H]1C2)c1ccc(-c2c3nc(c(-c4c(F)cc(S(=O)(=O)[O-])cc4F)c4ccc([nH]4)c(-c4c(F)cc(S(=O)(=O)[O-])cc4F)c4nc(c(-c5c(F)cc(S(=O)(=O)[O-])cc5F)c5ccc2[nH]5)C=C4)C=C3)cc1
REMARK SMILES IDX 7 1 6 2 5 3 4 4 3 5 2 6 1 7 32 8 33 9 97 10 34 11 96 12
REMARK SMILES IDX 35 13 36 14 37 15 90 16 38 17 95 18 89 19 91 20 39 21 94 22
REMARK SMILES IDX 88 23 87 24 40 26 74 27 53 28 73 29 54 30 57 31 72 32 92 33
REMARK SMILES IDX 55 34 56 35 71 37 93 38 58 39 41 40 42 41 51 42 43 43 44 44
REMARK SMILES IDX 50 45 52 46 45 47 46 48 47 49 48 50 49 51 75 52 76 53 85 54
REMARK SMILES IDX 77 55 78 56 84 57 86 58 79 59 80 60 81 61 82 62 83 63 59 64
REMARK SMILES IDX 60 65 69 66 61 67 62 68 68 69 70 70 63 71 64 72 65 73 66 74
REMARK SMILES IDX 67 75 8 76 9 77 10 78 11 79 12 80 13 81 30 82 27 83 29 84
REMARK SMILES IDX 31 85 28 86 14 87 15 88 16 89 17 91 18 92 22 93 19 94 21 95
REMARK SMILES IDX 20 96 23 97 24 98 25 99 26 100
REMARK H PARENT 91 25 57 36 16 90
REMARK Flexibility Score: inf
ROOT
ATOM      1  C   UNL     1       1.920   2.540  -2.650  1.00  0.00     0.202 C 
ENDROOT
BRANCH   1   2
ATOM      2  O   UNL     1       2.133   2.785  -1.250  1.00  0.00    -0.374 OA
BRANCH   2   3
ATOM      3  C   UNL     1       2.997   1.859  -0.616  1.00  0.00     0.202 C 
BRANCH   3   4
ATOM      4  C   UNL     1       2.340   0.716   0.190  1.00  0.00     0.261 C 
BRANCH   4   5
ATOM      5  O   UNL     1       0.963   0.966   0.571  1.00  0.00    -0.460 OA
BRANCH   5   6
ATOM      6  C   UNL     1       0.557   1.053   1.874  1.00  0.00     0.338 C 
ATOM      7  O   UNL     1      -0.546   0.714   2.248  1.00  0.00    -0.246 OA
BRANCH   6   8
ATOM      8  C   UNL     1       1.568   1.598   2.806  1.00  0.00     0.060 A 
ATOM      9  C   UNL     1       2.437   2.550   2.312  1.00  0.00     0.016 A 
ATOM     10  C   UNL     1       1.750   1.096   4.091  1.00  0.00     0.016 A 
ATOM     11  C   UNL     1       3.678   2.668   2.890  1.00  0.00     0.010 A 
ATOM     12  C   UNL     1       2.863   1.522   4.829  1.00  0.00     0.010 A 
ATOM     13  C   UNL     1       3.869   2.291   4.216  1.00  0.00    -0.014 A 
BRANCH  13  14
ATOM     14  C   UNL     1       5.088   2.777   4.924  1.00  0.00     0.031 A 
ATOM     15  C   UNL     1       5.859   1.856   5.826  1.00  0.00     0.074 A 
ATOM     16  C   UNL     1       5.506   4.054   4.746  1.00  0.00     0.049 A 
ATOM     17  N   UNL     1       6.685   2.159   6.789  1.00  0.00    -0.248 NA
ATOM     18  C   UNL     1       5.646   0.409   5.654  1.00  0.00     0.031 C 
ATOM     19  C   UNL     1       4.892   5.048   3.852  1.00  0.00     0.029 A 
ATOM     20  N   UNL     1       6.566   4.742   5.279  1.00  0.00    -0.354 N 
ATOM     21  C   UNL     1       6.989   0.959   7.422  1.00  0.00     0.074 A 
ATOM     22  C   UNL     1       6.304  -0.087   6.695  1.00  0.00     0.031 C 
ATOM     23  C   UNL     1       5.654   6.142   3.787  1.00  0.00     0.029 A 
ATOM     24  C   UNL     1       6.669   6.036   4.814  1.00  0.00     0.049 A 
ATOM     25  H   UNL     1       7.193   4.351   5.930  1.00  0.00     0.167 HD
ATOM     26  C   UNL     1       7.738   0.781   8.537  1.00  0.00     0.037 A 
ATOM     27  C   UNL     1       7.409   7.074   5.239  1.00  0.00     0.037 A 
ATOM     28  C   UNL     1       8.454   1.859   9.174  1.00  0.00     0.049 A 
ATOM     29  C   UNL     1       8.233   6.857   6.468  1.00  0.00     0.074 A 
ATOM     30  C   UNL     1       9.213   1.839  10.329  1.00  0.00     0.029 A 
ATOM     31  N   UNL     1       8.517   3.156   8.675  1.00  0.00    -0.354 N 
ATOM     32  N   UNL     1       8.379   5.759   7.171  1.00  0.00    -0.248 NA
ATOM     33  C   UNL     1       8.946   8.023   6.995  1.00  0.00     0.031 C 
ATOM     34  C   UNL     1       9.720   3.129  10.537  1.00  0.00     0.029 A 
ATOM     35  C   UNL     1       9.311   3.943   9.490  1.00  0.00     0.049 A 
ATOM     36  H   UNL     1       8.063   3.470   7.861  1.00  0.00     0.167 HD
ATOM     37  C   UNL     1       9.204   6.097   8.229  1.00  0.00     0.074 A 
ATOM     38  C   UNL     1       9.544   7.499   8.056  1.00  0.00     0.031 C 
ATOM     39  C   UNL     1       9.634   5.329   9.260  1.00  0.00     0.037 A 
BRANCH  26  40
ATOM     40  C   UNL     1       7.734  -0.585   9.171  1.00  0.00     0.058 A 
ATOM     41  C   UNL     1       8.377  -1.692   8.599  1.00  0.00     0.135 A 
ATOM     42  C   UNL     1       7.033  -0.793  10.374  1.00  0.00     0.135 A 
ATOM     43  F   UNL     1       9.045  -1.562   7.442  1.00  0.00    -0.206 F 
ATOM     44  C   UNL     1       8.290  -2.962   9.168  1.00  0.00     0.059 A 
ATOM     45  C   UNL     1       6.953  -2.047  10.973  1.00  0.00     0.059 A 
ATOM     46  F   UNL     1       6.396   0.228  10.970  1.00  0.00    -0.206 F 
ATOM     47  C   UNL     1       7.564  -3.132  10.349  1.00  0.00     0.060 A 
BRANCH  47  48
ATOM     48  S   UNL     1       7.412  -4.791  11.048  1.00  0.00     0.124 S 
ATOM     49  O   UNL     1       6.439  -5.397  10.145  1.00  0.00    -0.237 OA
ATOM     50  O   UNL     1       8.775  -5.302  10.945  1.00  0.00    -0.237 OA
ATOM     51  O   UNL     1       6.939  -4.545  12.407  1.00  0.00    -0.744 OA
ENDBRANCH  47  48
ENDBRANCH  26  40
BRANCH  27  52
ATOM     52  C   UNL     1       7.306   8.403   4.572  1.00  0.00     0.058 A 
ATOM     53  C   UNL     1       8.393   8.934   3.866  1.00  0.00     0.135 A 
ATOM     54  C   UNL     1       6.110   9.144   4.575  1.00  0.00     0.135 A 
ATOM     55  F   UNL     1       9.559   8.272   3.835  1.00  0.00    -0.206 F 
ATOM     56  C   UNL     1       8.304  10.150   3.192  1.00  0.00     0.059 A 
ATOM     57  C   UNL     1       5.984  10.341   3.877  1.00  0.00     0.059 A 
ATOM     58  F   UNL     1       5.028   8.677   5.218  1.00  0.00    -0.206 F 
ATOM     59  C   UNL     1       7.092  10.843   3.199  1.00  0.00     0.060 A 
BRANCH  59  60
ATOM     60  S   UNL     1       6.968  12.391   2.277  1.00  0.00     0.124 S 
ATOM     61  O   UNL     1       7.687  13.309   3.152  1.00  0.00    -0.237 OA
ATOM     62  O   UNL     1       7.630  12.057   1.020  1.00  0.00    -0.237 OA
ATOM     63  O   UNL     1       5.527  12.608   2.178  1.00  0.00    -0.744 OA
ENDBRANCH  59  60
ENDBRANCH  27  52
BRANCH  39  64
ATOM     64  C   UNL     1      10.569   5.989  10.224  1.00  0.00     0.058 A 
ATOM     65  C   UNL     1      10.112   6.900  11.187  1.00  0.00     0.135 A 
ATOM     66  C   UNL     1      11.939   5.691  10.181  1.00  0.00     0.135 A 
ATOM     67  F   UNL     1       8.812   7.226  11.248  1.00  0.00    -0.206 F 
ATOM     68  C   UNL     1      10.992   7.513  12.069  1.00  0.00     0.059 A 
ATOM     69  C   UNL     1      12.832   6.274  11.069  1.00  0.00     0.059 A 
ATOM     70  F   UNL     1      12.415   4.824   9.273  1.00  0.00    -0.206 F 
ATOM     71  C   UNL     1      12.350   7.194  12.001  1.00  0.00     0.060 A 
BRANCH  71  72
ATOM     72  S   UNL     1      13.483   7.971  13.168  1.00  0.00     0.124 S 
ATOM     73  O   UNL     1      13.636   9.300  12.586  1.00  0.00    -0.237 OA
ATOM     74  O   UNL     1      12.735   7.909  14.420  1.00  0.00    -0.237 OA
ATOM     75  O   UNL     1      14.666   7.118  13.109  1.00  0.00    -0.744 OA
ENDBRANCH  71  72
ENDBRANCH  39  64
ENDBRANCH  13  14
ENDBRANCH   6   8
ENDBRANCH   5   6
ENDBRANCH   4   5
ENDBRANCH   3   4
ENDBRANCH   2   3
ENDBRANCH   1   2
BRANCH   1  76
ATOM     76  C   UNL     1       3.179   2.651  -3.554  1.00  0.00     0.261 C 
BRANCH  76  77
ATOM     77  O   UNL     1       3.667   1.360  -4.063  1.00  0.00    -0.463 OA
BRANCH  77  78
ATOM     78  C   UNL     1       5.035   1.205  -4.115  1.00  0.00     0.310 C 
ATOM     79  O   UNL     1       5.807   2.080  -3.734  1.00  0.00    -0.252 OA
BRANCH  78  80
ATOM     80  C   UNL     1       5.509  -0.061  -4.883  1.00  0.00     0.119 C 
ATOM     81  C   UNL     1       5.535  -1.651  -4.640  1.00  0.00     0.100 C 
ATOM     82  C   UNL     1       7.005   0.187  -5.290  1.00  0.00     0.027 C 
ATOM     83  C   UNL     1       7.006  -2.022  -5.013  1.00  0.00     0.025 C 
ATOM     84  C   UNL     1       7.902  -0.123  -4.112  1.00  0.00    -0.027 C 
ATOM     85  C   UNL     1       7.301  -1.045  -6.144  1.00  0.00     0.017 C 
ATOM     86  C   UNL     1       7.918  -1.453  -3.960  1.00  0.00    -0.027 C 
BRANCH  81  87
ATOM     87  C   UNL     1       5.121  -2.769  -3.630  1.00  0.00     0.229 C 
ATOM     88  O   UNL     1       4.490  -3.740  -4.082  1.00  0.00    -0.274 OA
ATOM     89  N   UNL     1       5.485  -2.880  -2.322  1.00  0.00    -0.323 N 
ATOM     90  H   UNL     1       5.522  -3.798  -1.967  1.00  0.00     0.170 HD
BRANCH  89  91
ATOM     91  C   UNL     1       5.811  -1.874  -1.420  1.00  0.00     0.084 A 
ATOM     92  C   UNL     1       6.701  -2.124  -0.370  1.00  0.00     0.030 A 
ATOM     93  C   UNL     1       5.280  -0.616  -1.572  1.00  0.00     0.149 A 
ATOM     94  C   UNL     1       7.256  -1.056   0.342  1.00  0.00     0.002 A 
ATOM     95  C   UNL     1       5.948   0.460  -0.971  1.00  0.00     0.049 A 
ATOM     96  C   UNL     1       6.938   0.246  -0.017  1.00  0.00     0.004 A 
BRANCH  93  97
ATOM     97  O   UNL     1       4.157  -0.359  -2.298  1.00  0.00    -0.433 OA
BRANCH  97  98
ATOM     98  C   UNL     1       3.049  -1.260  -2.432  1.00  0.00     0.542 C 
ATOM     99  F   UNL     1       2.976  -2.113  -1.388  1.00  0.00    -0.167 F 
ATOM    100  F   UNL     1       1.916  -0.513  -2.417  1.00  0.00    -0.167 F 
ENDBRANCH  97  98
ENDBRANCH  93  97
ENDBRANCH  89  91
ENDBRANCH  81  87
ENDBRANCH  78  80
ENDBRANCH  77  78
ENDBRANCH  76  77
ENDBRANCH   1  76
TORSDOF 21
