REMARK SMILES CCC[NH2+][C@@]1(C(=O)OCCOCCOC(=O)c2ccc(-c3c4nc(c(-c5c(F)cc(S(=O)(=O)[O-])cc5F)c5ccc([nH]5)c(-c5c(F)cc(S(=O)(=O)[O-])cc5F)c5nc(c(-c6c(F)cc(S(=O)(=O)[O-])cc6F)c6ccc3[nH]6)C=C5)C=C4)cc2)CC[C@H]([N@@H+]2CCC[C@@H]2C)C1
REMARK SMILES IDX 11 1 10 2 9 3 8 4 6 5 7 6 5 7 83 8 92 9 84 10 85 11 4 12
REMARK SMILES IDX 3 15 2 16 1 17 86 18 87 19 90 20 88 22 89 23 91 24 12 25
REMARK SMILES IDX 13 26 14 27 15 28 16 29 17 30 18 31 82 32 19 33 81 34 20 35
REMARK SMILES IDX 21 36 22 37 75 38 23 39 80 40 74 41 76 42 24 43 79 44 73 45
REMARK SMILES IDX 72 46 25 48 59 49 38 50 58 51 39 52 42 53 57 54 77 55 40 56
REMARK SMILES IDX 41 57 56 59 78 60 43 61 26 62 27 63 36 64 28 65 29 66 35 67
REMARK SMILES IDX 37 68 30 69 31 70 32 71 33 72 34 73 60 74 61 75 70 76 62 77
REMARK SMILES IDX 63 78 69 79 71 80 64 81 65 82 66 83 67 84 68 85 44 86 45 87
REMARK SMILES IDX 54 88 46 89 47 90 53 91 55 92 48 93 49 94 50 95 51 96 52 97
REMARK H PARENT 4 13 4 14 86 21 76 47 42 58
REMARK Flexibility Score: inf
ROOT
ATOM      1  O   UNL     1      -1.208   1.779   5.816  1.00  0.00    -0.374 OA
ENDROOT
BRANCH   1   2
ATOM      2  C   UNL     1      -0.103   2.375   6.504  1.00  0.00     0.202 C 
BRANCH   2   3
ATOM      3  C   UNL     1       1.252   2.178   5.810  1.00  0.00     0.261 C 
BRANCH   3   4
ATOM      4  O   UNL     1       1.184   2.809   4.522  1.00  0.00    -0.459 OA
BRANCH   4   5
ATOM      5  C   UNL     1       2.159   2.580   3.627  1.00  0.00     0.368 C 
ATOM      6  O   UNL     1       3.124   1.855   3.851  1.00  0.00    -0.245 OA
BRANCH   5   7
ATOM      7  C   UNL     1       1.847   3.242   2.236  1.00  0.00     0.200 C 
ATOM      8  C   UNL     1       3.180   3.833   1.740  1.00  0.00     0.087 C 
ATOM      9  C   UNL     1       0.937   4.514   2.205  1.00  0.00     0.146 C 
ATOM     10  C   UNL     1       3.264   5.188   2.458  1.00  0.00     0.072 C 
ATOM     11  C   UNL     1       1.852   5.767   2.319  1.00  0.00     0.191 C 
BRANCH   7  12
ATOM     12  N   UNL     1       1.231   2.259   1.287  1.00  0.00    -0.332 N 
ATOM     13  H   UNL     1       0.264   2.545   1.133  1.00  0.00     0.347 HD
ATOM     14  H   UNL     1       1.825   2.284   0.458  1.00  0.00     0.347 HD
BRANCH  12  15
ATOM     15  C   UNL     1       1.216   0.856   1.702  1.00  0.00     0.261 C 
BRANCH  15  16
ATOM     16  C   UNL     1       0.482  -0.047   0.702  1.00  0.00     0.058 C 
ATOM     17  C   UNL     1       1.114  -0.077  -0.681  1.00  0.00     0.010 C 
ENDBRANCH  15  16
ENDBRANCH  12  15
ENDBRANCH   7  12
BRANCH  11  18
ATOM     18  N   UNL     1       1.476   6.903   3.166  1.00  0.00    -0.330 N 
ATOM     19  C   UNL     1       2.353   8.085   3.070  1.00  0.00     0.262 C 
ATOM     20  C   UNL     1       1.026   6.803   4.556  1.00  0.00     0.181 C 
ATOM     21  H   UNL     1       0.589   6.971   2.667  1.00  0.00     0.348 HD
ATOM     22  C   UNL     1       2.288   8.787   4.422  1.00  0.00     0.067 C 
ATOM     23  C   UNL     1       1.991   7.657   5.365  1.00  0.00     0.070 C 
ATOM     24  C   UNL     1       0.934   5.469   5.227  1.00  0.00     0.075 C 
ENDBRANCH  11  18
ENDBRANCH   5   7
ENDBRANCH   4   5
ENDBRANCH   3   4
ENDBRANCH   2   3
ENDBRANCH   1   2
BRANCH   1  25
ATOM     25  C   UNL     1      -1.681   2.453   4.646  1.00  0.00     0.202 C 
BRANCH  25  26
ATOM     26  C   UNL     1      -2.712   3.567   4.872  1.00  0.00     0.261 C 
BRANCH  26  27
ATOM     27  O   UNL     1      -2.178   4.725   5.543  1.00  0.00    -0.460 OA
BRANCH  27  28
ATOM     28  C   UNL     1      -2.481   4.827   6.859  1.00  0.00     0.338 C 
ATOM     29  O   UNL     1      -3.164   4.048   7.508  1.00  0.00    -0.246 OA
BRANCH  28  30
ATOM     30  C   UNL     1      -1.743   5.949   7.489  1.00  0.00     0.060 A 
ATOM     31  C   UNL     1      -1.140   5.702   8.727  1.00  0.00     0.016 A 
ATOM     32  C   UNL     1      -1.664   7.225   6.922  1.00  0.00     0.016 A 
ATOM     33  C   UNL     1      -0.525   6.739   9.433  1.00  0.00     0.010 A 
ATOM     34  C   UNL     1      -1.023   8.261   7.624  1.00  0.00     0.010 A 
ATOM     35  C   UNL     1      -0.500   8.040   8.913  1.00  0.00    -0.014 A 
BRANCH  35  36
ATOM     36  C   UNL     1      -0.123   9.168   9.818  1.00  0.00     0.031 A 
ATOM     37  C   UNL     1      -1.214  10.073  10.345  1.00  0.00     0.074 A 
ATOM     38  C   UNL     1       1.140   9.335  10.261  1.00  0.00     0.049 A 
ATOM     39  N   UNL     1      -1.144  11.029  11.237  1.00  0.00    -0.248 NA
ATOM     40  C   UNL     1      -2.562   9.876   9.789  1.00  0.00     0.031 C 
ATOM     41  C   UNL     1       2.298   8.543   9.847  1.00  0.00     0.029 A 
ATOM     42  N   UNL     1       1.656  10.222  11.179  1.00  0.00    -0.354 N 
ATOM     43  C   UNL     1      -2.433  11.538  11.351  1.00  0.00     0.074 A 
ATOM     44  C   UNL     1      -3.251  10.832  10.390  1.00  0.00     0.031 C 
ATOM     45  C   UNL     1       3.382   8.966  10.522  1.00  0.00     0.029 A 
ATOM     46  C   UNL     1       3.004  10.066  11.409  1.00  0.00     0.049 A 
ATOM     47  H   UNL     1       1.110  10.906  11.629  1.00  0.00     0.167 HD
ATOM     48  C   UNL     1      -2.912  12.482  12.196  1.00  0.00     0.037 A 
ATOM     49  C   UNL     1       3.837  10.724  12.244  1.00  0.00     0.037 A 
ATOM     50  C   UNL     1      -2.116  13.183  13.167  1.00  0.00     0.049 A 
ATOM     51  C   UNL     1       3.289  11.800  13.153  1.00  0.00     0.074 A 
ATOM     52  C   UNL     1      -2.521  14.135  14.087  1.00  0.00     0.029 A 
ATOM     53  N   UNL     1      -0.751  13.015  13.343  1.00  0.00    -0.354 N 
ATOM     54  N   UNL     1       2.055  12.224  13.284  1.00  0.00    -0.248 NA
ATOM     55  C   UNL     1       4.250  12.474  14.040  1.00  0.00     0.031 C 
ATOM     56  C   UNL     1      -1.393  14.579  14.785  1.00  0.00     0.029 A 
ATOM     57  C   UNL     1      -0.294  13.863  14.340  1.00  0.00     0.049 A 
ATOM     58  H   UNL     1      -0.189  12.385  12.836  1.00  0.00     0.167 HD
ATOM     59  C   UNL     1       2.088  13.191  14.287  1.00  0.00     0.074 A 
ATOM     60  C   UNL     1       3.460  13.275  14.740  1.00  0.00     0.031 C 
ATOM     61  C   UNL     1       1.073  13.941  14.788  1.00  0.00     0.037 A 
BRANCH  48  62
ATOM     62  C   UNL     1      -4.377  12.816  12.099  1.00  0.00     0.058 A 
ATOM     63  C   UNL     1      -5.369  11.912  12.513  1.00  0.00     0.135 A 
ATOM     64  C   UNL     1      -4.792  14.060  11.599  1.00  0.00     0.135 A 
ATOM     65  F   UNL     1      -5.029  10.700  12.980  1.00  0.00    -0.206 F 
ATOM     66  C   UNL     1      -6.722  12.216  12.402  1.00  0.00     0.059 A 
ATOM     67  C   UNL     1      -6.139  14.398  11.509  1.00  0.00     0.059 A 
ATOM     68  F   UNL     1      -3.886  14.961  11.188  1.00  0.00    -0.206 F 
ATOM     69  C   UNL     1      -7.097  13.462  11.898  1.00  0.00     0.060 A 
BRANCH  69  70
ATOM     70  S   UNL     1      -8.856  13.841  11.759  1.00  0.00     0.124 S 
ATOM     71  O   UNL     1      -9.248  12.998  10.634  1.00  0.00    -0.237 OA
ATOM     72  O   UNL     1      -9.367  13.434  13.064  1.00  0.00    -0.237 OA
ATOM     73  O   UNL     1      -8.875  15.278  11.501  1.00  0.00    -0.744 OA
ENDBRANCH  69  70
ENDBRANCH  48  62
BRANCH  49  74
ATOM     74  C   UNL     1       5.288  10.384  12.281  1.00  0.00     0.058 A 
ATOM     75  C   UNL     1       5.868   9.778  13.407  1.00  0.00     0.135 A 
ATOM     76  C   UNL     1       6.130  10.689  11.201  1.00  0.00     0.135 A 
ATOM     77  F   UNL     1       5.111   9.481  14.474  1.00  0.00    -0.206 F 
ATOM     78  C   UNL     1       7.232   9.505  13.469  1.00  0.00     0.059 A 
ATOM     79  C   UNL     1       7.492  10.401  11.229  1.00  0.00     0.059 A 
ATOM     80  F   UNL     1       5.627  11.264  10.098  1.00  0.00    -0.206 F 
ATOM     81  C   UNL     1       8.036   9.819  12.372  1.00  0.00     0.060 A 
BRANCH  81  82
ATOM     82  S   UNL     1       9.797   9.420  12.444  1.00  0.00     0.124 S 
ATOM     83  O   UNL     1      10.289  10.424  13.380  1.00  0.00    -0.237 OA
ATOM     84  O   UNL     1       9.779   8.045  12.931  1.00  0.00    -0.237 OA
ATOM     85  O   UNL     1      10.233   9.580  11.059  1.00  0.00    -0.744 OA
ENDBRANCH  81  82
ENDBRANCH  49  74
BRANCH  61  86
ATOM     86  C   UNL     1       1.397  14.896  15.908  1.00  0.00     0.058 A 
ATOM     87  C   UNL     1       2.165  16.053  15.700  1.00  0.00     0.135 A 
ATOM     88  C   UNL     1       0.906  14.666  17.205  1.00  0.00     0.135 A 
ATOM     89  F   UNL     1       2.660  16.324  14.481  1.00  0.00    -0.206 F 
ATOM     90  C   UNL     1       2.472  16.923  16.742  1.00  0.00     0.059 A 
ATOM     91  C   UNL     1       1.172  15.540  18.256  1.00  0.00     0.059 A 
ATOM     92  F   UNL     1       0.150  13.586  17.460  1.00  0.00    -0.206 F 
ATOM     93  C   UNL     1       1.974  16.655  18.019  1.00  0.00     0.060 A 
BRANCH  93  94
ATOM     94  S   UNL     1       2.380  17.789  19.364  1.00  0.00     0.124 S 
ATOM     95  O   UNL     1       3.776  17.452  19.620  1.00  0.00    -0.237 OA
ATOM     96  O   UNL     1       2.144  19.095  18.756  1.00  0.00    -0.237 OA
ATOM     97  O   UNL     1       1.440  17.416  20.418  1.00  0.00    -0.744 OA
ENDBRANCH  93  94
ENDBRANCH  61  86
ENDBRANCH  35  36
ENDBRANCH  28  30
ENDBRANCH  27  28
ENDBRANCH  26  27
ENDBRANCH  25  26
ENDBRANCH   1  25
TORSDOF 21
