REMARK SMILES O=C(Cc1cncnc1N1CCC2(CC1)OCCC[C@@H]2O)OCCOCCOC(=O)c1ccc(-c2c3nc(c(-c4c(F)cc(S(=O)(=O)[O-])cc4F)c4ccc([nH]4)c(-c4c(F)cc(S(=O)(=O)[O-])cc4F)c4nc(c(-c5c(F)cc(S(=O)(=O)[O-])cc5F)c5ccc2[nH]5)C=C4)C=C3)cc1
REMARK SMILES IDX 25 1 24 2 23 3 22 4 2 5 1 6 3 7 4 8 5 9 9 10 6 11 8 12 7 13
REMARK SMILES IDX 10 14 11 15 15 16 12 17 14 18 13 19 16 20 20 21 17 22 19 23
REMARK SMILES IDX 18 24 21 25 26 27 27 28 28 29 29 30 30 31 31 32 32 33 96 34
REMARK SMILES IDX 33 35 95 36 34 37 35 38 36 39 89 40 37 41 94 42 88 43 90 44
REMARK SMILES IDX 38 45 93 46 87 47 86 48 39 50 73 51 52 52 72 53 53 54 56 55
REMARK SMILES IDX 71 56 91 57 54 58 55 59 70 61 92 62 57 63 40 64 41 65 50 66
REMARK SMILES IDX 42 67 43 68 49 69 51 70 44 71 45 72 46 73 47 74 48 75 74 76
REMARK SMILES IDX 75 77 84 78 76 79 77 80 83 81 85 82 78 83 79 84 80 85 81 86
REMARK SMILES IDX 82 87 58 88 59 89 68 90 60 91 61 92 67 93 69 94 62 95 63 96
REMARK SMILES IDX 64 97 65 98 66 99
REMARK H PARENT 21 26 90 49 56 60
REMARK Flexibility Score: inf
ROOT
ATOM      1  O   UNL     1       4.524  -2.836  -0.251  1.00  0.00    -0.374 OA
ENDROOT
BRANCH   1   2
ATOM      2  C   UNL     1       5.096  -1.657   0.290  1.00  0.00     0.202 C 
BRANCH   2   3
ATOM      3  C   UNL     1       4.238  -0.398   0.463  1.00  0.00     0.261 C 
BRANCH   3   4
ATOM      4  O   UNL     1       2.836  -0.559   0.213  1.00  0.00    -0.463 OA
BRANCH   4   5
ATOM      5  C   UNL     1       2.238  -0.553  -1.000  1.00  0.00     0.310 C 
ATOM      6  O   UNL     1       1.047  -0.865  -1.088  1.00  0.00    -0.252 OA
BRANCH   5   7
ATOM      7  C   UNL     1       3.053  -0.298  -2.237  1.00  0.00     0.163 C 
BRANCH   7   8
ATOM      8  C   UNL     1       3.762   1.018  -2.357  1.00  0.00     0.024 A 
ATOM      9  C   UNL     1       4.955   1.077  -3.055  1.00  0.00     0.121 A 
ATOM     10  C   UNL     1       3.292   2.229  -1.854  1.00  0.00     0.135 A 
ATOM     11  N   UNL     1       5.668   2.198  -3.227  1.00  0.00    -0.244 NA
ATOM     12  N   UNL     1       3.982   3.371  -2.002  1.00  0.00    -0.219 NA
ATOM     13  C   UNL     1       5.140   3.298  -2.674  1.00  0.00     0.224 A 
BRANCH  10  14
ATOM     14  N   UNL     1       2.065   2.268  -1.214  1.00  0.00    -0.356 N 
ATOM     15  C   UNL     1       0.994   2.904  -1.966  1.00  0.00     0.121 C 
ATOM     16  C   UNL     1       2.041   2.633   0.202  1.00  0.00     0.121 C 
ATOM     17  C   UNL     1      -0.307   2.256  -1.515  1.00  0.00     0.060 C 
ATOM     18  C   UNL     1       0.779   2.026   0.821  1.00  0.00     0.060 C 
ATOM     19  C   UNL     1      -0.521   2.311   0.022  1.00  0.00     0.097 C 
ATOM     20  O   UNL     1      -0.926   3.639   0.422  1.00  0.00    -0.372 OA
ATOM     21  C   UNL     1      -1.597   1.249   0.420  1.00  0.00     0.146 C 
ATOM     22  C   UNL     1      -2.235   4.048   0.040  1.00  0.00     0.161 C 
ATOM     23  C   UNL     1      -2.987   1.654  -0.060  1.00  0.00     0.037 C 
ATOM     24  C   UNL     1      -3.317   3.055   0.438  1.00  0.00     0.031 C 
BRANCH  21  25
ATOM     25  O   UNL     1      -1.659   1.074   1.841  1.00  0.00    -0.390 OA
ATOM     26  H   UNL     1      -1.927   1.908   2.257  1.00  0.00     0.211 HD
ENDBRANCH  21  25
ENDBRANCH  10  14
ENDBRANCH   7   8
ENDBRANCH   5   7
ENDBRANCH   4   5
ENDBRANCH   3   4
ENDBRANCH   2   3
ENDBRANCH   1   2
BRANCH   1  27
ATOM     27  C   UNL     1       3.328  -3.381   0.292  1.00  0.00     0.202 C 
BRANCH  27  28
ATOM     28  C   UNL     1       3.135  -3.601   1.798  1.00  0.00     0.261 C 
BRANCH  28  29
ATOM     29  O   UNL     1       3.523  -2.520   2.653  1.00  0.00    -0.460 OA
BRANCH  29  30
ATOM     30  C   UNL     1       4.657  -2.769   3.352  1.00  0.00     0.338 C 
ATOM     31  O   UNL     1       5.399  -3.727   3.223  1.00  0.00    -0.246 OA
BRANCH  30  32
ATOM     32  C   UNL     1       4.976  -1.658   4.262  1.00  0.00     0.060 A 
ATOM     33  C   UNL     1       6.261  -1.110   4.180  1.00  0.00     0.016 A 
ATOM     34  C   UNL     1       4.114  -1.309   5.304  1.00  0.00     0.016 A 
ATOM     35  C   UNL     1       6.723  -0.278   5.194  1.00  0.00     0.010 A 
ATOM     36  C   UNL     1       4.582  -0.475   6.325  1.00  0.00     0.010 A 
ATOM     37  C   UNL     1       5.909  -0.010   6.302  1.00  0.00    -0.014 A 
BRANCH  37  38
ATOM     38  C   UNL     1       6.533   0.568   7.516  1.00  0.00     0.031 A 
ATOM     39  C   UNL     1       6.980  -0.364   8.613  1.00  0.00     0.074 A 
ATOM     40  C   UNL     1       6.766   1.889   7.606  1.00  0.00     0.049 A 
ATOM     41  N   UNL     1       7.599  -0.093   9.732  1.00  0.00    -0.248 NA
ATOM     42  C   UNL     1       6.691  -1.795   8.419  1.00  0.00     0.031 C 
ATOM     43  C   UNL     1       6.409   2.879   6.591  1.00  0.00     0.029 A 
ATOM     44  N   UNL     1       7.369   2.621   8.596  1.00  0.00    -0.354 N 
ATOM     45  C   UNL     1       7.768  -1.313  10.377  1.00  0.00     0.074 A 
ATOM     46  C   UNL     1       7.162  -2.324   9.539  1.00  0.00     0.031 C 
ATOM     47  C   UNL     1       6.806   4.093   7.010  1.00  0.00     0.029 A 
ATOM     48  C   UNL     1       7.427   3.966   8.327  1.00  0.00     0.049 A 
ATOM     49  H   UNL     1       7.726   2.220   9.421  1.00  0.00     0.167 HD
ATOM     50  C   UNL     1       8.381  -1.571  11.557  1.00  0.00     0.037 A 
ATOM     51  C   UNL     1       7.925   4.978   9.064  1.00  0.00     0.037 A 
ATOM     52  C   UNL     1       8.991  -0.561  12.383  1.00  0.00     0.049 A 
ATOM     53  C   UNL     1       8.570   4.673  10.390  1.00  0.00     0.074 A 
ATOM     54  C   UNL     1       9.659  -0.717  13.585  1.00  0.00     0.029 A 
ATOM     55  N   UNL     1       9.001   0.795  12.091  1.00  0.00    -0.354 N 
ATOM     56  N   UNL     1       8.747   3.511  10.975  1.00  0.00    -0.248 NA
ATOM     57  C   UNL     1       9.089   5.815  11.154  1.00  0.00     0.031 C 
ATOM     58  C   UNL     1      10.040   0.551  14.039  1.00  0.00     0.029 A 
ATOM     59  C   UNL     1       9.646   1.491  13.099  1.00  0.00     0.049 A 
ATOM     60  H   UNL     1       8.608   1.202  11.286  1.00  0.00     0.167 HD
ATOM     61  C   UNL     1       9.425   3.780  12.159  1.00  0.00     0.074 A 
ATOM     62  C   UNL     1       9.630   5.213  12.205  1.00  0.00     0.031 C 
ATOM     63  C   UNL     1       9.845   2.919  13.120  1.00  0.00     0.037 A 
BRANCH  50  64
ATOM     64  C   UNL     1       8.395  -2.996  12.035  1.00  0.00     0.058 A 
ATOM     65  C   UNL     1       9.209  -3.971  11.435  1.00  0.00     0.135 A 
ATOM     66  C   UNL     1       7.589  -3.391  13.114  1.00  0.00     0.135 A 
ATOM     67  F   UNL     1       9.986  -3.652  10.388  1.00  0.00    -0.206 F 
ATOM     68  C   UNL     1       9.199  -5.294  11.868  1.00  0.00     0.059 A 
ATOM     69  C   UNL     1       7.580  -4.703  13.579  1.00  0.00     0.059 A 
ATOM     70  F   UNL     1       6.790  -2.501  13.722  1.00  0.00    -0.206 F 
ATOM     71  C   UNL     1       8.377  -5.651  12.938  1.00  0.00     0.060 A 
BRANCH  71  72
ATOM     72  S   UNL     1       8.363  -7.372  13.485  1.00  0.00     0.124 S 
ATOM     73  O   UNL     1       7.568  -8.004  12.437  1.00  0.00    -0.237 OA
ATOM     74  O   UNL     1       9.783  -7.712  13.493  1.00  0.00    -0.237 OA
ATOM     75  O   UNL     1       7.731  -7.306  14.799  1.00  0.00    -0.744 OA
ENDBRANCH  71  72
ENDBRANCH  50  64
BRANCH  51  76
ATOM     76  C   UNL     1       7.848   6.373   8.556  1.00  0.00     0.058 A 
ATOM     77  C   UNL     1       8.998   7.051   8.127  1.00  0.00     0.135 A 
ATOM     78  C   UNL     1       6.622   7.051   8.481  1.00  0.00     0.135 A 
ATOM     79  F   UNL     1      10.195   6.447   8.188  1.00  0.00    -0.206 F 
ATOM     80  C   UNL     1       8.938   8.357   7.651  1.00  0.00     0.059 A 
ATOM     81  C   UNL     1       6.533   8.348   7.988  1.00  0.00     0.059 A 
ATOM     82  F   UNL     1       5.491   6.441   8.870  1.00  0.00    -0.206 F 
ATOM     83  C   UNL     1       7.699   8.997   7.583  1.00  0.00     0.060 A 
BRANCH  83  84
ATOM     84  S   UNL     1       7.624  10.673   6.914  1.00  0.00     0.124 S 
ATOM     85  O   UNL     1       8.159  11.456   8.022  1.00  0.00    -0.237 OA
ATOM     86  O   UNL     1       8.475  10.572   5.733  1.00  0.00    -0.237 OA
ATOM     87  O   UNL     1       6.202  10.859   6.638  1.00  0.00    -0.744 OA
ENDBRANCH  83  84
ENDBRANCH  51  76
BRANCH  63  88
ATOM     88  C   UNL     1      10.600   3.502  14.282  1.00  0.00     0.058 A 
ATOM     89  C   UNL     1       9.953   4.233  15.290  1.00  0.00     0.135 A 
ATOM     90  C   UNL     1      11.983   3.295  14.403  1.00  0.00     0.135 A 
ATOM     91  F   UNL     1       8.632   4.461  15.218  1.00  0.00    -0.206 F 
ATOM     92  C   UNL     1      10.658   4.766  16.365  1.00  0.00     0.059 A 
ATOM     93  C   UNL     1      12.704   3.798  15.482  1.00  0.00     0.059 A 
ATOM     94  F   UNL     1      12.646   2.591  13.472  1.00  0.00    -0.206 F 
ATOM     95  C   UNL     1      12.034   4.546  16.450  1.00  0.00     0.060 A 
BRANCH  95  96
ATOM     96  S   UNL     1      12.939   5.228  17.855  1.00  0.00     0.124 S 
ATOM     97  O   UNL     1      13.061   6.631  17.472  1.00  0.00    -0.237 OA
ATOM     98  O   UNL     1      12.042   4.952  18.973  1.00  0.00    -0.237 OA
ATOM     99  O   UNL     1      14.184   4.466  17.858  1.00  0.00    -0.744 OA
ENDBRANCH  95  96
ENDBRANCH  63  88
ENDBRANCH  37  38
ENDBRANCH  30  32
ENDBRANCH  29  30
ENDBRANCH  28  29
ENDBRANCH  27  28
ENDBRANCH   1  27
TORSDOF 20
