REMARK SMILES CCOC(=O)c1c(NC(=O)[C@@H]2[C@@H](C(=O)OCCOCCOC(=O)c3ccc(-c4c5nc(c(-c6c(F)cc(S(=O)(=O)[O-])cc6F)c6ccc([nH]6)c(-c6c(F)cc(S(=O)(=O)[O-])cc6F)c6nc(c(-c7c(F)cc(S(=O)(=O)[O-])cc7F)c7ccc4[nH]7)C=C6)C=C5)cc3)[C@@H]3C=C[C@H]2CC3)sc2c1CCC2
REMARK SMILES IDX 17 1 16 2 15 3 13 4 14 5 12 6 11 7 93 8 90 9 92 10 94 11
REMARK SMILES IDX 91 12 95 13 9 14 8 15 10 17 7 18 6 19 98 20 96 21 97 22
REMARK SMILES IDX 99 23 101 24 100 25 4 26 5 27 3 28 2 29 1 30 18 31 19 32
REMARK SMILES IDX 20 33 21 34 22 35 23 36 24 37 25 38 89 39 26 40 88 41 27 42
REMARK SMILES IDX 28 43 29 44 82 45 30 46 87 47 81 48 83 49 31 50 86 51 80 52
REMARK SMILES IDX 79 53 32 55 66 56 45 57 65 58 46 59 49 60 64 61 84 62 47 63
REMARK SMILES IDX 48 64 63 66 85 67 50 68 33 69 34 70 43 71 35 72 36 73 42 74
REMARK SMILES IDX 44 75 37 76 38 77 39 78 40 79 41 80 67 81 68 82 77 83 69 84
REMARK SMILES IDX 70 85 76 86 78 87 71 88 72 89 73 90 74 91 75 92 51 93 52 94
REMARK SMILES IDX 61 95 53 96 54 97 60 98 62 99 55 100 56 101 57 102 58 103
REMARK SMILES IDX 59 104
REMARK H PARENT 8 16 83 54 49 65
REMARK Flexibility Score: inf
ROOT
ATOM      1  C   UNL     1       9.547   7.383   1.787  1.00  0.00     0.202 C 
ENDROOT
BRANCH   1   2
ATOM      2  C   UNL     1       8.758   6.155   1.315  1.00  0.00     0.261 C 
BRANCH   2   3
ATOM      3  O   UNL     1       7.679   6.406   0.388  1.00  0.00    -0.463 OA
BRANCH   3   4
ATOM      4  C   UNL     1       6.438   6.367   0.940  1.00  0.00     0.310 C 
ATOM      5  O   UNL     1       6.231   6.331   2.151  1.00  0.00    -0.252 OA
BRANCH   4   6
ATOM      6  C   UNL     1       5.279   6.351  -0.048  1.00  0.00     0.119 C 
ATOM      7  C   UNL     1       5.508   5.563  -1.353  1.00  0.00     0.100 C 
ATOM      8  C   UNL     1       5.089   6.461  -2.563  1.00  0.00     0.025 C 
ATOM      9  C   UNL     1       4.604   7.738  -0.343  1.00  0.00     0.026 C 
ATOM     10  C   UNL     1       3.653   6.888  -2.406  1.00  0.00    -0.027 C 
ATOM     11  C   UNL     1       5.889   7.798  -2.481  1.00  0.00     0.009 C 
ATOM     12  C   UNL     1       3.405   7.570  -1.272  1.00  0.00    -0.027 C 
ATOM     13  C   UNL     1       5.474   8.616  -1.238  1.00  0.00     0.009 C 
BRANCH   7  14
ATOM     14  C   UNL     1       5.026   4.075  -1.454  1.00  0.00     0.229 C 
ATOM     15  N   UNL     1       4.181   3.390  -0.611  1.00  0.00    -0.317 N 
ATOM     16  H   UNL     1       4.273   2.411  -0.647  1.00  0.00     0.170 HD
ATOM     17  O   UNL     1       5.568   3.377  -2.330  1.00  0.00    -0.274 OA
BRANCH  15  18
ATOM     18  C   UNL     1       3.229   3.842   0.274  1.00  0.00     0.110 A 
ATOM     19  C   UNL     1       2.529   3.321   1.367  1.00  0.00     0.098 A 
ATOM     20  C   UNL     1       2.001   4.437   2.105  1.00  0.00    -0.017 A 
ATOM     21  S   UNL     1       2.208   5.135  -0.224  1.00  0.00    -0.122 S 
ATOM     22  C   UNL     1       2.164   5.590   1.387  1.00  0.00     0.011 A 
ATOM     23  C   UNL     1       1.250   4.743   3.352  1.00  0.00     0.038 C 
ATOM     24  C   UNL     1       1.834   6.832   2.094  1.00  0.00     0.047 C 
ATOM     25  C   UNL     1       0.861   6.263   3.153  1.00  0.00     0.010 C 
BRANCH  19  26
ATOM     26  C   UNL     1       2.297   1.922   1.605  1.00  0.00     0.341 C 
ATOM     27  O   UNL     1       3.164   1.055   1.605  1.00  0.00    -0.246 OA
BRANCH  26  28
ATOM     28  O   UNL     1       0.953   1.707   1.639  1.00  0.00    -0.462 OA
BRANCH  28  29
ATOM     29  C   UNL     1       0.485   0.371   1.444  1.00  0.00     0.230 C 
ATOM     30  C   UNL     1       0.779  -0.137   0.041  1.00  0.00     0.049 C 
ENDBRANCH  28  29
ENDBRANCH  26  28
ENDBRANCH  19  26
ENDBRANCH  15  18
ENDBRANCH   7  14
ENDBRANCH   4   6
ENDBRANCH   3   4
ENDBRANCH   2   3
ENDBRANCH   1   2
BRANCH   1  31
ATOM     31  O   UNL     1       8.842   8.481   2.353  1.00  0.00    -0.374 OA
BRANCH  31  32
ATOM     32  C   UNL     1       7.964   9.233   1.524  1.00  0.00     0.202 C 
BRANCH  32  33
ATOM     33  C   UNL     1       8.557   9.931   0.309  1.00  0.00     0.261 C 
BRANCH  33  34
ATOM     34  O   UNL     1       9.098   9.008  -0.628  1.00  0.00    -0.460 OA
BRANCH  34  35
ATOM     35  C   UNL     1      10.433   9.142  -0.824  1.00  0.00     0.338 C 
ATOM     36  O   UNL     1      11.247   9.598  -0.039  1.00  0.00    -0.246 OA
BRANCH  35  37
ATOM     37  C   UNL     1      10.694   8.916  -2.247  1.00  0.00     0.060 A 
ATOM     38  C   UNL     1      11.841   9.522  -2.749  1.00  0.00     0.016 A 
ATOM     39  C   UNL     1       9.668   8.458  -3.082  1.00  0.00     0.016 A 
ATOM     40  C   UNL     1      11.841   9.886  -4.073  1.00  0.00     0.010 A 
ATOM     41  C   UNL     1       9.644   8.856  -4.394  1.00  0.00     0.010 A 
ATOM     42  C   UNL     1      10.704   9.627  -4.850  1.00  0.00    -0.014 A 
BRANCH  42  43
ATOM     43  C   UNL     1      10.760   9.988  -6.243  1.00  0.00     0.031 A 
ATOM     44  C   UNL     1      11.695   9.106  -6.971  1.00  0.00     0.074 A 
ATOM     45  C   UNL     1      10.024  10.965  -6.794  1.00  0.00     0.049 A 
ATOM     46  N   UNL     1      12.899   9.405  -7.323  1.00  0.00    -0.248 NA
ATOM     47  C   UNL     1      11.378   7.671  -7.056  1.00  0.00     0.031 C 
ATOM     48  C   UNL     1       8.933  11.743  -6.212  1.00  0.00     0.029 A 
ATOM     49  N   UNL     1      10.079  11.418  -8.072  1.00  0.00    -0.354 N 
ATOM     50  C   UNL     1      13.399   8.256  -7.913  1.00  0.00     0.074 A 
ATOM     51  C   UNL     1      12.536   7.181  -7.502  1.00  0.00     0.031 C 
ATOM     52  C   UNL     1       8.292  12.412  -7.199  1.00  0.00     0.029 A 
ATOM     53  C   UNL     1       8.996  12.201  -8.453  1.00  0.00     0.049 A 
ATOM     54  H   UNL     1      10.825  11.210  -8.680  1.00  0.00     0.167 HD
ATOM     55  C   UNL     1      14.307   8.341  -8.921  1.00  0.00     0.037 A 
ATOM     56  C   UNL     1       8.691  12.543  -9.733  1.00  0.00     0.037 A 
ATOM     57  C   UNL     1      14.909   9.653  -8.965  1.00  0.00     0.049 A 
ATOM     58  C   UNL     1       9.963  12.443 -10.513  1.00  0.00     0.074 A 
ATOM     59  C   UNL     1      15.645  10.403  -8.067  1.00  0.00     0.029 A 
ATOM     60  N   UNL     1      14.419  10.545  -9.892  1.00  0.00    -0.354 N 
ATOM     61  N   UNL     1      10.982  13.239 -10.315  1.00  0.00    -0.248 NA
ATOM     62  C   UNL     1      10.297  11.161 -11.122  1.00  0.00     0.031 C 
ATOM     63  C   UNL     1      15.174  11.739  -8.224  1.00  0.00     0.029 A 
ATOM     64  C   UNL     1      14.239  11.751  -9.259  1.00  0.00     0.049 A 
ATOM     65  H   UNL     1      14.231  10.353 -10.839  1.00  0.00     0.167 HD
ATOM     66  C   UNL     1      12.098  12.414 -10.351  1.00  0.00     0.074 A 
ATOM     67  C   UNL     1      11.621  11.156 -10.927  1.00  0.00     0.031 C 
ATOM     68  C   UNL     1      13.225  12.713  -9.635  1.00  0.00     0.037 A 
BRANCH  55  69
ATOM     69  C   UNL     1      14.337   7.389 -10.087  1.00  0.00     0.058 A 
ATOM     70  C   UNL     1      15.411   7.457 -10.994  1.00  0.00     0.135 A 
ATOM     71  C   UNL     1      13.230   6.613 -10.504  1.00  0.00     0.135 A 
ATOM     72  F   UNL     1      16.508   8.173 -10.702  1.00  0.00    -0.206 F 
ATOM     73  C   UNL     1      15.357   6.859 -12.252  1.00  0.00     0.059 A 
ATOM     74  C   UNL     1      13.181   5.963 -11.727  1.00  0.00     0.059 A 
ATOM     75  F   UNL     1      12.098   6.527  -9.796  1.00  0.00    -0.206 F 
ATOM     76  C   UNL     1      14.230   6.126 -12.613  1.00  0.00     0.060 A 
BRANCH  76  77
ATOM     77  S   UNL     1      14.114   5.437 -14.270  1.00  0.00     0.124 S 
ATOM     78  O   UNL     1      13.997   6.645 -15.078  1.00  0.00    -0.237 OA
ATOM     79  O   UNL     1      15.375   4.710 -14.380  1.00  0.00    -0.237 OA
ATOM     80  O   UNL     1      12.919   4.602 -14.203  1.00  0.00    -0.744 OA
ENDBRANCH  76  77
ENDBRANCH  55  69
BRANCH  56  81
ATOM     81  C   UNL     1       7.340  12.525 -10.365  1.00  0.00     0.058 A 
ATOM     82  C   UNL     1       7.146  12.961 -11.690  1.00  0.00     0.135 A 
ATOM     83  C   UNL     1       6.260  11.823  -9.789  1.00  0.00     0.135 A 
ATOM     84  F   UNL     1       8.118  13.632 -12.328  1.00  0.00    -0.206 F 
ATOM     85  C   UNL     1       5.987  12.658 -12.418  1.00  0.00     0.059 A 
ATOM     86  C   UNL     1       5.095  11.520 -10.489  1.00  0.00     0.059 A 
ATOM     87  F   UNL     1       6.334  11.318  -8.550  1.00  0.00    -0.206 F 
ATOM     88  C   UNL     1       4.977  11.910 -11.815  1.00  0.00     0.060 A 
BRANCH  88  89
ATOM     89  S   UNL     1       3.578  11.320 -12.799  1.00  0.00     0.124 S 
ATOM     90  O   UNL     1       2.820  12.547 -13.014  1.00  0.00    -0.237 OA
ATOM     91  O   UNL     1       4.239  10.763 -13.974  1.00  0.00    -0.237 OA
ATOM     92  O   UNL     1       2.941  10.338 -11.925  1.00  0.00    -0.744 OA
ENDBRANCH  88  89
ENDBRANCH  56  81
BRANCH  68  93
ATOM     93  C   UNL     1      13.321  14.086  -9.012  1.00  0.00     0.058 A 
ATOM     94  C   UNL     1      12.442  14.579  -8.029  1.00  0.00     0.135 A 
ATOM     95  C   UNL     1      14.427  14.886  -9.332  1.00  0.00     0.135 A 
ATOM     96  F   UNL     1      11.431  13.830  -7.571  1.00  0.00    -0.206 F 
ATOM     97  C   UNL     1      12.614  15.837  -7.447  1.00  0.00     0.059 A 
ATOM     98  C   UNL     1      14.639  16.128  -8.739  1.00  0.00     0.059 A 
ATOM     99  F   UNL     1      15.347  14.443 -10.204  1.00  0.00    -0.206 F 
ATOM    100  C   UNL     1      13.713  16.609  -7.816  1.00  0.00     0.060 A 
BRANCH 100 101
ATOM    101  S   UNL     1      13.952  18.227  -7.049  1.00  0.00     0.124 S 
ATOM    102  O   UNL     1      12.895  19.017  -7.670  1.00  0.00    -0.237 OA
ATOM    103  O   UNL     1      13.775  17.936  -5.629  1.00  0.00    -0.237 OA
ATOM    104  O   UNL     1      15.313  18.590  -7.437  1.00  0.00    -0.744 OA
ENDBRANCH 100 101
ENDBRANCH  68  93
ENDBRANCH  42  43
ENDBRANCH  35  37
ENDBRANCH  34  35
ENDBRANCH  33  34
ENDBRANCH  32  33
ENDBRANCH  31  32
ENDBRANCH   1  31
TORSDOF 22
