REMARK SMILES CC(C)CN(C1CCCC1)S(=O)(=O)c1[nH]ncc1C(=O)OCCOCCOC(=O)c1ccc(-c2c3nc(c(-c4c(F)cc(S(=O)(=O)[O-])cc4F)c4ccc([nH]4)c(-c4c(F)cc(S(=O)(=O)[O-])cc4F)c4nc(c(-c5c(F)cc(S(=O)(=O)[O-])cc5F)c5ccc2[nH]5)C=C4)C=C3)cc1
REMARK SMILES IDX 23 1 22 2 21 3 19 4 20 5 18 6 14 7 15 8 16 9 17 11 11 12
REMARK SMILES IDX 12 13 13 14 5 15 4 16 2 17 1 18 3 19 6 20 7 21 10 22 8 23
REMARK SMILES IDX 9 24 24 25 25 26 26 27 27 28 28 29 29 30 30 31 31 32 95 33
REMARK SMILES IDX 32 34 94 35 33 36 34 37 35 38 88 39 36 40 93 41 87 42 89 43
REMARK SMILES IDX 37 44 92 45 86 46 85 47 38 49 72 50 51 51 71 52 52 53 55 54
REMARK SMILES IDX 70 55 90 56 53 57 54 58 69 60 91 61 56 62 39 63 40 64 49 65
REMARK SMILES IDX 41 66 42 67 48 68 50 69 43 70 44 71 45 72 46 73 47 74 73 75
REMARK SMILES IDX 74 76 83 77 75 78 76 79 82 80 84 81 77 82 78 83 79 84 80 85
REMARK SMILES IDX 81 86 57 87 58 88 67 89 59 90 60 91 66 92 68 93 61 94 62 95
REMARK SMILES IDX 63 96 64 97 65 98
REMARK H PARENT 15 10 89 48 55 59
REMARK Flexibility Score: inf
ROOT
ATOM      1  C   UNL     1       1.418   4.759   1.657  1.00  0.00     0.202 C 
ENDROOT
BRANCH   1   2
ATOM      2  C   UNL     1      -0.063   4.808   2.045  1.00  0.00     0.261 C 
BRANCH   2   3
ATOM      3  O   UNL     1      -0.820   4.166   1.007  1.00  0.00    -0.460 OA
BRANCH   3   4
ATOM      4  C   UNL     1      -1.737   4.900   0.331  1.00  0.00     0.342 C 
ATOM      5  O   UNL     1      -2.171   5.989   0.685  1.00  0.00    -0.246 OA
BRANCH   4   6
ATOM      6  C   UNL     1      -2.017   4.335  -0.975  1.00  0.00     0.118 A 
ATOM      7  C   UNL     1      -1.792   3.037  -1.422  1.00  0.00     0.180 A 
ATOM      8  N   UNL     1      -1.911   3.111  -2.779  1.00  0.00    -0.265 N 
ATOM      9  N   UNL     1      -2.435   4.271  -3.217  1.00  0.00    -0.182 NA
ATOM     10  H   UNL     1      -1.638   2.383  -3.382  1.00  0.00     0.191 HD
ATOM     11  C   UNL     1      -2.479   5.024  -2.115  1.00  0.00     0.152 A 
BRANCH   7  12
ATOM     12  S   UNL     1      -1.222   1.583  -0.632  1.00  0.00     0.261 S 
ATOM     13  O   UNL     1      -1.812   1.628   0.686  1.00  0.00    -0.205 OA
ATOM     14  O   UNL     1       0.197   1.707  -0.864  1.00  0.00    -0.205 OA
BRANCH  12  15
ATOM     15  N   UNL     1      -1.762   0.101  -1.369  1.00  0.00    -0.193 NA
BRANCH  15  16
ATOM     16  C   UNL     1      -1.178  -1.094  -0.571  1.00  0.00     0.106 C 
BRANCH  16  17
ATOM     17  C   UNL     1       0.316  -1.406  -0.775  1.00  0.00    -0.002 C 
ATOM     18  C   UNL     1       1.237  -0.672   0.206  1.00  0.00     0.009 C 
ATOM     19  C   UNL     1       0.544  -2.915  -0.563  1.00  0.00     0.009 C 
ENDBRANCH  16  17
ENDBRANCH  15  16
BRANCH  15  20
ATOM     20  C   UNL     1      -3.282  -0.078  -1.410  1.00  0.00     0.073 C 
ATOM     21  C   UNL     1      -4.011   0.941  -2.280  1.00  0.00     0.020 C 
ATOM     22  C   UNL     1      -3.692  -1.382  -2.125  1.00  0.00     0.020 C 
ATOM     23  C   UNL     1      -5.371   0.320  -2.559  1.00  0.00     0.002 C 
ATOM     24  C   UNL     1      -5.122  -1.176  -2.613  1.00  0.00     0.002 C 
ENDBRANCH  15  20
ENDBRANCH  12  15
ENDBRANCH   7  12
ENDBRANCH   4   6
ENDBRANCH   3   4
ENDBRANCH   2   3
ENDBRANCH   1   2
BRANCH   1  25
ATOM     25  O   UNL     1       1.721   5.663   0.586  1.00  0.00    -0.374 OA
BRANCH  25  26
ATOM     26  C   UNL     1       1.618   5.100  -0.725  1.00  0.00     0.202 C 
BRANCH  26  27
ATOM     27  C   UNL     1       2.946   4.569  -1.269  1.00  0.00     0.261 C 
BRANCH  27  28
ATOM     28  O   UNL     1       3.347   3.381  -0.567  1.00  0.00    -0.460 OA
BRANCH  28  29
ATOM     29  C   UNL     1       4.298   3.564   0.380  1.00  0.00     0.338 C 
ATOM     30  O   UNL     1       4.911   4.592   0.614  1.00  0.00    -0.246 OA
BRANCH  29  31
ATOM     31  C   UNL     1       4.410   2.351   1.218  1.00  0.00     0.060 A 
ATOM     32  C   UNL     1       4.628   2.530   2.588  1.00  0.00     0.016 A 
ATOM     33  C   UNL     1       4.333   1.061   0.684  1.00  0.00     0.016 A 
ATOM     34  C   UNL     1       4.805   1.424   3.418  1.00  0.00     0.010 A 
ATOM     35  C   UNL     1       4.499  -0.048   1.522  1.00  0.00     0.010 A 
ATOM     36  C   UNL     1       4.765   0.126   2.890  1.00  0.00    -0.014 A 
BRANCH  36  37
ATOM     37  C   UNL     1       5.118  -1.023   3.762  1.00  0.00     0.031 A 
ATOM     38  C   UNL     1       6.468  -1.674   3.618  1.00  0.00     0.074 A 
ATOM     39  C   UNL     1       4.267  -1.443   4.718  1.00  0.00     0.049 A 
ATOM     40  N   UNL     1       7.016  -2.613   4.347  1.00  0.00    -0.248 NA
ATOM     41  C   UNL     1       7.308  -1.213   2.501  1.00  0.00     0.031 C 
ATOM     42  C   UNL     1       2.923  -0.914   4.947  1.00  0.00     0.029 A 
ATOM     43  N   UNL     1       4.418  -2.405   5.686  1.00  0.00    -0.354 N 
ATOM     44  C   UNL     1       8.264  -2.850   3.783  1.00  0.00     0.074 A 
ATOM     45  C   UNL     1       8.372  -1.994   2.621  1.00  0.00     0.031 C 
ATOM     46  C   UNL     1       2.380  -1.543   6.004  1.00  0.00     0.029 A 
ATOM     47  C   UNL     1       3.333  -2.522   6.522  1.00  0.00     0.049 A 
ATOM     48  H   UNL     1       5.227  -2.959   5.773  1.00  0.00     0.167 HD
ATOM     49  C   UNL     1       9.244  -3.685   4.205  1.00  0.00     0.037 A 
ATOM     50  C   UNL     1       3.138  -3.317   7.592  1.00  0.00     0.037 A 
ATOM     51  C   UNL     1       9.146  -4.528   5.367  1.00  0.00     0.049 A 
ATOM     52  C   UNL     1       4.245  -4.231   8.049  1.00  0.00     0.074 A 
ATOM     53  C   UNL     1      10.097  -5.386   5.893  1.00  0.00     0.029 A 
ATOM     54  N   UNL     1       8.031  -4.619   6.186  1.00  0.00    -0.354 N 
ATOM     55  N   UNL     1       5.439  -4.404   7.534  1.00  0.00    -0.248 NA
ATOM     56  C   UNL     1       3.982  -5.045   9.245  1.00  0.00     0.031 C 
ATOM     57  C   UNL     1       9.545  -6.019   7.013  1.00  0.00     0.029 A 
ATOM     58  C   UNL     1       8.264  -5.527   7.205  1.00  0.00     0.049 A 
ATOM     59  H   UNL     1       7.196  -4.113   6.060  1.00  0.00     0.167 HD
ATOM     60  C   UNL     1       6.076  -5.330   8.354  1.00  0.00     0.074 A 
ATOM     61  C   UNL     1       5.141  -5.667   9.408  1.00  0.00     0.031 C 
ATOM     62  C   UNL     1       7.322  -5.855   8.245  1.00  0.00     0.037 A 
BRANCH  49  63
ATOM     63  C   UNL     1      10.509  -3.723   3.396  1.00  0.00     0.058 A 
ATOM     64  C   UNL     1      11.429  -2.662   3.422  1.00  0.00     0.135 A 
ATOM     65  C   UNL     1      10.813  -4.834   2.594  1.00  0.00     0.135 A 
ATOM     66  F   UNL     1      11.177  -1.567   4.157  1.00  0.00    -0.206 F 
ATOM     67  C   UNL     1      12.592  -2.688   2.659  1.00  0.00     0.059 A 
ATOM     68  C   UNL     1      11.982  -4.893   1.841  1.00  0.00     0.059 A 
ATOM     69  F   UNL     1       9.966  -5.874   2.531  1.00  0.00    -0.206 F 
ATOM     70  C   UNL     1      12.857  -3.807   1.867  1.00  0.00     0.060 A 
BRANCH  70  71
ATOM     71  S   UNL     1      14.366  -3.828   0.876  1.00  0.00     0.124 S 
ATOM     72  O   UNL     1      14.004  -2.938  -0.222  1.00  0.00    -0.237 OA
ATOM     73  O   UNL     1      15.362  -3.311   1.808  1.00  0.00    -0.237 OA
ATOM     74  O   UNL     1      14.517  -5.235   0.520  1.00  0.00    -0.744 OA
ENDBRANCH  70  71
ENDBRANCH  49  63
BRANCH  50  75
ATOM     75  C   UNL     1       1.849  -3.265   8.331  1.00  0.00     0.058 A 
ATOM     76  C   UNL     1       1.767  -2.683   9.605  1.00  0.00     0.135 A 
ATOM     77  C   UNL     1       0.677  -3.800   7.778  1.00  0.00     0.135 A 
ATOM     78  F   UNL     1       2.865  -2.167  10.179  1.00  0.00    -0.206 F 
ATOM     79  C   UNL     1       0.570  -2.648  10.314  1.00  0.00     0.059 A 
ATOM     80  C   UNL     1      -0.536  -3.758   8.458  1.00  0.00     0.059 A 
ATOM     81  F   UNL     1       0.702  -4.357   6.557  1.00  0.00    -0.206 F 
ATOM     82  C   UNL     1      -0.577  -3.189   9.731  1.00  0.00     0.060 A 
BRANCH  82  83
ATOM     83  S   UNL     1      -2.139  -3.097  10.633  1.00  0.00     0.124 S 
ATOM     84  O   UNL     1      -1.977  -4.167  11.611  1.00  0.00    -0.237 OA
ATOM     85  O   UNL     1      -2.111  -1.737  11.163  1.00  0.00    -0.237 OA
ATOM     86  O   UNL     1      -3.138  -3.335   9.595  1.00  0.00    -0.744 OA
ENDBRANCH  82  83
ENDBRANCH  50  75
BRANCH  62  87
ATOM     87  C   UNL     1       7.748  -6.831   9.306  1.00  0.00     0.058 A 
ATOM     88  C   UNL     1       7.234  -8.136   9.354  1.00  0.00     0.135 A 
ATOM     89  C   UNL     1       8.688  -6.460  10.281  1.00  0.00     0.135 A 
ATOM     90  F   UNL     1       6.331  -8.540   8.447  1.00  0.00    -0.206 F 
ATOM     91  C   UNL     1       7.605  -9.027  10.357  1.00  0.00     0.059 A 
ATOM     92  C   UNL     1       9.092  -7.342  11.278  1.00  0.00     0.059 A 
ATOM     93  F   UNL     1       9.222  -5.228  10.271  1.00  0.00    -0.206 F 
ATOM     94  C   UNL     1       8.528  -8.617  11.320  1.00  0.00     0.060 A 
BRANCH  94  95
ATOM     95  S   UNL     1       8.999  -9.774  12.624  1.00  0.00     0.124 S 
ATOM     96  O   UNL     1       7.865  -9.665  13.535  1.00  0.00    -0.237 OA
ATOM     97  O   UNL     1       9.113 -11.037  11.902  1.00  0.00    -0.237 OA
ATOM     98  O   UNL     1      10.260  -9.228  13.120  1.00  0.00    -0.744 OA
ENDBRANCH  94  95
ENDBRANCH  62  87
ENDBRANCH  36  37
ENDBRANCH  29  31
ENDBRANCH  28  29
ENDBRANCH  27  28
ENDBRANCH  26  27
ENDBRANCH  25  26
ENDBRANCH   1  25
TORSDOF 22
