REMARK SMILES CC1(C)O[C@@H]2C[C@@H]3[C@H]4CCC5=CC(=O)C=C[C@@]5(C)[C@]4(F)[C@H](O)C[C@]3(C)[C@]2(C(=O)OCCOCCOC(=O)c2ccc(-c3c4nc(c(-c5c(F)cc(S(=O)(=O)[O-])cc5F)c5ccc([nH]5)c(-c5c(F)cc(S(=O)(=O)[O-])cc5F)c5nc(c(-c6c(F)cc(S(=O)(=O)[O-])cc6F)c6ccc3[nH]6)C=C5)C=C4)cc2)O1
REMARK SMILES IDX 33 1 32 2 31 3 30 4 29 5 27 6 28 7 26 8 1 9 2 10 4 11 104 12
REMARK SMILES IDX 3 13 5 14 6 15 24 16 7 17 23 18 25 19 8 20 21 21 9 22 19 23
REMARK SMILES IDX 10 24 17 25 20 26 11 27 16 28 18 29 12 30 15 31 13 32 14 33
REMARK SMILES IDX 22 34 34 36 35 37 36 38 37 39 38 40 39 41 103 42 40 43
REMARK SMILES IDX 102 44 41 45 42 46 43 47 96 48 44 49 101 50 95 51 97 52
REMARK SMILES IDX 45 53 100 54 94 55 93 56 46 58 80 59 59 60 79 61 60 62 63 63
REMARK SMILES IDX 78 64 98 65 61 66 62 67 77 69 99 70 64 71 47 72 48 73 57 74
REMARK SMILES IDX 49 75 50 76 56 77 58 78 51 79 52 80 53 81 54 82 55 83 81 84
REMARK SMILES IDX 82 85 91 86 83 87 84 88 90 89 92 90 85 91 86 92 87 93 88 94
REMARK SMILES IDX 89 95 65 96 66 97 75 98 67 99 68 100 74 101 76 102 69 103
REMARK SMILES IDX 70 104 71 105 72 106 73 107
REMARK H PARENT 22 35 97 57 63 68
REMARK Flexibility Score: inf
ROOT
ATOM      1  C   UNL     1      -0.711  -1.063   4.676  1.00  0.00     0.202 C 
ENDROOT
BRANCH   1   2
ATOM      2  O   UNL     1       0.512  -1.329   5.358  1.00  0.00    -0.374 OA
BRANCH   2   3
ATOM      3  C   UNL     1       1.174  -0.266   6.038  1.00  0.00     0.202 C 
BRANCH   3   4
ATOM      4  C   UNL     1       1.914   0.772   5.198  1.00  0.00     0.261 C 
BRANCH   4   5
ATOM      5  O   UNL     1       1.010   1.493   4.350  1.00  0.00    -0.461 OA
BRANCH   5   6
ATOM      6  C   UNL     1       0.984   1.052   3.067  1.00  0.00     0.341 C 
ATOM      7  O   UNL     1       1.662   0.102   2.689  1.00  0.00    -0.249 OA
BRANCH   6   8
ATOM      8  C   UNL     1       0.065   1.872   2.161  1.00  0.00     0.200 C 
ATOM      9  C   UNL     1       1.109  -0.345  -0.008  1.00  0.00     0.075 C 
ATOM     10  C   UNL     1       0.387   1.000   0.003  1.00  0.00     0.165 C 
ATOM     11  O   UNL     1      -0.981   0.706   0.296  1.00  0.00    -0.344 OA
ATOM     12  O   UNL     1       0.916   1.933   0.967  1.00  0.00    -0.329 OA
ATOM     13  C   UNL     1       0.511   1.625  -1.389  1.00  0.00     0.075 C 
ATOM     14  C   UNL     1      -1.278   1.301   1.561  1.00  0.00     0.166 C 
ATOM     15  C   UNL     1      -2.213   2.570   1.234  1.00  0.00     0.040 C 
ATOM     16  C   UNL     1      -0.457   3.264   2.712  1.00  0.00     0.016 C 
ATOM     17  C   UNL     1      -1.185   3.705   1.404  1.00  0.00     0.008 C 
ATOM     18  C   UNL     1       0.439   4.361   3.314  1.00  0.00     0.046 C 
ATOM     19  C   UNL     1      -1.467   3.004   3.905  1.00  0.00     0.015 C 
ATOM     20  C   UNL     1      -0.573   4.857   0.559  1.00  0.00     0.035 C 
ATOM     21  C   UNL     1       1.174   5.257   2.352  1.00  0.00     0.154 C 
ATOM     22  C   UNL     1      -1.510   5.414  -0.505  1.00  0.00     0.012 C 
ATOM     23  C   UNL     1       0.207   5.930   1.327  1.00  0.00     0.152 C 
ATOM     24  C   UNL     1      -0.661   6.120  -1.563  1.00  0.00     0.032 C 
ATOM     25  C   UNL     1       0.967   6.914   0.333  1.00  0.00     0.044 C 
ATOM     26  F   UNL     1      -0.727   6.648   2.031  1.00  0.00    -0.239 F 
ATOM     27  C   UNL     1       0.193   7.209  -0.970  1.00  0.00    -0.053 C 
ATOM     28  C   UNL     1       1.295   8.231   1.038  1.00  0.00    -0.009 C 
ATOM     29  C   UNL     1       2.338   6.342  -0.131  1.00  0.00     0.024 C 
ATOM     30  C   UNL     1       0.370   8.367  -1.635  1.00  0.00     0.052 C 
ATOM     31  C   UNL     1       1.494   9.379   0.374  1.00  0.00     0.048 C 
ATOM     32  C   UNL     1       1.241   9.431  -1.082  1.00  0.00     0.178 C 
ATOM     33  O   UNL     1       1.678  10.329  -1.789  1.00  0.00    -0.290 OA
BRANCH  21  34
ATOM     34  O   UNL     1       2.183   4.438   1.772  1.00  0.00    -0.390 OA
ATOM     35  H   UNL     1       1.770   3.677   1.334  1.00  0.00     0.211 HD
ENDBRANCH  21  34
ENDBRANCH   6   8
ENDBRANCH   5   6
ENDBRANCH   4   5
ENDBRANCH   3   4
ENDBRANCH   2   3
ENDBRANCH   1   2
BRANCH   1  36
ATOM     36  C   UNL     1      -1.972  -0.801   5.502  1.00  0.00     0.261 C 
BRANCH  36  37
ATOM     37  O   UNL     1      -1.893   0.417   6.263  1.00  0.00    -0.460 OA
BRANCH  37  38
ATOM     38  C   UNL     1      -1.715   0.223   7.595  1.00  0.00     0.338 C 
ATOM     39  O   UNL     1      -1.648  -0.846   8.173  1.00  0.00    -0.246 OA
BRANCH  38  40
ATOM     40  C   UNL     1      -1.403   1.500   8.266  1.00  0.00     0.060 A 
ATOM     41  C   UNL     1      -0.251   1.542   9.063  1.00  0.00     0.016 A 
ATOM     42  C   UNL     1      -2.270   2.592   8.213  1.00  0.00     0.016 A 
ATOM     43  C   UNL     1       0.002   2.649   9.868  1.00  0.00     0.010 A 
ATOM     44  C   UNL     1      -2.018   3.700   9.030  1.00  0.00     0.010 A 
ATOM     45  C   UNL     1      -0.907   3.713   9.896  1.00  0.00    -0.014 A 
BRANCH  45  46
ATOM     46  C   UNL     1      -0.780   4.755  10.946  1.00  0.00     0.031 A 
ATOM     47  C   UNL     1      -1.703   4.705  12.136  1.00  0.00     0.074 A 
ATOM     48  C   UNL     1       0.161   5.713  10.858  1.00  0.00     0.049 A 
ATOM     49  N   UNL     1      -1.814   5.543  13.133  1.00  0.00    -0.248 NA
ATOM     50  C   UNL     1      -2.627   3.559  12.211  1.00  0.00     0.031 C 
ATOM     51  C   UNL     1       1.140   5.841   9.779  1.00  0.00     0.029 A 
ATOM     52  N   UNL     1       0.436   6.772  11.688  1.00  0.00    -0.354 N 
ATOM     53  C   UNL     1      -2.831   5.043  13.939  1.00  0.00     0.074 A 
ATOM     54  C   UNL     1      -3.316   3.835  13.310  1.00  0.00     0.031 C 
ATOM     55  C   UNL     1       1.893   6.932  10.001  1.00  0.00     0.029 A 
ATOM     56  C   UNL     1       1.426   7.601  11.214  1.00  0.00     0.049 A 
ATOM     57  H   UNL     1      -0.030   6.924  12.541  1.00  0.00     0.167 HD
ATOM     58  C   UNL     1      -3.312   5.546  15.099  1.00  0.00     0.037 A 
ATOM     59  C   UNL     1       1.877   8.781  11.684  1.00  0.00     0.037 A 
ATOM     60  C   UNL     1      -2.804   6.734  15.736  1.00  0.00     0.049 A 
ATOM     61  C   UNL     1       1.287   9.345  12.954  1.00  0.00     0.074 A 
ATOM     62  C   UNL     1      -3.195   7.293  16.941  1.00  0.00     0.029 A 
ATOM     63  N   UNL     1      -1.807   7.548  15.222  1.00  0.00    -0.354 N 
ATOM     64  N   UNL     1       0.354   8.839  13.727  1.00  0.00    -0.248 NA
ATOM     65  C   UNL     1       1.811  10.637  13.420  1.00  0.00     0.031 C 
ATOM     66  C   UNL     1      -2.481   8.479  17.123  1.00  0.00     0.029 A 
ATOM     67  C   UNL     1      -1.595   8.623  16.068  1.00  0.00     0.049 A 
ATOM     68  H   UNL     1      -1.322   7.385  14.381  1.00  0.00     0.167 HD
ATOM     69  C   UNL     1       0.209   9.732  14.785  1.00  0.00     0.074 A 
ATOM     70  C   UNL     1       1.155  10.803  14.560  1.00  0.00     0.031 C 
ATOM     71  C   UNL     1      -0.631   9.671  15.847  1.00  0.00     0.037 A 
BRANCH  58  72
ATOM     72  C   UNL     1      -4.465   4.844  15.761  1.00  0.00     0.058 A 
ATOM     73  C   UNL     1      -4.305   3.624  16.436  1.00  0.00     0.135 A 
ATOM     74  C   UNL     1      -5.726   5.460  15.810  1.00  0.00     0.135 A 
ATOM     75  F   UNL     1      -3.126   2.983  16.404  1.00  0.00    -0.206 F 
ATOM     76  C   UNL     1      -5.354   3.042  17.140  1.00  0.00     0.059 A 
ATOM     77  C   UNL     1      -6.782   4.910  16.529  1.00  0.00     0.059 A 
ATOM     78  F   UNL     1      -5.934   6.625  15.175  1.00  0.00    -0.206 F 
ATOM     79  C   UNL     1      -6.586   3.699  17.191  1.00  0.00     0.060 A 
BRANCH  79  80
ATOM     80  S   UNL     1      -7.918   2.962  18.161  1.00  0.00     0.124 S 
ATOM     81  O   UNL     1      -8.257   1.795  17.352  1.00  0.00    -0.237 OA
ATOM     82  O   UNL     1      -7.256   2.681  19.431  1.00  0.00    -0.237 OA
ATOM     83  O   UNL     1      -8.931   4.011  18.203  1.00  0.00    -0.744 OA
ENDBRANCH  79  80
ENDBRANCH  58  72
BRANCH  59  84
ATOM     84  C   UNL     1       2.912   9.545  10.934  1.00  0.00     0.058 A 
ATOM     85  C   UNL     1       4.185   9.778  11.474  1.00  0.00     0.135 A 
ATOM     86  C   UNL     1       2.626  10.101   9.676  1.00  0.00     0.135 A 
ATOM     87  F   UNL     1       4.506   9.275  12.677  1.00  0.00    -0.206 F 
ATOM     88  C   UNL     1       5.124  10.566  10.816  1.00  0.00     0.059 A 
ATOM     89  C   UNL     1       3.560  10.864   8.983  1.00  0.00     0.059 A 
ATOM     90  F   UNL     1       1.429   9.897   9.105  1.00  0.00    -0.206 F 
ATOM     91  C   UNL     1       4.799  11.109   9.572  1.00  0.00     0.060 A 
BRANCH  91  92
ATOM     92  S   UNL     1       6.024  12.126   8.720  1.00  0.00     0.124 S 
ATOM     93  O   UNL     1       5.991  13.348   9.514  1.00  0.00    -0.237 OA
ATOM     94  O   UNL     1       7.231  11.315   8.842  1.00  0.00    -0.237 OA
ATOM     95  O   UNL     1       5.485  12.234   7.368  1.00  0.00    -0.744 OA
ENDBRANCH  91  92
ENDBRANCH  59  84
BRANCH  71  96
ATOM     96  C   UNL     1      -0.535  10.757  16.885  1.00  0.00     0.058 A 
ATOM     97  C   UNL     1      -0.985  12.063  16.640  1.00  0.00     0.135 A 
ATOM     98  C   UNL     1      -0.050  10.463  18.171  1.00  0.00     0.135 A 
ATOM     99  F   UNL     1      -1.452  12.400  15.427  1.00  0.00    -0.206 F 
ATOM    100  C   UNL     1      -0.939  13.044  17.625  1.00  0.00     0.059 A 
ATOM    101  C   UNL     1      -0.026  11.419  19.181  1.00  0.00     0.059 A 
ATOM    102  F   UNL     1       0.382   9.226  18.465  1.00  0.00    -0.206 F 
ATOM    103  C   UNL     1      -0.463  12.711  18.895  1.00  0.00     0.060 A 
BRANCH 103 104
ATOM    104  S   UNL     1      -0.453  13.982  20.177  1.00  0.00     0.124 S 
ATOM    105  O   UNL     1       0.637  14.843  19.729  1.00  0.00    -0.237 OA
ATOM    106  O   UNL     1      -1.794  14.547  20.066  1.00  0.00    -0.237 OA
ATOM    107  O   UNL     1      -0.195  13.230  21.401  1.00  0.00    -0.744 OA
ENDBRANCH 103 104
ENDBRANCH  71  96
ENDBRANCH  45  46
ENDBRANCH  38  40
ENDBRANCH  37  38
ENDBRANCH  36  37
ENDBRANCH   1  36
TORSDOF 18
