REMARK SMILES Cc1ccc(-c2cnnc(-n3nc(C)c4c3NC(=O)C[C@@H]4c3ccc(C(=O)OCCOCCOC(=O)c4ccc(-c5c6nc(c(-c7c(F)cc(S(=O)(=O)[O-])cc7F)c7ccc([nH]7)c(-c7c(F)cc(S(=O)(=O)[O-])cc7F)c7nc(c(-c8c(F)cc(S(=O)(=O)[O-])cc8F)c8ccc5[nH]8)C=C7)C=C6)cc4)cc3)n2)cc1
REMARK SMILES IDX 31 1 30 2 29 3 28 4 26 5 27 6 25 7 22 8 23 9 104 10 24 11
REMARK SMILES IDX 103 12 21 13 11 14 12 15 16 16 13 17 15 18 17 19 14 20 18 21
REMARK SMILES IDX 20 23 19 24 10 25 6 26 7 27 105 28 8 29 9 30 5 31 1 32 2 33
REMARK SMILES IDX 3 34 107 35 4 36 106 37 32 38 33 39 34 40 35 41 36 42 37 43
REMARK SMILES IDX 38 44 102 45 39 46 101 47 40 48 41 49 42 50 95 51 43 52
REMARK SMILES IDX 100 53 94 54 96 55 44 56 99 57 93 58 92 59 45 61 79 62 58 63
REMARK SMILES IDX 78 64 59 65 62 66 77 67 97 68 60 69 61 70 76 72 98 73 63 74
REMARK SMILES IDX 46 75 47 76 56 77 48 78 49 79 55 80 57 81 50 82 51 83 52 84
REMARK SMILES IDX 53 85 54 86 80 87 81 88 90 89 82 90 83 91 89 92 91 93 84 94
REMARK SMILES IDX 85 95 86 96 87 97 88 98 64 99 65 100 74 101 66 102 67 103
REMARK SMILES IDX 73 104 75 105 68 106 69 107 70 108 71 109 72 110
REMARK H PARENT 17 22 96 60 62 71
REMARK Flexibility Score: inf
ROOT
ATOM      1  O   UNL     1      -8.673   6.916 -10.669  1.00  0.00    -0.374 OA
ENDROOT
BRANCH   1   2
ATOM      2  C   UNL     1      -9.950   6.497 -11.111  1.00  0.00     0.202 C 
BRANCH   2   3
ATOM      3  C   UNL     1     -10.826   5.827 -10.081  1.00  0.00     0.261 C 
BRANCH   3   4
ATOM      4  O   UNL     1     -10.110   5.026  -9.170  1.00  0.00    -0.460 OA
BRANCH   4   5
ATOM      5  C   UNL     1      -9.946   3.749  -9.540  1.00  0.00     0.338 C 
ATOM      6  O   UNL     1     -10.338   3.215 -10.567  1.00  0.00    -0.246 OA
BRANCH   5   7
ATOM      7  C   UNL     1      -9.135   3.110  -8.497  1.00  0.00     0.060 A 
ATOM      8  C   UNL     1      -7.524   1.857  -6.595  1.00  0.00    -0.040 A 
ATOM      9  C   UNL     1      -7.871   1.205  -7.798  1.00  0.00     0.005 A 
ATOM     10  C   UNL     1      -7.967   3.167  -6.385  1.00  0.00     0.005 A 
ATOM     11  C   UNL     1      -8.659   1.830  -8.751  1.00  0.00     0.016 A 
ATOM     12  C   UNL     1      -8.806   3.771  -7.306  1.00  0.00     0.016 A 
BRANCH   8  13
ATOM     13  C   UNL     1      -6.699   1.063  -5.617  1.00  0.00     0.064 C 
ATOM     14  N   UNL     1      -5.802   2.212  -2.341  1.00  0.00    -0.180 N 
ATOM     15  N   UNL     1      -7.117   2.520  -2.193  1.00  0.00    -0.168 NA
ATOM     16  C   UNL     1      -5.509   2.162  -3.692  1.00  0.00     0.143 A 
ATOM     17  C   UNL     1      -7.675   2.092  -3.334  1.00  0.00     0.066 A 
ATOM     18  C   UNL     1      -6.675   1.701  -4.272  1.00  0.00     0.026 A 
ATOM     19  N   UNL     1      -4.382   2.413  -4.449  1.00  0.00    -0.310 N 
ATOM     20  C   UNL     1      -9.150   2.206  -3.470  1.00  0.00     0.069 C 
ATOM     21  C   UNL     1      -4.385   1.996  -5.819  1.00  0.00     0.226 C 
ATOM     22  H   UNL     1      -3.600   2.866  -4.059  1.00  0.00     0.171 HD
ATOM     23  C   UNL     1      -5.278   0.828  -6.146  1.00  0.00     0.113 C 
ATOM     24  O   UNL     1      -3.561   2.496  -6.564  1.00  0.00    -0.275 OA
BRANCH  14  25
ATOM     25  C   UNL     1      -5.104   1.500  -1.318  1.00  0.00     0.272 A 
ATOM     26  C   UNL     1      -3.280   0.372  -0.527  1.00  0.00     0.095 A 
ATOM     27  C   UNL     1      -4.091  -0.271   0.392  1.00  0.00     0.164 A 
ATOM     28  N   UNL     1      -3.782   1.240  -1.448  1.00  0.00    -0.208 NA
ATOM     29  N   UNL     1      -5.399   0.002   0.469  1.00  0.00    -0.153 NA
ATOM     30  N   UNL     1      -5.899   0.931  -0.372  1.00  0.00    -0.109 NA
BRANCH  26  31
ATOM     31  C   UNL     1      -1.821   0.239  -0.455  1.00  0.00     0.002 A 
ATOM     32  C   UNL     1       2.469  -0.045   0.067  1.00  0.00     0.044 C 
ATOM     33  C   UNL     1       0.983   0.059  -0.106  1.00  0.00    -0.051 A 
ATOM     34  C   UNL     1       0.200  -1.099  -0.177  1.00  0.00     0.004 A 
ATOM     35  C   UNL     1       0.361   1.305  -0.212  1.00  0.00     0.004 A 
ATOM     36  C   UNL     1      -1.185  -1.010  -0.348  1.00  0.00     0.011 A 
ATOM     37  C   UNL     1      -1.021   1.392  -0.389  1.00  0.00     0.011 A 
ENDBRANCH  26  31
ENDBRANCH  14  25
ENDBRANCH   8  13
ENDBRANCH   5   7
ENDBRANCH   4   5
ENDBRANCH   3   4
ENDBRANCH   2   3
ENDBRANCH   1   2
BRANCH   1  38
ATOM     38  C   UNL     1      -8.542   7.527  -9.385  1.00  0.00     0.202 C 
BRANCH  38  39
ATOM     39  C   UNL     1      -9.671   8.409  -8.780  1.00  0.00     0.261 C 
BRANCH  39  40
ATOM     40  O   UNL     1     -10.492   9.053  -9.783  1.00  0.00    -0.460 OA
BRANCH  40  41
ATOM     41  C   UNL     1     -11.659   9.644  -9.362  1.00  0.00     0.338 C 
ATOM     42  O   UNL     1     -11.797  10.829  -9.114  1.00  0.00    -0.246 OA
BRANCH  41  43
ATOM     43  C   UNL     1     -12.819   8.755  -9.645  1.00  0.00     0.060 A 
ATOM     44  C   UNL     1     -13.696   8.348  -8.643  1.00  0.00     0.016 A 
ATOM     45  C   UNL     1     -12.939   8.193 -10.913  1.00  0.00     0.016 A 
ATOM     46  C   UNL     1     -14.390   7.146  -8.798  1.00  0.00     0.010 A 
ATOM     47  C   UNL     1     -13.636   7.000 -11.063  1.00  0.00     0.010 A 
ATOM     48  C   UNL     1     -14.143   6.365  -9.926  1.00  0.00    -0.014 A 
BRANCH  48  49
ATOM     49  C   UNL     1     -14.001   4.888  -9.814  1.00  0.00     0.031 A 
ATOM     50  C   UNL     1     -14.373   4.033 -10.949  1.00  0.00     0.074 A 
ATOM     51  C   UNL     1     -13.345   4.315  -8.774  1.00  0.00     0.049 A 
ATOM     52  N   UNL     1     -15.486   3.387 -11.073  1.00  0.00    -0.248 NA
ATOM     53  C   UNL     1     -13.481   3.935 -12.108  1.00  0.00     0.031 C 
ATOM     54  C   UNL     1     -13.021   2.907  -8.561  1.00  0.00     0.029 A 
ATOM     55  N   UNL     1     -12.888   4.935  -7.611  1.00  0.00    -0.354 N 
ATOM     56  C   UNL     1     -15.304   2.595 -12.194  1.00  0.00     0.074 A 
ATOM     57  C   UNL     1     -14.224   3.210 -12.942  1.00  0.00     0.031 C 
ATOM     58  C   UNL     1     -12.693   2.729  -7.266  1.00  0.00     0.029 A 
ATOM     59  C   UNL     1     -12.818   4.006  -6.570  1.00  0.00     0.049 A 
ATOM     60  H   UNL     1     -12.649   5.887  -7.535  1.00  0.00     0.167 HD
ATOM     61  C   UNL     1     -15.540   1.247 -12.186  1.00  0.00     0.037 A 
ATOM     62  C   UNL     1     -13.618   4.233  -5.488  1.00  0.00     0.037 A 
ATOM     63  C   UNL     1     -15.577   0.748 -10.806  1.00  0.00     0.049 A 
ATOM     64  C   UNL     1     -14.905   3.442  -5.594  1.00  0.00     0.074 A 
ATOM     65  C   UNL     1     -14.668   0.001 -10.072  1.00  0.00     0.029 A 
ATOM     66  N   UNL     1     -16.479   1.267  -9.880  1.00  0.00    -0.354 N 
ATOM     67  N   UNL     1     -15.253   2.807  -6.686  1.00  0.00    -0.248 NA
ATOM     68  C   UNL     1     -15.846   3.201  -4.506  1.00  0.00     0.031 C 
ATOM     69  C   UNL     1     -14.994   0.127  -8.695  1.00  0.00     0.029 A 
ATOM     70  C   UNL     1     -16.111   0.940  -8.585  1.00  0.00     0.049 A 
ATOM     71  H   UNL     1     -17.274   1.798 -10.116  1.00  0.00     0.167 HD
ATOM     72  C   UNL     1     -16.391   2.084  -6.479  1.00  0.00     0.074 A 
ATOM     73  C   UNL     1     -16.723   2.360  -5.091  1.00  0.00     0.031 C 
ATOM     74  C   UNL     1     -16.957   1.307  -7.452  1.00  0.00     0.037 A 
BRANCH  61  75
ATOM     75  C   UNL     1     -15.286   0.388 -13.423  1.00  0.00     0.058 A 
ATOM     76  C   UNL     1     -15.097  -1.006 -13.351  1.00  0.00     0.135 A 
ATOM     77  C   UNL     1     -15.287   0.910 -14.741  1.00  0.00     0.135 A 
ATOM     78  F   UNL     1     -15.194  -1.663 -12.188  1.00  0.00    -0.206 F 
ATOM     79  C   UNL     1     -14.832  -1.797 -14.477  1.00  0.00     0.059 A 
ATOM     80  C   UNL     1     -14.960   0.156 -15.872  1.00  0.00     0.059 A 
ATOM     81  F   UNL     1     -15.641   2.183 -14.983  1.00  0.00    -0.206 F 
ATOM     82  C   UNL     1     -14.741  -1.205 -15.732  1.00  0.00     0.060 A 
BRANCH  82  83
ATOM     83  S   UNL     1     -14.412  -2.238 -17.174  1.00  0.00     0.124 S 
ATOM     84  O   UNL     1     -13.177  -2.917 -16.793  1.00  0.00    -0.237 OA
ATOM     85  O   UNL     1     -15.607  -3.073 -17.225  1.00  0.00    -0.237 OA
ATOM     86  O   UNL     1     -14.276  -1.273 -18.261  1.00  0.00    -0.744 OA
ENDBRANCH  82  83
ENDBRANCH  61  75
BRANCH  62  87
ATOM     87  C   UNL     1     -13.274   5.542  -4.837  1.00  0.00     0.058 A 
ATOM     88  C   UNL     1     -12.004   5.569  -4.218  1.00  0.00     0.135 A 
ATOM     89  C   UNL     1     -13.793   6.787  -5.223  1.00  0.00     0.135 A 
ATOM     90  F   UNL     1     -11.463   4.422  -3.779  1.00  0.00    -0.206 F 
ATOM     91  C   UNL     1     -11.203   6.708  -4.185  1.00  0.00     0.059 A 
ATOM     92  C   UNL     1     -13.007   7.956  -5.186  1.00  0.00     0.059 A 
ATOM     93  F   UNL     1     -15.022   6.873  -5.750  1.00  0.00    -0.206 F 
ATOM     94  C   UNL     1     -11.688   7.885  -4.735  1.00  0.00     0.060 A 
BRANCH  94  95
ATOM     95  S   UNL     1     -10.504   9.218  -5.069  1.00  0.00     0.124 S 
ATOM     96  O   UNL     1     -10.443   9.899  -3.784  1.00  0.00    -0.237 OA
ATOM     97  O   UNL     1      -9.306   8.473  -5.458  1.00  0.00    -0.237 OA
ATOM     98  O   UNL     1     -11.143   9.938  -6.161  1.00  0.00    -0.744 OA
ENDBRANCH  94  95
ENDBRANCH  62  87
BRANCH  74  99
ATOM     99  C   UNL     1     -18.350   0.728  -7.397  1.00  0.00     0.058 A 
ATOM    100  C   UNL     1     -19.409   1.334  -6.704  1.00  0.00     0.135 A 
ATOM    101  C   UNL     1     -18.701  -0.382  -8.207  1.00  0.00     0.135 A 
ATOM    102  F   UNL     1     -19.228   2.454  -5.990  1.00  0.00    -0.206 F 
ATOM    103  C   UNL     1     -20.710   0.838  -6.754  1.00  0.00     0.059 A 
ATOM    104  C   UNL     1     -20.005  -0.847  -8.329  1.00  0.00     0.059 A 
ATOM    105  F   UNL     1     -17.785  -1.048  -8.927  1.00  0.00    -0.206 F 
ATOM    106  C   UNL     1     -20.999  -0.249  -7.572  1.00  0.00     0.060 A 
BRANCH 106 107
ATOM    107  S   UNL     1     -22.690  -0.855  -7.667  1.00  0.00     0.124 S 
ATOM    108  O   UNL     1     -22.741  -1.737  -6.506  1.00  0.00    -0.237 OA
ATOM    109  O   UNL     1     -23.473   0.373  -7.564  1.00  0.00    -0.237 OA
ATOM    110  O   UNL     1     -22.738  -1.515  -8.967  1.00  0.00    -0.744 OA
ENDBRANCH 106 107
ENDBRANCH  74  99
ENDBRANCH  48  49
ENDBRANCH  41  43
ENDBRANCH  40  41
ENDBRANCH  39  40
ENDBRANCH  38  39
ENDBRANCH   1  38
TORSDOF 20
