REMARK SMILES CCc1ccc(-c2cc(Cl)cc3c2O[C@@H](C(F)(F)F)C(C(=O)OCCOCCOC(=O)c2ccc(-c4c5nc(c(-c6c(F)cc(S(=O)(=O)[O-])cc6F)c6ccc([nH]6)c(-c6c(F)cc(S(=O)(=O)[O-])cc6F)c6nc(c(-c7c(F)cc(S(=O)(=O)[O-])cc7F)c7ccc4[nH]7)C=C6)C=C5)cc2)=C3)cc1
REMARK SMILES IDX 27 1 26 2 25 3 24 4 23 5 21 6 22 7 20 8 7 9 8 10 13 11 9 12
REMARK SMILES IDX 12 13 14 14 10 15 11 16 98 17 15 18 6 19 3 20 4 21 100 22
REMARK SMILES IDX 5 23 99 24 2 25 1 26 16 27 17 28 18 29 19 30 28 31 29 32
REMARK SMILES IDX 30 33 31 34 32 35 33 36 97 37 34 38 96 39 35 40 36 41 37 42
REMARK SMILES IDX 90 43 38 44 95 45 89 46 91 47 39 48 94 49 88 50 87 51 40 53
REMARK SMILES IDX 74 54 53 55 73 56 54 57 57 58 72 59 92 60 55 61 56 62 71 64
REMARK SMILES IDX 93 65 58 66 41 67 42 68 51 69 43 70 44 71 50 72 52 73 45 74
REMARK SMILES IDX 46 75 47 76 48 77 49 78 75 79 76 80 85 81 77 82 78 83 84 84
REMARK SMILES IDX 86 85 79 86 80 87 81 88 82 89 83 90 59 91 60 92 69 93 61 94
REMARK SMILES IDX 62 95 68 96 70 97 63 98 64 99 65 100 66 101 67 102
REMARK H PARENT 91 52 57 63
REMARK Flexibility Score: inf
ROOT
ATOM      1  C   UNL     1       0.610 -10.931   2.291  1.00  0.00     0.202 C 
ENDROOT
BRANCH   1   2
ATOM      2  O   UNL     1       1.849 -11.524   1.909  1.00  0.00    -0.374 OA
BRANCH   2   3
ATOM      3  C   UNL     1       2.382 -12.553   2.734  1.00  0.00     0.202 C 
BRANCH   3   4
ATOM      4  C   UNL     1       2.837 -12.193   4.157  1.00  0.00     0.261 C 
BRANCH   4   5
ATOM      5  O   UNL     1       2.249 -10.977   4.648  1.00  0.00    -0.460 OA
BRANCH   5   6
ATOM      6  C   UNL     1       3.050 -10.199   5.401  1.00  0.00     0.338 C 
ATOM      7  O   UNL     1       4.165 -10.507   5.800  1.00  0.00    -0.246 OA
BRANCH   6   8
ATOM      8  C   UNL     1       2.521  -8.822   5.556  1.00  0.00     0.087 C 
ATOM      9  C   UNL     1       1.299  -6.975   2.041  1.00  0.00     0.026 A 
ATOM     10  C   UNL     1       2.045  -7.606   1.017  1.00  0.00     0.033 A 
ATOM     11  C   UNL     1       1.636  -7.365   3.355  1.00  0.00     0.135 A 
ATOM     12  C   UNL     1       3.229  -8.288   1.295  1.00  0.00     0.042 A 
ATOM     13  C   UNL     1       2.945  -7.808   3.615  1.00  0.00     0.019 A 
ATOM     14  O   UNL     1       0.632  -7.737   4.266  1.00  0.00    -0.475 OA
ATOM     15  Cl  UNL     1       4.118  -9.009   0.015  1.00  0.00    -0.084 Cl
ATOM     16  C   UNL     1       3.736  -8.298   2.583  1.00  0.00     0.032 A 
ATOM     17  C   UNL     1       3.383  -7.943   5.019  1.00  0.00     0.027 C 
ATOM     18  C   UNL     1       1.077  -8.364   5.548  1.00  0.00     0.316 C 
BRANCH   9  19
ATOM     19  C   UNL     1       0.772  -5.614   1.643  1.00  0.00    -0.015 A 
ATOM     20  C   UNL     1       0.597  -3.019   0.377  1.00  0.00    -0.048 A 
ATOM     21  C   UNL     1       0.037  -4.163  -0.209  1.00  0.00     0.004 A 
ATOM     22  C   UNL     1       1.173  -3.170   1.641  1.00  0.00     0.004 A 
ATOM     23  C   UNL     1       0.105  -5.424   0.416  1.00  0.00     0.009 A 
ATOM     24  C   UNL     1       1.254  -4.442   2.262  1.00  0.00     0.009 A 
BRANCH  20  25
ATOM     25  C   UNL     1       0.579  -1.730  -0.422  1.00  0.00     0.032 C 
ATOM     26  C   UNL     1       1.131  -0.462   0.222  1.00  0.00     0.009 C 
ENDBRANCH  20  25
ENDBRANCH   9  19
BRANCH  18  27
ATOM     27  C   UNL     1       0.082  -9.321   6.243  1.00  0.00     0.430 C 
ATOM     28  F   UNL     1       0.343  -9.339   7.581  1.00  0.00    -0.167 F 
ATOM     29  F   UNL     1      -1.196  -8.896   6.113  1.00  0.00    -0.167 F 
ATOM     30  F   UNL     1       0.121 -10.598   5.823  1.00  0.00    -0.167 F 
ENDBRANCH  18  27
ENDBRANCH   6   8
ENDBRANCH   5   6
ENDBRANCH   4   5
ENDBRANCH   3   4
ENDBRANCH   2   3
ENDBRANCH   1   2
BRANCH   1  31
ATOM     31  C   UNL     1      -0.659 -11.789   2.272  1.00  0.00     0.261 C 
BRANCH  31  32
ATOM     32  O   UNL     1      -0.600 -12.931   3.139  1.00  0.00    -0.460 OA
BRANCH  32  33
ATOM     33  C   UNL     1      -0.633 -14.124   2.499  1.00  0.00     0.338 C 
ATOM     34  O   UNL     1      -0.704 -14.316   1.292  1.00  0.00    -0.246 OA
BRANCH  33  35
ATOM     35  C   UNL     1      -0.406 -15.217   3.455  1.00  0.00     0.060 A 
ATOM     36  C   UNL     1       0.713 -16.036   3.261  1.00  0.00     0.016 A 
ATOM     37  C   UNL     1      -1.334 -15.501   4.458  1.00  0.00     0.016 A 
ATOM     38  C   UNL     1       0.889 -17.170   4.050  1.00  0.00     0.010 A 
ATOM     39  C   UNL     1      -1.159 -16.644   5.244  1.00  0.00     0.010 A 
ATOM     40  C   UNL     1      -0.066 -17.500   5.021  1.00  0.00    -0.014 A 
BRANCH  40  41
ATOM     41  C   UNL     1       0.017 -18.810   5.710  1.00  0.00     0.031 A 
ATOM     42  C   UNL     1      -0.887 -19.928   5.268  1.00  0.00     0.074 A 
ATOM     43  C   UNL     1       0.909 -19.003   6.699  1.00  0.00     0.049 A 
ATOM     44  N   UNL     1      -1.004 -21.138   5.750  1.00  0.00    -0.248 NA
ATOM     45  C   UNL     1      -1.781 -19.645   4.133  1.00  0.00     0.031 C 
ATOM     46  C   UNL     1       1.856 -18.000   7.187  1.00  0.00     0.029 A 
ATOM     47  N   UNL     1       1.159 -20.107   7.474  1.00  0.00    -0.354 N 
ATOM     48  C   UNL     1      -1.989 -21.756   4.987  1.00  0.00     0.074 A 
ATOM     49  C   UNL     1      -2.457 -20.780   4.029  1.00  0.00     0.031 C 
ATOM     50  C   UNL     1       2.576 -18.532   8.189  1.00  0.00     0.029 A 
ATOM     51  C   UNL     1       2.119 -19.898   8.436  1.00  0.00     0.049 A 
ATOM     52  H   UNL     1       0.695 -20.966   7.354  1.00  0.00     0.167 HD
ATOM     53  C   UNL     1      -2.452 -23.026   5.076  1.00  0.00     0.037 A 
ATOM     54  C   UNL     1       2.560 -20.709   9.417  1.00  0.00     0.037 A 
ATOM     55  C   UNL     1      -1.971 -23.991   6.031  1.00  0.00     0.049 A 
ATOM     56  C   UNL     1       1.990 -22.100   9.529  1.00  0.00     0.074 A 
ATOM     57  C   UNL     1      -2.354 -25.312   6.184  1.00  0.00     0.029 A 
ATOM     58  N   UNL     1      -1.010 -23.739   6.999  1.00  0.00    -0.354 N 
ATOM     59  N   UNL     1       1.083 -22.683   8.780  1.00  0.00    -0.248 NA
ATOM     60  C   UNL     1       2.507 -22.947  10.613  1.00  0.00     0.031 C 
ATOM     61  C   UNL     1      -1.667 -25.841   7.281  1.00  0.00     0.029 A 
ATOM     62  C   UNL     1      -0.808 -24.870   7.772  1.00  0.00     0.049 A 
ATOM     63  H   UNL     1      -0.541 -22.882   7.120  1.00  0.00     0.167 HD
ATOM     64  C   UNL     1       0.943 -23.973   9.284  1.00  0.00     0.074 A 
ATOM     65  C   UNL     1       1.868 -24.088  10.393  1.00  0.00     0.031 C 
ATOM     66  C   UNL     1       0.126 -24.971   8.867  1.00  0.00     0.037 A 
BRANCH  53  67
ATOM     67  C   UNL     1      -3.550 -23.443   4.136  1.00  0.00     0.058 A 
ATOM     68  C   UNL     1      -3.321 -23.636   2.765  1.00  0.00     0.135 A 
ATOM     69  C   UNL     1      -4.840 -23.706   4.626  1.00  0.00     0.135 A 
ATOM     70  F   UNL     1      -2.113 -23.382   2.238  1.00  0.00    -0.206 F 
ATOM     71  C   UNL     1      -4.335 -24.060   1.910  1.00  0.00     0.059 A 
ATOM     72  C   UNL     1      -5.862 -24.158   3.795  1.00  0.00     0.059 A 
ATOM     73  F   UNL     1      -5.117 -23.534   5.928  1.00  0.00    -0.206 F 
ATOM     74  C   UNL     1      -5.601 -24.323   2.436  1.00  0.00     0.060 A 
BRANCH  74  75
ATOM     75  S   UNL     1      -6.897 -24.897   1.318  1.00  0.00     0.124 S 
ATOM     76  O   UNL     1      -7.172 -23.689   0.545  1.00  0.00    -0.237 OA
ATOM     77  O   UNL     1      -6.229 -25.973   0.594  1.00  0.00    -0.237 OA
ATOM     78  O   UNL     1      -7.964 -25.319   2.220  1.00  0.00    -0.744 OA
ENDBRANCH  74  75
ENDBRANCH  53  67
BRANCH  54  79
ATOM     79  C   UNL     1       3.582 -20.223  10.384  1.00  0.00     0.058 A 
ATOM     80  C   UNL     1       4.875 -20.764  10.412  1.00  0.00     0.135 A 
ATOM     81  C   UNL     1       3.279 -19.210  11.309  1.00  0.00     0.135 A 
ATOM     82  F   UNL     1       5.212 -21.741   9.557  1.00  0.00    -0.206 F 
ATOM     83  C   UNL     1       5.825 -20.336  11.335  1.00  0.00     0.059 A 
ATOM     84  C   UNL     1       4.221 -18.744  12.220  1.00  0.00     0.059 A 
ATOM     85  F   UNL     1       2.060 -18.649  11.317  1.00  0.00    -0.206 F 
ATOM     86  C   UNL     1       5.488 -19.323  12.234  1.00  0.00     0.060 A 
BRANCH  86  87
ATOM     87  S   UNL     1       6.739 -18.752  13.405  1.00  0.00     0.124 S 
ATOM     88  O   UNL     1       6.814 -19.879  14.327  1.00  0.00    -0.237 OA
ATOM     89  O   UNL     1       7.899 -18.554  12.541  1.00  0.00    -0.237 OA
ATOM     90  O   UNL     1       6.156 -17.529  13.949  1.00  0.00    -0.744 OA
ENDBRANCH  86  87
ENDBRANCH  54  79
BRANCH  66  91
ATOM     91  C   UNL     1       0.220 -26.293   9.581  1.00  0.00     0.058 A 
ATOM     92  C   UNL     1      -0.260 -26.466  10.889  1.00  0.00     0.135 A 
ATOM     93  C   UNL     1       0.750 -27.417   8.924  1.00  0.00     0.135 A 
ATOM     94  F   UNL     1      -0.771 -25.425  11.565  1.00  0.00    -0.206 F 
ATOM     95  C   UNL     1      -0.196 -27.700  11.529  1.00  0.00     0.059 A 
ATOM     96  C   UNL     1       0.794 -28.667   9.533  1.00  0.00     0.059 A 
ATOM     97  F   UNL     1       1.212 -27.310   7.668  1.00  0.00    -0.206 F 
ATOM     98  C   UNL     1       0.330 -28.796  10.841  1.00  0.00     0.060 A 
BRANCH  98  99
ATOM     99  S   UNL     1       0.375 -30.398  11.672  1.00  0.00     0.124 S 
ATOM    100  O   UNL     1       1.447 -30.196  12.642  1.00  0.00    -0.237 OA
ATOM    101  O   UNL     1      -0.971 -30.500  12.226  1.00  0.00    -0.237 OA
ATOM    102  O   UNL     1       0.674 -31.333  10.592  1.00  0.00    -0.744 OA
ENDBRANCH  98  99
ENDBRANCH  66  91
ENDBRANCH  40  41
ENDBRANCH  33  35
ENDBRANCH  32  33
ENDBRANCH  31  32
ENDBRANCH   1  31
TORSDOF 20
