REMARK SMILES Nc1ccc(Cl)c(SC[C@H]2CC[C@@H](C(=O)OCCOCCOC(=O)c3ccc(-c4c5nc(c(-c6c(F)cc(S(=O)(=O)[O-])cc6F)c6ccc([nH]6)c(-c6c(F)cc(S(=O)(=O)[O-])cc6F)c6nc(c(-c7c(F)cc(S(=O)(=O)[O-])cc7F)c7ccc4[nH]7)C=C6)C=C5)cc3)O2)c1
REMARK SMILES IDX 18 1 17 2 16 3 14 4 15 5 13 6 10 7 11 8 91 9 12 10 9 11 8 12
REMARK SMILES IDX 7 13 2 14 3 15 92 16 4 17 5 18 6 19 1 20 19 23 20 24 21 25
REMARK SMILES IDX 22 26 23 27 24 28 25 29 26 30 90 31 27 32 89 33 28 34 29 35
REMARK SMILES IDX 30 36 83 37 31 38 88 39 82 40 84 41 32 42 87 43 81 44 80 45
REMARK SMILES IDX 33 47 67 48 46 49 66 50 47 51 50 52 65 53 85 54 48 55 49 56
REMARK SMILES IDX 64 58 86 59 51 60 34 61 35 62 44 63 36 64 37 65 43 66 45 67
REMARK SMILES IDX 38 68 39 69 40 70 41 71 42 72 68 73 69 74 78 75 70 76 71 77
REMARK SMILES IDX 77 78 79 79 72 80 73 81 74 82 75 83 76 84 52 85 53 86 62 87
REMARK SMILES IDX 54 88 55 89 61 90 63 91 56 92 57 93 58 94 59 95 60 96
REMARK H PARENT 1 21 1 22 84 46 50 57
REMARK Flexibility Score: inf
ROOT
ATOM      1  C   UNL     1      -4.683  -0.976   5.082  1.00  0.00     0.202 C 
ENDROOT
BRANCH   1   2
ATOM      2  C   UNL     1      -5.372  -1.767   3.964  1.00  0.00     0.261 C 
BRANCH   2   3
ATOM      3  O   UNL     1      -4.473  -2.677   3.302  1.00  0.00    -0.461 OA
BRANCH   3   4
ATOM      4  C   UNL     1      -4.403  -2.556   1.947  1.00  0.00     0.335 C 
ATOM      5  O   UNL     1      -5.137  -1.845   1.268  1.00  0.00    -0.249 OA
BRANCH   4   6
ATOM      6  C   UNL     1      -3.229  -3.339   1.342  1.00  0.00     0.228 C 
ATOM      7  C   UNL     1      -0.981  -3.923   1.229  1.00  0.00     0.129 C 
ATOM      8  C   UNL     1      -1.854  -5.193   1.107  1.00  0.00     0.036 C 
ATOM      9  O   UNL     1      -1.893  -2.876   1.613  1.00  0.00    -0.362 OA
ATOM     10  C   UNL     1      -3.171  -4.794   1.742  1.00  0.00     0.047 C 
BRANCH   7  11
ATOM     11  C   UNL     1       0.189  -4.191   2.201  1.00  0.00     0.107 C 
BRANCH  11  12
ATOM     12  S   UNL     1       1.452  -3.026   2.893  1.00  0.00    -0.122 SA
BRANCH  12  13
ATOM     13  C   UNL     1       1.009  -1.349   2.478  1.00  0.00     0.028 A 
ATOM     14  C   UNL     1       0.511   0.296   0.744  1.00  0.00     0.033 A 
ATOM     15  C   UNL     1       0.409   1.292   1.713  1.00  0.00     0.027 A 
ATOM     16  C   UNL     1       0.758  -1.022   1.143  1.00  0.00     0.042 A 
ATOM     17  C   UNL     1       0.715   1.008   3.041  1.00  0.00     0.024 A 
ATOM     18  C   UNL     1       1.072  -0.293   3.412  1.00  0.00     0.054 A 
ATOM     19  Cl  UNL     1       1.622  -0.499   5.043  1.00  0.00    -0.083 Cl
BRANCH  14  20
ATOM     20  N   UNL     1       0.275   0.586  -0.590  1.00  0.00    -0.399 N 
ATOM     21  H   UNL     1       0.101   1.514  -0.868  1.00  0.00     0.156 HD
ATOM     22  H   UNL     1       0.281  -0.136  -1.259  1.00  0.00     0.156 HD
ENDBRANCH  14  20
ENDBRANCH  12  13
ENDBRANCH  11  12
ENDBRANCH   7  11
ENDBRANCH   4   6
ENDBRANCH   3   4
ENDBRANCH   2   3
ENDBRANCH   1   2
BRANCH   1  23
ATOM     23  O   UNL     1      -3.547  -0.181   4.759  1.00  0.00    -0.374 OA
BRANCH  23  24
ATOM     24  C   UNL     1      -2.478  -0.794   4.054  1.00  0.00     0.202 C 
BRANCH  24  25
ATOM     25  C   UNL     1      -1.736  -1.986   4.676  1.00  0.00     0.261 C 
BRANCH  25  26
ATOM     26  O   UNL     1      -2.451  -2.774   5.614  1.00  0.00    -0.460 OA
BRANCH  26  27
ATOM     27  C   UNL     1      -2.130  -2.519   6.902  1.00  0.00     0.338 C 
ATOM     28  O   UNL     1      -1.372  -1.681   7.357  1.00  0.00    -0.246 OA
BRANCH  27  29
ATOM     29  C   UNL     1      -2.947  -3.421   7.703  1.00  0.00     0.060 A 
ATOM     30  C   UNL     1      -4.087  -2.906   8.322  1.00  0.00     0.016 A 
ATOM     31  C   UNL     1      -2.604  -4.772   7.781  1.00  0.00     0.016 A 
ATOM     32  C   UNL     1      -4.917  -3.765   9.024  1.00  0.00     0.010 A 
ATOM     33  C   UNL     1      -3.434  -5.629   8.490  1.00  0.00     0.010 A 
ATOM     34  C   UNL     1      -4.589  -5.124   9.112  1.00  0.00    -0.014 A 
BRANCH  34  35
ATOM     35  C   UNL     1      -5.434  -6.029   9.907  1.00  0.00     0.031 A 
ATOM     36  C   UNL     1      -4.964  -6.445  11.264  1.00  0.00     0.074 A 
ATOM     37  C   UNL     1      -6.590  -6.470   9.384  1.00  0.00     0.049 A 
ATOM     38  N   UNL     1      -5.501  -7.295  12.095  1.00  0.00    -0.248 NA
ATOM     39  C   UNL     1      -3.715  -5.830  11.747  1.00  0.00     0.031 C 
ATOM     40  C   UNL     1      -7.121  -6.088   8.073  1.00  0.00     0.029 A 
ATOM     41  N   UNL     1      -7.517  -7.345   9.881  1.00  0.00    -0.354 N 
ATOM     42  C   UNL     1      -4.655  -7.325  13.196  1.00  0.00     0.074 A 
ATOM     43  C   UNL     1      -3.553  -6.432  12.915  1.00  0.00     0.031 C 
ATOM     44  C   UNL     1      -8.277  -6.738   7.865  1.00  0.00     0.029 A 
ATOM     45  C   UNL     1      -8.541  -7.611   9.005  1.00  0.00     0.049 A 
ATOM     46  H   UNL     1      -7.456  -7.745  10.778  1.00  0.00     0.167 HD
ATOM     47  C   UNL     1      -4.801  -8.035  14.338  1.00  0.00     0.037 A 
ATOM     48  C   UNL     1      -9.556  -8.490   9.106  1.00  0.00     0.037 A 
ATOM     49  C   UNL     1      -5.910  -8.922  14.578  1.00  0.00     0.049 A 
ATOM     50  C   UNL     1      -9.656  -9.321  10.357  1.00  0.00     0.074 A 
ATOM     51  C   UNL     1      -6.182  -9.674  15.704  1.00  0.00     0.029 A 
ATOM     52  N   UNL     1      -6.922  -9.185  13.663  1.00  0.00    -0.354 N 
ATOM     53  N   UNL     1      -8.878  -9.312  11.414  1.00  0.00    -0.248 NA
ATOM     54  C   UNL     1     -10.762 -10.283  10.430  1.00  0.00     0.031 C 
ATOM     55  C   UNL     1      -7.325 -10.438  15.448  1.00  0.00     0.029 A 
ATOM     56  C   UNL     1      -7.801 -10.117  14.185  1.00  0.00     0.049 A 
ATOM     57  H   UNL     1      -7.003  -8.769  12.775  1.00  0.00     0.167 HD
ATOM     58  C   UNL     1      -9.409 -10.254  12.287  1.00  0.00     0.074 A 
ATOM     59  C   UNL     1     -10.587 -10.799  11.639  1.00  0.00     0.031 C 
ATOM     60  C   UNL     1      -8.966 -10.639  13.510  1.00  0.00     0.037 A 
BRANCH  47  61
ATOM     61  C   UNL     1      -3.732  -7.905  15.386  1.00  0.00     0.058 A 
ATOM     62  C   UNL     1      -3.555  -6.722  16.122  1.00  0.00     0.135 A 
ATOM     63  C   UNL     1      -2.887  -8.988  15.678  1.00  0.00     0.135 A 
ATOM     64  F   UNL     1      -4.319  -5.647  15.871  1.00  0.00    -0.206 F 
ATOM     65  C   UNL     1      -2.565  -6.611  17.095  1.00  0.00     0.059 A 
ATOM     66  C   UNL     1      -1.911  -8.909  16.666  1.00  0.00     0.059 A 
ATOM     67  F   UNL     1      -3.006 -10.139  14.998  1.00  0.00    -0.206 F 
ATOM     68  C   UNL     1      -1.750  -7.712  17.362  1.00  0.00     0.060 A 
BRANCH  68  69
ATOM     69  S   UNL     1      -0.484  -7.556  18.639  1.00  0.00     0.124 S 
ATOM     70  O   UNL     1       0.467  -6.652  17.998  1.00  0.00    -0.237 OA
ATOM     71  O   UNL     1      -1.237  -6.996  19.755  1.00  0.00    -0.237 OA
ATOM     72  O   UNL     1      -0.017  -8.927  18.826  1.00  0.00    -0.744 OA
ENDBRANCH  68  69
ENDBRANCH  47  61
BRANCH  48  73
ATOM     73  C   UNL     1     -10.528  -8.636   7.991  1.00  0.00     0.058 A 
ATOM     74  C   UNL     1     -11.863  -8.235   8.138  1.00  0.00     0.135 A 
ATOM     75  C   UNL     1     -10.137  -9.158   6.747  1.00  0.00     0.135 A 
ATOM     76  F   UNL     1     -12.289  -7.734   9.308  1.00  0.00    -0.206 F 
ATOM     77  C   UNL     1     -12.780  -8.356   7.098  1.00  0.00     0.059 A 
ATOM     78  C   UNL     1     -11.027  -9.263   5.683  1.00  0.00     0.059 A 
ATOM     79  F   UNL     1      -8.866  -9.543   6.547  1.00  0.00    -0.206 F 
ATOM     80  C   UNL     1     -12.350  -8.868   5.872  1.00  0.00     0.060 A 
BRANCH  80  81
ATOM     81  S   UNL     1     -13.537  -8.976   4.515  1.00  0.00     0.124 S 
ATOM     82  O   UNL     1     -14.402 -10.058   4.967  1.00  0.00    -0.237 OA
ATOM     83  O   UNL     1     -14.127  -7.641   4.520  1.00  0.00    -0.237 OA
ATOM     84  O   UNL     1     -12.699  -9.278   3.358  1.00  0.00    -0.744 OA
ENDBRANCH  80  81
ENDBRANCH  48  73
BRANCH  60  85
ATOM     85  C   UNL     1      -9.762 -11.689  14.231  1.00  0.00     0.058 A 
ATOM     86  C   UNL     1      -9.735 -13.033  13.829  1.00  0.00     0.135 A 
ATOM     87  C   UNL     1     -10.494 -11.360  15.383  1.00  0.00     0.135 A 
ATOM     88  F   UNL     1      -9.059 -13.397  12.728  1.00  0.00    -0.206 F 
ATOM     89  C   UNL     1     -10.414 -14.015  14.541  1.00  0.00     0.059 A 
ATOM     90  C   UNL     1     -11.155 -12.331  16.128  1.00  0.00     0.059 A 
ATOM     91  F   UNL     1     -10.545 -10.089  15.813  1.00  0.00    -0.206 F 
ATOM     92  C   UNL     1     -11.113 -13.655  15.695  1.00  0.00     0.060 A 
BRANCH  92  93
ATOM     93  S   UNL     1     -11.936 -14.952  16.642  1.00  0.00     0.124 S 
ATOM     94  O   UNL     1     -13.046 -15.301  15.761  1.00  0.00    -0.237 OA
ATOM     95  O   UNL     1     -10.885 -15.958  16.767  1.00  0.00    -0.237 OA
ATOM     96  O   UNL     1     -12.307 -14.283  17.885  1.00  0.00    -0.744 OA
ENDBRANCH  92  93
ENDBRANCH  60  85
ENDBRANCH  34  35
ENDBRANCH  27  29
ENDBRANCH  26  27
ENDBRANCH  25  26
ENDBRANCH  24  25
ENDBRANCH  23  24
ENDBRANCH   1  23
TORSDOF 21
