REMARK SMILES CS(=O)(=O)CC(=O)N1CCO[C@@H](CC(=O)OCCOCCOC(=O)c2ccc(-c3c4nc(c(-c5c(F)cc(S(=O)(=O)[O-])cc5F)c5ccc([nH]5)c(-c5c(F)cc(S(=O)(=O)[O-])cc5F)c5nc(c(-c6c(F)cc(S(=O)(=O)[O-])cc6F)c6ccc3[nH]6)C=C5)C=C4)cc2)C1
REMARK SMILES IDX 18 1 17 2 16 3 14 4 15 5 13 6 12 7 8 8 9 9 91 10 10 11 11 12
REMARK SMILES IDX 6 13 7 14 5 15 2 16 1 17 3 18 4 19 19 20 20 21 21 22 22 23
REMARK SMILES IDX 23 24 24 25 25 26 26 27 90 28 27 29 89 30 28 31 29 32 30 33
REMARK SMILES IDX 83 34 31 35 88 36 82 37 84 38 32 39 87 40 81 41 80 42 33 44
REMARK SMILES IDX 67 45 46 46 66 47 47 48 50 49 65 50 85 51 48 52 49 53 64 55
REMARK SMILES IDX 86 56 51 57 34 58 35 59 44 60 36 61 37 62 43 63 45 64 38 65
REMARK SMILES IDX 39 66 40 67 41 68 42 69 68 70 69 71 78 72 70 73 71 74 77 75
REMARK SMILES IDX 79 76 72 77 73 78 74 79 75 80 76 81 52 82 53 83 62 84 54 85
REMARK SMILES IDX 55 86 61 87 63 88 56 89 57 90 58 91 59 92 60 93
REMARK H PARENT 84 43 50 54
REMARK Flexibility Score: inf
ROOT
ATOM      1  C   UNL     1      -0.301   7.508  -4.963  1.00  0.00     0.202 C 
ENDROOT
BRANCH   1   2
ATOM      2  C   UNL     1      -1.391   7.931  -3.977  1.00  0.00     0.261 C 
BRANCH   2   3
ATOM      3  O   UNL     1      -1.965   6.788  -3.312  1.00  0.00    -0.463 OA
BRANCH   3   4
ATOM      4  C   UNL     1      -3.259   6.514  -3.612  1.00  0.00     0.308 C 
ATOM      5  O   UNL     1      -3.958   7.162  -4.380  1.00  0.00    -0.252 OA
BRANCH   4   6
ATOM      6  C   UNL     1      -3.778   5.335  -2.840  1.00  0.00     0.156 C 
BRANCH   6   7
ATOM      7  C   UNL     1      -2.965   4.043  -2.915  1.00  0.00     0.148 C 
ATOM      8  N   UNL     1      -1.208   2.662  -1.838  1.00  0.00    -0.337 N 
ATOM      9  C   UNL     1      -2.239   1.733  -1.406  1.00  0.00     0.148 C 
ATOM     10  C   UNL     1      -1.703   4.035  -1.999  1.00  0.00     0.152 C 
ATOM     11  C   UNL     1      -3.330   1.702  -2.456  1.00  0.00     0.182 C 
ATOM     12  O   UNL     1      -3.917   3.004  -2.550  1.00  0.00    -0.374 OA
BRANCH   8  13
ATOM     13  C   UNL     1       0.136   2.372  -1.733  1.00  0.00     0.237 C 
ATOM     14  O   UNL     1       0.912   3.096  -1.114  1.00  0.00    -0.274 OA
BRANCH  13  15
ATOM     15  C   UNL     1       0.649   1.250  -2.592  1.00  0.00     0.236 C 
BRANCH  15  16
ATOM     16  S   UNL     1       0.742  -0.331  -1.815  1.00  0.00     0.156 S 
ATOM     17  C   UNL     1       1.119  -0.037  -0.102  1.00  0.00     0.158 C 
ATOM     18  O   UNL     1       1.870  -1.033  -2.398  1.00  0.00    -0.229 OA
ATOM     19  O   UNL     1      -0.574  -0.944  -1.886  1.00  0.00    -0.229 OA
ENDBRANCH  15  16
ENDBRANCH  13  15
ENDBRANCH   8  13
ENDBRANCH   6   7
ENDBRANCH   4   6
ENDBRANCH   3   4
ENDBRANCH   2   3
ENDBRANCH   1   2
BRANCH   1  20
ATOM     20  O   UNL     1      -0.756   6.869  -6.155  1.00  0.00    -0.374 OA
BRANCH  20  21
ATOM     21  C   UNL     1      -1.095   5.488  -6.058  1.00  0.00     0.202 C 
BRANCH  21  22
ATOM     22  C   UNL     1       0.074   4.495  -6.113  1.00  0.00     0.261 C 
BRANCH  22  23
ATOM     23  O   UNL     1       0.949   4.619  -4.977  1.00  0.00    -0.460 OA
BRANCH  23  24
ATOM     24  C   UNL     1       2.129   5.233  -5.240  1.00  0.00     0.338 C 
ATOM     25  O   UNL     1       2.535   5.597  -6.339  1.00  0.00    -0.246 OA
BRANCH  24  26
ATOM     26  C   UNL     1       2.819   5.587  -3.985  1.00  0.00     0.060 A 
ATOM     27  C   UNL     1       3.298   6.895  -3.848  1.00  0.00     0.016 A 
ATOM     28  C   UNL     1       3.045   4.648  -2.979  1.00  0.00     0.016 A 
ATOM     29  C   UNL     1       4.046   7.252  -2.726  1.00  0.00     0.010 A 
ATOM     30  C   UNL     1       3.785   5.009  -1.848  1.00  0.00     0.010 A 
ATOM     31  C   UNL     1       4.327   6.301  -1.736  1.00  0.00    -0.014 A 
BRANCH  31  32
ATOM     32  C   UNL     1       5.320   6.611  -0.674  1.00  0.00     0.031 A 
ATOM     33  C   UNL     1       6.706   6.029  -0.784  1.00  0.00     0.074 A 
ATOM     34  C   UNL     1       5.011   7.431   0.347  1.00  0.00     0.049 A 
ATOM     35  N   UNL     1       7.724   6.152   0.029  1.00  0.00    -0.248 NA
ATOM     36  C   UNL     1       6.979   5.196  -1.966  1.00  0.00     0.031 C 
ATOM     37  C   UNL     1       3.715   8.079   0.550  1.00  0.00     0.029 A 
ATOM     38  N   UNL     1       5.770   7.861   1.407  1.00  0.00    -0.354 N 
ATOM     39  C   UNL     1       8.755   5.413  -0.542  1.00  0.00     0.074 A 
ATOM     40  C   UNL     1       8.227   4.809  -1.746  1.00  0.00     0.031 C 
ATOM     41  C   UNL     1       3.772   8.828   1.666  1.00  0.00     0.029 A 
ATOM     42  C   UNL     1       5.095   8.690   2.272  1.00  0.00     0.049 A 
ATOM     43  H   UNL     1       6.710   7.600   1.536  1.00  0.00     0.167 HD
ATOM     44  C   UNL     1      10.032   5.267  -0.116  1.00  0.00     0.037 A 
ATOM     45  C   UNL     1       5.496   9.261   3.425  1.00  0.00     0.037 A 
ATOM     46  C   UNL     1      10.560   5.875   1.077  1.00  0.00     0.049 A 
ATOM     47  C   UNL     1       6.904   9.030   3.914  1.00  0.00     0.074 A 
ATOM     48  C   UNL     1      11.841   5.789   1.593  1.00  0.00     0.029 A 
ATOM     49  N   UNL     1       9.836   6.687   1.938  1.00  0.00    -0.354 N 
ATOM     50  N   UNL     1       7.870   8.339   3.356  1.00  0.00    -0.248 NA
ATOM     51  C   UNL     1       7.279   9.661   5.188  1.00  0.00     0.031 C 
ATOM     52  C   UNL     1      11.882   6.516   2.787  1.00  0.00     0.029 A 
ATOM     53  C   UNL     1      10.640   7.096   2.989  1.00  0.00     0.049 A 
ATOM     54  H   UNL     1       8.891   6.935   1.820  1.00  0.00     0.167 HD
ATOM     55  C   UNL     1       8.973   8.482   4.192  1.00  0.00     0.074 A 
ATOM     56  C   UNL     1       8.559   9.332   5.288  1.00  0.00     0.031 C 
ATOM     57  C   UNL     1      10.218   7.959   4.064  1.00  0.00     0.037 A 
BRANCH  44  58
ATOM     58  C   UNL     1      10.949   4.410  -0.944  1.00  0.00     0.058 A 
ATOM     59  C   UNL     1      11.428   4.841  -2.192  1.00  0.00     0.135 A 
ATOM     60  C   UNL     1      11.388   3.164  -0.469  1.00  0.00     0.135 A 
ATOM     61  F   UNL     1      11.024   6.015  -2.703  1.00  0.00    -0.206 F 
ATOM     62  C   UNL     1      12.292   4.057  -2.949  1.00  0.00     0.059 A 
ATOM     63  C   UNL     1      12.274   2.375  -1.197  1.00  0.00     0.059 A 
ATOM     64  F   UNL     1      10.959   2.704   0.717  1.00  0.00    -0.206 F 
ATOM     65  C   UNL     1      12.711   2.826  -2.442  1.00  0.00     0.060 A 
BRANCH  65  66
ATOM     66  S   UNL     1      13.846   1.828  -3.430  1.00  0.00     0.124 S 
ATOM     67  O   UNL     1      12.967   1.359  -4.497  1.00  0.00    -0.237 OA
ATOM     68  O   UNL     1      14.856   2.805  -3.826  1.00  0.00    -0.237 OA
ATOM     69  O   UNL     1      14.300   0.804  -2.496  1.00  0.00    -0.744 OA
ENDBRANCH  65  66
ENDBRANCH  44  58
BRANCH  45  70
ATOM     70  C   UNL     1       4.558  10.107   4.212  1.00  0.00     0.058 A 
ATOM     71  C   UNL     1       4.766  11.488   4.347  1.00  0.00     0.135 A 
ATOM     72  C   UNL     1       3.453   9.547   4.872  1.00  0.00     0.135 A 
ATOM     73  F   UNL     1       5.815  12.069   3.744  1.00  0.00    -0.206 F 
ATOM     74  C   UNL     1       3.931  12.279   5.129  1.00  0.00     0.059 A 
ATOM     75  C   UNL     1       2.587  10.322   5.637  1.00  0.00     0.059 A 
ATOM     76  F   UNL     1       3.201   8.233   4.767  1.00  0.00    -0.206 F 
ATOM     77  C   UNL     1       2.844  11.686   5.773  1.00  0.00     0.060 A 
BRANCH  77  78
ATOM     78  S   UNL     1       1.751  12.723   6.768  1.00  0.00     0.124 S 
ATOM     79  O   UNL     1       2.571  12.963   7.950  1.00  0.00    -0.237 OA
ATOM     80  O   UNL     1       1.538  13.872   5.893  1.00  0.00    -0.237 OA
ATOM     81  O   UNL     1       0.580  11.876   6.972  1.00  0.00    -0.744 OA
ENDBRANCH  77  78
ENDBRANCH  45  70
BRANCH  57  82
ATOM     82  C   UNL     1      11.240   8.328   5.105  1.00  0.00     0.058 A 
ATOM     83  C   UNL     1      11.193   7.805   6.406  1.00  0.00     0.135 A 
ATOM     84  C   UNL     1      12.309   9.178   4.778  1.00  0.00     0.135 A 
ATOM     85  F   UNL     1      10.190   6.991   6.772  1.00  0.00    -0.206 F 
ATOM     86  C   UNL     1      12.157   8.132   7.356  1.00  0.00     0.059 A 
ATOM     87  C   UNL     1      13.299   9.496   5.703  1.00  0.00     0.059 A 
ATOM     88  F   UNL     1      12.408   9.696   3.544  1.00  0.00    -0.206 F 
ATOM     89  C   UNL     1      13.207   8.979   6.994  1.00  0.00     0.060 A 
BRANCH  89  90
ATOM     90  S   UNL     1      14.467   9.371   8.226  1.00  0.00     0.124 S 
ATOM     91  O   UNL     1      13.754  10.308   9.087  1.00  0.00    -0.237 OA
ATOM     92  O   UNL     1      14.752   8.064   8.810  1.00  0.00    -0.237 OA
ATOM     93  O   UNL     1      15.550   9.946   7.433  1.00  0.00    -0.744 OA
ENDBRANCH  89  90
ENDBRANCH  57  82
ENDBRANCH  31  32
ENDBRANCH  24  26
ENDBRANCH  23  24
ENDBRANCH  22  23
ENDBRANCH  21  22
ENDBRANCH  20  21
ENDBRANCH   1  20
TORSDOF 21
