REMARK SMILES O=C(OCCOCCOC(=O)[C@@H](CCOCCO)c1cccc(F)c1)c1ccc(-c2c3nc(c(-c4c(F)cc(S(=O)(=O)[O-])cc4F)c4ccc([nH]4)c(-c4c(F)cc(S(=O)(=O)[O-])cc4F)c4nc(c(-c5c(F)cc(S(=O)(=O)[O-])cc5F)c5ccc2[nH]5)C=C4)C=C3)cc1
REMARK SMILES IDX 7 1 6 2 5 3 4 4 3 5 2 6 1 7 26 8 27 9 91 10 28 11 90 12
REMARK SMILES IDX 29 13 30 14 31 15 84 16 32 17 89 18 83 19 85 20 33 21 88 22
REMARK SMILES IDX 82 23 81 24 34 26 68 27 47 28 67 29 48 30 51 31 66 32 86 33
REMARK SMILES IDX 49 34 50 35 65 37 87 38 52 39 35 40 36 41 45 42 37 43 38 44
REMARK SMILES IDX 44 45 46 46 39 47 40 48 41 49 42 50 43 51 69 52 70 53 79 54
REMARK SMILES IDX 71 55 72 56 78 57 80 58 73 59 74 60 75 61 76 62 77 63 53 64
REMARK SMILES IDX 54 65 63 66 55 67 56 68 62 69 64 70 57 71 58 72 59 73 60 74
REMARK SMILES IDX 61 75 8 76 9 77 10 78 11 79 12 80 13 81 14 82 15 83 16 84
REMARK SMILES IDX 17 85 18 86 19 88 20 89 25 90 21 91 23 92 22 93 24 94
REMARK H PARENT 85 25 51 36 18 87
REMARK Flexibility Score: inf
ROOT
ATOM      1  C   UNL     1       3.499   2.064   0.458  1.00  0.00     0.202 C 
ENDROOT
BRANCH   1   2
ATOM      2  O   UNL     1       4.725   1.365   0.240  1.00  0.00    -0.374 OA
BRANCH   2   3
ATOM      3  C   UNL     1       4.816   0.593  -0.957  1.00  0.00     0.202 C 
BRANCH   3   4
ATOM      4  C   UNL     1       4.333  -0.861  -0.881  1.00  0.00     0.261 C 
BRANCH   4   5
ATOM      5  O   UNL     1       2.926  -0.916  -0.581  1.00  0.00    -0.460 OA
BRANCH   5   6
ATOM      6  C   UNL     1       2.325  -1.257   0.584  1.00  0.00     0.338 C 
ATOM      7  O   UNL     1       1.121  -1.508   0.571  1.00  0.00    -0.246 OA
BRANCH   6   8
ATOM      8  C   UNL     1       3.032  -1.264   1.903  1.00  0.00     0.060 A 
ATOM      9  C   UNL     1       4.309  -0.756   2.113  1.00  0.00     0.016 A 
ATOM     10  C   UNL     1       2.332  -1.742   3.026  1.00  0.00     0.016 A 
ATOM     11  C   UNL     1       4.871  -0.663   3.364  1.00  0.00     0.010 A 
ATOM     12  C   UNL     1       2.904  -1.692   4.304  1.00  0.00     0.010 A 
ATOM     13  C   UNL     1       4.175  -1.140   4.462  1.00  0.00    -0.014 A 
BRANCH  13  14
ATOM     14  C   UNL     1       4.952  -1.167   5.702  1.00  0.00     0.031 A 
ATOM     15  C   UNL     1       5.757  -2.399   5.972  1.00  0.00     0.074 A 
ATOM     16  C   UNL     1       5.157  -0.007   6.352  1.00  0.00     0.049 A 
ATOM     17  N   UNL     1       6.581  -2.644   6.948  1.00  0.00    -0.248 NA
ATOM     18  C   UNL     1       5.659  -3.485   4.976  1.00  0.00     0.031 C 
ATOM     19  C   UNL     1       4.584   1.287   5.962  1.00  0.00     0.029 A 
ATOM     20  N   UNL     1       5.955   0.292   7.418  1.00  0.00    -0.354 N 
ATOM     21  C   UNL     1       7.089  -3.911   6.695  1.00  0.00     0.074 A 
ATOM     22  C   UNL     1       6.497  -4.384   5.467  1.00  0.00     0.031 C 
ATOM     23  C   UNL     1       5.074   2.244   6.765  1.00  0.00     0.029 A 
ATOM     24  C   UNL     1       5.931   1.622   7.766  1.00  0.00     0.049 A 
ATOM     25  H   UNL     1       6.496  -0.380   7.893  1.00  0.00     0.167 HD
ATOM     26  C   UNL     1       7.965  -4.610   7.447  1.00  0.00     0.037 A 
ATOM     27  C   UNL     1       6.516   2.242   8.809  1.00  0.00     0.037 A 
ATOM     28  C   UNL     1       8.504  -4.095   8.674  1.00  0.00     0.049 A 
ATOM     29  C   UNL     1       7.337   1.387   9.736  1.00  0.00     0.074 A 
ATOM     30  C   UNL     1       9.266  -4.741   9.625  1.00  0.00     0.029 A 
ATOM     31  N   UNL     1       8.328  -2.787   9.111  1.00  0.00    -0.354 N 
ATOM     32  N   UNL     1       7.686   0.128   9.595  1.00  0.00    -0.248 NA
ATOM     33  C   UNL     1       7.810   2.010  10.976  1.00  0.00     0.031 C 
ATOM     34  C   UNL     1       9.517  -3.832  10.659  1.00  0.00     0.029 A 
ATOM     35  C   UNL     1       8.954  -2.606  10.327  1.00  0.00     0.049 A 
ATOM     36  H   UNL     1       7.829  -2.091   8.624  1.00  0.00     0.167 HD
ATOM     37  C   UNL     1       8.426  -0.193  10.724  1.00  0.00     0.074 A 
ATOM     38  C   UNL     1       8.490   1.014  11.528  1.00  0.00     0.031 C 
ATOM     39  C   UNL     1       8.992  -1.373  11.076  1.00  0.00     0.037 A 
BRANCH  26  40
ATOM     40  C   UNL     1       8.294  -6.006   7.010  1.00  0.00     0.058 A 
ATOM     41  C   UNL     1       7.715  -7.103   7.667  1.00  0.00     0.135 A 
ATOM     42  C   UNL     1       9.158  -6.267   5.935  1.00  0.00     0.135 A 
ATOM     43  F   UNL     1       6.857  -6.908   8.680  1.00  0.00    -0.206 F 
ATOM     44  C   UNL     1       7.996  -8.411   7.287  1.00  0.00     0.059 A 
ATOM     45  C   UNL     1       9.439  -7.569   5.525  1.00  0.00     0.059 A 
ATOM     46  F   UNL     1       9.697  -5.252   5.241  1.00  0.00    -0.206 F 
ATOM     47  C   UNL     1       8.862  -8.634   6.216  1.00  0.00     0.060 A 
BRANCH  47  48
ATOM     48  S   UNL     1       9.184 -10.339   5.716  1.00  0.00     0.124 S 
ATOM     49  O   UNL     1       9.967 -10.839   6.840  1.00  0.00    -0.237 OA
ATOM     50  O   UNL     1       7.834 -10.881   5.588  1.00  0.00    -0.237 OA
ATOM     51  O   UNL     1       9.911 -10.191   4.458  1.00  0.00    -0.744 OA
ENDBRANCH  47  48
ENDBRANCH  26  40
BRANCH  27  52
ATOM     52  C   UNL     1       6.280   3.690   9.067  1.00  0.00     0.058 A 
ATOM     53  C   UNL     1       4.989   4.174   9.345  1.00  0.00     0.135 A 
ATOM     54  C   UNL     1       7.328   4.622   9.050  1.00  0.00     0.135 A 
ATOM     55  F   UNL     1       3.945   3.333   9.378  1.00  0.00    -0.206 F 
ATOM     56  C   UNL     1       4.744   5.524   9.573  1.00  0.00     0.059 A 
ATOM     57  C   UNL     1       7.112   5.976   9.305  1.00  0.00     0.059 A 
ATOM     58  F   UNL     1       8.582   4.214   8.804  1.00  0.00    -0.206 F 
ATOM     59  C   UNL     1       5.812   6.418   9.554  1.00  0.00     0.060 A 
BRANCH  59  60
ATOM     60  S   UNL     1       5.472   8.160   9.888  1.00  0.00     0.124 S 
ATOM     61  O   UNL     1       4.750   8.554   8.682  1.00  0.00    -0.237 OA
ATOM     62  O   UNL     1       4.675   8.087  11.109  1.00  0.00    -0.237 OA
ATOM     63  O   UNL     1       6.801   8.741  10.044  1.00  0.00    -0.744 OA
ENDBRANCH  59  60
ENDBRANCH  27  52
BRANCH  39  64
ATOM     64  C   UNL     1       9.744  -1.407  12.371  1.00  0.00     0.058 A 
ATOM     65  C   UNL     1      11.144  -1.494  12.369  1.00  0.00     0.135 A 
ATOM     66  C   UNL     1       9.073  -1.462  13.600  1.00  0.00     0.135 A 
ATOM     67  F   UNL     1      11.824  -1.452  11.212  1.00  0.00    -0.206 F 
ATOM     68  C   UNL     1      11.855  -1.664  13.547  1.00  0.00     0.059 A 
ATOM     69  C   UNL     1       9.767  -1.606  14.795  1.00  0.00     0.059 A 
ATOM     70  F   UNL     1       7.734  -1.371  13.645  1.00  0.00    -0.206 F 
ATOM     71  C   UNL     1      11.157  -1.728  14.754  1.00  0.00     0.060 A 
BRANCH  71  72
ATOM     72  S   UNL     1      12.096  -1.966  16.275  1.00  0.00     0.124 S 
ATOM     73  O   UNL     1      12.504  -3.361  16.157  1.00  0.00    -0.237 OA
ATOM     74  O   UNL     1      13.162  -0.978  16.137  1.00  0.00    -0.237 OA
ATOM     75  O   UNL     1      11.120  -1.682  17.323  1.00  0.00    -0.744 OA
ENDBRANCH  71  72
ENDBRANCH  39  64
ENDBRANCH  13  14
ENDBRANCH   6   8
ENDBRANCH   5   6
ENDBRANCH   4   5
ENDBRANCH   3   4
ENDBRANCH   2   3
ENDBRANCH   1   2
BRANCH   1  76
ATOM     76  C   UNL     1       3.633   3.534   0.067  1.00  0.00     0.261 C 
BRANCH  76  77
ATOM     77  O   UNL     1       3.824   3.637  -1.354  1.00  0.00    -0.463 OA
BRANCH  77  78
ATOM     78  C   UNL     1       5.109   3.631  -1.807  1.00  0.00     0.313 C 
ATOM     79  O   UNL     1       6.099   3.641  -1.101  1.00  0.00    -0.252 OA
BRANCH  78  80
ATOM     80  C   UNL     1       5.169   3.672  -3.339  1.00  0.00     0.131 C 
BRANCH  80  81
ATOM     81  C   UNL     1       4.468   2.457  -4.008  1.00  0.00     0.048 C 
BRANCH  81  82
ATOM     82  C   UNL     1       2.962   2.200  -3.786  1.00  0.00     0.161 C 
BRANCH  82  83
ATOM     83  O   UNL     1       2.087   3.155  -4.375  1.00  0.00    -0.379 OA
BRANCH  83  84
ATOM     84  C   UNL     1       1.624   4.187  -3.503  1.00  0.00     0.188 C 
BRANCH  84  85
ATOM     85  C   UNL     1       0.423   3.842  -2.614  1.00  0.00     0.184 C 
BRANCH  85  86
ATOM     86  O   UNL     1       0.526   2.599  -1.938  1.00  0.00    -0.394 OA
ATOM     87  H   UNL     1       0.569   1.880  -2.588  1.00  0.00     0.210 HD
ENDBRANCH  85  86
ENDBRANCH  84  85
ENDBRANCH  83  84
ENDBRANCH  82  83
ENDBRANCH  81  82
ENDBRANCH  80  81
BRANCH  80  88
ATOM     88  C   UNL     1       4.872   5.059  -3.892  1.00  0.00    -0.031 A 
ATOM     89  C   UNL     1       4.242   5.248  -5.132  1.00  0.00     0.005 A 
ATOM     90  C   UNL     1       5.248   6.203  -3.165  1.00  0.00     0.043 A 
ATOM     91  C   UNL     1       3.888   6.524  -5.574  1.00  0.00     0.003 A 
ATOM     92  C   UNL     1       4.898   7.470  -3.617  1.00  0.00     0.123 A 
ATOM     93  C   UNL     1       4.202   7.638  -4.804  1.00  0.00     0.039 A 
ATOM     94  F   UNL     1       5.223   8.543  -2.885  1.00  0.00    -0.207 F 
ENDBRANCH  80  88
ENDBRANCH  78  80
ENDBRANCH  77  78
ENDBRANCH  76  77
ENDBRANCH   1  76
TORSDOF 24
