REMARK SMILES O=C1CC[C@@H](CC(=O)N2CCC(Oc3ccccc3)(C(=O)OCCOCCOC(=O)c3ccc(-c4c5nc(c(-c6c(F)cc(S(=O)(=O)[O-])cc6F)c6ccc([nH]6)c(-c6c(F)cc(S(=O)(=O)[O-])cc6F)c6nc(c(-c7c(F)cc(S(=O)(=O)[O-])cc7F)c7ccc4[nH]7)C=C6)C=C5)cc3)CC2)N1
REMARK SMILES IDX 26 1 25 2 24 3 23 4 22 5 20 6 21 7 12 8 7 9 8 10 9 11 10 12
REMARK SMILES IDX 98 13 11 14 97 15 6 16 5 17 1 18 2 19 3 20 99 21 4 22 13 24
REMARK SMILES IDX 14 25 15 26 19 27 16 28 18 29 17 30 27 31 28 32 29 33 30 34
REMARK SMILES IDX 31 35 32 36 96 37 33 38 95 39 34 40 35 41 36 42 89 43 37 44
REMARK SMILES IDX 94 45 88 46 90 47 38 48 93 49 87 50 86 51 39 53 73 54 52 55
REMARK SMILES IDX 72 56 53 57 56 58 71 59 91 60 54 61 55 62 70 64 92 65 57 66
REMARK SMILES IDX 40 67 41 68 50 69 42 70 43 71 49 72 51 73 44 74 45 75 46 76
REMARK SMILES IDX 47 77 48 78 74 79 75 80 84 81 76 82 77 83 83 84 85 85 78 86
REMARK SMILES IDX 79 87 80 88 81 89 82 90 58 91 59 92 68 93 60 94 61 95 67 96
REMARK SMILES IDX 69 97 62 98 63 99 64 100 65 101 66 102
REMARK H PARENT 99 23 90 52 56 63
REMARK Flexibility Score: inf
ROOT
ATOM      1  C   UNL     1      -1.413   3.075  -3.735  1.00  0.00     0.202 C 
ENDROOT
BRANCH   1   2
ATOM      2  O   UNL     1      -1.080   4.384  -4.170  1.00  0.00    -0.374 OA
BRANCH   2   3
ATOM      3  C   UNL     1      -0.157   4.518  -5.254  1.00  0.00     0.202 C 
BRANCH   3   4
ATOM      4  C   UNL     1       1.238   3.900  -5.100  1.00  0.00     0.261 C 
BRANCH   4   5
ATOM      5  O   UNL     1       1.225   2.457  -5.165  1.00  0.00    -0.460 OA
BRANCH   5   6
ATOM      6  C   UNL     1       1.792   1.803  -4.111  1.00  0.00     0.350 C 
ATOM      7  O   UNL     1       2.233   2.379  -3.118  1.00  0.00    -0.247 OA
BRANCH   6   8
ATOM      8  C   UNL     1       1.812   0.259  -4.264  1.00  0.00     0.209 C 
ATOM      9  C   UNL     1      -1.496  -1.800  -2.304  1.00  0.00     0.224 C 
ATOM     10  O   UNL     1      -1.939  -2.786  -2.916  1.00  0.00    -0.275 OA
ATOM     11  N   UNL     1      -0.576  -0.978  -2.938  1.00  0.00    -0.342 N 
ATOM     12  C   UNL     1      -0.300  -1.264  -4.353  1.00  0.00     0.124 C 
ATOM     13  C   UNL     1       0.400  -0.172  -2.244  1.00  0.00     0.124 C 
ATOM     14  C   UNL     1       0.628  -0.289  -5.095  1.00  0.00     0.082 C 
ATOM     15  C   UNL     1       1.783  -0.322  -2.838  1.00  0.00     0.082 C 
BRANCH   9  16
ATOM     16  C   UNL     1      -2.165  -1.504  -0.950  1.00  0.00     0.125 C 
BRANCH  16  17
ATOM     17  C   UNL     1      -1.626  -0.802   0.293  1.00  0.00     0.091 C 
ATOM     18  O   UNL     1       1.511  -0.245   1.757  1.00  0.00    -0.275 OA
ATOM     19  C   UNL     1       0.412  -0.141   1.240  1.00  0.00     0.220 C 
ATOM     20  C   UNL     1      -0.335   1.141   0.982  1.00  0.00     0.102 C 
ATOM     21  N   UNL     1      -0.338  -1.198   0.772  1.00  0.00    -0.353 N 
ATOM     22  C   UNL     1      -1.598   0.720   0.233  1.00  0.00     0.035 C 
ATOM     23  H   UNL     1      -0.021  -2.130   0.768  1.00  0.00     0.163 HD
ENDBRANCH  16  17
ENDBRANCH   9  16
BRANCH   8  24
ATOM     24  O   UNL     1       3.062   0.089  -4.987  1.00  0.00    -0.475 OA
BRANCH  24  25
ATOM     25  C   UNL     1       3.775  -1.034  -4.679  1.00  0.00     0.121 A 
ATOM     26  C   UNL     1       4.709  -1.000  -3.642  1.00  0.00     0.046 A 
ATOM     27  C   UNL     1       3.604  -2.187  -5.439  1.00  0.00     0.046 A 
ATOM     28  C   UNL     1       5.413  -2.156  -3.308  1.00  0.00     0.004 A 
ATOM     29  C   UNL     1       4.320  -3.339  -5.112  1.00  0.00     0.004 A 
ATOM     30  C   UNL     1       5.213  -3.328  -4.039  1.00  0.00     0.000 A 
ENDBRANCH  24  25
ENDBRANCH   8  24
ENDBRANCH   6   8
ENDBRANCH   5   6
ENDBRANCH   4   5
ENDBRANCH   3   4
ENDBRANCH   2   3
ENDBRANCH   1   2
BRANCH   1  31
ATOM     31  C   UNL     1      -2.335   2.226  -4.622  1.00  0.00     0.261 C 
BRANCH  31  32
ATOM     32  O   UNL     1      -2.021   2.296  -6.018  1.00  0.00    -0.460 OA
BRANCH  32  33
ATOM     33  C   UNL     1      -2.925   2.994  -6.752  1.00  0.00     0.338 C 
ATOM     34  O   UNL     1      -3.994   3.443  -6.371  1.00  0.00    -0.246 OA
BRANCH  33  35
ATOM     35  C   UNL     1      -2.364   3.312  -8.076  1.00  0.00     0.060 A 
ATOM     36  C   UNL     1      -2.216   4.666  -8.397  1.00  0.00     0.016 A 
ATOM     37  C   UNL     1      -2.049   2.319  -9.007  1.00  0.00     0.016 A 
ATOM     38  C   UNL     1      -1.782   5.035  -9.666  1.00  0.00     0.010 A 
ATOM     39  C   UNL     1      -1.624   2.694 -10.288  1.00  0.00     0.010 A 
ATOM     40  C   UNL     1      -1.516   4.053 -10.631  1.00  0.00    -0.014 A 
BRANCH  40  41
ATOM     41  C   UNL     1      -1.235   4.484 -12.022  1.00  0.00     0.031 A 
ATOM     42  C   UNL     1      -2.351   4.499 -13.029  1.00  0.00     0.074 A 
ATOM     43  C   UNL     1      -0.013   4.936 -12.357  1.00  0.00     0.049 A 
ATOM     44  N   UNL     1      -2.348   4.934 -14.262  1.00  0.00    -0.248 NA
ATOM     45  C   UNL     1      -3.643   3.954 -12.585  1.00  0.00     0.031 C 
ATOM     46  C   UNL     1       1.139   4.992 -11.457  1.00  0.00     0.029 A 
ATOM     47  N   UNL     1       0.458   5.447 -13.539  1.00  0.00    -0.354 N 
ATOM     48  C   UNL     1      -3.636   4.727 -14.740  1.00  0.00     0.074 A 
ATOM     49  C   UNL     1      -4.383   4.090 -13.676  1.00  0.00     0.031 C 
ATOM     50  C   UNL     1       2.183   5.519 -12.119  1.00  0.00     0.029 A 
ATOM     51  C   UNL     1       1.779   5.821 -13.491  1.00  0.00     0.049 A 
ATOM     52  H   UNL     1      -0.099   5.538 -14.346  1.00  0.00     0.167 HD
ATOM     53  C   UNL     1      -4.153   5.051 -15.951  1.00  0.00     0.037 A 
ATOM     54  C   UNL     1       2.571   6.348 -14.445  1.00  0.00     0.037 A 
ATOM     55  C   UNL     1      -3.400   5.673 -17.009  1.00  0.00     0.049 A 
ATOM     56  C   UNL     1       1.991   6.646 -15.802  1.00  0.00     0.074 A 
ATOM     57  C   UNL     1      -3.835   6.060 -18.265  1.00  0.00     0.029 A 
ATOM     58  N   UNL     1      -2.049   5.986 -16.942  1.00  0.00    -0.354 N 
ATOM     59  N   UNL     1       0.760   6.484 -16.226  1.00  0.00    -0.248 NA
ATOM     60  C   UNL     1       2.905   7.207 -16.806  1.00  0.00     0.031 C 
ATOM     61  C   UNL     1      -2.736   6.560 -18.974  1.00  0.00     0.029 A 
ATOM     62  C   UNL     1      -1.627   6.532 -18.144  1.00  0.00     0.049 A 
ATOM     63  H   UNL     1      -1.475   5.841 -16.156  1.00  0.00     0.167 HD
ATOM     64  C   UNL     1       0.747   6.937 -17.542  1.00  0.00     0.074 A 
ATOM     65  C   UNL     1       2.090   7.396 -17.835  1.00  0.00     0.031 C 
ATOM     66  C   UNL     1      -0.281   6.970 -18.426  1.00  0.00     0.037 A 
BRANCH  53  67
ATOM     67  C   UNL     1      -5.597   4.707 -16.198  1.00  0.00     0.058 A 
ATOM     68  C   UNL     1      -6.641   5.400 -15.565  1.00  0.00     0.135 A 
ATOM     69  C   UNL     1      -5.941   3.674 -17.085  1.00  0.00     0.135 A 
ATOM     70  F   UNL     1      -6.369   6.386 -14.695  1.00  0.00    -0.206 F 
ATOM     71  C   UNL     1      -7.974   5.057 -15.772  1.00  0.00     0.059 A 
ATOM     72  C   UNL     1      -7.268   3.331 -17.328  1.00  0.00     0.059 A 
ATOM     73  F   UNL     1      -4.983   2.979 -17.717  1.00  0.00    -0.206 F 
ATOM     74  C   UNL     1      -8.277   4.016 -16.651  1.00  0.00     0.060 A 
BRANCH  74  75
ATOM     75  S   UNL     1     -10.008   3.565 -16.894  1.00  0.00     0.124 S 
ATOM     76  O   UNL     1     -10.308   2.880 -15.640  1.00  0.00    -0.237 OA
ATOM     77  O   UNL     1     -10.648   4.864 -17.075  1.00  0.00    -0.237 OA
ATOM     78  O   UNL     1      -9.976   2.716 -18.081  1.00  0.00    -0.744 OA
ENDBRANCH  74  75
ENDBRANCH  53  67
BRANCH  54  79
ATOM     79  C   UNL     1       3.998   6.636 -14.141  1.00  0.00     0.058 A 
ATOM     80  C   UNL     1       4.464   7.952 -14.020  1.00  0.00     0.135 A 
ATOM     81  C   UNL     1       4.918   5.595 -13.937  1.00  0.00     0.135 A 
ATOM     82  F   UNL     1       3.626   8.981 -14.217  1.00  0.00    -0.206 F 
ATOM     83  C   UNL     1       5.791   8.229 -13.708  1.00  0.00     0.059 A 
ATOM     84  C   UNL     1       6.244   5.846 -13.601  1.00  0.00     0.059 A 
ATOM     85  F   UNL     1       4.519   4.317 -14.033  1.00  0.00    -0.206 F 
ATOM     86  C   UNL     1       6.672   7.168 -13.492  1.00  0.00     0.060 A 
BRANCH  86  87
ATOM     87  S   UNL     1       8.374   7.537 -13.011  1.00  0.00     0.124 S 
ATOM     88  O   UNL     1       8.936   8.023 -14.266  1.00  0.00    -0.237 OA
ATOM     89  O   UNL     1       8.185   8.538 -11.966  1.00  0.00    -0.237 OA
ATOM     90  O   UNL     1       8.878   6.247 -12.549  1.00  0.00    -0.744 OA
ENDBRANCH  86  87
ENDBRANCH  54  79
BRANCH  66  91
ATOM     91  C   UNL     1       0.006   7.530 -19.793  1.00  0.00     0.058 A 
ATOM     92  C   UNL     1       0.774   6.823 -20.731  1.00  0.00     0.135 A 
ATOM     93  C   UNL     1      -0.516   8.775 -20.180  1.00  0.00     0.135 A 
ATOM     94  F   UNL     1       1.301   5.630 -20.412  1.00  0.00    -0.206 F 
ATOM     95  C   UNL     1       1.043   7.345 -21.993  1.00  0.00     0.059 A 
ATOM     96  C   UNL     1      -0.283   9.304 -21.446  1.00  0.00     0.059 A 
ATOM     97  F   UNL     1      -1.268   9.488 -19.326  1.00  0.00    -0.206 F 
ATOM     98  C   UNL     1       0.512   8.588 -22.340  1.00  0.00     0.060 A 
BRANCH  98  99
ATOM     99  S   UNL     1       0.860   9.252 -23.983  1.00  0.00     0.124 S 
ATOM    100  O   UNL     1       2.245   9.685 -23.837  1.00  0.00    -0.237 OA
ATOM    101  O   UNL     1       0.646   8.091 -24.842  1.00  0.00    -0.237 OA
ATOM    102  O   UNL     1      -0.122  10.322 -24.131  1.00  0.00    -0.744 OA
ENDBRANCH  98  99
ENDBRANCH  66  91
ENDBRANCH  40  41
ENDBRANCH  33  35
ENDBRANCH  32  33
ENDBRANCH  31  32
ENDBRANCH   1  31
TORSDOF 21
