REMARK SMILES Cc1cc(/C=C2\C(=O)N(Cc3ccco3)C(=O)N=C2OCCOCCOC(=O)c2ccc(-c3c4nc(c(-c5c(F)cc(S(=O)(=O)[O-])cc5F)c5ccc([nH]5)c(-c5c(F)cc(S(=O)(=O)[O-])cc5F)c5nc(c(-c6c(F)cc(S(=O)(=O)[O-])cc6F)c6ccc3[nH]6)C=C5)C=C4)cc2)c(C)n1-c1ccc(Cl)c(C(=O)[O-])c1
REMARK SMILES IDX 24 1 23 2 22 3 21 4 20 5 19 6 5 7 6 8 7 9 8 10 9 11 18 12
REMARK SMILES IDX 16 13 17 14 4 15 1 16 2 17 3 18 97 19 95 20 96 21 98 22
REMARK SMILES IDX 99 23 107 24 100 25 103 26 101 27 102 28 104 29 105 30
REMARK SMILES IDX 106 31 10 32 11 33 12 34 15 35 13 36 14 37 25 38 26 39 27 40
REMARK SMILES IDX 28 41 29 42 30 43 94 44 31 45 93 46 32 47 33 48 34 49 87 50
REMARK SMILES IDX 35 51 92 52 86 53 88 54 36 55 91 56 85 57 84 58 37 60 71 61
REMARK SMILES IDX 50 62 70 63 51 64 54 65 69 66 89 67 52 68 53 69 68 71 90 72
REMARK SMILES IDX 55 73 38 74 39 75 48 76 40 77 41 78 47 79 49 80 42 81 43 82
REMARK SMILES IDX 44 83 45 84 46 85 72 86 73 87 82 88 74 89 75 90 81 91 83 92
REMARK SMILES IDX 76 93 77 94 78 95 79 96 80 97 56 98 57 99 66 100 58 101
REMARK SMILES IDX 59 102 65 103 67 104 60 105 61 106 62 107 63 108 64 109
REMARK H PARENT 88 59 54 70
REMARK Flexibility Score: inf
ROOT
ATOM      1  C   UNL     1      -1.632  -7.419  -0.246  1.00  0.00     0.202 C 
ENDROOT
BRANCH   1   2
ATOM      2  O   UNL     1      -1.431  -8.594  -1.053  1.00  0.00    -0.374 OA
BRANCH   2   3
ATOM      3  C   UNL     1      -0.171  -9.238  -0.849  1.00  0.00     0.202 C 
BRANCH   3   4
ATOM      4  C   UNL     1       0.905  -8.837  -1.875  1.00  0.00     0.260 C 
BRANCH   4   5
ATOM      5  O   UNL     1       1.029  -7.406  -2.029  1.00  0.00    -0.475 OA
BRANCH   5   6
ATOM      6  C   UNL     1       0.321  -6.834  -3.035  1.00  0.00     0.231 C 
ATOM      7  C   UNL     1       0.537  -4.641  -1.927  1.00  0.00     0.029 C 
ATOM      8  C   UNL     1       0.388  -5.367  -3.053  1.00  0.00     0.103 C 
ATOM      9  C   UNL     1       0.086  -4.801  -4.391  1.00  0.00     0.267 C 
ATOM     10  O   UNL     1       0.635  -3.824  -4.835  1.00  0.00    -0.268 OA
ATOM     11  N   UNL     1      -0.911  -5.527  -5.031  1.00  0.00    -0.250 N 
ATOM     12  N   UNL     1      -0.334  -7.530  -3.901  1.00  0.00    -0.156 NA
ATOM     13  C   UNL     1      -1.125  -6.874  -4.800  1.00  0.00     0.354 C 
ATOM     14  O   UNL     1      -2.020  -7.484  -5.396  1.00  0.00    -0.245 OA
BRANCH   7  15
ATOM     15  C   UNL     1       0.390  -3.229  -1.689  1.00  0.00    -0.003 A 
ATOM     16  C   UNL     1       1.161  -0.086   0.162  1.00  0.00     0.065 C 
ATOM     17  C   UNL     1       0.724  -1.189  -0.740  1.00  0.00     0.020 A 
ATOM     18  C   UNL     1       1.128  -2.511  -0.715  1.00  0.00     0.031 A 
ATOM     19  N   UNL     1      -0.258  -1.070  -1.708  1.00  0.00    -0.318 N 
ATOM     20  C   UNL     1      -0.534  -2.339  -2.225  1.00  0.00     0.027 A 
ATOM     21  C   UNL     1      -1.587  -2.547  -3.258  1.00  0.00     0.065 C 
BRANCH  19  22
ATOM     22  C   UNL     1      -0.835   0.141  -2.185  1.00  0.00     0.046 A 
ATOM     23  C   UNL     1      -2.221   0.297  -2.192  1.00  0.00     0.028 A 
ATOM     24  C   UNL     1      -0.013   1.101  -2.786  1.00  0.00     0.038 A 
ATOM     25  C   UNL     1      -2.791   1.365  -2.882  1.00  0.00     0.023 A 
ATOM     26  C   UNL     1      -0.582   2.195  -3.474  1.00  0.00     0.018 A 
ATOM     27  C   UNL     1      -1.982   2.303  -3.538  1.00  0.00     0.050 A 
ATOM     28  Cl  UNL     1      -2.823   3.534  -4.414  1.00  0.00    -0.084 Cl
BRANCH  26  29
ATOM     29  C   UNL     1       0.312   3.178  -4.143  1.00  0.00     0.073 C 
ATOM     30  O   UNL     1       0.004   4.115  -4.866  1.00  0.00    -0.545 OA
ATOM     31  O   UNL     1       1.611   2.959  -3.872  1.00  0.00    -0.545 OA
ENDBRANCH  26  29
ENDBRANCH  19  22
ENDBRANCH   7  15
BRANCH  11  32
ATOM     32  C   UNL     1      -1.793  -4.829  -5.946  1.00  0.00     0.206 C 
BRANCH  32  33
ATOM     33  C   UNL     1      -1.393  -5.002  -7.359  1.00  0.00     0.123 A 
ATOM     34  C   UNL     1      -1.570  -6.016  -8.277  1.00  0.00     0.047 A 
ATOM     35  O   UNL     1      -0.784  -3.936  -7.951  1.00  0.00    -0.467 OA
ATOM     36  C   UNL     1      -1.027  -5.545  -9.495  1.00  0.00     0.042 A 
ATOM     37  C   UNL     1      -0.560  -4.277  -9.244  1.00  0.00     0.195 A 
ENDBRANCH  32  33
ENDBRANCH  11  32
ENDBRANCH   5   6
ENDBRANCH   4   5
ENDBRANCH   3   4
ENDBRANCH   2   3
ENDBRANCH   1   2
BRANCH   1  38
ATOM     38  C   UNL     1      -2.257  -7.700   1.142  1.00  0.00     0.261 C 
BRANCH  38  39
ATOM     39  O   UNL     1      -1.624  -6.994   2.267  1.00  0.00    -0.460 OA
BRANCH  39  40
ATOM     40  C   UNL     1      -1.081  -7.787   3.244  1.00  0.00     0.338 C 
ATOM     41  O   UNL     1      -0.862  -8.983   3.091  1.00  0.00    -0.246 OA
BRANCH  40  42
ATOM     42  C   UNL     1      -0.638  -7.071   4.512  1.00  0.00     0.060 A 
ATOM     43  C   UNL     1       0.671  -7.281   4.942  1.00  0.00     0.016 A 
ATOM     44  C   UNL     1      -1.490  -6.423   5.426  1.00  0.00     0.016 A 
ATOM     45  C   UNL     1       1.109  -6.860   6.232  1.00  0.00     0.010 A 
ATOM     46  C   UNL     1      -1.056  -6.060   6.770  1.00  0.00     0.010 A 
ATOM     47  C   UNL     1       0.255  -6.292   7.231  1.00  0.00    -0.014 A 
BRANCH  47  48
ATOM     48  C   UNL     1       0.684  -6.541   8.733  1.00  0.00     0.031 A 
ATOM     49  C   UNL     1       1.014  -8.001   8.784  1.00  0.00     0.074 A 
ATOM     50  C   UNL     1       0.825  -5.882   9.948  1.00  0.00     0.049 A 
ATOM     51  N   UNL     1       0.192  -8.928   8.369  1.00  0.00    -0.248 NA
ATOM     52  C   UNL     1       2.400  -8.446   8.964  1.00  0.00     0.031 C 
ATOM     53  C   UNL     1       0.543  -4.474  10.257  1.00  0.00     0.029 A 
ATOM     54  N   UNL     1       1.281  -6.331  11.224  1.00  0.00    -0.354 N 
ATOM     55  C   UNL     1       0.857 -10.110   8.576  1.00  0.00     0.074 A 
ATOM     56  C   UNL     1       2.258  -9.741   8.676  1.00  0.00     0.031 C 
ATOM     57  C   UNL     1       0.908  -4.158  11.535  1.00  0.00     0.029 A 
ATOM     58  C   UNL     1       1.415  -5.331  12.246  1.00  0.00     0.049 A 
ATOM     59  H   UNL     1       1.493  -7.277  11.395  1.00  0.00     0.167 HD
ATOM     60  C   UNL     1       0.211 -11.103   9.250  1.00  0.00     0.037 A 
ATOM     61  C   UNL     1       1.834  -5.428  13.568  1.00  0.00     0.037 A 
ATOM     62  C   UNL     1       0.789 -11.378  10.537  1.00  0.00     0.049 A 
ATOM     63  C   UNL     1       1.788  -6.848  13.957  1.00  0.00     0.074 A 
ATOM     64  C   UNL     1       2.073 -11.549  11.014  1.00  0.00     0.029 A 
ATOM     65  N   UNL     1       0.006 -11.065  11.630  1.00  0.00    -0.354 N 
ATOM     66  N   UNL     1       0.677  -7.445  14.250  1.00  0.00    -0.248 NA
ATOM     67  C   UNL     1       2.997  -7.641  14.162  1.00  0.00     0.031 C 
ATOM     68  C   UNL     1       2.104 -10.857  12.252  1.00  0.00     0.029 A 
ATOM     69  C   UNL     1       0.806 -10.499  12.597  1.00  0.00     0.049 A 
ATOM     70  H   UNL     1      -0.963 -11.220  11.704  1.00  0.00     0.167 HD
ATOM     71  C   UNL     1       0.997  -8.764  14.223  1.00  0.00     0.074 A 
ATOM     72  C   UNL     1       2.429  -8.820  14.427  1.00  0.00     0.031 C 
ATOM     73  C   UNL     1       0.180  -9.579  13.516  1.00  0.00     0.037 A 
BRANCH  60  74
ATOM     74  C   UNL     1      -1.251 -11.261   8.969  1.00  0.00     0.058 A 
ATOM     75  C   UNL     1      -1.694 -12.414   8.315  1.00  0.00     0.135 A 
ATOM     76  C   UNL     1      -2.215 -10.289   9.308  1.00  0.00     0.135 A 
ATOM     77  F   UNL     1      -0.828 -13.397   8.018  1.00  0.00    -0.206 F 
ATOM     78  C   UNL     1      -3.029 -12.575   7.957  1.00  0.00     0.059 A 
ATOM     79  C   UNL     1      -3.547 -10.411   8.929  1.00  0.00     0.059 A 
ATOM     80  F   UNL     1      -1.867  -9.219  10.041  1.00  0.00    -0.206 F 
ATOM     81  C   UNL     1      -3.942 -11.556   8.243  1.00  0.00     0.060 A 
BRANCH  81  82
ATOM     82  S   UNL     1      -5.634 -11.727   7.640  1.00  0.00     0.124 S 
ATOM     83  O   UNL     1      -5.432 -12.266   6.296  1.00  0.00    -0.237 OA
ATOM     84  O   UNL     1      -6.201 -12.662   8.606  1.00  0.00    -0.237 OA
ATOM     85  O   UNL     1      -6.151 -10.364   7.677  1.00  0.00    -0.744 OA
ENDBRANCH  81  82
ENDBRANCH  60  74
BRANCH  61  86
ATOM     86  C   UNL     1       2.221  -4.583  14.804  1.00  0.00     0.058 A 
ATOM     87  C   UNL     1       1.957  -5.072  16.128  1.00  0.00     0.135 A 
ATOM     88  C   UNL     1       3.182  -3.562  14.766  1.00  0.00     0.135 A 
ATOM     89  F   UNL     1       1.026  -6.011  16.346  1.00  0.00    -0.206 F 
ATOM     90  C   UNL     1       2.680  -4.701  17.272  1.00  0.00     0.059 A 
ATOM     91  C   UNL     1       3.897  -3.139  15.918  1.00  0.00     0.059 A 
ATOM     92  F   UNL     1       3.525  -3.014  13.591  1.00  0.00    -0.206 F 
ATOM     93  C   UNL     1       3.680  -3.753  17.155  1.00  0.00     0.060 A 
BRANCH  93  94
ATOM     94  S   UNL     1       4.744  -3.442  18.598  1.00  0.00     0.124 S 
ATOM     95  O   UNL     1       3.805  -2.905  19.577  1.00  0.00    -0.237 OA
ATOM     96  O   UNL     1       5.267  -4.774  18.890  1.00  0.00    -0.237 OA
ATOM     97  O   UNL     1       5.731  -2.493  18.092  1.00  0.00    -0.744 OA
ENDBRANCH  93  94
ENDBRANCH  61  86
BRANCH  73  98
ATOM     98  C   UNL     1      -1.313  -9.277  13.577  1.00  0.00     0.058 A 
ATOM     99  C   UNL     1      -1.933  -8.023  13.361  1.00  0.00     0.135 A 
ATOM    100  C   UNL     1      -2.168 -10.323  13.957  1.00  0.00     0.135 A 
ATOM    101  F   UNL     1      -1.262  -6.980  12.848  1.00  0.00    -0.206 F 
ATOM    102  C   UNL     1      -3.283  -7.797  13.642  1.00  0.00     0.059 A 
ATOM    103  C   UNL     1      -3.533 -10.136  14.181  1.00  0.00     0.059 A 
ATOM    104  F   UNL     1      -1.674 -11.562  14.116  1.00  0.00    -0.206 F 
ATOM    105  C   UNL     1      -4.072  -8.857  14.073  1.00  0.00     0.060 A 
BRANCH 105 106
ATOM    106  S   UNL     1      -5.808  -8.557  14.473  1.00  0.00     0.124 S 
ATOM    107  O   UNL     1      -5.709  -7.942  15.794  1.00  0.00    -0.237 OA
ATOM    108  O   UNL     1      -6.240  -7.668  13.399  1.00  0.00    -0.237 OA
ATOM    109  O   UNL     1      -6.392  -9.894  14.457  1.00  0.00    -0.744 OA
ENDBRANCH 105 106
ENDBRANCH  73  98
ENDBRANCH  47  48
ENDBRANCH  40  42
ENDBRANCH  39  40
ENDBRANCH  38  39
ENDBRANCH   1  38
TORSDOF 21
