REMARK SMILES O=C(OCCOCCOC(=O)[C@@H]1CCCC[C@@H]1NS(=O)(=O)c1ccc2ccccc2c1)c1ccc(-c2c3nc(c(-c4c(F)cc(S(=O)(=O)[O-])cc4F)c4ccc([nH]4)c(-c4c(F)cc(S(=O)(=O)[O-])cc4F)c4nc(c(-c5c(F)cc(S(=O)(=O)[O-])cc5F)c5ccc2[nH]5)C=C4)C=C3)cc1
REMARK SMILES IDX 6 1 5 2 4 3 3 4 2 5 1 6 32 7 33 8 97 9 34 10 96 11 35 12
REMARK SMILES IDX 36 13 37 14 90 15 38 16 95 17 89 18 91 19 39 20 94 21 88 22
REMARK SMILES IDX 87 23 40 25 74 26 53 27 73 28 54 29 57 30 72 31 92 32 55 33
REMARK SMILES IDX 56 34 71 36 93 37 58 38 41 39 42 40 51 41 43 42 44 43 50 44
REMARK SMILES IDX 52 45 45 46 46 47 47 48 48 49 49 50 75 51 76 52 85 53 77 54
REMARK SMILES IDX 78 55 84 56 86 57 79 58 80 59 81 60 82 61 83 62 59 63 60 64
REMARK SMILES IDX 69 65 61 66 62 67 68 68 70 69 63 70 64 71 65 72 66 73 67 74
REMARK SMILES IDX 7 75 8 76 9 77 10 78 11 79 12 80 13 81 17 82 14 83 16 84
REMARK SMILES IDX 15 85 18 86 19 88 20 89 21 90 22 91 23 92 31 93 24 94 30 95
REMARK SMILES IDX 25 96 29 97 26 98 28 99 27 100
REMARK H PARENT 91 24 57 35 18 87
REMARK Flexibility Score: inf
ROOT
ATOM      1  O   UNL     1       3.866   1.178   0.285  1.00  0.00    -0.374 OA
ENDROOT
BRANCH   1   2
ATOM      2  C   UNL     1       4.052   1.079  -1.127  1.00  0.00     0.202 C 
BRANCH   2   3
ATOM      3  C   UNL     1       3.805  -0.330  -1.676  1.00  0.00     0.261 C 
BRANCH   3   4
ATOM      4  O   UNL     1       2.471  -0.768  -1.369  1.00  0.00    -0.460 OA
BRANCH   4   5
ATOM      5  C   UNL     1       2.034  -1.490  -0.309  1.00  0.00     0.338 C 
ATOM      6  O   UNL     1       0.822  -1.689  -0.213  1.00  0.00    -0.246 OA
BRANCH   5   7
ATOM      7  C   UNL     1       2.920  -2.063   0.755  1.00  0.00     0.060 A 
ATOM      8  C   UNL     1       4.197  -1.605   1.079  1.00  0.00     0.016 A 
ATOM      9  C   UNL     1       2.381  -3.098   1.544  1.00  0.00     0.016 A 
ATOM     10  C   UNL     1       4.928  -2.156   2.117  1.00  0.00     0.010 A 
ATOM     11  C   UNL     1       3.105  -3.655   2.606  1.00  0.00     0.010 A 
ATOM     12  C   UNL     1       4.390  -3.185   2.882  1.00  0.00    -0.014 A 
BRANCH  12  13
ATOM     13  C   UNL     1       5.287  -3.793   3.876  1.00  0.00     0.031 A 
ATOM     14  C   UNL     1       6.030  -5.033   3.485  1.00  0.00     0.074 A 
ATOM     15  C   UNL     1       5.588  -3.099   4.989  1.00  0.00     0.049 A 
ATOM     16  N   UNL     1       6.948  -5.685   4.142  1.00  0.00    -0.248 NA
ATOM     17  C   UNL     1       5.721  -5.595   2.158  1.00  0.00     0.031 C 
ATOM     18  C   UNL     1       4.998  -1.808   5.358  1.00  0.00     0.029 A 
ATOM     19  N   UNL     1       6.500  -3.343   5.978  1.00  0.00    -0.354 N 
ATOM     20  C   UNL     1       7.327  -6.731   3.312  1.00  0.00     0.074 A 
ATOM     21  C   UNL     1       6.535  -6.637   2.107  1.00  0.00     0.031 C 
ATOM     22  C   UNL     1       5.586  -1.362   6.480  1.00  0.00     0.029 A 
ATOM     23  C   UNL     1       6.552  -2.356   6.934  1.00  0.00     0.049 A 
ATOM     24  H   UNL     1       7.066  -4.149   6.004  1.00  0.00     0.167 HD
ATOM     25  C   UNL     1       8.257  -7.685   3.546  1.00  0.00     0.037 A 
ATOM     26  C   UNL     1       7.287  -2.285   8.060  1.00  0.00     0.037 A 
ATOM     27  C   UNL     1       9.007  -7.763   4.769  1.00  0.00     0.049 A 
ATOM     28  C   UNL     1       8.241  -3.415   8.343  1.00  0.00     0.074 A 
ATOM     29  C   UNL     1       9.878  -8.748   5.193  1.00  0.00     0.029 A 
ATOM     30  N   UNL     1       8.970  -6.798   5.769  1.00  0.00    -0.354 N 
ATOM     31  N   UNL     1       8.517  -4.463   7.600  1.00  0.00    -0.248 NA
ATOM     32  C   UNL     1       8.969  -3.368   9.616  1.00  0.00     0.031 C 
ATOM     33  C   UNL     1      10.346  -8.392   6.464  1.00  0.00     0.029 A 
ATOM     34  C   UNL     1       9.798  -7.166   6.813  1.00  0.00     0.049 A 
ATOM     35  H   UNL     1       8.433  -5.974   5.739  1.00  0.00     0.167 HD
ATOM     36  C   UNL     1       9.449  -5.203   8.315  1.00  0.00     0.074 A 
ATOM     37  C   UNL     1       9.714  -4.462   9.534  1.00  0.00     0.031 C 
ATOM     38  C   UNL     1      10.024  -6.393   8.009  1.00  0.00     0.037 A 
BRANCH  25  39
ATOM     39  C   UNL     1       8.440  -8.732   2.488  1.00  0.00     0.058 A 
ATOM     40  C   UNL     1       9.117  -8.461   1.288  1.00  0.00     0.135 A 
ATOM     41  C   UNL     1       7.891 -10.013   2.655  1.00  0.00     0.135 A 
ATOM     42  F   UNL     1       9.628  -7.240   1.061  1.00  0.00    -0.206 F 
ATOM     43  C   UNL     1       9.222  -9.416   0.281  1.00  0.00     0.059 A 
ATOM     44  C   UNL     1       7.999 -10.989   1.670  1.00  0.00     0.059 A 
ATOM     45  F   UNL     1       7.217 -10.317   3.776  1.00  0.00    -0.206 F 
ATOM     46  C   UNL     1       8.653 -10.676   0.479  1.00  0.00     0.060 A 
BRANCH  46  47
ATOM     47  S   UNL     1       8.771 -11.897  -0.847  1.00  0.00     0.124 S 
ATOM     48  O   UNL     1       7.813 -11.369  -1.813  1.00  0.00    -0.237 OA
ATOM     49  O   UNL     1      10.175 -11.806  -1.233  1.00  0.00    -0.237 OA
ATOM     50  O   UNL     1       8.382 -13.144  -0.195  1.00  0.00    -0.744 OA
ENDBRANCH  46  47
ENDBRANCH  25  39
BRANCH  26  51
ATOM     51  C   UNL     1       7.096  -1.163   9.019  1.00  0.00     0.058 A 
ATOM     52  C   UNL     1       8.118  -0.245   9.305  1.00  0.00     0.135 A 
ATOM     53  C   UNL     1       5.873  -0.999   9.693  1.00  0.00     0.135 A 
ATOM     54  F   UNL     1       9.309  -0.357   8.696  1.00  0.00    -0.206 F 
ATOM     55  C   UNL     1       7.945   0.775  10.239  1.00  0.00     0.059 A 
ATOM     56  C   UNL     1       5.666   0.028  10.607  1.00  0.00     0.059 A 
ATOM     57  F   UNL     1       4.855  -1.840   9.453  1.00  0.00    -0.206 F 
ATOM     58  C   UNL     1       6.715   0.900  10.889  1.00  0.00     0.060 A 
BRANCH  58  59
ATOM     59  S   UNL     1       6.486   2.226  12.094  1.00  0.00     0.124 S 
ATOM     60  O   UNL     1       7.191   1.691  13.253  1.00  0.00    -0.237 OA
ATOM     61  O   UNL     1       7.117   3.362  11.431  1.00  0.00    -0.237 OA
ATOM     62  O   UNL     1       5.034   2.312  12.222  1.00  0.00    -0.744 OA
ENDBRANCH  58  59
ENDBRANCH  26  51
BRANCH  38  63
ATOM     63  C   UNL     1      10.992  -6.946   9.011  1.00  0.00     0.058 A 
ATOM     64  C   UNL     1      10.548  -7.524  10.210  1.00  0.00     0.135 A 
ATOM     65  C   UNL     1      12.371  -6.931   8.751  1.00  0.00     0.135 A 
ATOM     66  F   UNL     1       9.238  -7.555  10.501  1.00  0.00    -0.206 F 
ATOM     67  C   UNL     1      11.444  -8.047  11.134  1.00  0.00     0.059 A 
ATOM     68  C   UNL     1      13.282  -7.471   9.650  1.00  0.00     0.059 A 
ATOM     69  F   UNL     1      12.839  -6.399   7.611  1.00  0.00    -0.206 F 
ATOM     70  C   UNL     1      12.810  -8.013  10.845  1.00  0.00     0.060 A 
BRANCH  70  71
ATOM     71  S   UNL     1      13.964  -8.717  12.039  1.00  0.00     0.124 S 
ATOM     72  O   UNL     1      14.031  -7.657  13.040  1.00  0.00    -0.237 OA
ATOM     73  O   UNL     1      13.284  -9.939  12.454  1.00  0.00    -0.237 OA
ATOM     74  O   UNL     1      15.179  -8.920  11.255  1.00  0.00    -0.744 OA
ENDBRANCH  70  71
ENDBRANCH  38  63
ENDBRANCH  12  13
ENDBRANCH   5   7
ENDBRANCH   4   5
ENDBRANCH   3   4
ENDBRANCH   2   3
ENDBRANCH   1   2
BRANCH   1  75
ATOM     75  C   UNL     1       2.546   1.538   0.710  1.00  0.00     0.202 C 
BRANCH  75  76
ATOM     76  C   UNL     1       2.568   2.950   1.277  1.00  0.00     0.261 C 
BRANCH  76  77
ATOM     77  O   UNL     1       3.122   3.801   0.262  1.00  0.00    -0.463 OA
BRANCH  77  78
ATOM     78  C   UNL     1       4.457   4.040   0.392  1.00  0.00     0.310 C 
ATOM     79  O   UNL     1       5.130   3.834   1.391  1.00  0.00    -0.252 OA
BRANCH  78  80
ATOM     80  C   UNL     1       4.994   4.634  -0.889  1.00  0.00     0.117 C 
ATOM     81  C   UNL     1       6.485   4.295  -1.029  1.00  0.00     0.017 C 
ATOM     82  C   UNL     1       4.684   6.140  -0.954  1.00  0.00     0.084 C 
ATOM     83  C   UNL     1       7.075   4.918  -2.283  1.00  0.00     0.001 C 
ATOM     84  C   UNL     1       5.394   6.789  -2.148  1.00  0.00     0.021 C 
ATOM     85  C   UNL     1       6.872   6.427  -2.270  1.00  0.00     0.002 C 
BRANCH  82  86
ATOM     86  N   UNL     1       5.020   6.783   0.326  1.00  0.00    -0.207 NA
ATOM     87  H   UNL     1       6.033   6.896   0.313  1.00  0.00     0.141 HD
BRANCH  86  88
ATOM     88  S   UNL     1       4.418   8.246   0.863  1.00  0.00     0.240 S 
ATOM     89  O   UNL     1       5.021   8.458   2.160  1.00  0.00    -0.207 OA
ATOM     90  O   UNL     1       4.571   9.209  -0.204  1.00  0.00    -0.207 OA
BRANCH  88  91
ATOM     91  C   UNL     1       2.670   8.078   1.143  1.00  0.00     0.083 A 
ATOM     92  C   UNL     1       1.973   6.895   0.931  1.00  0.00     0.022 A 
ATOM     93  C   UNL     1       1.975   9.230   1.527  1.00  0.00     0.030 A 
ATOM     94  C   UNL     1       0.578   6.873   1.003  1.00  0.00     0.010 A 
ATOM     95  C   UNL     1       0.574   9.217   1.633  1.00  0.00    -0.017 A 
ATOM     96  C   UNL     1      -0.136   8.032   1.334  1.00  0.00    -0.018 A 
ATOM     97  C   UNL     1      -0.138  10.363   2.014  1.00  0.00     0.009 A 
ATOM     98  C   UNL     1      -1.539   8.038   1.376  1.00  0.00     0.009 A 
ATOM     99  C   UNL     1      -1.533  10.351   2.066  1.00  0.00     0.001 A 
ATOM    100  C   UNL     1      -2.233   9.194   1.734  1.00  0.00     0.001 A 
ENDBRANCH  88  91
ENDBRANCH  86  88
ENDBRANCH  82  86
ENDBRANCH  78  80
ENDBRANCH  77  78
ENDBRANCH  76  77
ENDBRANCH  75  76
ENDBRANCH   1  75
TORSDOF 20
