REMARK SMILES C[C@@H](C(=O)OCCOCCOC(=O)c1ccc(-c2c3nc(c(-c4c(F)cc(S(=O)(=O)[O-])cc4F)c4ccc([nH]4)c(-c4c(F)cc(S(=O)(=O)[O-])cc4F)c4nc(c(-c5c(F)cc(S(=O)(=O)[O-])cc5F)c5ccc2[nH]5)C=C4)C=C3)cc1)c1ccc(-c2cccc(OC(=O)NC3CC3)c2)c(F)c1
REMARK SMILES IDX 7 1 6 2 5 3 3 4 4 5 2 6 1 7 80 8 81 9 99 10 82 11 97 12
REMARK SMILES IDX 83 13 98 14 84 15 85 16 96 17 86 18 88 19 87 20 89 21 90 22
REMARK SMILES IDX 91 23 92 24 93 26 94 27 95 28 8 29 9 30 10 31 11 32 12 33
REMARK SMILES IDX 13 34 14 35 15 36 79 37 16 38 78 39 17 40 18 41 19 42 72 43
REMARK SMILES IDX 20 44 77 45 71 46 73 47 21 48 76 49 70 50 69 51 22 53 56 54
REMARK SMILES IDX 35 55 55 56 36 57 39 58 54 59 74 60 37 61 38 62 53 64 75 65
REMARK SMILES IDX 40 66 23 67 24 68 33 69 25 70 26 71 32 72 34 73 27 74 28 75
REMARK SMILES IDX 29 76 30 77 31 78 57 79 58 80 67 81 59 82 60 83 66 84 68 85
REMARK SMILES IDX 61 86 62 87 63 88 64 89 65 90 41 91 42 92 51 93 43 94 44 95
REMARK SMILES IDX 50 96 52 97 45 98 46 99 47 100 48 101 49 102
REMARK H PARENT 92 25 73 52 39 63
REMARK Flexibility Score: inf
ROOT
ATOM      1  C   UNL     1       2.166   1.418   4.423  1.00  0.00     0.202 C 
ENDROOT
BRANCH   1   2
ATOM      2  C   UNL     1       2.267  -0.077   4.103  1.00  0.00     0.261 C 
BRANCH   2   3
ATOM      3  O   UNL     1       1.973  -0.348   2.719  1.00  0.00    -0.463 OA
BRANCH   3   4
ATOM      4  C   UNL     1       0.913  -1.172   2.493  1.00  0.00     0.313 C 
ATOM      5  O   UNL     1       0.315  -1.782   3.373  1.00  0.00    -0.252 OA
BRANCH   4   6
ATOM      6  C   UNL     1       0.516  -1.245   1.009  1.00  0.00     0.126 C 
ATOM      7  C   UNL     1       1.293  -0.316   0.071  1.00  0.00     0.025 C 
BRANCH   6   8
ATOM      8  C   UNL     1      -1.000  -1.098   0.874  1.00  0.00    -0.031 A 
ATOM      9  C   UNL     1      -1.645   0.145   0.776  1.00  0.00     0.005 A 
ATOM     10  C   UNL     1      -1.799  -2.244   0.987  1.00  0.00     0.044 A 
ATOM     11  C   UNL     1      -3.041   0.245   0.856  1.00  0.00     0.012 A 
ATOM     12  C   UNL     1      -3.187  -2.138   1.051  1.00  0.00     0.131 A 
ATOM     13  C   UNL     1      -3.837  -0.896   1.020  1.00  0.00     0.018 A 
ATOM     14  F   UNL     1      -3.897  -3.269   1.179  1.00  0.00    -0.206 F 
BRANCH  13  15
ATOM     15  C   UNL     1      -5.287  -0.787   1.240  1.00  0.00    -0.012 A 
ATOM     16  C   UNL     1      -6.126  -0.102   0.348  1.00  0.00     0.009 A 
ATOM     17  C   UNL     1      -5.861  -1.364   2.388  1.00  0.00     0.056 A 
ATOM     18  C   UNL     1      -7.501  -0.013   0.585  1.00  0.00     0.004 A 
ATOM     19  C   UNL     1      -7.229  -1.276   2.622  1.00  0.00     0.133 A 
ATOM     20  C   UNL     1      -8.054  -0.603   1.721  1.00  0.00     0.047 A 
BRANCH  19  21
ATOM     21  O   UNL     1      -7.886  -1.843   3.743  1.00  0.00    -0.410 OA
BRANCH  21  22
ATOM     22  C   UNL     1      -7.310  -2.667   4.705  1.00  0.00     0.412 C 
ATOM     23  O   UNL     1      -6.120  -2.959   4.798  1.00  0.00    -0.224 OA
ATOM     24  N   UNL     1      -8.202  -3.190   5.604  1.00  0.00    -0.318 N 
ATOM     25  H   UNL     1      -7.813  -3.807   6.265  1.00  0.00     0.167 HD
BRANCH  24  26
ATOM     26  C   UNL     1      -9.604  -2.980   5.730  1.00  0.00     0.085 C 
ATOM     27  C   UNL     1     -10.565  -2.608   4.638  1.00  0.00     0.027 C 
ATOM     28  C   UNL     1     -10.536  -4.014   5.150  1.00  0.00     0.027 C 
ENDBRANCH  24  26
ENDBRANCH  21  22
ENDBRANCH  19  21
ENDBRANCH  13  15
ENDBRANCH   6   8
ENDBRANCH   4   6
ENDBRANCH   3   4
ENDBRANCH   2   3
ENDBRANCH   1   2
BRANCH   1  29
ATOM     29  O   UNL     1       0.899   2.054   4.260  1.00  0.00    -0.374 OA
BRANCH  29  30
ATOM     30  C   UNL     1       0.413   2.233   2.934  1.00  0.00     0.202 C 
BRANCH  30  31
ATOM     31  C   UNL     1       1.059   3.318   2.061  1.00  0.00     0.261 C 
BRANCH  31  32
ATOM     32  O   UNL     1       2.466   3.117   1.853  1.00  0.00    -0.460 OA
BRANCH  32  33
ATOM     33  C   UNL     1       3.254   3.993   2.528  1.00  0.00     0.338 C 
ATOM     34  O   UNL     1       2.888   4.937   3.209  1.00  0.00    -0.246 OA
BRANCH  33  35
ATOM     35  C   UNL     1       4.658   3.544   2.496  1.00  0.00     0.060 A 
ATOM     36  C   UNL     1       5.296   3.349   3.728  1.00  0.00     0.016 A 
ATOM     37  C   UNL     1       5.360   3.400   1.299  1.00  0.00     0.016 A 
ATOM     38  C   UNL     1       6.656   3.061   3.771  1.00  0.00     0.010 A 
ATOM     39  C   UNL     1       6.730   3.119   1.345  1.00  0.00     0.010 A 
ATOM     40  C   UNL     1       7.391   2.988   2.581  1.00  0.00    -0.014 A 
BRANCH  40  41
ATOM     41  C   UNL     1       8.871   2.922   2.645  1.00  0.00     0.031 A 
ATOM     42  C   UNL     1       9.668   4.172   2.382  1.00  0.00     0.074 A 
ATOM     43  C   UNL     1       9.492   1.776   2.975  1.00  0.00     0.049 A 
ATOM     44  N   UNL     1      10.964   4.337   2.354  1.00  0.00    -0.248 NA
ATOM     45  C   UNL     1       8.899   5.398   2.112  1.00  0.00     0.031 C 
ATOM     46  C   UNL     1       8.822   0.516   3.297  1.00  0.00     0.029 A 
ATOM     47  N   UNL     1      10.828   1.485   3.090  1.00  0.00    -0.354 N 
ATOM     48  C   UNL     1      11.169   5.679   2.051  1.00  0.00     0.074 A 
ATOM     49  C   UNL     1       9.863   6.276   1.875  1.00  0.00     0.031 C 
ATOM     50  C   UNL     1       9.752  -0.415   3.567  1.00  0.00     0.029 A 
ATOM     51  C   UNL     1      11.081   0.170   3.399  1.00  0.00     0.049 A 
ATOM     52  H   UNL     1      11.538   2.155   2.964  1.00  0.00     0.167 HD
ATOM     53  C   UNL     1      12.339   6.351   1.938  1.00  0.00     0.037 A 
ATOM     54  C   UNL     1      12.251  -0.489   3.510  1.00  0.00     0.037 A 
ATOM     55  C   UNL     1      13.633   5.747   2.123  1.00  0.00     0.049 A 
ATOM     56  C   UNL     1      13.541   0.265   3.311  1.00  0.00     0.074 A 
ATOM     57  C   UNL     1      14.879   6.345   2.055  1.00  0.00     0.029 A 
ATOM     58  N   UNL     1      13.851   4.405   2.402  1.00  0.00    -0.354 N 
ATOM     59  N   UNL     1      13.721   1.538   3.048  1.00  0.00    -0.248 NA
ATOM     60  C   UNL     1      14.787  -0.505   3.429  1.00  0.00     0.031 C 
ATOM     61  C   UNL     1      15.850   5.354   2.231  1.00  0.00     0.029 A 
ATOM     62  C   UNL     1      15.210   4.150   2.477  1.00  0.00     0.049 A 
ATOM     63  H   UNL     1      13.143   3.732   2.528  1.00  0.00     0.167 HD
ATOM     64  C   UNL     1      15.099   1.727   3.001  1.00  0.00     0.074 A 
ATOM     65  C   UNL     1      15.704   0.440   3.273  1.00  0.00     0.031 C 
ATOM     66  C   UNL     1      15.799   2.863   2.758  1.00  0.00     0.037 A 
BRANCH  53  67
ATOM     67  C   UNL     1      12.280   7.809   1.568  1.00  0.00     0.058 A 
ATOM     68  C   UNL     1      11.799   8.785   2.455  1.00  0.00     0.135 A 
ATOM     69  C   UNL     1      12.751   8.241   0.316  1.00  0.00     0.135 A 
ATOM     70  F   UNL     1      11.320   8.430   3.658  1.00  0.00    -0.206 F 
ATOM     71  C   UNL     1      11.765  10.133   2.107  1.00  0.00     0.059 A 
ATOM     72  C   UNL     1      12.755   9.586  -0.041  1.00  0.00     0.059 A 
ATOM     73  F   UNL     1      13.218   7.351  -0.573  1.00  0.00    -0.206 F 
ATOM     74  C   UNL     1      12.248  10.523   0.856  1.00  0.00     0.060 A 
BRANCH  74  75
ATOM     75  S   UNL     1      12.206  12.275   0.424  1.00  0.00     0.124 S 
ATOM     76  O   UNL     1      10.774  12.499   0.250  1.00  0.00    -0.237 OA
ATOM     77  O   UNL     1      12.806  12.899   1.599  1.00  0.00    -0.237 OA
ATOM     78  O   UNL     1      13.004  12.345  -0.796  1.00  0.00    -0.744 OA
ENDBRANCH  74  75
ENDBRANCH  53  67
BRANCH  54  79
ATOM     79  C   UNL     1      12.258  -1.946   3.812  1.00  0.00     0.058 A 
ATOM     80  C   UNL     1      12.752  -2.434   5.030  1.00  0.00     0.135 A 
ATOM     81  C   UNL     1      11.773  -2.882   2.884  1.00  0.00     0.135 A 
ATOM     82  F   UNL     1      13.237  -1.582   5.946  1.00  0.00    -0.206 F 
ATOM     83  C   UNL     1      12.780  -3.796   5.314  1.00  0.00     0.059 A 
ATOM     84  C   UNL     1      11.762  -4.246   3.156  1.00  0.00     0.059 A 
ATOM     85  F   UNL     1      11.280  -2.469   1.706  1.00  0.00    -0.206 F 
ATOM     86  C   UNL     1      12.278  -4.694   4.370  1.00  0.00     0.060 A 
BRANCH  86  87
ATOM     87  S   UNL     1      12.278  -6.456   4.768  1.00  0.00     0.124 S 
ATOM     88  O   UNL     1      13.700  -6.773   4.699  1.00  0.00    -0.237 OA
ATOM     89  O   UNL     1      11.684  -6.467   6.101  1.00  0.00    -0.237 OA
ATOM     90  O   UNL     1      11.450  -7.037   3.715  1.00  0.00    -0.744 OA
ENDBRANCH  86  87
ENDBRANCH  54  79
BRANCH  66  91
ATOM     91  C   UNL     1      17.302   2.782   2.818  1.00  0.00     0.058 A 
ATOM     92  C   UNL     1      18.050   2.117   1.834  1.00  0.00     0.135 A 
ATOM     93  C   UNL     1      18.005   3.428   3.849  1.00  0.00     0.135 A 
ATOM     94  F   UNL     1      17.430   1.478   0.829  1.00  0.00    -0.206 F 
ATOM     95  C   UNL     1      19.441   2.073   1.884  1.00  0.00     0.059 A 
ATOM     96  C   UNL     1      19.395   3.425   3.901  1.00  0.00     0.059 A 
ATOM     97  F   UNL     1      17.341   4.089   4.810  1.00  0.00    -0.206 F 
ATOM     98  C   UNL     1      20.104   2.733   2.920  1.00  0.00     0.060 A 
BRANCH  98  99
ATOM     99  S   UNL     1      21.909   2.695   2.954  1.00  0.00     0.124 S 
ATOM    100  O   UNL     1      22.168   1.312   3.338  1.00  0.00    -0.237 OA
ATOM    101  O   UNL     1      22.253   3.047   1.579  1.00  0.00    -0.237 OA
ATOM    102  O   UNL     1      22.253   3.699   3.956  1.00  0.00    -0.744 OA
ENDBRANCH  98  99
ENDBRANCH  66  91
ENDBRANCH  40  41
ENDBRANCH  33  35
ENDBRANCH  32  33
ENDBRANCH  31  32
ENDBRANCH  30  31
ENDBRANCH  29  30
ENDBRANCH   1  29
TORSDOF 22
