REMARK SMILES Cc1ccccc1[C@H]1[NH2+][C@@H](C(=O)OCCOCCOC(=O)c2ccc(-c3c4nc(c(-c5c(F)cc(S(=O)(=O)[O-])cc5F)c5ccc([nH]5)c(-c5c(F)cc(S(=O)(=O)[O-])cc5F)c5nc(c(-c6c(F)cc(S(=O)(=O)[O-])cc6F)c6ccc3[nH]6)C=C5)C=C4)cc2)CC2=c3ccccc3=N[C@@H]21
REMARK SMILES IDX 17 1 16 2 15 3 14 4 13 5 11 6 12 7 10 8 8 9 9 10 97 11 89 14
REMARK SMILES IDX 96 15 88 16 90 17 95 18 91 19 94 20 92 21 93 22 7 23 1 24
REMARK SMILES IDX 2 25 3 26 4 27 6 28 5 29 18 30 19 31 20 32 21 33 22 34 23 35
REMARK SMILES IDX 87 36 24 37 86 38 25 39 26 40 27 41 80 42 28 43 85 44 79 45
REMARK SMILES IDX 81 46 29 47 84 48 78 49 77 50 30 52 64 53 43 54 63 55 44 56
REMARK SMILES IDX 47 57 62 58 82 59 45 60 46 61 61 63 83 64 48 65 31 66 32 67
REMARK SMILES IDX 41 68 33 69 34 70 40 71 42 72 35 73 36 74 37 75 38 76 39 77
REMARK SMILES IDX 65 78 66 79 75 80 67 81 68 82 74 83 76 84 69 85 70 86 71 87
REMARK SMILES IDX 72 88 73 89 49 90 50 91 59 92 51 93 52 94 58 95 60 96 53 97
REMARK SMILES IDX 54 98 55 99 56 100 57 101
REMARK H PARENT 9 12 9 13 81 51 47 62
REMARK Flexibility Score: inf
ROOT
ATOM      1  C   UNL     1      -1.246   3.005   2.036  1.00  0.00     0.202 C 
ENDROOT
BRANCH   1   2
ATOM      2  O   UNL     1      -2.549   3.595   2.008  1.00  0.00    -0.374 OA
BRANCH   2   3
ATOM      3  C   UNL     1      -2.781   4.881   1.347  1.00  0.00     0.202 C 
BRANCH   3   4
ATOM      4  C   UNL     1      -1.692   5.841   0.840  1.00  0.00     0.261 C 
BRANCH   4   5
ATOM      5  O   UNL     1      -0.956   6.552   1.844  1.00  0.00    -0.459 OA
BRANCH   5   6
ATOM      6  C   UNL     1      -0.081   5.946   2.673  1.00  0.00     0.365 C 
ATOM      7  O   UNL     1      -0.212   6.069   3.890  1.00  0.00    -0.245 OA
BRANCH   6   8
ATOM      8  C   UNL     1       1.170   5.289   2.057  1.00  0.00     0.298 C 
ATOM      9  C   UNL     1       1.218   3.327   0.346  1.00  0.00     0.243 C 
ATOM     10  N   UNL     1       0.888   4.697   0.751  1.00  0.00    -0.326 N 
ATOM     11  C   UNL     1       2.260   2.529   1.319  1.00  0.00     0.196 C 
ATOM     12  H   UNL     1      -0.122   4.777   0.631  1.00  0.00     0.347 HD
ATOM     13  H   UNL     1       1.548   5.218   0.173  1.00  0.00     0.347 HD
ATOM     14  C   UNL     1       2.753   3.490   2.384  1.00  0.00    -0.024 C 
ATOM     15  N   UNL     1       3.543   2.134   0.634  1.00  0.00    -0.270 NA
ATOM     16  C   UNL     1       1.754   4.316   3.089  1.00  0.00     0.111 C 
ATOM     17  C   UNL     1       4.049   3.759   2.271  1.00  0.00     0.002 A 
ATOM     18  C   UNL     1       4.469   2.835   1.217  1.00  0.00     0.066 A 
ATOM     19  C   UNL     1       4.869   4.846   2.706  1.00  0.00     0.010 A 
ATOM     20  C   UNL     1       5.918   2.871   0.895  1.00  0.00     0.028 A 
ATOM     21  C   UNL     1       6.106   4.951   2.196  1.00  0.00     0.001 A 
ATOM     22  C   UNL     1       6.652   3.909   1.339  1.00  0.00     0.002 A 
BRANCH   9  23
ATOM     23  C   UNL     1       0.052   2.631  -0.625  1.00  0.00     0.015 A 
ATOM     24  C   UNL     1      -3.026   1.839   0.173  1.00  0.00     0.045 C 
ATOM     25  C   UNL     1      -1.789   2.139  -0.718  1.00  0.00    -0.042 A 
ATOM     26  C   UNL     1      -2.358   1.175  -2.198  1.00  0.00     0.004 A 
ATOM     27  C   UNL     1      -1.241   0.700  -3.471  1.00  0.00     0.000 A 
ATOM     28  C   UNL     1       1.138   1.944  -1.920  1.00  0.00     0.010 A 
ATOM     29  C   UNL     1       0.490   0.998  -3.297  1.00  0.00     0.001 A 
ENDBRANCH   9  23
ENDBRANCH   6   8
ENDBRANCH   5   6
ENDBRANCH   4   5
ENDBRANCH   3   4
ENDBRANCH   2   3
ENDBRANCH   1   2
BRANCH   1  30
ATOM     30  C   UNL     1      -0.833   1.455   1.712  1.00  0.00     0.261 C 
BRANCH  30  31
ATOM     31  O   UNL     1      -0.491   0.717   0.258  1.00  0.00    -0.460 OA
BRANCH  31  32
ATOM     32  C   UNL     1      -0.502   0.863  -1.407  1.00  0.00     0.338 C 
ATOM     33  O   UNL     1      -0.330  -0.365  -1.677  1.00  0.00    -0.246 OA
BRANCH  32  34
ATOM     34  C   UNL     1      -0.831   2.650  -2.528  1.00  0.00     0.060 A 
ATOM     35  C   UNL     1      -0.019   3.379  -3.579  1.00  0.00     0.016 A 
ATOM     36  C   UNL     1      -1.965   3.638  -2.399  1.00  0.00     0.016 A 
ATOM     37  C   UNL     1       0.066   4.777  -3.756  1.00  0.00     0.010 A 
ATOM     38  C   UNL     1      -1.841   5.007  -2.430  1.00  0.00     0.010 A 
ATOM     39  C   UNL     1      -0.714   5.566  -2.961  1.00  0.00    -0.014 A 
BRANCH  39  40
ATOM     40  C   UNL     1      -0.394   6.895  -2.489  1.00  0.00     0.031 A 
ATOM     41  C   UNL     1      -1.371   7.974  -2.703  1.00  0.00     0.074 A 
ATOM     42  C   UNL     1       0.694   7.009  -1.688  1.00  0.00     0.049 A 
ATOM     43  N   UNL     1      -1.069   9.211  -2.581  1.00  0.00    -0.248 NA
ATOM     44  C   UNL     1      -2.759   7.787  -3.148  1.00  0.00     0.031 C 
ATOM     45  C   UNL     1       1.088   8.064  -0.755  1.00  0.00     0.029 A 
ATOM     46  N   UNL     1       1.780   6.150  -1.636  1.00  0.00    -0.354 N 
ATOM     47  C   UNL     1      -2.249   9.914  -2.555  1.00  0.00     0.074 A 
ATOM     48  C   UNL     1      -3.229   9.036  -3.119  1.00  0.00     0.031 C 
ATOM     49  C   UNL     1       2.401   7.933  -0.469  1.00  0.00     0.029 A 
ATOM     50  C   UNL     1       2.925   6.841  -1.283  1.00  0.00     0.049 A 
ATOM     51  H   UNL     1       1.742   5.185  -1.824  1.00  0.00     0.167 HD
ATOM     52  C   UNL     1      -2.269  11.089  -1.875  1.00  0.00     0.037 A 
ATOM     53  C   UNL     1       3.909   6.939  -2.222  1.00  0.00     0.037 A 
ATOM     54  C   UNL     1      -0.901  11.451  -1.491  1.00  0.00     0.049 A 
ATOM     55  C   UNL     1       3.958   8.358  -2.731  1.00  0.00     0.074 A 
ATOM     56  C   UNL     1      -0.214  11.492  -0.293  1.00  0.00     0.029 A 
ATOM     57  N   UNL     1       0.069  11.489  -2.493  1.00  0.00    -0.354 N 
ATOM     58  N   UNL     1       2.917   9.156  -2.726  1.00  0.00    -0.248 NA
ATOM     59  C   UNL     1       5.194   9.049  -3.075  1.00  0.00     0.031 C 
ATOM     60  C   UNL     1       1.187  11.470  -0.597  1.00  0.00     0.029 A 
ATOM     61  C   UNL     1       1.347  11.444  -1.977  1.00  0.00     0.049 A 
ATOM     62  H   UNL     1      -0.134  11.541  -3.455  1.00  0.00     0.167 HD
ATOM     63  C   UNL     1       3.328  10.440  -2.945  1.00  0.00     0.074 A 
ATOM     64  C   UNL     1       4.758  10.317  -3.173  1.00  0.00     0.031 C 
ATOM     65  C   UNL     1       2.491  11.521  -2.888  1.00  0.00     0.037 A 
BRANCH  52  66
ATOM     66  C   UNL     1      -3.517  11.814  -1.421  1.00  0.00     0.058 A 
ATOM     67  C   UNL     1      -3.411  13.120  -0.901  1.00  0.00     0.135 A 
ATOM     68  C   UNL     1      -4.828  11.279  -1.400  1.00  0.00     0.135 A 
ATOM     69  F   UNL     1      -2.220  13.728  -0.808  1.00  0.00    -0.206 F 
ATOM     70  C   UNL     1      -4.513  13.848  -0.441  1.00  0.00     0.059 A 
ATOM     71  C   UNL     1      -5.951  12.007  -0.997  1.00  0.00     0.059 A 
ATOM     72  F   UNL     1      -5.085  10.001  -1.704  1.00  0.00    -0.206 F 
ATOM     73  C   UNL     1      -5.785  13.292  -0.513  1.00  0.00     0.060 A 
BRANCH  73  74
ATOM     74  S   UNL     1      -7.203  14.259   0.036  1.00  0.00     0.124 S 
ATOM     75  O   UNL     1      -6.954  14.374   1.469  1.00  0.00    -0.237 OA
ATOM     76  O   UNL     1      -7.056  15.487  -0.739  1.00  0.00    -0.237 OA
ATOM     77  O   UNL     1      -8.346  13.427  -0.333  1.00  0.00    -0.744 OA
ENDBRANCH  73  74
ENDBRANCH  52  66
BRANCH  53  78
ATOM     78  C   UNL     1       4.213   5.637  -2.903  1.00  0.00     0.058 A 
ATOM     79  C   UNL     1       4.736   4.624  -2.074  1.00  0.00     0.135 A 
ATOM     80  C   UNL     1       3.735   5.209  -4.149  1.00  0.00     0.135 A 
ATOM     81  F   UNL     1       5.162   4.964  -0.851  1.00  0.00    -0.206 F 
ATOM     82  C   UNL     1       4.753   3.271  -2.422  1.00  0.00     0.059 A 
ATOM     83  C   UNL     1       3.742   3.847  -4.527  1.00  0.00     0.059 A 
ATOM     84  F   UNL     1       3.163   6.085  -4.986  1.00  0.00    -0.206 F 
ATOM     85  C   UNL     1       4.258   2.883  -3.657  1.00  0.00     0.060 A 
BRANCH  85  86
ATOM     86  S   UNL     1       4.250   1.108  -4.060  1.00  0.00     0.124 S 
ATOM     87  O   UNL     1       5.667   0.849  -4.286  1.00  0.00    -0.237 OA
ATOM     88  O   UNL     1       3.697   0.499  -2.858  1.00  0.00    -0.237 OA
ATOM     89  O   UNL     1       3.393   1.045  -5.240  1.00  0.00    -0.744 OA
ENDBRANCH  85  86
ENDBRANCH  53  78
BRANCH  65  90
ATOM     90  C   UNL     1       2.663  12.758  -3.754  1.00  0.00     0.058 A 
ATOM     91  C   UNL     1       3.591  12.866  -4.805  1.00  0.00     0.135 A 
ATOM     92  C   UNL     1       1.728  13.826  -3.679  1.00  0.00     0.135 A 
ATOM     93  F   UNL     1       4.470  11.899  -5.092  1.00  0.00    -0.206 F 
ATOM     94  C   UNL     1       3.634  13.961  -5.661  1.00  0.00     0.059 A 
ATOM     95  C   UNL     1       1.690  14.877  -4.587  1.00  0.00     0.059 A 
ATOM     96  F   UNL     1       0.783  13.886  -2.730  1.00  0.00    -0.206 F 
ATOM     97  C   UNL     1       2.672  14.955  -5.554  1.00  0.00     0.060 A 
BRANCH  97  98
ATOM     98  S   UNL     1       2.729  16.334  -6.697  1.00  0.00     0.124 S 
ATOM     99  O   UNL     1       3.874  17.080  -6.184  1.00  0.00    -0.237 OA
ATOM    100  O   UNL     1       2.932  15.666  -7.979  1.00  0.00    -0.237 OA
ATOM    101  O   UNL     1       1.430  16.974  -6.527  1.00  0.00    -0.744 OA
ENDBRANCH  97  98
ENDBRANCH  65  90
ENDBRANCH  39  40
ENDBRANCH  32  34
ENDBRANCH  31  32
ENDBRANCH  30  31
ENDBRANCH   1  30
TORSDOF 18
