REMARK SMILES O=C(OCCOCCOC(=O)c1cccnc1C[N@@H+]1CCC[C@H]1c1ccccn1)c1ccc(-c2c3nc(c(-c4c(F)cc(S(=O)(=O)[O-])cc4F)c4ccc([nH]4)c(-c4c(F)cc(S(=O)(=O)[O-])cc4F)c4nc(c(-c5c(F)cc(S(=O)(=O)[O-])cc5F)c5ccc2[nH]5)C=C4)C=C3)cc1
REMARK SMILES IDX 6 1 5 2 4 3 3 4 2 5 1 6 30 7 31 8 95 9 32 10 94 11 33 12
REMARK SMILES IDX 34 13 35 14 88 15 36 16 93 17 87 18 89 19 37 20 92 21 86 22
REMARK SMILES IDX 85 23 38 25 72 26 51 27 71 28 52 29 55 30 70 31 90 32 53 33
REMARK SMILES IDX 54 34 69 36 91 37 56 38 39 39 40 40 49 41 41 42 42 43 48 44
REMARK SMILES IDX 50 45 43 46 44 47 45 48 46 49 47 50 73 51 74 52 83 53 75 54
REMARK SMILES IDX 76 55 82 56 84 57 77 58 78 59 79 60 80 61 81 62 57 63 58 64
REMARK SMILES IDX 67 65 59 66 60 67 66 68 68 69 61 70 62 71 63 72 64 73 65 74
REMARK SMILES IDX 7 75 8 76 9 77 10 78 11 79 12 80 13 81 17 82 14 83 16 84
REMARK SMILES IDX 15 85 18 86 19 87 20 88 23 89 21 91 22 92 24 93 25 94 29 95
REMARK SMILES IDX 26 96 28 97 27 98
REMARK H PARENT 89 24 55 35 19 90
REMARK Flexibility Score: inf
ROOT
ATOM      1  O   UNL     1       3.836   1.166  -2.017  1.00  0.00    -0.374 OA
ENDROOT
BRANCH   1   2
ATOM      2  C   UNL     1       4.374   0.161  -1.166  1.00  0.00     0.202 C 
BRANCH   2   3
ATOM      3  C   UNL     1       3.834   0.118   0.261  1.00  0.00     0.261 C 
BRANCH   3   4
ATOM      4  O   UNL     1       2.384   0.009   0.299  1.00  0.00    -0.460 OA
BRANCH   4   5
ATOM      5  C   UNL     1       1.583   0.845   1.023  1.00  0.00     0.338 C 
ATOM      6  O   UNL     1       0.469   0.523   1.412  1.00  0.00    -0.246 OA
BRANCH   5   7
ATOM      7  C   UNL     1       2.145   2.176   1.324  1.00  0.00     0.060 A 
ATOM      8  C   UNL     1       2.842   2.818   0.317  1.00  0.00     0.016 A 
ATOM      9  C   UNL     1       2.150   2.698   2.615  1.00  0.00     0.016 A 
ATOM     10  C   UNL     1       3.849   3.689   0.663  1.00  0.00     0.010 A 
ATOM     11  C   UNL     1       2.977   3.793   2.898  1.00  0.00     0.010 A 
ATOM     12  C   UNL     1       3.901   4.251   1.941  1.00  0.00    -0.014 A 
BRANCH  12  13
ATOM     13  C   UNL     1       4.944   5.277   2.232  1.00  0.00     0.031 A 
ATOM     14  C   UNL     1       5.786   5.174   3.477  1.00  0.00     0.074 A 
ATOM     15  C   UNL     1       5.189   6.261   1.338  1.00  0.00     0.049 A 
ATOM     16  N   UNL     1       6.545   6.083   4.031  1.00  0.00    -0.248 NA
ATOM     17  C   UNL     1       5.748   3.901   4.216  1.00  0.00     0.031 C 
ATOM     18  C   UNL     1       4.501   6.438   0.052  1.00  0.00     0.029 A 
ATOM     19  N   UNL     1       6.119   7.268   1.335  1.00  0.00    -0.354 N 
ATOM     20  C   UNL     1       6.975   5.538   5.236  1.00  0.00     0.074 A 
ATOM     21  C   UNL     1       6.427   4.202   5.315  1.00  0.00     0.031 C 
ATOM     22  C   UNL     1       5.127   7.374  -0.669  1.00  0.00     0.029 A 
ATOM     23  C   UNL     1       6.121   8.011   0.175  1.00  0.00     0.049 A 
ATOM     24  H   UNL     1       6.727   7.444   2.089  1.00  0.00     0.167 HD
ATOM     25  C   UNL     1       7.732   6.127   6.194  1.00  0.00     0.037 A 
ATOM     26  C   UNL     1       6.788   9.132  -0.152  1.00  0.00     0.037 A 
ATOM     27  C   UNL     1       8.326   7.429   6.032  1.00  0.00     0.049 A 
ATOM     28  C   UNL     1       7.632   9.764   0.911  1.00  0.00     0.074 A 
ATOM     29  C   UNL     1       9.065   8.169   6.937  1.00  0.00     0.029 A 
ATOM     30  N   UNL     1       8.274   8.171   4.857  1.00  0.00    -0.354 N 
ATOM     31  N   UNL     1       7.885   9.328   2.123  1.00  0.00    -0.248 NA
ATOM     32  C   UNL     1       8.230  11.063   0.593  1.00  0.00     0.031 C 
ATOM     33  C   UNL     1       9.445   9.365   6.313  1.00  0.00     0.029 A 
ATOM     34  C   UNL     1       8.973   9.355   5.008  1.00  0.00     0.049 A 
ATOM     35  H   UNL     1       7.806   7.894   4.036  1.00  0.00     0.167 HD
ATOM     36  C   UNL     1       8.665  10.304   2.720  1.00  0.00     0.074 A 
ATOM     37  C   UNL     1       8.866  11.341   1.723  1.00  0.00     0.031 C 
ATOM     38  C   UNL     1       9.157  10.352   3.982  1.00  0.00     0.037 A 
BRANCH  25  39
ATOM     39  C   UNL     1       7.864   5.405   7.508  1.00  0.00     0.058 A 
ATOM     40  C   UNL     1       8.639   4.246   7.665  1.00  0.00     0.135 A 
ATOM     41  C   UNL     1       7.144   5.861   8.627  1.00  0.00     0.135 A 
ATOM     42  F   UNL     1       9.334   3.753   6.627  1.00  0.00    -0.206 F 
ATOM     43  C   UNL     1       8.650   3.532   8.862  1.00  0.00     0.059 A 
ATOM     44  C   UNL     1       7.159   5.177   9.840  1.00  0.00     0.059 A 
ATOM     45  F   UNL     1       6.387   6.966   8.540  1.00  0.00    -0.206 F 
ATOM     46  C   UNL     1       7.891   3.996   9.938  1.00  0.00     0.060 A 
BRANCH  46  47
ATOM     47  S   UNL     1       7.842   3.022  11.459  1.00  0.00     0.124 S 
ATOM     48  O   UNL     1       6.923   1.951  11.086  1.00  0.00    -0.237 OA
ATOM     49  O   UNL     1       9.237   2.627  11.629  1.00  0.00    -0.237 OA
ATOM     50  O   UNL     1       7.337   3.966  12.451  1.00  0.00    -0.744 OA
ENDBRANCH  46  47
ENDBRANCH  25  39
BRANCH  26  51
ATOM     51  C   UNL     1       6.602   9.750  -1.494  1.00  0.00     0.058 A 
ATOM     52  C   UNL     1       7.649   9.776  -2.426  1.00  0.00     0.135 A 
ATOM     53  C   UNL     1       5.358  10.262  -1.902  1.00  0.00     0.135 A 
ATOM     54  F   UNL     1       8.861   9.311  -2.086  1.00  0.00    -0.206 F 
ATOM     55  C   UNL     1       7.469  10.276  -3.713  1.00  0.00     0.059 A 
ATOM     56  C   UNL     1       5.143  10.734  -3.192  1.00  0.00     0.059 A 
ATOM     57  F   UNL     1       4.315  10.251  -1.056  1.00  0.00    -0.206 F 
ATOM     58  C   UNL     1       6.208  10.744  -4.091  1.00  0.00     0.060 A 
BRANCH  58  59
ATOM     59  S   UNL     1       5.957  11.316  -5.786  1.00  0.00     0.124 S 
ATOM     60  O   UNL     1       6.578  12.634  -5.745  1.00  0.00    -0.237 OA
ATOM     61  O   UNL     1       6.661  10.302  -6.564  1.00  0.00    -0.237 OA
ATOM     62  O   UNL     1       4.504  11.305  -5.930  1.00  0.00    -0.744 OA
ENDBRANCH  58  59
ENDBRANCH  26  51
BRANCH  38  63
ATOM     63  C   UNL     1       9.989  11.548   4.325  1.00  0.00     0.058 A 
ATOM     64  C   UNL     1       9.404  12.790   4.610  1.00  0.00     0.135 A 
ATOM     65  C   UNL     1      11.386  11.436   4.395  1.00  0.00     0.135 A 
ATOM     66  F   UNL     1       8.072  12.943   4.540  1.00  0.00    -0.206 F 
ATOM     67  C   UNL     1      10.182  13.892   4.941  1.00  0.00     0.059 A 
ATOM     68  C   UNL     1      12.181  12.520   4.743  1.00  0.00     0.059 A 
ATOM     69  F   UNL     1      11.985  10.264   4.131  1.00  0.00    -0.206 F 
ATOM     70  C   UNL     1      11.570  13.747   5.005  1.00  0.00     0.060 A 
BRANCH  70  71
ATOM     71  S   UNL     1      12.571  15.173   5.472  1.00  0.00     0.124 S 
ATOM     72  O   UNL     1      12.596  15.933   4.228  1.00  0.00    -0.237 OA
ATOM     73  O   UNL     1      11.794  15.760   6.559  1.00  0.00    -0.237 OA
ATOM     74  O   UNL     1      13.841  14.575   5.872  1.00  0.00    -0.744 OA
ENDBRANCH  70  71
ENDBRANCH  38  63
ENDBRANCH  12  13
ENDBRANCH   5   7
ENDBRANCH   4   5
ENDBRANCH   3   4
ENDBRANCH   2   3
ENDBRANCH   1   2
BRANCH   1  75
ATOM     75  C   UNL     1       2.708   0.748  -2.788  1.00  0.00     0.202 C 
BRANCH  75  76
ATOM     76  C   UNL     1       3.119   0.140  -4.129  1.00  0.00     0.261 C 
BRANCH  76  77
ATOM     77  O   UNL     1       3.551  -1.229  -3.991  1.00  0.00    -0.460 OA
BRANCH  77  78
ATOM     78  C   UNL     1       4.882  -1.441  -3.882  1.00  0.00     0.340 C 
ATOM     79  O   UNL     1       5.775  -0.604  -3.828  1.00  0.00    -0.246 OA
BRANCH  78  80
ATOM     80  C   UNL     1       5.138  -2.884  -3.861  1.00  0.00     0.087 A 
ATOM     81  C   UNL     1       4.668  -3.619  -4.960  1.00  0.00     0.019 A 
ATOM     82  C   UNL     1       5.933  -3.518  -2.897  1.00  0.00     0.109 A 
ATOM     83  C   UNL     1       5.038  -4.946  -5.109  1.00  0.00     0.021 A 
ATOM     84  N   UNL     1       6.320  -4.814  -3.073  1.00  0.00    -0.254 NA
ATOM     85  C   UNL     1       5.878  -5.488  -4.158  1.00  0.00     0.111 A 
BRANCH  82  86
ATOM     86  C   UNL     1       6.481  -2.816  -1.655  1.00  0.00     0.321 C 
BRANCH  86  87
ATOM     87  N   UNL     1       6.333  -3.453  -0.318  1.00  0.00    -0.322 N 
ATOM     88  C   UNL     1       7.095  -4.694  -0.180  1.00  0.00     0.263 C 
ATOM     89  C   UNL     1       4.944  -3.725   0.117  1.00  0.00     0.234 C 
ATOM     90  H   UNL     1       6.713  -2.730   0.293  1.00  0.00     0.349 HD
ATOM     91  C   UNL     1       6.104  -5.846  -0.187  1.00  0.00     0.068 C 
ATOM     92  C   UNL     1       4.724  -5.228  -0.043  1.00  0.00     0.078 C 
BRANCH  89  93
ATOM     93  C   UNL     1       4.609  -3.305   1.557  1.00  0.00     0.098 A 
ATOM     94  C   UNL     1       5.460  -3.525   2.639  1.00  0.00     0.030 A 
ATOM     95  N   UNL     1       3.384  -2.739   1.739  1.00  0.00    -0.255 NA
ATOM     96  C   UNL     1       5.070  -3.113   3.915  1.00  0.00     0.004 A 
ATOM     97  C   UNL     1       3.045  -2.315   2.979  1.00  0.00     0.111 A 
ATOM     98  C   UNL     1       3.848  -2.479   4.090  1.00  0.00     0.020 A 
ENDBRANCH  89  93
ENDBRANCH  86  87
ENDBRANCH  82  86
ENDBRANCH  78  80
ENDBRANCH  77  78
ENDBRANCH  76  77
ENDBRANCH  75  76
ENDBRANCH   1  75
TORSDOF 20
