REMARK SMILES Cc1ccccc1/C=C1\SC(=O)N(CC(=O)Nc2ccccc2C(=O)OCCOCCOC(=O)c2ccc(-c3c4nc(c(-c5c(F)cc(S(=O)(=O)[O-])cc5F)c5ccc([nH]5)c(-c5c(F)cc(S(=O)(=O)[O-])cc5F)c5nc(c(-c6c(F)cc(S(=O)(=O)[O-])cc6F)c6ccc3[nH]6)C=C5)C=C4)cc2)C1=O
REMARK SMILES IDX 28 1 27 2 26 3 24 4 25 5 23 6 18 7 19 8 20 9 22 10 21 11
REMARK SMILES IDX 17 12 15 13 16 14 14 16 13 17 8 18 9 19 10 20 101 21 11 22
REMARK SMILES IDX 102 23 12 24 7 25 1 26 2 27 3 28 4 29 6 30 5 31 29 32 30 33
REMARK SMILES IDX 31 34 32 35 33 36 34 37 35 38 36 39 100 40 37 41 99 42 38 43
REMARK SMILES IDX 39 44 40 45 93 46 41 47 98 48 92 49 94 50 42 51 97 52 91 53
REMARK SMILES IDX 90 54 43 56 77 57 56 58 76 59 57 60 60 61 75 62 95 63 58 64
REMARK SMILES IDX 59 65 74 67 96 68 61 69 44 70 45 71 54 72 46 73 47 74 53 75
REMARK SMILES IDX 55 76 48 77 49 78 50 79 51 80 52 81 78 82 79 83 88 84 80 85
REMARK SMILES IDX 81 86 87 87 89 88 82 89 83 90 84 91 85 92 86 93 62 94 63 95
REMARK SMILES IDX 72 96 64 97 65 98 71 99 73 100 66 101 67 102 68 103 69 104
REMARK SMILES IDX 70 105
REMARK H PARENT 17 15 94 55 60 66
REMARK Flexibility Score: inf
ROOT
ATOM      1  C   UNL     1       5.884   2.773  -2.215  1.00  0.00     0.202 C 
ENDROOT
BRANCH   1   2
ATOM      2  C   UNL     1       4.493   1.987  -2.570  1.00  0.00     0.261 C 
BRANCH   2   3
ATOM      3  O   UNL     1       2.759   2.663  -3.399  1.00  0.00    -0.460 OA
BRANCH   3   4
ATOM      4  C   UNL     1       1.877   3.624  -4.038  1.00  0.00     0.340 C 
ATOM      5  O   UNL     1       0.987   4.181  -3.416  1.00  0.00    -0.246 OA
BRANCH   4   6
ATOM      6  C   UNL     1       2.047   4.114  -5.407  1.00  0.00     0.083 A 
ATOM      7  C   UNL     1       2.290   5.481  -5.643  1.00  0.00     0.055 A 
ATOM      8  C   UNL     1       2.149   5.986  -6.937  1.00  0.00     0.027 A 
ATOM      9  C   UNL     1       1.827   5.129  -7.988  1.00  0.00     0.002 A 
ATOM     10  C   UNL     1       1.632   3.279  -6.444  1.00  0.00     0.018 A 
ATOM     11  C   UNL     1       1.559   3.782  -7.740  1.00  0.00     0.001 A 
BRANCH   7  12
ATOM     12  N   UNL     1       2.623   6.412  -4.650  1.00  0.00    -0.324 N 
ATOM     13  C   UNL     1       3.557   6.306  -3.658  1.00  0.00     0.244 C 
ATOM     14  O   UNL     1       3.729   7.288  -2.924  1.00  0.00    -0.273 OA
ATOM     15  H   UNL     1       2.116   7.255  -4.669  1.00  0.00     0.170 HD
BRANCH  13  16
ATOM     16  C   UNL     1       4.577   5.161  -3.669  1.00  0.00     0.230 C 
BRANCH  16  17
ATOM     17  N   UNL     1       4.130   3.807  -3.390  1.00  0.00    -0.259 N 
ATOM     18  C   UNL     1       1.781   1.117  -0.787  1.00  0.00     0.029 C 
ATOM     19  C   UNL     1       2.483   1.667  -1.831  1.00  0.00     0.083 C 
ATOM     20  S   UNL     1       2.968   0.681  -3.794  1.00  0.00    -0.022 SA
ATOM     21  C   UNL     1       3.226   3.520  -1.861  1.00  0.00     0.268 C 
ATOM     22  C   UNL     1       4.171   2.500  -4.582  1.00  0.00     0.294 C 
ATOM     23  O   UNL     1       2.842   4.513  -1.250  1.00  0.00    -0.268 OA
ATOM     24  O   UNL     1       4.696   2.473  -5.690  1.00  0.00    -0.261 OA
BRANCH  18  25
ATOM     25  C   UNL     1       0.934   0.083  -0.044  1.00  0.00    -0.021 A 
ATOM     26  C   UNL     1       2.825  -1.401   0.777  1.00  0.00     0.045 C 
ATOM     27  C   UNL     1       1.376  -1.070   0.614  1.00  0.00    -0.044 A 
ATOM     28  C   UNL     1       0.462  -1.911   1.331  1.00  0.00     0.004 A 
ATOM     29  C   UNL     1      -0.875  -1.574   1.522  1.00  0.00     0.000 A 
ATOM     30  C   UNL     1      -0.404   0.444   0.318  1.00  0.00     0.008 A 
ATOM     31  C   UNL     1      -1.297  -0.351   1.061  1.00  0.00     0.001 A 
ENDBRANCH  18  25
ENDBRANCH  16  17
ENDBRANCH  13  16
ENDBRANCH   7  12
ENDBRANCH   4   6
ENDBRANCH   3   4
ENDBRANCH   2   3
ENDBRANCH   1   2
BRANCH   1  32
ATOM     32  O   UNL     1       5.702   3.753  -1.203  1.00  0.00    -0.374 OA
BRANCH  32  33
ATOM     33  C   UNL     1       6.901   4.408  -0.802  1.00  0.00     0.202 C 
BRANCH  33  34
ATOM     34  C   UNL     1       7.601   3.600   0.293  1.00  0.00     0.261 C 
BRANCH  34  35
ATOM     35  O   UNL     1       6.781   3.656   1.482  1.00  0.00    -0.460 OA
BRANCH  35  36
ATOM     36  C   UNL     1       5.947   2.596   1.692  1.00  0.00     0.338 C 
ATOM     37  O   UNL     1       6.269   1.426   1.574  1.00  0.00    -0.246 OA
BRANCH  36  38
ATOM     38  C   UNL     1       4.543   3.080   1.905  1.00  0.00     0.060 A 
ATOM     39  C   UNL     1       3.477   2.208   2.167  1.00  0.00     0.016 A 
ATOM     40  C   UNL     1       4.234   4.391   1.594  1.00  0.00     0.016 A 
ATOM     41  C   UNL     1       2.127   2.612   1.944  1.00  0.00     0.010 A 
ATOM     42  C   UNL     1       2.923   4.717   1.246  1.00  0.00     0.010 A 
ATOM     43  C   UNL     1       1.846   3.805   1.265  1.00  0.00    -0.014 A 
BRANCH  43  44
ATOM     44  C   UNL     1       0.547   4.194   0.519  1.00  0.00     0.031 A 
ATOM     45  C   UNL     1      -0.164   5.293   1.208  1.00  0.00     0.074 A 
ATOM     46  C   UNL     1      -0.131   3.801  -0.633  1.00  0.00     0.049 A 
ATOM     47  N   UNL     1      -1.389   5.225   1.630  1.00  0.00    -0.248 NA
ATOM     48  C   UNL     1       0.520   6.538   1.547  1.00  0.00     0.031 C 
ATOM     49  C   UNL     1      -1.198   4.567  -1.298  1.00  0.00     0.029 A 
ATOM     50  N   UNL     1      -0.015   2.731  -1.573  1.00  0.00    -0.354 N 
ATOM     51  C   UNL     1      -1.693   6.517   1.997  1.00  0.00     0.074 A 
ATOM     52  C   UNL     1      -0.424   7.161   2.239  1.00  0.00     0.031 C 
ATOM     53  C   UNL     1      -1.748   3.860  -2.305  1.00  0.00     0.029 A 
ATOM     54  C   UNL     1      -1.169   2.517  -2.355  1.00  0.00     0.049 A 
ATOM     55  H   UNL     1       0.802   2.188  -1.667  1.00  0.00     0.167 HD
ATOM     56  C   UNL     1      -2.864   7.122   1.638  1.00  0.00     0.037 A 
ATOM     57  C   UNL     1      -1.790   1.349  -2.765  1.00  0.00     0.037 A 
ATOM     58  C   UNL     1      -3.628   6.321   0.672  1.00  0.00     0.049 A 
ATOM     59  C   UNL     1      -3.204   1.395  -2.207  1.00  0.00     0.074 A 
ATOM     60  C   UNL     1      -3.900   6.525  -0.675  1.00  0.00     0.029 A 
ATOM     61  N   UNL     1      -4.016   5.009   0.936  1.00  0.00    -0.354 N 
ATOM     62  N   UNL     1      -3.599   2.411  -1.500  1.00  0.00    -0.248 NA
ATOM     63  C   UNL     1      -4.247   0.371  -2.267  1.00  0.00     0.031 C 
ATOM     64  C   UNL     1      -4.547   5.381  -1.188  1.00  0.00     0.029 A 
ATOM     65  C   UNL     1      -4.635   4.450  -0.171  1.00  0.00     0.049 A 
ATOM     66  H   UNL     1      -3.872   4.543   1.792  1.00  0.00     0.167 HD
ATOM     67  C   UNL     1      -4.817   2.205  -0.956  1.00  0.00     0.074 A 
ATOM     68  C   UNL     1      -5.202   0.907  -1.474  1.00  0.00     0.031 C 
ATOM     69  C   UNL     1      -5.312   3.155  -0.113  1.00  0.00     0.037 A 
BRANCH  56  70
ATOM     70  C   UNL     1      -3.052   8.626   1.824  1.00  0.00     0.058 A 
ATOM     71  C   UNL     1      -3.928   9.375   1.017  1.00  0.00     0.135 A 
ATOM     72  C   UNL     1      -2.373   9.392   2.800  1.00  0.00     0.135 A 
ATOM     73  F   UNL     1      -4.800   8.789   0.189  1.00  0.00    -0.206 F 
ATOM     74  C   UNL     1      -3.993  10.768   1.054  1.00  0.00     0.059 A 
ATOM     75  C   UNL     1      -2.356  10.788   2.809  1.00  0.00     0.059 A 
ATOM     76  F   UNL     1      -1.740   8.804   3.829  1.00  0.00    -0.206 F 
ATOM     77  C   UNL     1      -3.176  11.471   1.927  1.00  0.00     0.060 A 
BRANCH  77  78
ATOM     78  S   UNL     1      -3.299  13.265   1.978  1.00  0.00     0.124 S 
ATOM     79  O   UNL     1      -3.078  13.633   0.583  1.00  0.00    -0.237 OA
ATOM     80  O   UNL     1      -4.656  13.455   2.478  1.00  0.00    -0.237 OA
ATOM     81  O   UNL     1      -2.233  13.654   2.897  1.00  0.00    -0.744 OA
ENDBRANCH  77  78
ENDBRANCH  56  70
BRANCH  57  82
ATOM     82  C   UNL     1      -1.079   0.053  -3.120  1.00  0.00     0.058 A 
ATOM     83  C   UNL     1      -0.351  -0.082  -4.316  1.00  0.00     0.135 A 
ATOM     84  C   UNL     1      -1.008  -1.077  -2.298  1.00  0.00     0.135 A 
ATOM     85  F   UNL     1      -0.509   0.819  -5.300  1.00  0.00    -0.206 F 
ATOM     86  C   UNL     1       0.582  -1.120  -4.536  1.00  0.00     0.059 A 
ATOM     87  C   UNL     1       0.020  -2.036  -2.407  1.00  0.00     0.059 A 
ATOM     88  F   UNL     1      -1.935  -1.269  -1.353  1.00  0.00    -0.206 F 
ATOM     89  C   UNL     1       0.887  -1.982  -3.487  1.00  0.00     0.060 A 
BRANCH  89  90
ATOM     90  S   UNL     1       2.504  -2.836  -3.399  1.00  0.00     0.124 S 
ATOM     91  O   UNL     1       2.126  -4.238  -3.263  1.00  0.00    -0.237 OA
ATOM     92  O   UNL     1       3.150  -2.494  -4.665  1.00  0.00    -0.237 OA
ATOM     93  O   UNL     1       3.126  -2.241  -2.219  1.00  0.00    -0.744 OA
ENDBRANCH  89  90
ENDBRANCH  57  82
BRANCH  69  94
ATOM     94  C   UNL     1      -6.538   3.044   0.735  1.00  0.00     0.058 A 
ATOM     95  C   UNL     1      -7.037   1.837   1.241  1.00  0.00     0.135 A 
ATOM     96  C   UNL     1      -7.190   4.223   1.173  1.00  0.00     0.135 A 
ATOM     97  F   UNL     1      -6.440   0.667   0.973  1.00  0.00    -0.206 F 
ATOM     98  C   UNL     1      -8.155   1.799   2.071  1.00  0.00     0.059 A 
ATOM     99  C   UNL     1      -8.264   4.211   2.045  1.00  0.00     0.059 A 
ATOM    100  F   UNL     1      -6.805   5.442   0.767  1.00  0.00    -0.206 F 
ATOM    101  C   UNL     1      -8.765   2.990   2.459  1.00  0.00     0.060 A 
BRANCH 101 102
ATOM    102  S   UNL     1     -10.218   2.955   3.514  1.00  0.00     0.124 S 
ATOM    103  O   UNL     1     -11.281   2.778   2.529  1.00  0.00    -0.237 OA
ATOM    104  O   UNL     1      -9.959   1.808   4.379  1.00  0.00    -0.237 OA
ATOM    105  O   UNL     1     -10.183   4.253   4.180  1.00  0.00    -0.744 OA
ENDBRANCH 101 102
ENDBRANCH  69  94
ENDBRANCH  43  44
ENDBRANCH  36  38
ENDBRANCH  35  36
ENDBRANCH  34  35
ENDBRANCH  33  34
ENDBRANCH  32  33
ENDBRANCH   1  32
TORSDOF 21
