REMARK SMILES COc1ccc(OC)c(S(=O)(=O)Nc2ccc(N3CCC(C)CC3)c(C(=O)OCCOCCOC(=O)c3ccc(-c4c5nc(c(-c6c(F)cc(S(=O)(=O)[O-])cc6F)c6ccc([nH]6)c(-c6c(F)cc(S(=O)(=O)[O-])cc6F)c6nc(c(-c7c(F)cc(S(=O)(=O)[O-])cc7F)c7ccc4[nH]7)C=C6)C=C5)cc3)c2)c1
REMARK SMILES IDX 30 1 29 2 28 3 26 4 27 5 25 6 14 7 15 8 103 9 16 10 17 11
REMARK SMILES IDX 13 12 10 14 11 15 12 16 9 17 3 18 4 19 104 20 5 21 6 22 2 23
REMARK SMILES IDX 1 24 7 25 8 26 18 27 19 28 24 29 20 30 23 31 21 32 22 33
REMARK SMILES IDX 31 34 32 35 33 36 34 37 35 38 36 39 37 40 38 41 102 42 39 43
REMARK SMILES IDX 101 44 40 45 41 46 42 47 95 48 43 49 100 50 94 51 96 52
REMARK SMILES IDX 44 53 99 54 93 55 92 56 45 58 79 59 58 60 78 61 59 62 62 63
REMARK SMILES IDX 77 64 97 65 60 66 61 67 76 69 98 70 63 71 46 72 47 73 56 74
REMARK SMILES IDX 48 75 49 76 55 77 57 78 50 79 51 80 52 81 53 82 54 83 80 84
REMARK SMILES IDX 81 85 90 86 82 87 83 88 89 89 91 90 84 91 85 92 86 93 87 94
REMARK SMILES IDX 88 95 64 96 65 97 74 98 66 99 67 100 73 101 75 102 68 103
REMARK SMILES IDX 69 104 70 105 71 106 72 107
REMARK H PARENT 13 13 96 57 62 68
REMARK Flexibility Score: inf
ROOT
ATOM      1  C   UNL     1       0.859  -4.224  -3.875  1.00  0.00     0.202 C 
ENDROOT
BRANCH   1   2
ATOM      2  C   UNL     1       0.528  -2.835  -3.331  1.00  0.00     0.261 C 
BRANCH   2   3
ATOM      3  O   UNL     1       1.696  -2.200  -2.798  1.00  0.00    -0.460 OA
BRANCH   3   4
ATOM      4  C   UNL     1       1.611  -1.888  -1.482  1.00  0.00     0.340 C 
ATOM      5  O   UNL     1       0.604  -1.961  -0.796  1.00  0.00    -0.246 OA
BRANCH   4   6
ATOM      6  C   UNL     1       2.937  -1.455  -0.972  1.00  0.00     0.085 A 
ATOM      7  C   UNL     1       4.623   0.260  -1.191  1.00  0.00     0.050 A 
ATOM      8  C   UNL     1       5.051  -0.021   0.106  1.00  0.00     0.029 A 
ATOM      9  C   UNL     1       3.644  -0.538  -1.770  1.00  0.00     0.044 A 
ATOM     10  C   UNL     1       4.430  -1.022   0.857  1.00  0.00     0.029 A 
ATOM     11  C   UNL     1       3.332  -1.733   0.356  1.00  0.00     0.051 A 
BRANCH   7  12
ATOM     12  N   UNL     1       5.007   1.524  -1.714  1.00  0.00    -0.279 N 
ATOM     13  H   UNL     1       5.645   2.045  -1.174  1.00  0.00     0.180 HD
BRANCH  12  14
ATOM     14  S   UNL     1       4.495   2.225  -3.146  1.00  0.00     0.265 S 
ATOM     15  O   UNL     1       4.836   1.303  -4.204  1.00  0.00    -0.201 OA
ATOM     16  O   UNL     1       5.054   3.562  -3.085  1.00  0.00    -0.201 OA
BRANCH  14  17
ATOM     17  C   UNL     1       2.719   2.395  -3.081  1.00  0.00     0.133 A 
ATOM     18  C   UNL     1       0.641   1.753  -1.999  1.00  0.00     0.120 A 
ATOM     19  C   UNL     1      -0.019   1.909  -3.218  1.00  0.00     0.050 A 
ATOM     20  C   UNL     1       2.002   2.057  -1.917  1.00  0.00     0.072 A 
ATOM     21  C   UNL     1       0.661   2.379  -4.341  1.00  0.00     0.052 A 
ATOM     22  C   UNL     1       2.031   2.633  -4.276  1.00  0.00     0.139 A 
BRANCH  18  23
ATOM     23  O   UNL     1      -0.147   1.245  -1.007  1.00  0.00    -0.497 OA
ATOM     24  C   UNL     1       0.417   0.991   0.270  1.00  0.00     0.278 C 
ENDBRANCH  18  23
BRANCH  22  25
ATOM     25  O   UNL     1       2.612   3.015  -5.451  1.00  0.00    -0.495 OA
ATOM     26  C   UNL     1       3.227   4.304  -5.394  1.00  0.00     0.278 C 
ENDBRANCH  22  25
ENDBRANCH  14  17
ENDBRANCH  12  14
ENDBRANCH   7  12
BRANCH  11  27
ATOM     27  N   UNL     1       2.692  -2.624   1.192  1.00  0.00    -0.371 N 
ATOM     28  C   UNL     1       2.828  -4.061   1.032  1.00  0.00     0.117 C 
ATOM     29  C   UNL     1       1.884  -2.157   2.311  1.00  0.00     0.117 C 
ATOM     30  C   UNL     1       1.447  -4.685   0.850  1.00  0.00     0.025 C 
ATOM     31  C   UNL     1       0.480  -2.763   2.235  1.00  0.00     0.025 C 
ATOM     32  C   UNL     1       0.480  -4.281   1.976  1.00  0.00    -0.011 C 
ATOM     33  C   UNL     1      -0.935  -4.759   1.642  1.00  0.00     0.008 C 
ENDBRANCH  11  27
ENDBRANCH   4   6
ENDBRANCH   3   4
ENDBRANCH   2   3
ENDBRANCH   1   2
BRANCH   1  34
ATOM     34  O   UNL     1       1.462  -5.194  -3.020  1.00  0.00    -0.374 OA
BRANCH  34  35
ATOM     35  C   UNL     1       2.735  -4.917  -2.451  1.00  0.00     0.202 C 
BRANCH  35  36
ATOM     36  C   UNL     1       3.999  -4.834  -3.318  1.00  0.00     0.261 C 
BRANCH  36  37
ATOM     37  O   UNL     1       3.837  -4.151  -4.558  1.00  0.00    -0.460 OA
BRANCH  37  38
ATOM     38  C   UNL     1       3.590  -4.976  -5.605  1.00  0.00     0.338 C 
ATOM     39  O   UNL     1       3.518  -6.194  -5.590  1.00  0.00    -0.246 OA
BRANCH  38  40
ATOM     40  C   UNL     1       3.228  -4.154  -6.767  1.00  0.00     0.060 A 
ATOM     41  C   UNL     1       1.956  -4.331  -7.328  1.00  0.00     0.016 A 
ATOM     42  C   UNL     1       4.131  -3.235  -7.301  1.00  0.00     0.016 A 
ATOM     43  C   UNL     1       1.583  -3.590  -8.442  1.00  0.00     0.010 A 
ATOM     44  C   UNL     1       3.766  -2.513  -8.435  1.00  0.00     0.010 A 
ATOM     45  C   UNL     1       2.502  -2.706  -9.019  1.00  0.00    -0.014 A 
BRANCH  45  46
ATOM     46  C   UNL     1       2.202  -2.093 -10.328  1.00  0.00     0.031 A 
ATOM     47  C   UNL     1       2.789  -2.722 -11.558  1.00  0.00     0.074 A 
ATOM     48  C   UNL     1       1.418  -1.005 -10.407  1.00  0.00     0.049 A 
ATOM     49  N   UNL     1       2.757  -2.307 -12.796  1.00  0.00    -0.248 NA
ATOM     50  C   UNL     1       3.513  -3.991 -11.365  1.00  0.00     0.031 C 
ATOM     51  C   UNL     1       0.758  -0.355  -9.274  1.00  0.00     0.029 A 
ATOM     52  N   UNL     1       1.057  -0.246 -11.489  1.00  0.00    -0.354 N 
ATOM     53  C   UNL     1       3.455  -3.258 -13.528  1.00  0.00     0.074 A 
ATOM     54  C   UNL     1       3.929  -4.255 -12.595  1.00  0.00     0.031 C 
ATOM     55  C   UNL     1       0.084   0.719  -9.722  1.00  0.00     0.029 A 
ATOM     56  C   UNL     1       0.304   0.855 -11.159  1.00  0.00     0.049 A 
ATOM     57  H   UNL     1       1.312  -0.468 -12.414  1.00  0.00     0.167 HD
ATOM     58  C   UNL     1       3.671  -3.296 -14.864  1.00  0.00     0.037 A 
ATOM     59  C   UNL     1      -0.122   1.873 -11.932  1.00  0.00     0.037 A 
ATOM     60  C   UNL     1       3.202  -2.285 -15.774  1.00  0.00     0.049 A 
ATOM     61  C   UNL     1       0.228   1.865 -13.400  1.00  0.00     0.074 A 
ATOM     62  C   UNL     1       3.372  -2.214 -17.145  1.00  0.00     0.029 A 
ATOM     63  N   UNL     1       2.474  -1.163 -15.402  1.00  0.00    -0.354 N 
ATOM     64  N   UNL     1       0.884   0.959 -14.088  1.00  0.00    -0.248 NA
ATOM     65  C   UNL     1      -0.213   3.019 -14.194  1.00  0.00     0.031 C 
ATOM     66  C   UNL     1       2.789  -1.025 -17.594  1.00  0.00     0.029 A 
ATOM     67  C   UNL     1       2.207  -0.382 -16.513  1.00  0.00     0.049 A 
ATOM     68  H   UNL     1       2.190  -0.954 -14.482  1.00  0.00     0.167 HD
ATOM     69  C   UNL     1       0.906   1.420 -15.401  1.00  0.00     0.074 A 
ATOM     70  C   UNL     1       0.186   2.677 -15.412  1.00  0.00     0.031 C 
ATOM     71  C   UNL     1       1.472   0.859 -16.499  1.00  0.00     0.037 A 
BRANCH  58  72
ATOM     72  C   UNL     1       4.458  -4.453 -15.413  1.00  0.00     0.058 A 
ATOM     73  C   UNL     1       3.923  -5.750 -15.461  1.00  0.00     0.135 A 
ATOM     74  C   UNL     1       5.746  -4.257 -15.938  1.00  0.00     0.135 A 
ATOM     75  F   UNL     1       2.705  -5.999 -14.953  1.00  0.00    -0.206 F 
ATOM     76  C   UNL     1       4.642  -6.815 -15.994  1.00  0.00     0.059 A 
ATOM     77  C   UNL     1       6.472  -5.302 -16.501  1.00  0.00     0.059 A 
ATOM     78  F   UNL     1       6.309  -3.039 -15.910  1.00  0.00    -0.206 F 
ATOM     79  C   UNL     1       5.915  -6.579 -16.517  1.00  0.00     0.060 A 
BRANCH  79  80
ATOM     80  S   UNL     1       6.822  -7.968 -17.229  1.00  0.00     0.124 S 
ATOM     81  O   UNL     1       7.144  -8.749 -16.038  1.00  0.00    -0.237 OA
ATOM     82  O   UNL     1       5.832  -8.559 -18.124  1.00  0.00    -0.237 OA
ATOM     83  O   UNL     1       7.959  -7.332 -17.887  1.00  0.00    -0.744 OA
ENDBRANCH  79  80
ENDBRANCH  58  72
BRANCH  59  84
ATOM     84  C   UNL     1      -0.898   2.996 -11.341  1.00  0.00     0.058 A 
ATOM     85  C   UNL     1      -2.235   3.219 -11.704  1.00  0.00     0.135 A 
ATOM     86  C   UNL     1      -0.314   3.888 -10.427  1.00  0.00     0.135 A 
ATOM     87  F   UNL     1      -2.837   2.401 -12.581  1.00  0.00    -0.206 F 
ATOM     88  C   UNL     1      -2.956   4.300 -11.206  1.00  0.00     0.059 A 
ATOM     89  C   UNL     1      -1.024   4.957  -9.890  1.00  0.00     0.059 A 
ATOM     90  F   UNL     1       0.959   3.717 -10.037  1.00  0.00    -0.206 F 
ATOM     91  C   UNL     1      -2.340   5.165 -10.300  1.00  0.00     0.060 A 
BRANCH  91  92
ATOM     92  S   UNL     1      -3.290   6.557  -9.652  1.00  0.00     0.124 S 
ATOM     93  O   UNL     1      -3.366   7.429 -10.818  1.00  0.00    -0.237 OA
ATOM     94  O   UNL     1      -4.538   5.916  -9.250  1.00  0.00    -0.237 OA
ATOM     95  O   UNL     1      -2.462   7.045  -8.552  1.00  0.00    -0.744 OA
ENDBRANCH  91  92
ENDBRANCH  59  84
BRANCH  71  96
ATOM     96  C   UNL     1       1.301   1.575 -17.810  1.00  0.00     0.058 A 
ATOM     97  C   UNL     1       1.989   2.764 -18.096  1.00  0.00     0.135 A 
ATOM     98  C   UNL     1       0.492   1.026 -18.819  1.00  0.00     0.135 A 
ATOM     99  F   UNL     1       2.768   3.336 -17.164  1.00  0.00    -0.206 F 
ATOM    100  C   UNL     1       1.867   3.394 -19.330  1.00  0.00     0.059 A 
ATOM    101  C   UNL     1       0.381   1.621 -20.071  1.00  0.00     0.059 A 
ATOM    102  F   UNL     1      -0.179  -0.116 -18.601  1.00  0.00    -0.206 F 
ATOM    103  C   UNL     1       1.066   2.811 -20.314  1.00  0.00     0.060 A 
BRANCH 103 104
ATOM    104  S   UNL     1       0.961   3.612 -21.928  1.00  0.00     0.124 S 
ATOM    105  O   UNL     1       0.158   4.791 -21.620  1.00  0.00    -0.237 OA
ATOM    106  O   UNL     1       2.364   3.865 -22.242  1.00  0.00    -0.237 OA
ATOM    107  O   UNL     1       0.308   2.609 -22.765  1.00  0.00    -0.744 OA
ENDBRANCH 103 104
ENDBRANCH  71  96
ENDBRANCH  45  46
ENDBRANCH  38  40
ENDBRANCH  37  38
ENDBRANCH  36  37
ENDBRANCH  35  36
ENDBRANCH  34  35
ENDBRANCH   1  34
TORSDOF 23
