REMARK SMILES CS(=O)(=O)c1ccc(C(=O)N2C[C@@H](C(=O)OCCOCCOC(=O)c3ccc(-c4c5nc(c(-c6c(F)cc(S(=O)(=O)[O-])cc6F)c6ccc([nH]6)c(-c6c(F)cc(S(=O)(=O)[O-])cc6F)c6nc(c(-c7c(F)cc(S(=O)(=O)[O-])cc7F)c7ccc4[nH]7)C=C6)C=C5)cc3)[C@H](c3ccncc3)C2)cc1
REMARK SMILES IDX 19 1 18 2 17 3 16 4 14 5 15 6 13 7 11 8 12 9 98 10 91 11
REMARK SMILES IDX 9 12 10 13 8 14 5 15 6 16 100 17 7 18 99 19 2 20 1 21 3 22
REMARK SMILES IDX 4 23 92 24 93 25 97 26 94 27 96 28 95 29 20 30 21 31 22 32
REMARK SMILES IDX 23 33 24 34 25 35 26 36 90 37 27 38 89 39 28 40 29 41 30 42
REMARK SMILES IDX 83 43 31 44 88 45 82 46 84 47 32 48 87 49 81 50 80 51 33 53
REMARK SMILES IDX 67 54 46 55 66 56 47 57 50 58 65 59 85 60 48 61 49 62 64 64
REMARK SMILES IDX 86 65 51 66 34 67 35 68 44 69 36 70 37 71 43 72 45 73 38 74
REMARK SMILES IDX 39 75 40 76 41 77 42 78 68 79 69 80 78 81 70 82 71 83 77 84
REMARK SMILES IDX 79 85 72 86 73 87 74 88 75 89 76 90 52 91 53 92 62 93 54 94
REMARK SMILES IDX 55 95 61 96 63 97 56 98 57 99 58 100 59 101 60 102
REMARK H PARENT 84 52 50 63
REMARK Flexibility Score: inf
ROOT
ATOM      1  O   UNL     1       4.728  -5.399  11.228  1.00  0.00    -0.374 OA
ENDROOT
BRANCH   1   2
ATOM      2  C   UNL     1       3.300  -5.330  11.238  1.00  0.00     0.202 C 
BRANCH   2   3
ATOM      3  C   UNL     1       2.656  -4.320  10.284  1.00  0.00     0.261 C 
BRANCH   3   4
ATOM      4  O   UNL     1       2.752  -4.767   8.915  1.00  0.00    -0.463 OA
BRANCH   4   5
ATOM      5  C   UNL     1       3.507  -4.001   8.091  1.00  0.00     0.311 C 
ATOM      6  O   UNL     1       4.097  -2.982   8.429  1.00  0.00    -0.252 OA
BRANCH   5   7
ATOM      7  C   UNL     1       3.602  -4.548   6.689  1.00  0.00     0.128 C 
ATOM      8  N   UNL     1       2.644  -5.726   4.965  1.00  0.00    -0.337 N 
ATOM      9  C   UNL     1       2.259  -5.061   6.191  1.00  0.00     0.135 C 
ATOM     10  C   UNL     1       3.901  -6.422   5.166  1.00  0.00     0.129 C 
ATOM     11  C   UNL     1       4.570  -5.732   6.398  1.00  0.00     0.055 C 
BRANCH   8  12
ATOM     12  C   UNL     1       2.147  -5.583   3.682  1.00  0.00     0.253 C 
ATOM     13  O   UNL     1       2.320  -6.446   2.823  1.00  0.00    -0.269 OA
BRANCH  12  14
ATOM     14  C   UNL     1       1.546  -4.284   3.256  1.00  0.00     0.040 A 
ATOM     15  C   UNL     1       0.683  -1.838   2.200  1.00  0.00     0.067 A 
ATOM     16  C   UNL     1       0.259  -3.036   1.614  1.00  0.00     0.021 A 
ATOM     17  C   UNL     1       1.521  -1.848   3.309  1.00  0.00     0.021 A 
ATOM     18  C   UNL     1       0.695  -4.258   2.144  1.00  0.00     0.015 A 
ATOM     19  C   UNL     1       1.970  -3.067   3.808  1.00  0.00     0.015 A 
BRANCH  15  20
ATOM     20  S   UNL     1       0.182  -0.280   1.516  1.00  0.00     0.175 S 
ATOM     21  C   UNL     1       1.028  -0.215  -0.040  1.00  0.00     0.163 C 
ATOM     22  O   UNL     1       0.741   0.769   2.350  1.00  0.00    -0.224 OA
ATOM     23  O   UNL     1      -1.241  -0.359   1.263  1.00  0.00    -0.224 OA
ENDBRANCH  15  20
ENDBRANCH  12  14
ENDBRANCH   8  12
BRANCH  11  24
ATOM     24  C   UNL     1       6.040  -5.337   6.234  1.00  0.00    -0.039 A 
ATOM     25  C   UNL     1       6.690  -4.581   7.221  1.00  0.00     0.024 A 
ATOM     26  C   UNL     1       6.836  -5.752   5.158  1.00  0.00     0.024 A 
ATOM     27  C   UNL     1       8.044  -4.286   7.101  1.00  0.00     0.111 A 
ATOM     28  C   UNL     1       8.180  -5.391   5.110  1.00  0.00     0.111 A 
ATOM     29  N   UNL     1       8.804  -4.672   6.060  1.00  0.00    -0.265 NA
ENDBRANCH  11  24
ENDBRANCH   5   7
ENDBRANCH   4   5
ENDBRANCH   3   4
ENDBRANCH   2   3
ENDBRANCH   1   2
BRANCH   1  30
ATOM     30  C   UNL     1       5.337  -6.046  10.117  1.00  0.00     0.202 C 
BRANCH  30  31
ATOM     31  C   UNL     1       5.436  -7.574  10.138  1.00  0.00     0.261 C 
BRANCH  31  32
ATOM     32  O   UNL     1       4.160  -8.197  10.326  1.00  0.00    -0.460 OA
BRANCH  32  33
ATOM     33  C   UNL     1       3.935  -8.580  11.605  1.00  0.00     0.338 C 
ATOM     34  O   UNL     1       4.730  -8.546  12.535  1.00  0.00    -0.246 OA
BRANCH  33  35
ATOM     35  C   UNL     1       2.506  -8.874  11.798  1.00  0.00     0.060 A 
ATOM     36  C   UNL     1       1.880  -8.270  12.895  1.00  0.00     0.016 A 
ATOM     37  C   UNL     1       1.807  -9.752  10.967  1.00  0.00     0.016 A 
ATOM     38  C   UNL     1       0.568  -8.597  13.211  1.00  0.00     0.010 A 
ATOM     39  C   UNL     1       0.489 -10.085  11.291  1.00  0.00     0.010 A 
ATOM     40  C   UNL     1      -0.116  -9.544  12.440  1.00  0.00    -0.014 A 
BRANCH  40  41
ATOM     41  C   UNL     1      -1.396 -10.089  12.946  1.00  0.00     0.031 A 
ATOM     42  C   UNL     1      -1.389 -11.430  13.627  1.00  0.00     0.074 A 
ATOM     43  C   UNL     1      -2.529  -9.372  12.850  1.00  0.00     0.049 A 
ATOM     44  N   UNL     1      -2.386 -12.108  14.132  1.00  0.00    -0.248 NA
ATOM     45  C   UNL     1      -0.082 -12.097  13.755  1.00  0.00     0.031 C 
ATOM     46  C   UNL     1      -2.637  -8.040  12.254  1.00  0.00     0.029 A 
ATOM     47  N   UNL     1      -3.806  -9.665  13.252  1.00  0.00    -0.354 N 
ATOM     48  C   UNL     1      -1.831 -13.282  14.629  1.00  0.00     0.074 A 
ATOM     49  C   UNL     1      -0.415 -13.239  14.336  1.00  0.00     0.031 C 
ATOM     50  C   UNL     1      -3.916  -7.635  12.323  1.00  0.00     0.029 A 
ATOM     51  C   UNL     1      -4.721  -8.691  12.934  1.00  0.00     0.049 A 
ATOM     52  H   UNL     1      -4.045 -10.495  13.725  1.00  0.00     0.167 HD
ATOM     53  C   UNL     1      -2.447 -14.297  15.278  1.00  0.00     0.037 A 
ATOM     54  C   UNL     1      -6.058  -8.668  13.096  1.00  0.00     0.037 A 
ATOM     55  C   UNL     1      -3.858 -14.322  15.565  1.00  0.00     0.049 A 
ATOM     56  C   UNL     1      -6.733  -9.841  13.758  1.00  0.00     0.074 A 
ATOM     57  C   UNL     1      -4.583 -15.294  16.230  1.00  0.00     0.029 A 
ATOM     58  N   UNL     1      -4.759 -13.333  15.195  1.00  0.00    -0.354 N 
ATOM     59  N   UNL     1      -6.195 -10.938  14.240  1.00  0.00    -0.248 NA
ATOM     60  C   UNL     1      -8.193  -9.774  13.904  1.00  0.00     0.031 C 
ATOM     61  C   UNL     1      -5.931 -14.921  16.212  1.00  0.00     0.029 A 
ATOM     62  C   UNL     1      -6.038 -13.685  15.592  1.00  0.00     0.049 A 
ATOM     63  H   UNL     1      -4.523 -12.504  14.720  1.00  0.00     0.167 HD
ATOM     64  C   UNL     1      -7.247 -11.677  14.771  1.00  0.00     0.074 A 
ATOM     65  C   UNL     1      -8.450 -10.897  14.561  1.00  0.00     0.031 C 
ATOM     66  C   UNL     1      -7.222 -12.890  15.379  1.00  0.00     0.037 A 
BRANCH  53  67
ATOM     67  C   UNL     1      -1.608 -15.475  15.694  1.00  0.00     0.058 A 
ATOM     68  C   UNL     1      -0.659 -15.387  16.725  1.00  0.00     0.135 A 
ATOM     69  C   UNL     1      -1.779 -16.722  15.069  1.00  0.00     0.135 A 
ATOM     70  F   UNL     1      -0.439 -14.215  17.343  1.00  0.00    -0.206 F 
ATOM     71  C   UNL     1       0.106 -16.485  17.106  1.00  0.00     0.059 A 
ATOM     72  C   UNL     1      -1.046 -17.840  15.454  1.00  0.00     0.059 A 
ATOM     73  F   UNL     1      -2.668 -16.862  14.074  1.00  0.00    -0.206 F 
ATOM     74  C   UNL     1      -0.096 -17.708  16.465  1.00  0.00     0.060 A 
BRANCH  74  75
ATOM     75  S   UNL     1       0.900 -19.125  16.976  1.00  0.00     0.124 S 
ATOM     76  O   UNL     1       2.213 -18.762  16.451  1.00  0.00    -0.237 OA
ATOM     77  O   UNL     1       0.767 -19.091  18.428  1.00  0.00    -0.237 OA
ATOM     78  O   UNL     1       0.252 -20.253  16.315  1.00  0.00    -0.744 OA
ENDBRANCH  74  75
ENDBRANCH  53  67
BRANCH  54  79
ATOM     79  C   UNL     1      -6.845  -7.504  12.609  1.00  0.00     0.058 A 
ATOM     80  C   UNL     1      -7.486  -6.633  13.502  1.00  0.00     0.135 A 
ATOM     81  C   UNL     1      -6.965  -7.235  11.235  1.00  0.00     0.135 A 
ATOM     82  F   UNL     1      -7.410  -6.852  14.823  1.00  0.00    -0.206 F 
ATOM     83  C   UNL     1      -8.229  -5.546  13.052  1.00  0.00     0.059 A 
ATOM     84  C   UNL     1      -7.678  -6.138  10.763  1.00  0.00     0.059 A 
ATOM     85  F   UNL     1      -6.360  -8.030  10.339  1.00  0.00    -0.206 F 
ATOM     86  C   UNL     1      -8.315  -5.304  11.680  1.00  0.00     0.060 A 
BRANCH  86  87
ATOM     87  S   UNL     1      -9.239  -3.861  11.111  1.00  0.00     0.124 S 
ATOM     88  O   UNL     1     -10.613  -4.267  11.380  1.00  0.00    -0.237 OA
ATOM     89  O   UNL     1      -8.705  -2.804  11.964  1.00  0.00    -0.237 OA
ATOM     90  O   UNL     1      -8.872  -3.764   9.701  1.00  0.00    -0.744 OA
ENDBRANCH  86  87
ENDBRANCH  54  79
BRANCH  66  91
ATOM     91  C   UNL     1      -8.526 -13.434  15.898  1.00  0.00     0.058 A 
ATOM     92  C   UNL     1      -9.527 -13.907  15.035  1.00  0.00     0.135 A 
ATOM     93  C   UNL     1      -8.750 -13.537  17.281  1.00  0.00     0.135 A 
ATOM     94  F   UNL     1      -9.367 -13.826  13.705  1.00  0.00    -0.206 F 
ATOM     95  C   UNL     1     -10.714 -14.442  15.525  1.00  0.00     0.059 A 
ATOM     96  C   UNL     1      -9.915 -14.098  17.793  1.00  0.00     0.059 A 
ATOM     97  F   UNL     1      -7.820 -13.111  18.151  1.00  0.00    -0.206 F 
ATOM     98  C   UNL     1     -10.897 -14.537  16.906  1.00  0.00     0.060 A 
BRANCH  98  99
ATOM     99  S   UNL     1     -12.427 -15.267  17.527  1.00  0.00     0.124 S 
ATOM    100  O   UNL     1     -13.395 -14.216  17.233  1.00  0.00    -0.237 OA
ATOM    101  O   UNL     1     -12.542 -16.480  16.723  1.00  0.00    -0.237 OA
ATOM    102  O   UNL     1     -12.149 -15.485  18.944  1.00  0.00    -0.744 OA
ENDBRANCH  98  99
ENDBRANCH  66  91
ENDBRANCH  40  41
ENDBRANCH  33  35
ENDBRANCH  32  33
ENDBRANCH  31  32
ENDBRANCH  30  31
ENDBRANCH   1  30
TORSDOF 21
